MODEL 1
REMARK VINA RESULT:     -13.2      0.000      0.000
REMARK SMILES O=C(COc1ccccc1/C=N/NC(=O)c1cc(-c2ccc(F)cc2)nc2ccccc12)NCCCCCCNC(=O)c1ccc(-c2c3nc(c(-c4c(F)c(F)c(F)c(F)c4F)c4ccc([nH]4)c(-c4c(F)c(F)c(F)c(F)c4F)c4nc(c(-c5c(F)c(F)c(F)c(F)c5F)c5ccc2[nH]5)C=C4)C=C3)cc1
REMARK SMILES IDX 34 1 33 2 1 3 2 4 3 6 4 7 5 8 6 9 10 10 7 11 9 12 8 13 11 14
REMARK SMILES IDX 12 15 13 16 14 17 15 19 16 20 17 21 32 22 18 23 27 24 31 25
REMARK SMILES IDX 26 26 28 27 30 28 29 29 19 30 20 31 25 32 21 33 24 34 22 35
REMARK SMILES IDX 23 36 35 37 36 38 37 39 38 40 39 41 40 42 41 43 42 45 43 46
REMARK SMILES IDX 44 47 105 48 45 49 104 50 46 51 47 52 48 53 98 54 49 55
REMARK SMILES IDX 103 56 97 57 99 58 50 59 102 60 96 61 95 62 51 64 83 65
REMARK SMILES IDX 63 66 82 67 64 68 67 69 81 70 100 71 65 72 66 73 80 75
REMARK SMILES IDX 101 76 68 77 52 78 53 79 61 80 54 81 55 82 59 83 62 84 56 85
REMARK SMILES IDX 57 86 60 87 58 88 84 89 85 90 93 91 86 92 87 93 91 94 94 95
REMARK SMILES IDX 88 96 89 97 92 98 90 99 69 100 70 101 78 102 71 103 72 104
REMARK SMILES IDX 76 105 79 106 73 107 74 108 77 109 75 110
REMARK H PARENT 33 5 13 18 40 44 99 63 67 74
REMARK Flexibility Score: inf
ROOT
ATOM      1  C   UNL A   1      34.374  31.578  27.508  1.00  0.00     0.116 C 
ENDROOT
BRANCH   1   2
ATOM      2  N   UNL A   1      33.332  30.572  27.531  1.00  0.00    -0.353 N 
ATOM      3  O   UNL A   1      31.510  31.547  26.412  1.00  0.00    -0.271 OA
ATOM      4  C   UNL A   1      32.174  30.592  26.766  1.00  0.00     0.257 C 
ATOM      5  H   UNL A   1      33.455  29.810  28.141  1.00  0.00     0.163 HD
BRANCH   4   6
ATOM      6  C   UNL A   1      31.731  29.254  26.286  1.00  0.00     0.329 C 
BRANCH   6   7
ATOM      7  O   UNL A   1      32.136  29.222  24.932  1.00  0.00    -0.483 OA
BRANCH   7   8
ATOM      8  C   UNL A   1      31.182  28.763  24.059  1.00  0.00     0.128 A 
ATOM      9  C   UNL A   1      30.859  29.801  23.153  1.00  0.00     0.047 A 
ATOM     10  C   UNL A   1      30.360  27.616  24.195  1.00  0.00     0.037 A 
ATOM     11  C   UNL A   1      29.667  29.795  22.449  1.00  0.00     0.004 A 
ATOM     12  C   UNL A   1      29.136  27.664  23.488  1.00  0.00     0.013 A 
ATOM     13  C   UNL A   1      28.788  28.740  22.646  1.00  0.00     0.001 A 
BRANCH  10  14
ATOM     14  C   UNL A   1      30.442  26.422  25.155  1.00  0.00     0.145 C 
ATOM     15  N   UNL A   1      29.547  25.486  25.411  1.00  0.00    -0.180 NA
BRANCH  15  16
ATOM     16  N   UNL A   1      29.856  24.590  26.464  1.00  0.00    -0.243 N 
ATOM     17  C   UNL A   1      30.550  23.340  26.580  1.00  0.00     0.272 C 
ATOM     18  H   UNL A   1      29.507  24.902  27.330  1.00  0.00     0.194 HD
ATOM     19  O   UNL A   1      30.389  22.820  27.699  1.00  0.00    -0.267 OA
BRANCH  17  20
ATOM     20  C   UNL A   1      31.648  22.676  25.712  1.00  0.00     0.053 A 
ATOM     21  C   UNL A   1      31.738  21.339  25.318  1.00  0.00     0.043 A 
ATOM     22  C   UNL A   1      32.841  23.408  25.324  1.00  0.00     0.013 A 
ATOM     23  C   UNL A   1      32.430  21.034  24.142  1.00  0.00     0.072 A 
ATOM     24  C   UNL A   1      33.476  22.970  24.151  1.00  0.00     0.072 A 
ATOM     25  C   UNL A   1      33.593  24.374  26.047  1.00  0.00     0.011 A 
ATOM     26  N   UNL A   1      32.972  22.022  23.424  1.00  0.00    -0.248 NA
ATOM     27  C   UNL A   1      34.767  23.289  23.783  1.00  0.00     0.029 A 
ATOM     28  C   UNL A   1      34.938  24.658  25.711  1.00  0.00     0.001 A 
ATOM     29  C   UNL A   1      35.542  24.077  24.604  1.00  0.00     0.002 A 
BRANCH  23  30
ATOM     30  C   UNL A   1      33.142  19.817  23.680  1.00  0.00     0.000 A 
ATOM     31  C   UNL A   1      32.365  18.969  22.854  1.00  0.00     0.013 A 
ATOM     32  C   UNL A   1      34.041  19.196  24.587  1.00  0.00     0.013 A 
ATOM     33  C   UNL A   1      32.294  17.594  23.107  1.00  0.00     0.040 A 
ATOM     34  C   UNL A   1      33.992  17.811  24.810  1.00  0.00     0.040 A 
ATOM     35  C   UNL A   1      33.081  17.035  24.104  1.00  0.00     0.123 A 
ATOM     36  F   UNL A   1      32.903  15.750  24.443  1.00  0.00    -0.207 F 
ENDBRANCH  23  30
ENDBRANCH  17  20
ENDBRANCH  15  16
ENDBRANCH  10  14
ENDBRANCH   7   8
ENDBRANCH   6   7
ENDBRANCH   4   6
ENDBRANCH   1   2
BRANCH   1  37
ATOM     37  C   UNL A   1      35.016  31.874  28.832  1.00  0.00     0.021 C 
BRANCH  37  38
ATOM     38  C   UNL A   1      34.423  33.082  29.515  1.00  0.00     0.002 C 
BRANCH  38  39
ATOM     39  C   UNL A   1      33.902  34.121  28.524  1.00  0.00     0.002 C 
BRANCH  39  40
ATOM     40  C   UNL A   1      32.769  34.993  29.072  1.00  0.00     0.021 C 
BRANCH  40  41
ATOM     41  C   UNL A   1      33.264  36.256  29.764  1.00  0.00     0.116 C 
BRANCH  41  42
ATOM     42  N   UNL A   1      32.563  36.461  31.024  1.00  0.00    -0.352 N 
ATOM     43  C   UNL A   1      32.699  35.783  32.208  1.00  0.00     0.251 C 
ATOM     44  H   UNL A   1      31.899  37.187  31.025  1.00  0.00     0.163 HD
ATOM     45  O   UNL A   1      31.831  35.826  33.059  1.00  0.00    -0.269 OA
BRANCH  43  46
ATOM     46  C   UNL A   1      33.926  34.993  32.421  1.00  0.00     0.039 A 
ATOM     47  C   UNL A   1      35.162  35.586  32.173  1.00  0.00     0.014 A 
ATOM     48  C   UNL A   1      33.842  33.675  32.882  1.00  0.00     0.014 A 
ATOM     49  C   UNL A   1      36.324  34.865  32.435  1.00  0.00     0.010 A 
ATOM     50  C   UNL A   1      34.999  33.001  33.245  1.00  0.00     0.010 A 
ATOM     51  C   UNL A   1      36.251  33.585  33.011  1.00  0.00    -0.014 A 
BRANCH  51  52
ATOM     52  C   UNL A   1      37.480  32.847  33.385  1.00  0.00     0.031 A 
ATOM     53  C   UNL A   1      38.190  33.161  34.671  1.00  0.00     0.074 A 
ATOM     54  C   UNL A   1      37.976  31.920  32.544  1.00  0.00     0.049 A 
ATOM     55  N   UNL A   1      39.292  32.643  35.150  1.00  0.00    -0.248 NA
ATOM     56  C   UNL A   1      37.598  34.205  35.522  1.00  0.00     0.031 C 
ATOM     57  C   UNL A   1      37.391  31.554  31.252  1.00  0.00     0.029 A 
ATOM     58  N   UNL A   1      39.082  31.115  32.646  1.00  0.00    -0.354 N 
ATOM     59  C   UNL A   1      39.522  33.295  36.353  1.00  0.00     0.074 A 
ATOM     60  C   UNL A   1      38.486  34.294  36.500  1.00  0.00     0.031 C 
ATOM     61  C   UNL A   1      38.117  30.568  30.705  1.00  0.00     0.029 A 
ATOM     62  C   UNL A   1      39.253  30.279  31.571  1.00  0.00     0.049 A 
ATOM     63  H   UNL A   1      39.694  31.136  33.417  1.00  0.00     0.167 HD
ATOM     64  C   UNL A   1      40.495  33.062  37.265  1.00  0.00     0.037 A 
ATOM     65  C   UNL A   1      40.230  29.391  31.304  1.00  0.00     0.037 A 
ATOM     66  C   UNL A   1      41.527  32.073  37.105  1.00  0.00     0.049 A 
ATOM     67  C   UNL A   1      41.343  29.209  32.301  1.00  0.00     0.074 A 
ATOM     68  C   UNL A   1      42.542  31.741  37.985  1.00  0.00     0.029 A 
ATOM     69  N   UNL A   1      41.692  31.270  35.985  1.00  0.00    -0.354 N 
ATOM     70  N   UNL A   1      41.516  29.787  33.465  1.00  0.00    -0.248 NA
ATOM     71  C   UNL A   1      42.396  28.248  31.948  1.00  0.00     0.031 C 
ATOM     72  C   UNL A   1      43.371  30.806  37.363  1.00  0.00     0.029 A 
ATOM     73  C   UNL A   1      42.817  30.475  36.137  1.00  0.00     0.049 A 
ATOM     74  H   UNL A   1      41.098  31.266  35.200  1.00  0.00     0.167 HD
ATOM     75  C   UNL A   1      42.672  29.232  33.999  1.00  0.00     0.074 A 
ATOM     76  C   UNL A   1      43.147  28.259  33.039  1.00  0.00     0.031 C 
ATOM     77  C   UNL A   1      43.280  29.503  35.179  1.00  0.00     0.037 A 
BRANCH  64  78
ATOM     78  C   UNL A   1      40.502  33.904  38.509  1.00  0.00     0.064 A 
ATOM     79  C   UNL A   1      39.749  33.557  39.642  1.00  0.00     0.173 A 
ATOM     80  C   UNL A   1      41.309  35.049  38.586  1.00  0.00     0.173 A 
ATOM     81  F   UNL A   1      38.958  32.473  39.623  1.00  0.00    -0.203 F 
ATOM     82  C   UNL A   1      39.773  34.346  40.788  1.00  0.00     0.198 A 
ATOM     83  C   UNL A   1      41.367  35.809  39.750  1.00  0.00     0.198 A 
ATOM     84  F   UNL A   1      42.059  35.423  37.538  1.00  0.00    -0.203 F 
ATOM     85  F   UNL A   1      38.997  34.029  41.833  1.00  0.00    -0.200 F 
ATOM     86  C   UNL A   1      40.590  35.466  40.845  1.00  0.00     0.200 A 
ATOM     87  F   UNL A   1      42.178  36.875  39.812  1.00  0.00    -0.200 F 
ATOM     88  F   UNL A   1      40.624  36.216  41.955  1.00  0.00    -0.200 F 
ENDBRANCH  64  78
BRANCH  65  89
ATOM     89  C   UNL A   1      40.202  28.604  30.042  1.00  0.00     0.064 A 
ATOM     90  C   UNL A   1      39.506  27.390  29.962  1.00  0.00     0.173 A 
ATOM     91  C   UNL A   1      40.895  29.032  28.900  1.00  0.00     0.173 A 
ATOM     92  F   UNL A   1      38.838  26.929  31.031  1.00  0.00    -0.203 F 
ATOM     93  C   UNL A   1      39.537  26.616  28.805  1.00  0.00     0.198 A 
ATOM     94  C   UNL A   1      40.889  28.280  27.728  1.00  0.00     0.198 A 
ATOM     95  F   UNL A   1      41.573  30.189  28.917  1.00  0.00    -0.203 F 
ATOM     96  F   UNL A   1      38.925  25.425  28.782  1.00  0.00    -0.200 F 
ATOM     97  C   UNL A   1      40.223  27.065  27.687  1.00  0.00     0.200 A 
ATOM     98  F   UNL A   1      41.533  28.729  26.642  1.00  0.00    -0.200 F 
ATOM     99  F   UNL A   1      40.253  26.321  26.573  1.00  0.00    -0.200 F 
ENDBRANCH  65  89
BRANCH  77 100
ATOM    100  C   UNL A   1      44.501  28.699  35.535  1.00  0.00     0.064 A 
ATOM    101  C   UNL A   1      44.419  27.483  36.228  1.00  0.00     0.173 A 
ATOM    102  C   UNL A   1      45.774  29.138  35.135  1.00  0.00     0.173 A 
ATOM    103  F   UNL A   1      43.229  27.017  36.640  1.00  0.00    -0.203 F 
ATOM    104  C   UNL A   1      45.567  26.760  36.544  1.00  0.00     0.198 A 
ATOM    105  C   UNL A   1      46.913  28.387  35.408  1.00  0.00     0.198 A 
ATOM    106  F   UNL A   1      45.913  30.288  34.457  1.00  0.00    -0.203 F 
ATOM    107  F   UNL A   1      45.469  25.637  37.270  1.00  0.00    -0.200 F 
ATOM    108  C   UNL A   1      46.810  27.206  36.125  1.00  0.00     0.200 A 
ATOM    109  F   UNL A   1      48.110  28.808  34.976  1.00  0.00    -0.200 F 
ATOM    110  F   UNL A   1      47.911  26.502  36.419  1.00  0.00    -0.200 F 
ENDBRANCH  77 100
ENDBRANCH  51  52
ENDBRANCH  43  46
ENDBRANCH  41  42
ENDBRANCH  40  41
ENDBRANCH  39  40
ENDBRANCH  38  39
ENDBRANCH  37  38
ENDBRANCH   1  37
TORSDOF 19
ENDMDL
MODEL 2
REMARK VINA RESULT:     -12.4      1.293      2.757
REMARK SMILES O=C(COc1ccccc1/C=N/NC(=O)c1cc(-c2ccc(F)cc2)nc2ccccc12)NCCCCCCNC(=O)c1ccc(-c2c3nc(c(-c4c(F)c(F)c(F)c(F)c4F)c4ccc([nH]4)c(-c4c(F)c(F)c(F)c(F)c4F)c4nc(c(-c5c(F)c(F)c(F)c(F)c5F)c5ccc2[nH]5)C=C4)C=C3)cc1
REMARK SMILES IDX 34 1 33 2 1 3 2 4 3 6 4 7 5 8 6 9 10 10 7 11 9 12 8 13 11 14
REMARK SMILES IDX 12 15 13 16 14 17 15 19 16 20 17 21 32 22 18 23 27 24 31 25
REMARK SMILES IDX 26 26 28 27 30 28 29 29 19 30 20 31 25 32 21 33 24 34 22 35
REMARK SMILES IDX 23 36 35 37 36 38 37 39 38 40 39 41 40 42 41 43 42 45 43 46
REMARK SMILES IDX 44 47 105 48 45 49 104 50 46 51 47 52 48 53 98 54 49 55
REMARK SMILES IDX 103 56 97 57 99 58 50 59 102 60 96 61 95 62 51 64 83 65
REMARK SMILES IDX 63 66 82 67 64 68 67 69 81 70 100 71 65 72 66 73 80 75
REMARK SMILES IDX 101 76 68 77 52 78 53 79 61 80 54 81 55 82 59 83 62 84 56 85
REMARK SMILES IDX 57 86 60 87 58 88 84 89 85 90 93 91 86 92 87 93 91 94 94 95
REMARK SMILES IDX 88 96 89 97 92 98 90 99 69 100 70 101 78 102 71 103 72 104
REMARK SMILES IDX 76 105 79 106 73 107 74 108 77 109 75 110
REMARK H PARENT 33 5 13 18 40 44 99 63 67 74
REMARK Flexibility Score: inf
ROOT
ATOM      1  C   UNL A   1      34.572  31.527  27.576  1.00  0.00     0.116 C 
ENDROOT
BRANCH   1   2
ATOM      2  N   UNL A   1      33.475  30.583  27.642  1.00  0.00    -0.353 N 
ATOM      3  O   UNL A   1      31.648  31.693  26.666  1.00  0.00    -0.271 OA
ATOM      4  C   UNL A   1      32.275  30.692  26.954  1.00  0.00     0.257 C 
ATOM      5  H   UNL A   1      33.591  29.799  28.224  1.00  0.00     0.163 HD
BRANCH   4   6
ATOM      6  C   UNL A   1      31.723  29.396  26.471  1.00  0.00     0.329 C 
BRANCH   6   7
ATOM      7  O   UNL A   1      32.273  29.248  25.177  1.00  0.00    -0.483 OA
BRANCH   7   8
ATOM      8  C   UNL A   1      31.436  28.658  24.263  1.00  0.00     0.128 A 
ATOM      9  C   UNL A   1      31.051  29.628  23.307  1.00  0.00     0.047 A 
ATOM     10  C   UNL A   1      30.747  27.425  24.386  1.00  0.00     0.037 A 
ATOM     11  C   UNL A   1      29.915  29.463  22.534  1.00  0.00     0.004 A 
ATOM     12  C   UNL A   1      29.574  27.309  23.605  1.00  0.00     0.013 A 
ATOM     13  C   UNL A   1      29.155  28.316  22.710  1.00  0.00     0.001 A 
BRANCH  10  14
ATOM     14  C   UNL A   1      30.907  26.273  25.386  1.00  0.00     0.145 C 
ATOM     15  N   UNL A   1      30.443  25.039  25.328  1.00  0.00    -0.180 NA
BRANCH  15  16
ATOM     16  N   UNL A   1      30.634  24.238  26.482  1.00  0.00    -0.243 N 
ATOM     17  C   UNL A   1      31.462  23.121  26.833  1.00  0.00     0.272 C 
ATOM     18  H   UNL A   1      30.054  24.519  27.227  1.00  0.00     0.194 HD
ATOM     19  O   UNL A   1      31.129  22.619  27.922  1.00  0.00    -0.267 OA
BRANCH  17  20
ATOM     20  C   UNL A   1      32.815  22.614  26.276  1.00  0.00     0.053 A 
ATOM     21  C   UNL A   1      34.006  23.330  26.137  1.00  0.00     0.043 A 
ATOM     22  C   UNL A   1      32.932  21.298  25.674  1.00  0.00     0.013 A 
ATOM     23  C   UNL A   1      35.214  22.626  26.153  1.00  0.00     0.072 A 
ATOM     24  C   UNL A   1      34.211  20.719  25.707  1.00  0.00     0.072 A 
ATOM     25  C   UNL A   1      32.005  20.576  24.872  1.00  0.00     0.011 A 
ATOM     26  N   UNL A   1      35.200  21.299  26.312  1.00  0.00    -0.248 NA
ATOM     27  C   UNL A   1      34.619  19.657  24.926  1.00  0.00     0.029 A 
ATOM     28  C   UNL A   1      32.430  19.526  24.024  1.00  0.00     0.001 A 
ATOM     29  C   UNL A   1      33.751  19.098  24.016  1.00  0.00     0.002 A 
BRANCH  23  30
ATOM     30  C   UNL A   1      36.551  22.906  25.571  1.00  0.00     0.000 A 
ATOM     31  C   UNL A   1      37.312  21.747  25.284  1.00  0.00     0.013 A 
ATOM     32  C   UNL A   1      37.252  24.043  26.051  1.00  0.00     0.013 A 
ATOM     33  C   UNL A   1      38.644  21.645  25.703  1.00  0.00     0.040 A 
ATOM     34  C   UNL A   1      38.599  23.945  26.436  1.00  0.00     0.040 A 
ATOM     35  C   UNL A   1      39.262  22.732  26.306  1.00  0.00     0.123 A 
ATOM     36  F   UNL A   1      40.484  22.584  26.840  1.00  0.00    -0.207 F 
ENDBRANCH  23  30
ENDBRANCH  17  20
ENDBRANCH  15  16
ENDBRANCH  10  14
ENDBRANCH   7   8
ENDBRANCH   6   7
ENDBRANCH   4   6
ENDBRANCH   1   2
BRANCH   1  37
ATOM     37  C   UNL A   1      35.234  31.841  28.887  1.00  0.00     0.021 C 
BRANCH  37  38
ATOM     38  C   UNL A   1      34.657  33.063  29.558  1.00  0.00     0.002 C 
BRANCH  38  39
ATOM     39  C   UNL A   1      34.009  34.028  28.566  1.00  0.00     0.002 C 
BRANCH  39  40
ATOM     40  C   UNL A   1      32.837  34.825  29.146  1.00  0.00     0.021 C 
BRANCH  40  41
ATOM     41  C   UNL A   1      33.262  36.146  29.775  1.00  0.00     0.116 C 
BRANCH  41  42
ATOM     42  N   UNL A   1      32.547  36.375  31.022  1.00  0.00    -0.352 N 
ATOM     43  C   UNL A   1      32.685  35.735  32.228  1.00  0.00     0.251 C 
ATOM     44  H   UNL A   1      31.869  37.088  30.997  1.00  0.00     0.163 HD
ATOM     45  O   UNL A   1      31.809  35.787  33.069  1.00  0.00    -0.269 OA
BRANCH  43  46
ATOM     46  C   UNL A   1      33.925  34.975  32.474  1.00  0.00     0.039 A 
ATOM     47  C   UNL A   1      35.152  35.587  32.225  1.00  0.00     0.014 A 
ATOM     48  C   UNL A   1      33.862  33.668  32.967  1.00  0.00     0.014 A 
ATOM     49  C   UNL A   1      36.324  34.897  32.518  1.00  0.00     0.010 A 
ATOM     50  C   UNL A   1      35.027  33.027  33.359  1.00  0.00     0.010 A 
ATOM     51  C   UNL A   1      36.271  33.629  33.125  1.00  0.00    -0.014 A 
BRANCH  51  52
ATOM     52  C   UNL A   1      37.510  32.926  33.531  1.00  0.00     0.031 A 
ATOM     53  C   UNL A   1      38.171  33.251  34.840  1.00  0.00     0.074 A 
ATOM     54  C   UNL A   1      38.058  32.021  32.699  1.00  0.00     0.049 A 
ATOM     55  N   UNL A   1      39.273  32.763  35.348  1.00  0.00    -0.248 NA
ATOM     56  C   UNL A   1      37.522  34.271  35.679  1.00  0.00     0.031 C 
ATOM     57  C   UNL A   1      37.523  31.647  31.388  1.00  0.00     0.029 A 
ATOM     58  N   UNL A   1      39.185  31.249  32.829  1.00  0.00    -0.354 N 
ATOM     59  C   UNL A   1      39.446  33.413  36.562  1.00  0.00     0.074 A 
ATOM     60  C   UNL A   1      38.377  34.379  36.684  1.00  0.00     0.031 C 
ATOM     61  C   UNL A   1      38.295  30.688  30.856  1.00  0.00     0.029 A 
ATOM     62  C   UNL A   1      39.413  30.426  31.754  1.00  0.00     0.049 A 
ATOM     63  H   UNL A   1      39.772  31.282  33.618  1.00  0.00     0.167 HD
ATOM     64  C   UNL A   1      40.398  33.202  37.501  1.00  0.00     0.037 A 
ATOM     65  C   UNL A   1      40.424  29.570  31.511  1.00  0.00     0.037 A 
ATOM     66  C   UNL A   1      41.465  32.245  37.366  1.00  0.00     0.049 A 
ATOM     67  C   UNL A   1      41.511  29.414  32.540  1.00  0.00     0.074 A 
ATOM     68  C   UNL A   1      42.462  31.938  38.275  1.00  0.00     0.029 A 
ATOM     69  N   UNL A   1      41.687  31.457  36.247  1.00  0.00    -0.354 N 
ATOM     70  N   UNL A   1      41.632  29.988  33.713  1.00  0.00    -0.248 NA
ATOM     71  C   UNL A   1      42.603  28.488  32.213  1.00  0.00     0.031 C 
ATOM     72  C   UNL A   1      43.337  31.032  37.672  1.00  0.00     0.029 A 
ATOM     73  C   UNL A   1      42.831  30.694  36.427  1.00  0.00     0.049 A 
ATOM     74  H   UNL A   1      41.117  31.441  35.444  1.00  0.00     0.167 HD
ATOM     75  C   UNL A   1      42.787  29.464  34.278  1.00  0.00     0.074 A 
ATOM     76  C   UNL A   1      43.320  28.513  33.326  1.00  0.00     0.031 C 
ATOM     77  C   UNL A   1      43.352  29.744  35.478  1.00  0.00     0.037 A 
BRANCH  64  78
ATOM     78  C   UNL A   1      40.343  34.034  38.751  1.00  0.00     0.064 A 
ATOM     79  C   UNL A   1      39.515  33.692  39.832  1.00  0.00     0.173 A 
ATOM     80  C   UNL A   1      41.164  35.164  38.888  1.00  0.00     0.173 A 
ATOM     81  F   UNL A   1      38.707  32.624  39.754  1.00  0.00    -0.203 F 
ATOM     82  C   UNL A   1      39.481  34.472  40.984  1.00  0.00     0.198 A 
ATOM     83  C   UNL A   1      41.162  35.914  40.060  1.00  0.00     0.198 A 
ATOM     84  F   UNL A   1      41.984  35.532  37.892  1.00  0.00    -0.203 F 
ATOM     85  F   UNL A   1      38.636  34.162  41.976  1.00  0.00    -0.200 F 
ATOM     86  C   UNL A   1      40.313  35.577  41.101  1.00  0.00     0.200 A 
ATOM     87  F   UNL A   1      41.986  36.964  40.181  1.00  0.00    -0.200 F 
ATOM     88  F   UNL A   1      40.291  36.318  42.217  1.00  0.00    -0.200 F 
ENDBRANCH  64  78
BRANCH  65  89
ATOM     89  C   UNL A   1      40.457  28.792  30.244  1.00  0.00     0.064 A 
ATOM     90  C   UNL A   1      41.203  29.236  29.143  1.00  0.00     0.173 A 
ATOM     91  C   UNL A   1      39.720  27.608  30.095  1.00  0.00     0.173 A 
ATOM     92  F   UNL A   1      41.914  30.370  29.229  1.00  0.00    -0.203 F 
ATOM     93  C   UNL A   1      41.178  28.549  27.932  1.00  0.00     0.198 A 
ATOM     94  C   UNL A   1      39.732  26.897  28.898  1.00  0.00     0.198 A 
ATOM     95  F   UNL A   1      38.993  27.133  31.117  1.00  0.00    -0.203 F 
ATOM     96  F   UNL A   1      41.841  29.036  26.875  1.00  0.00    -0.200 F 
ATOM     97  C   UNL A   1      40.449  27.376  27.812  1.00  0.00     0.200 A 
ATOM     98  F   UNL A   1      39.045  25.751  28.794  1.00  0.00    -0.200 F 
ATOM     99  F   UNL A   1      40.425  26.714  26.647  1.00  0.00    -0.200 F 
ENDBRANCH  65  89
BRANCH  77 100
ATOM    100  C   UNL A   1      44.585  28.974  35.864  1.00  0.00     0.064 A 
ATOM    101  C   UNL A   1      45.876  29.446  35.587  1.00  0.00     0.173 A 
ATOM    102  C   UNL A   1      44.468  27.761  36.562  1.00  0.00     0.173 A 
ATOM    103  F   UNL A   1      46.049  30.597  34.918  1.00  0.00    -0.203 F 
ATOM    104  C   UNL A   1      47.001  28.711  35.957  1.00  0.00     0.198 A 
ATOM    105  C   UNL A   1      45.594  27.056  36.973  1.00  0.00     0.198 A 
ATOM    106  F   UNL A   1      43.258  27.267  36.865  1.00  0.00    -0.203 F 
ATOM    107  F   UNL A   1      48.223  29.147  35.618  1.00  0.00    -0.200 F 
ATOM    108  C   UNL A   1      46.860  27.525  36.658  1.00  0.00     0.200 A 
ATOM    109  F   UNL A   1      45.454  25.924  37.676  1.00  0.00    -0.200 F 
ATOM    110  F   UNL A   1      47.944  26.827  37.023  1.00  0.00    -0.200 F 
ENDBRANCH  77 100
ENDBRANCH  51  52
ENDBRANCH  43  46
ENDBRANCH  41  42
ENDBRANCH  40  41
ENDBRANCH  39  40
ENDBRANCH  38  39
ENDBRANCH  37  38
ENDBRANCH   1  37
TORSDOF 19
ENDMDL
MODEL 3
REMARK VINA RESULT:     -12.4      3.382     10.031
REMARK SMILES O=C(COc1ccccc1/C=N/NC(=O)c1cc(-c2ccc(F)cc2)nc2ccccc12)NCCCCCCNC(=O)c1ccc(-c2c3nc(c(-c4c(F)c(F)c(F)c(F)c4F)c4ccc([nH]4)c(-c4c(F)c(F)c(F)c(F)c4F)c4nc(c(-c5c(F)c(F)c(F)c(F)c5F)c5ccc2[nH]5)C=C4)C=C3)cc1
REMARK SMILES IDX 34 1 33 2 1 3 2 4 3 6 4 7 5 8 6 9 10 10 7 11 9 12 8 13 11 14
REMARK SMILES IDX 12 15 13 16 14 17 15 19 16 20 17 21 32 22 18 23 27 24 31 25
REMARK SMILES IDX 26 26 28 27 30 28 29 29 19 30 20 31 25 32 21 33 24 34 22 35
REMARK SMILES IDX 23 36 35 37 36 38 37 39 38 40 39 41 40 42 41 43 42 45 43 46
REMARK SMILES IDX 44 47 105 48 45 49 104 50 46 51 47 52 48 53 98 54 49 55
REMARK SMILES IDX 103 56 97 57 99 58 50 59 102 60 96 61 95 62 51 64 83 65
REMARK SMILES IDX 63 66 82 67 64 68 67 69 81 70 100 71 65 72 66 73 80 75
REMARK SMILES IDX 101 76 68 77 52 78 53 79 61 80 54 81 55 82 59 83 62 84 56 85
REMARK SMILES IDX 57 86 60 87 58 88 84 89 85 90 93 91 86 92 87 93 91 94 94 95
REMARK SMILES IDX 88 96 89 97 92 98 90 99 69 100 70 101 78 102 71 103 72 104
REMARK SMILES IDX 76 105 79 106 73 107 74 108 77 109 75 110
REMARK H PARENT 33 5 13 18 40 44 99 63 67 74
REMARK Flexibility Score: inf
ROOT
ATOM      1  C   UNL A   1      38.601  23.882  26.467  1.00  0.00     0.116 C 
ENDROOT
BRANCH   1   2
ATOM      2  N   UNL A   1      37.215  23.461  26.504  1.00  0.00    -0.353 N 
ATOM      3  O   UNL A   1      36.693  22.868  24.290  1.00  0.00    -0.271 OA
ATOM      4  C   UNL A   1      36.554  22.776  25.495  1.00  0.00     0.257 C 
ATOM      5  H   UNL A   1      36.700  23.680  27.312  1.00  0.00     0.163 HD
BRANCH   4   6
ATOM      6  C   UNL A   1      35.579  21.759  25.978  1.00  0.00     0.329 C 
BRANCH   6   7
ATOM      7  O   UNL A   1      35.190  21.070  24.807  1.00  0.00    -0.483 OA
BRANCH   7   8
ATOM      8  C   UNL A   1      34.567  19.868  25.030  1.00  0.00     0.128 A 
ATOM      9  C   UNL A   1      35.353  18.837  24.463  1.00  0.00     0.047 A 
ATOM     10  C   UNL A   1      33.220  19.646  25.415  1.00  0.00     0.037 A 
ATOM     11  C   UNL A   1      34.805  17.604  24.154  1.00  0.00     0.004 A 
ATOM     12  C   UNL A   1      32.688  18.387  25.051  1.00  0.00     0.013 A 
ATOM     13  C   UNL A   1      33.460  17.392  24.416  1.00  0.00     0.001 A 
BRANCH  10  14
ATOM     14  C   UNL A   1      32.151  20.606  25.953  1.00  0.00     0.145 C 
ATOM     15  N   UNL A   1      31.456  21.531  25.318  1.00  0.00    -0.180 NA
BRANCH  15  16
ATOM     16  N   UNL A   1      30.640  22.367  26.119  1.00  0.00    -0.243 N 
ATOM     17  C   UNL A   1      30.427  23.780  26.248  1.00  0.00     0.272 C 
ATOM     18  H   UNL A   1      30.080  21.849  26.743  1.00  0.00     0.194 HD
ATOM     19  O   UNL A   1      29.742  24.059  27.248  1.00  0.00    -0.267 OA
BRANCH  17  20
ATOM     20  C   UNL A   1      30.639  24.956  25.264  1.00  0.00     0.053 A 
ATOM     21  C   UNL A   1      29.678  25.832  24.753  1.00  0.00     0.043 A 
ATOM     22  C   UNL A   1      31.926  25.179  24.628  1.00  0.00     0.013 A 
ATOM     23  C   UNL A   1      30.083  27.109  24.353  1.00  0.00     0.072 A 
ATOM     24  C   UNL A   1      32.192  26.497  24.224  1.00  0.00     0.072 A 
ATOM     25  C   UNL A   1      32.889  24.241  24.163  1.00  0.00     0.011 A 
ATOM     26  N   UNL A   1      31.365  27.462  24.480  1.00  0.00    -0.248 NA
ATOM     27  C   UNL A   1      33.176  26.868  23.329  1.00  0.00     0.029 A 
ATOM     28  C   UNL A   1      33.860  24.601  23.200  1.00  0.00     0.001 A 
ATOM     29  C   UNL A   1      33.972  25.909  22.746  1.00  0.00     0.002 A 
BRANCH  23  30
ATOM     30  C   UNL A   1      29.536  28.076  23.368  1.00  0.00     0.000 A 
ATOM     31  C   UNL A   1      30.138  29.357  23.418  1.00  0.00     0.013 A 
ATOM     32  C   UNL A   1      28.145  28.020  23.094  1.00  0.00     0.013 A 
ATOM     33  C   UNL A   1      29.351  30.515  23.460  1.00  0.00     0.040 A 
ATOM     34  C   UNL A   1      27.366  29.189  23.100  1.00  0.00     0.040 A 
ATOM     35  C   UNL A   1      27.972  30.416  23.336  1.00  0.00     0.123 A 
ATOM     36  F   UNL A   1      27.213  31.505  23.525  1.00  0.00    -0.207 F 
ENDBRANCH  23  30
ENDBRANCH  17  20
ENDBRANCH  15  16
ENDBRANCH  10  14
ENDBRANCH   7   8
ENDBRANCH   6   7
ENDBRANCH   4   6
ENDBRANCH   1   2
BRANCH   1  37
ATOM     37  C   UNL A   1      38.967  24.984  27.420  1.00  0.00     0.021 C 
BRANCH  37  38
ATOM     38  C   UNL A   1      40.458  25.170  27.556  1.00  0.00     0.002 C 
BRANCH  38  39
ATOM     39  C   UNL A   1      41.087  25.804  26.316  1.00  0.00     0.002 C 
BRANCH  39  40
ATOM     40  C   UNL A   1      41.945  24.841  25.491  1.00  0.00     0.021 C 
BRANCH  40  41
ATOM     41  C   UNL A   1      43.234  25.473  24.979  1.00  0.00     0.116 C 
BRANCH  41  42
ATOM     42  N   UNL A   1      44.387  24.670  25.361  1.00  0.00    -0.352 N 
ATOM     43  C   UNL A   1      45.218  24.811  26.443  1.00  0.00     0.251 C 
ATOM     44  H   UNL A   1      44.599  23.921  24.758  1.00  0.00     0.163 HD
ATOM     45  O   UNL A   1      46.319  24.297  26.458  1.00  0.00    -0.269 OA
BRANCH  43  46
ATOM     46  C   UNL A   1      44.740  25.609  27.588  1.00  0.00     0.039 A 
ATOM     47  C   UNL A   1      45.004  26.977  27.613  1.00  0.00     0.014 A 
ATOM     48  C   UNL A   1      44.018  24.998  28.618  1.00  0.00     0.014 A 
ATOM     49  C   UNL A   1      44.498  27.744  28.659  1.00  0.00     0.010 A 
ATOM     50  C   UNL A   1      43.425  25.781  29.596  1.00  0.00     0.010 A 
ATOM     51  C   UNL A   1      43.671  27.160  29.634  1.00  0.00    -0.014 A 
BRANCH  51  52
ATOM     52  C   UNL A   1      43.048  27.983  30.696  1.00  0.00     0.031 A 
ATOM     53  C   UNL A   1      41.743  28.683  30.444  1.00  0.00     0.074 A 
ATOM     54  C   UNL A   1      43.680  28.129  31.876  1.00  0.00     0.049 A 
ATOM     55  N   UNL A   1      41.063  29.468  31.240  1.00  0.00    -0.248 NA
ATOM     56  C   UNL A   1      41.129  28.493  29.119  1.00  0.00     0.031 C 
ATOM     57  C   UNL A   1      44.967  27.524  32.223  1.00  0.00     0.029 A 
ATOM     58  N   UNL A   1      43.328  28.829  33.002  1.00  0.00    -0.354 N 
ATOM     59  C   UNL A   1      39.947  29.862  30.515  1.00  0.00     0.074 A 
ATOM     60  C   UNL A   1      40.073  29.288  29.194  1.00  0.00     0.031 C 
ATOM     61  C   UNL A   1      45.274  27.842  33.489  1.00  0.00     0.029 A 
ATOM     62  C   UNL A   1      44.243  28.725  34.021  1.00  0.00     0.049 A 
ATOM     63  H   UNL A   1      42.499  29.355  33.072  1.00  0.00     0.167 HD
ATOM     64  C   UNL A   1      38.899  30.614  30.925  1.00  0.00     0.037 A 
ATOM     65  C   UNL A   1      44.258  29.296  35.240  1.00  0.00     0.037 A 
ATOM     66  C   UNL A   1      38.787  31.190  32.239  1.00  0.00     0.049 A 
ATOM     67  C   UNL A   1      43.116  30.191  35.641  1.00  0.00     0.074 A 
ATOM     68  C   UNL A   1      37.750  31.944  32.761  1.00  0.00     0.029 A 
ATOM     69  N   UNL A   1      39.751  31.096  33.233  1.00  0.00    -0.354 N 
ATOM     70  N   UNL A   1      42.034  30.506  34.970  1.00  0.00    -0.248 NA
ATOM     71  C   UNL A   1      43.196  30.808  36.971  1.00  0.00     0.031 C 
ATOM     72  C   UNL A   1      38.125  32.380  34.033  1.00  0.00     0.029 A 
ATOM     73  C   UNL A   1      39.350  31.814  34.348  1.00  0.00     0.049 A 
ATOM     74  H   UNL A   1      40.594  30.593  33.156  1.00  0.00     0.167 HD
ATOM     75  C   UNL A   1      41.289  31.323  35.810  1.00  0.00     0.074 A 
ATOM     76  C   UNL A   1      42.034  31.440  37.045  1.00  0.00     0.031 C 
ATOM     77  C   UNL A   1      40.094  31.919  35.578  1.00  0.00     0.037 A 
BRANCH  64  78
ATOM     78  C   UNL A   1      37.796  30.874  29.938  1.00  0.00     0.064 A 
ATOM     79  C   UNL A   1      37.677  32.102  29.268  1.00  0.00     0.173 A 
ATOM     80  C   UNL A   1      36.874  29.865  29.624  1.00  0.00     0.173 A 
ATOM     81  F   UNL A   1      38.530  33.103  29.533  1.00  0.00    -0.203 F 
ATOM     82  C   UNL A   1      36.652  32.322  28.353  1.00  0.00     0.198 A 
ATOM     83  C   UNL A   1      35.879  30.072  28.673  1.00  0.00     0.198 A 
ATOM     84  F   UNL A   1      36.946  28.667  30.225  1.00  0.00    -0.203 F 
ATOM     85  F   UNL A   1      36.520  33.523  27.774  1.00  0.00    -0.200 F 
ATOM     86  C   UNL A   1      35.760  31.304  28.048  1.00  0.00     0.200 A 
ATOM     87  F   UNL A   1      35.036  29.078  28.360  1.00  0.00    -0.200 F 
ATOM     88  F   UNL A   1      34.783  31.512  27.155  1.00  0.00    -0.200 F 
ENDBRANCH  64  78
BRANCH  65  89
ATOM     89  C   UNL A   1      45.388  29.039  36.173  1.00  0.00     0.064 A 
ATOM     90  C   UNL A   1      46.556  29.812  36.124  1.00  0.00     0.173 A 
ATOM     91  C   UNL A   1      45.338  27.995  37.110  1.00  0.00     0.173 A 
ATOM     92  F   UNL A   1      46.660  30.813  35.236  1.00  0.00    -0.203 F 
ATOM     93  C   UNL A   1      47.643  29.528  36.946  1.00  0.00     0.198 A 
ATOM     94  C   UNL A   1      46.408  27.740  37.963  1.00  0.00     0.198 A 
ATOM     95  F   UNL A   1      44.243  27.227  37.205  1.00  0.00    -0.203 F 
ATOM     96  F   UNL A   1      48.774  30.236  36.826  1.00  0.00    -0.200 F 
ATOM     97  C   UNL A   1      47.566  28.497  37.870  1.00  0.00     0.200 A 
ATOM     98  F   UNL A   1      46.320  26.758  38.870  1.00  0.00    -0.200 F 
ATOM     99  F   UNL A   1      48.612  28.223  38.661  1.00  0.00    -0.200 F 
ENDBRANCH  65  89
BRANCH  77 100
ATOM    100  C   UNL A   1      39.480  32.711  36.700  1.00  0.00     0.064 A 
ATOM    101  C   UNL A   1      38.460  32.190  37.509  1.00  0.00     0.173 A 
ATOM    102  C   UNL A   1      39.954  34.000  36.994  1.00  0.00     0.173 A 
ATOM    103  F   UNL A   1      37.964  30.966  37.271  1.00  0.00    -0.203 F 
ATOM    104  C   UNL A   1      37.909  32.946  38.542  1.00  0.00     0.198 A 
ATOM    105  C   UNL A   1      39.436  34.731  38.058  1.00  0.00     0.198 A 
ATOM    106  F   UNL A   1      40.937  34.544  36.262  1.00  0.00    -0.203 F 
ATOM    107  F   UNL A   1      36.887  32.455  39.256  1.00  0.00    -0.200 F 
ATOM    108  C   UNL A   1      38.405  34.210  38.822  1.00  0.00     0.200 A 
ATOM    109  F   UNL A   1      39.938  35.940  38.344  1.00  0.00    -0.200 F 
ATOM    110  F   UNL A   1      37.882  34.929  39.824  1.00  0.00    -0.200 F 
ENDBRANCH  77 100
ENDBRANCH  51  52
ENDBRANCH  43  46
ENDBRANCH  41  42
ENDBRANCH  40  41
ENDBRANCH  39  40
ENDBRANCH  38  39
ENDBRANCH  37  38
ENDBRANCH   1  37
TORSDOF 19
ENDMDL
