MODEL 1
REMARK VINA RESULT:     -12.0      0.000      0.000
REMARK SMILES C[NH2+][C@]1(C(=O)NCCCCCCNC(=O)c2ccc(-c3c4nc(c(-c5c(F)c(F)c(F)c(F)c5F)c5ccc([nH]5)c(-c5c(F)c(F)c(F)c(F)c5F)c5nc(c(-c6c(F)c(F)c(F)c(F)c6F)c6ccc3[nH]6)C=C5)C=C4)cc2)CCC[C@@H]1CCn1nc(C)c(Cl)c1C
REMARK SMILES IDX 9 1 8 2 7 3 6 4 4 5 5 6 3 8 79 9 82 10 80 11 81 12 2 13 1 14
REMARK SMILES IDX 83 17 84 18 85 19 86 20 91 21 87 22 89 23 92 24 88 25 90 26
REMARK SMILES IDX 10 27 11 28 12 29 13 30 14 31 15 33 16 34 17 35 78 36 18 37
REMARK SMILES IDX 77 38 19 39 20 40 21 41 71 42 22 43 76 44 70 45 72 46 23 47
REMARK SMILES IDX 75 48 69 49 68 50 24 52 56 53 36 54 55 55 37 56 40 57 54 58
REMARK SMILES IDX 73 59 38 60 39 61 53 63 74 64 41 65 25 66 26 67 34 68 27 69
REMARK SMILES IDX 28 70 32 71 35 72 29 73 30 74 33 75 31 76 57 77 58 78 66 79
REMARK SMILES IDX 59 80 60 81 64 82 67 83 61 84 62 85 65 86 63 87 42 88 43 89
REMARK SMILES IDX 51 90 44 91 45 92 49 93 52 94 46 95 47 96 50 97 48 98
REMARK H PARENT 6 7 2 15 2 16 13 32 72 51 40 62
REMARK Flexibility Score: inf
ROOT
ATOM      1  C   UNL A   1      32.720  30.158  26.830  1.00  0.00     0.002 C 
ENDROOT
BRANCH   1   2
ATOM      2  C   UNL A   1      32.447  28.774  27.427  1.00  0.00     0.021 C 
BRANCH   2   3
ATOM      3  C   UNL A   1      32.663  27.640  26.433  1.00  0.00     0.116 C 
BRANCH   3   4
ATOM      4  N   UNL A   1      31.399  27.204  25.876  1.00  0.00    -0.351 N 
ATOM      5  C   UNL A   1      30.887  27.215  24.619  1.00  0.00     0.281 C 
ATOM      6  O   UNL A   1      29.740  26.762  24.508  1.00  0.00    -0.268 OA
ATOM      7  H   UNL A   1      30.787  26.820  26.544  1.00  0.00     0.163 HD
BRANCH   5   8
ATOM      8  C   UNL A   1      31.713  27.640  23.358  1.00  0.00     0.178 C 
ATOM      9  C   UNL A   1      32.695  28.816  23.518  1.00  0.00     0.079 C 
ATOM     10  C   UNL A   1      32.680  26.465  23.013  1.00  0.00     0.062 C 
ATOM     11  C   UNL A   1      33.816  28.564  22.506  1.00  0.00     0.008 C 
ATOM     12  C   UNL A   1      33.739  27.090  22.102  1.00  0.00     0.011 C 
BRANCH   8  13
ATOM     13  N   UNL A   1      30.799  27.884  22.197  1.00  0.00    -0.336 N 
ATOM     14  C   UNL A   1      30.191  29.218  22.175  1.00  0.00     0.331 C 
ATOM     15  H   UNL A   1      31.337  27.765  21.338  1.00  0.00     0.346 HD
ATOM     16  H   UNL A   1      30.033  27.217  22.283  1.00  0.00     0.346 HD
ENDBRANCH   8  13
BRANCH  10  17
ATOM     17  C   UNL A   1      32.020  25.191  22.452  1.00  0.00     0.034 C 
BRANCH  17  18
ATOM     18  C   UNL A   1      33.001  24.216  21.786  1.00  0.00     0.145 C 
BRANCH  18  19
ATOM     19  N   UNL A   1      33.800  23.440  22.727  1.00  0.00    -0.268 N 
ATOM     20  N   UNL A   1      35.071  23.834  22.958  1.00  0.00    -0.176 NA
ATOM     21  C   UNL A   1      33.433  22.344  23.472  1.00  0.00     0.054 A 
ATOM     22  C   UNL A   1      35.536  22.963  23.864  1.00  0.00     0.078 A 
ATOM     23  C   UNL A   1      34.558  22.001  24.195  1.00  0.00     0.084 A 
ATOM     24  C   UNL A   1      32.098  21.697  23.450  1.00  0.00     0.068 C 
ATOM     25  C   UNL A   1      36.916  23.109  24.392  1.00  0.00     0.070 C 
ATOM     26  Cl  UNL A   1      34.734  20.698  25.270  1.00  0.00    -0.080 Cl
ENDBRANCH  18  19
ENDBRANCH  17  18
ENDBRANCH  10  17
ENDBRANCH   5   8
ENDBRANCH   3   4
ENDBRANCH   2   3
ENDBRANCH   1   2
BRANCH   1  27
ATOM     27  C   UNL A   1      31.489  30.854  26.238  1.00  0.00     0.002 C 
BRANCH  27  28
ATOM     28  C   UNL A   1      31.384  32.348  26.551  1.00  0.00     0.021 C 
BRANCH  28  29
ATOM     29  C   UNL A   1      32.584  32.912  27.303  1.00  0.00     0.116 C 
BRANCH  29  30
ATOM     30  N   UNL A   1      32.393  34.310  27.652  1.00  0.00    -0.352 N 
ATOM     31  C   UNL A   1      32.988  35.041  28.646  1.00  0.00     0.251 C 
ATOM     32  H   UNL A   1      31.744  34.801  27.098  1.00  0.00     0.163 HD
ATOM     33  O   UNL A   1      32.553  36.151  28.948  1.00  0.00    -0.269 OA
BRANCH  31  34
ATOM     34  C   UNL A   1      34.150  34.485  29.366  1.00  0.00     0.039 A 
ATOM     35  C   UNL A   1      33.946  33.858  30.597  1.00  0.00     0.014 A 
ATOM     36  C   UNL A   1      35.437  34.586  28.828  1.00  0.00     0.014 A 
ATOM     37  C   UNL A   1      35.029  33.286  31.266  1.00  0.00     0.010 A 
ATOM     38  C   UNL A   1      36.501  33.949  29.458  1.00  0.00     0.010 A 
ATOM     39  C   UNL A   1      36.309  33.299  30.686  1.00  0.00    -0.014 A 
BRANCH  39  40
ATOM     40  C   UNL A   1      37.460  32.641  31.354  1.00  0.00     0.031 A 
ATOM     41  C   UNL A   1      38.163  31.491  30.688  1.00  0.00     0.074 A 
ATOM     42  C   UNL A   1      37.830  33.040  32.585  1.00  0.00     0.049 A 
ATOM     43  N   UNL A   1      39.145  30.750  31.135  1.00  0.00    -0.248 NA
ATOM     44  C   UNL A   1      37.681  31.106  29.352  1.00  0.00     0.031 C 
ATOM     45  C   UNL A   1      37.195  34.113  33.352  1.00  0.00     0.029 A 
ATOM     46  N   UNL A   1      38.825  32.584  33.413  1.00  0.00    -0.354 N 
ATOM     47  C   UNL A   1      39.389  29.809  30.144  1.00  0.00     0.074 A 
ATOM     48  C   UNL A   1      38.414  30.032  29.098  1.00  0.00     0.031 C 
ATOM     49  C   UNL A   1      37.831  34.249  34.527  1.00  0.00     0.029 A 
ATOM     50  C   UNL A   1      38.889  33.248  34.614  1.00  0.00     0.049 A 
ATOM     51  H   UNL A   1      39.436  31.853  33.169  1.00  0.00     0.167 HD
ATOM     52  C   UNL A   1      40.354  28.859  30.100  1.00  0.00     0.037 A 
ATOM     53  C   UNL A   1      39.703  33.061  35.671  1.00  0.00     0.037 A 
ATOM     54  C   UNL A   1      41.331  28.654  31.136  1.00  0.00     0.049 A 
ATOM     55  C   UNL A   1      40.755  31.987  35.604  1.00  0.00     0.074 A 
ATOM     56  C   UNL A   1      42.385  27.757  31.162  1.00  0.00     0.029 A 
ATOM     57  N   UNL A   1      41.371  29.351  32.335  1.00  0.00    -0.354 N 
ATOM     58  N   UNL A   1      41.023  31.149  34.631  1.00  0.00    -0.248 NA
ATOM     59  C   UNL A   1      41.623  31.837  36.779  1.00  0.00     0.031 C 
ATOM     60  C   UNL A   1      43.027  27.872  32.400  1.00  0.00     0.029 A 
ATOM     61  C   UNL A   1      42.413  28.885  33.120  1.00  0.00     0.049 A 
ATOM     62  H   UNL A   1      40.749  30.071  32.591  1.00  0.00     0.167 HD
ATOM     63  C   UNL A   1      42.107  30.396  35.063  1.00  0.00     0.074 A 
ATOM     64  C   UNL A   1      42.457  30.888  36.380  1.00  0.00     0.031 C 
ATOM     65  C   UNL A   1      42.753  29.389  34.426  1.00  0.00     0.037 A 
BRANCH  52  66
ATOM     66  C   UNL A   1      40.398  27.967  28.892  1.00  0.00     0.064 A 
ATOM     67  C   UNL A   1      41.155  28.297  27.757  1.00  0.00     0.173 A 
ATOM     68  C   UNL A   1      39.703  26.747  28.881  1.00  0.00     0.173 A 
ATOM     69  F   UNL A   1      41.830  29.456  27.709  1.00  0.00    -0.203 F 
ATOM     70  C   UNL A   1      41.189  27.458  26.646  1.00  0.00     0.198 A 
ATOM     71  C   UNL A   1      39.767  25.894  27.782  1.00  0.00     0.198 A 
ATOM     72  F   UNL A   1      38.968  26.378  29.941  1.00  0.00    -0.203 F 
ATOM     73  F   UNL A   1      41.876  27.821  25.554  1.00  0.00    -0.200 F 
ATOM     74  C   UNL A   1      40.502  26.254  26.663  1.00  0.00     0.200 A 
ATOM     75  F   UNL A   1      39.115  24.723  27.807  1.00  0.00    -0.200 F 
ATOM     76  F   UNL A   1      40.543  25.442  25.597  1.00  0.00    -0.200 F 
ENDBRANCH  52  66
BRANCH  53  77
ATOM     77  C   UNL A   1      39.567  33.923  36.875  1.00  0.00     0.064 A 
ATOM     78  C   UNL A   1      38.792  33.515  37.970  1.00  0.00     0.173 A 
ATOM     79  C   UNL A   1      40.198  35.173  36.953  1.00  0.00     0.173 A 
ATOM     80  F   UNL A   1      38.152  32.336  37.935  1.00  0.00    -0.203 F 
ATOM     81  C   UNL A   1      38.633  34.335  39.086  1.00  0.00     0.198 A 
ATOM     82  C   UNL A   1      40.064  35.977  38.082  1.00  0.00     0.198 A 
ATOM     83  F   UNL A   1      40.955  35.608  35.935  1.00  0.00    -0.203 F 
ATOM     84  F   UNL A   1      37.845  33.942  40.096  1.00  0.00    -0.200 F 
ATOM     85  C   UNL A   1      39.274  35.562  39.144  1.00  0.00     0.200 A 
ATOM     86  F   UNL A   1      40.700  37.156  38.142  1.00  0.00    -0.200 F 
ATOM     87  F   UNL A   1      39.125  36.349  40.218  1.00  0.00    -0.200 F 
ENDBRANCH  53  77
BRANCH  65  88
ATOM     88  C   UNL A   1      43.933  28.776  35.127  1.00  0.00     0.064 A 
ATOM     89  C   UNL A   1      45.234  29.271  34.955  1.00  0.00     0.173 A 
ATOM     90  C   UNL A   1      43.751  27.703  36.014  1.00  0.00     0.173 A 
ATOM     91  F   UNL A   1      45.464  30.284  34.108  1.00  0.00    -0.203 F 
ATOM     92  C   UNL A   1      46.313  28.696  35.623  1.00  0.00     0.198 A 
ATOM     93  C   UNL A   1      44.826  27.154  36.706  1.00  0.00     0.198 A 
ATOM     94  F   UNL A   1      42.526  27.196  36.221  1.00  0.00    -0.203 F 
ATOM     95  F   UNL A   1      47.554  29.149  35.402  1.00  0.00    -0.200 F 
ATOM     96  C   UNL A   1      46.107  27.644  36.504  1.00  0.00     0.200 A 
ATOM     97  F   UNL A   1      44.622  26.149  37.569  1.00  0.00    -0.200 F 
ATOM     98  F   UNL A   1      47.145  27.098  37.152  1.00  0.00    -0.200 F 
ENDBRANCH  65  88
ENDBRANCH  39  40
ENDBRANCH  31  34
ENDBRANCH  29  30
ENDBRANCH  28  29
ENDBRANCH  27  28
ENDBRANCH   1  27
TORSDOF 17
ENDMDL
MODEL 2
REMARK VINA RESULT:     -11.9      0.912      7.350
REMARK SMILES C[NH2+][C@]1(C(=O)NCCCCCCNC(=O)c2ccc(-c3c4nc(c(-c5c(F)c(F)c(F)c(F)c5F)c5ccc([nH]5)c(-c5c(F)c(F)c(F)c(F)c5F)c5nc(c(-c6c(F)c(F)c(F)c(F)c6F)c6ccc3[nH]6)C=C5)C=C4)cc2)CCC[C@@H]1CCn1nc(C)c(Cl)c1C
REMARK SMILES IDX 9 1 8 2 7 3 6 4 4 5 5 6 3 8 79 9 82 10 80 11 81 12 2 13 1 14
REMARK SMILES IDX 83 17 84 18 85 19 86 20 91 21 87 22 89 23 92 24 88 25 90 26
REMARK SMILES IDX 10 27 11 28 12 29 13 30 14 31 15 33 16 34 17 35 78 36 18 37
REMARK SMILES IDX 77 38 19 39 20 40 21 41 71 42 22 43 76 44 70 45 72 46 23 47
REMARK SMILES IDX 75 48 69 49 68 50 24 52 56 53 36 54 55 55 37 56 40 57 54 58
REMARK SMILES IDX 73 59 38 60 39 61 53 63 74 64 41 65 25 66 26 67 34 68 27 69
REMARK SMILES IDX 28 70 32 71 35 72 29 73 30 74 33 75 31 76 57 77 58 78 66 79
REMARK SMILES IDX 59 80 60 81 64 82 67 83 61 84 62 85 65 86 63 87 42 88 43 89
REMARK SMILES IDX 51 90 44 91 45 92 49 93 52 94 46 95 47 96 50 97 48 98
REMARK H PARENT 6 7 2 15 2 16 13 32 72 51 40 62
REMARK Flexibility Score: inf
ROOT
ATOM      1  C   UNL A   1      32.461  30.016  26.722  1.00  0.00     0.002 C 
ENDROOT
BRANCH   1   2
ATOM      2  C   UNL A   1      31.914  28.755  27.399  1.00  0.00     0.021 C 
BRANCH   2   3
ATOM      3  C   UNL A   1      32.287  27.473  26.666  1.00  0.00     0.116 C 
BRANCH   3   4
ATOM      4  N   UNL A   1      31.253  26.472  26.830  1.00  0.00    -0.351 N 
ATOM      5  C   UNL A   1      30.297  25.982  26.000  1.00  0.00     0.281 C 
ATOM      6  O   UNL A   1      29.558  25.119  26.492  1.00  0.00    -0.268 OA
ATOM      7  H   UNL A   1      31.240  26.065  27.726  1.00  0.00     0.163 HD
BRANCH   5   8
ATOM      8  C   UNL A   1      30.199  26.361  24.484  1.00  0.00     0.178 C 
ATOM      9  C   UNL A   1      30.379  27.844  24.111  1.00  0.00     0.079 C 
ATOM     10  C   UNL A   1      31.413  25.704  23.756  1.00  0.00     0.062 C 
ATOM     11  C   UNL A   1      30.959  27.852  22.694  1.00  0.00     0.008 C 
ATOM     12  C   UNL A   1      31.522  26.455  22.428  1.00  0.00     0.011 C 
BRANCH   8  13
ATOM     13  N   UNL A   1      28.927  25.831  23.898  1.00  0.00    -0.336 N 
ATOM     14  C   UNL A   1      27.812  26.782  23.914  1.00  0.00     0.331 C 
ATOM     15  H   UNL A   1      29.108  25.568  22.929  1.00  0.00     0.346 HD
ATOM     16  H   UNL A   1      28.644  25.042  24.478  1.00  0.00     0.346 HD
ENDBRANCH   8  13
BRANCH  10  17
ATOM     17  C   UNL A   1      31.370  24.169  23.626  1.00  0.00     0.034 C 
BRANCH  17  18
ATOM     18  C   UNL A   1      32.366  23.596  22.608  1.00  0.00     0.145 C 
BRANCH  18  19
ATOM     19  N   UNL A   1      33.524  22.946  23.209  1.00  0.00    -0.268 N 
ATOM     20  N   UNL A   1      34.715  23.581  23.147  1.00  0.00    -0.176 NA
ATOM     21  C   UNL A   1      33.588  21.752  23.888  1.00  0.00     0.054 A 
ATOM     22  C   UNL A   1      35.565  22.771  23.791  1.00  0.00     0.078 A 
ATOM     23  C   UNL A   1      34.912  21.605  24.248  1.00  0.00     0.084 A 
ATOM     24  C   UNL A   1      32.442  20.842  24.137  1.00  0.00     0.068 C 
ATOM     25  C   UNL A   1      36.986  23.168  23.955  1.00  0.00     0.070 C 
ATOM     26  Cl  UNL A   1      35.617  20.302  25.077  1.00  0.00    -0.080 Cl
ENDBRANCH  18  19
ENDBRANCH  17  18
ENDBRANCH  10  17
ENDBRANCH   5   8
ENDBRANCH   3   4
ENDBRANCH   2   3
ENDBRANCH   1   2
BRANCH   1  27
ATOM     27  C   UNL A   1      31.406  30.864  26.001  1.00  0.00     0.002 C 
BRANCH  27  28
ATOM     28  C   UNL A   1      31.299  32.308  26.494  1.00  0.00     0.021 C 
BRANCH  28  29
ATOM     29  C   UNL A   1      32.548  32.820  27.200  1.00  0.00     0.116 C 
BRANCH  29  30
ATOM     30  N   UNL A   1      32.409  34.209  27.606  1.00  0.00    -0.352 N 
ATOM     31  C   UNL A   1      33.043  34.882  28.616  1.00  0.00     0.251 C 
ATOM     32  H   UNL A   1      31.766  34.741  27.083  1.00  0.00     0.163 HD
ATOM     33  O   UNL A   1      32.649  35.992  28.969  1.00  0.00    -0.269 OA
BRANCH  31  34
ATOM     34  C   UNL A   1      34.198  34.262  29.294  1.00  0.00     0.039 A 
ATOM     35  C   UNL A   1      33.972  33.432  30.394  1.00  0.00     0.014 A 
ATOM     36  C   UNL A   1      35.501  34.501  28.845  1.00  0.00     0.014 A 
ATOM     37  C   UNL A   1      35.051  32.802  31.015  1.00  0.00     0.010 A 
ATOM     38  C   UNL A   1      36.566  33.812  29.415  1.00  0.00     0.010 A 
ATOM     39  C   UNL A   1      36.353  32.962  30.510  1.00  0.00    -0.014 A 
BRANCH  39  40
ATOM     40  C   UNL A   1      37.504  32.249  31.119  1.00  0.00     0.031 A 
ATOM     41  C   UNL A   1      37.989  32.630  32.489  1.00  0.00     0.074 A 
ATOM     42  C   UNL A   1      38.146  31.300  30.412  1.00  0.00     0.049 A 
ATOM     43  N   UNL A   1      39.011  32.168  33.164  1.00  0.00    -0.248 NA
ATOM     44  C   UNL A   1      37.242  33.691  33.184  1.00  0.00     0.031 C 
ATOM     45  C   UNL A   1      37.798  30.875  29.056  1.00  0.00     0.029 A 
ATOM     46  N   UNL A   1      39.234  30.527  30.733  1.00  0.00    -0.354 N 
ATOM     47  C   UNL A   1      39.035  32.887  34.352  1.00  0.00     0.074 A 
ATOM     48  C   UNL A   1      37.964  33.857  34.282  1.00  0.00     0.031 C 
ATOM     49  C   UNL A   1      38.639  29.902  28.669  1.00  0.00     0.029 A 
ATOM     50  C   UNL A   1      39.610  29.664  29.732  1.00  0.00     0.049 A 
ATOM     51  H   UNL A   1      39.700  30.584  31.598  1.00  0.00     0.167 HD
ATOM     52  C   UNL A   1      39.862  32.736  35.414  1.00  0.00     0.037 A 
ATOM     53  C   UNL A   1      40.632  28.788  29.676  1.00  0.00     0.037 A 
ATOM     54  C   UNL A   1      40.915  31.758  35.484  1.00  0.00     0.049 A 
ATOM     55  C   UNL A   1      41.547  28.652  30.863  1.00  0.00     0.074 A 
ATOM     56  C   UNL A   1      41.771  31.485  36.537  1.00  0.00     0.029 A 
ATOM     57  N   UNL A   1      41.261  30.894  34.455  1.00  0.00    -0.354 N 
ATOM     58  N   UNL A   1      41.516  29.287  32.010  1.00  0.00    -0.248 NA
ATOM     59  C   UNL A   1      42.635  27.671  30.751  1.00  0.00     0.031 C 
ATOM     60  C   UNL A   1      42.671  30.497  36.125  1.00  0.00     0.029 A 
ATOM     61  C   UNL A   1      42.336  30.108  34.838  1.00  0.00     0.049 A 
ATOM     62  H   UNL A   1      40.809  30.847  33.581  1.00  0.00     0.167 HD
ATOM     63  C   UNL A   1      42.557  28.763  32.765  1.00  0.00     0.074 A 
ATOM     64  C   UNL A   1      43.190  27.746  31.951  1.00  0.00     0.031 C 
ATOM     65  C   UNL A   1      42.952  29.095  34.019  1.00  0.00     0.037 A 
BRANCH  52  66
ATOM     66  C   UNL A   1      39.662  33.653  36.588  1.00  0.00     0.064 A 
ATOM     67  C   UNL A   1      38.824  33.309  37.659  1.00  0.00     0.173 A 
ATOM     68  C   UNL A   1      40.345  34.877  36.660  1.00  0.00     0.173 A 
ATOM     69  F   UNL A   1      38.138  32.156  37.638  1.00  0.00    -0.203 F 
ATOM     70  C   UNL A   1      38.652  34.168  38.742  1.00  0.00     0.198 A 
ATOM     71  C   UNL A   1      40.197  35.718  37.760  1.00  0.00     0.198 A 
ATOM     72  F   UNL A   1      41.164  35.255  35.666  1.00  0.00    -0.203 F 
ATOM     73  F   UNL A   1      37.805  33.841  39.728  1.00  0.00    -0.200 F 
ATOM     74  C   UNL A   1      39.345  35.367  38.795  1.00  0.00     0.200 A 
ATOM     75  F   UNL A   1      40.881  36.870  37.816  1.00  0.00    -0.200 F 
ATOM     76  F   UNL A   1      39.186  36.189  39.842  1.00  0.00    -0.200 F 
ENDBRANCH  52  66
BRANCH  53  77
ATOM     77  C   UNL A   1      40.832  27.957  28.459  1.00  0.00     0.064 A 
ATOM     78  C   UNL A   1      41.614  28.419  27.391  1.00  0.00     0.173 A 
ATOM     79  C   UNL A   1      40.238  26.693  28.332  1.00  0.00     0.173 A 
ATOM     80  F   UNL A   1      42.187  29.631  27.456  1.00  0.00    -0.203 F 
ATOM     81  C   UNL A   1      41.776  27.659  26.234  1.00  0.00     0.198 A 
ATOM     82  C   UNL A   1      40.426  25.920  27.188  1.00  0.00     0.198 A 
ATOM     83  F   UNL A   1      39.484  26.201  29.327  1.00  0.00    -0.203 F 
ATOM     84  F   UNL A   1      42.486  28.147  25.208  1.00  0.00    -0.200 F 
ATOM     85  C   UNL A   1      41.187  26.408  26.136  1.00  0.00     0.200 A 
ATOM     86  F   UNL A   1      39.869  24.704  27.105  1.00  0.00    -0.200 F 
ATOM     87  F   UNL A   1      41.344  25.676  25.025  1.00  0.00    -0.200 F 
ENDBRANCH  53  77
BRANCH  65  88
ATOM     88  C   UNL A   1      44.099  28.322  34.607  1.00  0.00     0.064 A 
ATOM     89  C   UNL A   1      45.418  28.797  34.546  1.00  0.00     0.173 A 
ATOM     90  C   UNL A   1      43.868  27.110  35.275  1.00  0.00     0.173 A 
ATOM     91  F   UNL A   1      45.695  29.942  33.906  1.00  0.00    -0.203 F 
ATOM     92  C   UNL A   1      46.466  28.071  35.107  1.00  0.00     0.198 A 
ATOM     93  C   UNL A   1      44.913  26.405  35.865  1.00  0.00     0.198 A 
ATOM     94  F   UNL A   1      42.624  26.615  35.369  1.00  0.00    -0.203 F 
ATOM     95  F   UNL A   1      47.724  28.516  34.990  1.00  0.00    -0.200 F 
ATOM     96  C   UNL A   1      46.212  26.882  35.773  1.00  0.00     0.200 A 
ATOM     97  F   UNL A   1      44.662  25.265  36.522  1.00  0.00    -0.200 F 
ATOM     98  F   UNL A   1      47.221  26.189  36.320  1.00  0.00    -0.200 F 
ENDBRANCH  65  88
ENDBRANCH  39  40
ENDBRANCH  31  34
ENDBRANCH  29  30
ENDBRANCH  28  29
ENDBRANCH  27  28
ENDBRANCH   1  27
TORSDOF 17
ENDMDL
MODEL 3
REMARK VINA RESULT:     -11.7      5.555     10.910
REMARK SMILES C[NH2+][C@]1(C(=O)NCCCCCCNC(=O)c2ccc(-c3c4nc(c(-c5c(F)c(F)c(F)c(F)c5F)c5ccc([nH]5)c(-c5c(F)c(F)c(F)c(F)c5F)c5nc(c(-c6c(F)c(F)c(F)c(F)c6F)c6ccc3[nH]6)C=C5)C=C4)cc2)CCC[C@@H]1CCn1nc(C)c(Cl)c1C
REMARK SMILES IDX 9 1 8 2 7 3 6 4 4 5 5 6 3 8 79 9 82 10 80 11 81 12 2 13 1 14
REMARK SMILES IDX 83 17 84 18 85 19 86 20 91 21 87 22 89 23 92 24 88 25 90 26
REMARK SMILES IDX 10 27 11 28 12 29 13 30 14 31 15 33 16 34 17 35 78 36 18 37
REMARK SMILES IDX 77 38 19 39 20 40 21 41 71 42 22 43 76 44 70 45 72 46 23 47
REMARK SMILES IDX 75 48 69 49 68 50 24 52 56 53 36 54 55 55 37 56 40 57 54 58
REMARK SMILES IDX 73 59 38 60 39 61 53 63 74 64 41 65 25 66 26 67 34 68 27 69
REMARK SMILES IDX 28 70 32 71 35 72 29 73 30 74 33 75 31 76 57 77 58 78 66 79
REMARK SMILES IDX 59 80 60 81 64 82 67 83 61 84 62 85 65 86 63 87 42 88 43 89
REMARK SMILES IDX 51 90 44 91 45 92 49 93 52 94 46 95 47 96 50 97 48 98
REMARK H PARENT 6 7 2 15 2 16 13 32 72 51 40 62
REMARK Flexibility Score: inf
ROOT
ATOM      1  C   UNL A   1      37.217  21.894  24.360  1.00  0.00     0.002 C 
ENDROOT
BRANCH   1   2
ATOM      2  C   UNL A   1      37.499  23.030  25.349  1.00  0.00     0.021 C 
BRANCH   2   3
ATOM      3  C   UNL A   1      36.272  23.881  25.649  1.00  0.00     0.116 C 
BRANCH   3   4
ATOM      4  N   UNL A   1      35.471  23.272  26.690  1.00  0.00    -0.351 N 
ATOM      5  C   UNL A   1      34.132  23.139  26.873  1.00  0.00     0.281 C 
ATOM      6  O   UNL A   1      33.793  22.557  27.911  1.00  0.00    -0.268 OA
ATOM      7  H   UNL A   1      36.006  22.872  27.414  1.00  0.00     0.163 HD
BRANCH   5   8
ATOM      8  C   UNL A   1      33.073  23.562  25.799  1.00  0.00     0.178 C 
ATOM      9  C   UNL A   1      31.738  22.795  25.781  1.00  0.00     0.079 C 
ATOM     10  C   UNL A   1      32.602  25.008  26.149  1.00  0.00     0.062 C 
ATOM     11  C   UNL A   1      30.697  23.781  25.245  1.00  0.00     0.008 C 
ATOM     12  C   UNL A   1      31.291  25.185  25.379  1.00  0.00     0.011 C 
BRANCH   8  13
ATOM     13  N   UNL A   1      33.689  23.560  24.434  1.00  0.00    -0.336 N 
ATOM     14  C   UNL A   1      33.576  22.285  23.721  1.00  0.00     0.331 C 
ATOM     15  H   UNL A   1      33.229  24.280  23.876  1.00  0.00     0.346 HD
ATOM     16  H   UNL A   1      34.686  23.734  24.563  1.00  0.00     0.346 HD
ENDBRANCH   8  13
BRANCH  10  17
ATOM     17  C   UNL A   1      33.637  26.127  25.922  1.00  0.00     0.034 C 
BRANCH  17  18
ATOM     18  C   UNL A   1      33.233  27.148  24.849  1.00  0.00     0.145 C 
BRANCH  18  19
ATOM     19  N   UNL A   1      32.870  28.457  25.379  1.00  0.00    -0.268 N 
ATOM     20  N   UNL A   1      33.667  29.006  26.321  1.00  0.00    -0.176 NA
ATOM     21  C   UNL A   1      31.816  29.267  25.029  1.00  0.00     0.054 A 
ATOM     22  C   UNL A   1      33.105  30.192  26.591  1.00  0.00     0.078 A 
ATOM     23  C   UNL A   1      31.934  30.387  25.828  1.00  0.00     0.084 A 
ATOM     24  C   UNL A   1      30.785  28.947  24.010  1.00  0.00     0.068 C 
ATOM     25  C   UNL A   1      33.740  31.105  27.574  1.00  0.00     0.070 C 
ATOM     26  Cl  UNL A   1      30.896  31.730  25.881  1.00  0.00    -0.080 Cl
ENDBRANCH  18  19
ENDBRANCH  17  18
ENDBRANCH  10  17
ENDBRANCH   5   8
ENDBRANCH   3   4
ENDBRANCH   2   3
ENDBRANCH   1   2
BRANCH   1  27
ATOM     27  C   UNL A   1      36.992  20.523  25.008  1.00  0.00     0.002 C 
BRANCH  27  28
ATOM     28  C   UNL A   1      38.206  19.591  24.973  1.00  0.00     0.021 C 
BRANCH  28  29
ATOM     29  C   UNL A   1      39.385  20.072  25.809  1.00  0.00     0.116 C 
BRANCH  29  30
ATOM     30  N   UNL A   1      40.426  19.063  25.905  1.00  0.00    -0.352 N 
ATOM     31  C   UNL A   1      41.775  19.227  26.077  1.00  0.00     0.251 C 
ATOM     32  H   UNL A   1      40.120  18.130  25.834  1.00  0.00     0.163 HD
ATOM     33  O   UNL A   1      42.543  18.281  25.915  1.00  0.00    -0.269 OA
BRANCH  31  34
ATOM     34  C   UNL A   1      42.308  20.552  26.447  1.00  0.00     0.039 A 
ATOM     35  C   UNL A   1      42.845  21.368  25.448  1.00  0.00     0.014 A 
ATOM     36  C   UNL A   1      42.281  20.987  27.775  1.00  0.00     0.014 A 
ATOM     37  C   UNL A   1      43.309  22.643  25.776  1.00  0.00     0.010 A 
ATOM     38  C   UNL A   1      42.672  22.285  28.086  1.00  0.00     0.010 A 
ATOM     39  C   UNL A   1      43.196  23.123  27.092  1.00  0.00    -0.014 A 
BRANCH  39  40
ATOM     40  C   UNL A   1      43.627  24.499  27.444  1.00  0.00     0.031 A 
ATOM     41  C   UNL A   1      42.608  25.532  27.836  1.00  0.00     0.074 A 
ATOM     42  C   UNL A   1      44.928  24.831  27.354  1.00  0.00     0.049 A 
ATOM     43  N   UNL A   1      42.779  26.799  28.119  1.00  0.00    -0.248 NA
ATOM     44  C   UNL A   1      41.205  25.090  27.890  1.00  0.00     0.031 C 
ATOM     45  C   UNL A   1      46.004  23.929  26.941  1.00  0.00     0.029 A 
ATOM     46  N   UNL A   1      45.568  26.022  27.593  1.00  0.00    -0.354 N 
ATOM     47  C   UNL A   1      41.511  27.304  28.373  1.00  0.00     0.074 A 
ATOM     48  C   UNL A   1      40.573  26.225  28.152  1.00  0.00     0.031 C 
ATOM     49  C   UNL A   1      47.172  24.590  26.980  1.00  0.00     0.029 A 
ATOM     50  C   UNL A   1      46.923  25.971  27.378  1.00  0.00     0.049 A 
ATOM     51  H   UNL A   1      45.100  26.834  27.892  1.00  0.00     0.167 HD
ATOM     52  C   UNL A   1      41.163  28.549  28.777  1.00  0.00     0.037 A 
ATOM     53  C   UNL A   1      47.858  26.936  27.481  1.00  0.00     0.037 A 
ATOM     54  C   UNL A   1      42.103  29.613  29.011  1.00  0.00     0.049 A 
ATOM     55  C   UNL A   1      47.443  28.316  27.914  1.00  0.00     0.074 A 
ATOM     56  C   UNL A   1      41.858  30.893  29.477  1.00  0.00     0.029 A 
ATOM     57  N   UNL A   1      43.470  29.523  28.791  1.00  0.00    -0.354 N 
ATOM     58  N   UNL A   1      46.249  28.763  28.221  1.00  0.00    -0.248 NA
ATOM     59  C   UNL A   1      48.506  29.324  28.022  1.00  0.00     0.031 C 
ATOM     60  C   UNL A   1      43.068  31.595  29.484  1.00  0.00     0.029 A 
ATOM     61  C   UNL A   1      44.077  30.734  29.084  1.00  0.00     0.049 A 
ATOM     62  H   UNL A   1      43.939  28.717  28.474  1.00  0.00     0.167 HD
ATOM     63  C   UNL A   1      46.421  30.091  28.587  1.00  0.00     0.074 A 
ATOM     64  C   UNL A   1      47.838  30.372  28.480  1.00  0.00     0.031 C 
ATOM     65  C   UNL A   1      45.490  30.996  28.978  1.00  0.00     0.037 A 
BRANCH  52  66
ATOM     66  C   UNL A   1      39.702  28.829  28.988  1.00  0.00     0.064 A 
ATOM     67  C   UNL A   1      39.092  28.664  30.241  1.00  0.00     0.173 A 
ATOM     68  C   UNL A   1      38.908  29.304  27.933  1.00  0.00     0.173 A 
ATOM     69  F   UNL A   1      39.801  28.203  31.283  1.00  0.00    -0.203 F 
ATOM     70  C   UNL A   1      37.737  28.932  30.422  1.00  0.00     0.198 A 
ATOM     71  C   UNL A   1      37.561  29.603  28.126  1.00  0.00     0.198 A 
ATOM     72  F   UNL A   1      39.439  29.486  26.715  1.00  0.00    -0.203 F 
ATOM     73  F   UNL A   1      37.166  28.715  31.615  1.00  0.00    -0.200 F 
ATOM     74  C   UNL A   1      36.975  29.409  29.367  1.00  0.00     0.200 A 
ATOM     75  F   UNL A   1      36.830  30.079  27.108  1.00  0.00    -0.200 F 
ATOM     76  F   UNL A   1      35.674  29.675  29.545  1.00  0.00    -0.200 F 
ENDBRANCH  52  66
BRANCH  53  77
ATOM     77  C   UNL A   1      49.282  26.624  27.185  1.00  0.00     0.064 A 
ATOM     78  C   UNL A   1      50.179  26.305  28.214  1.00  0.00     0.173 A 
ATOM     79  C   UNL A   1      49.778  26.649  25.874  1.00  0.00     0.173 A 
ATOM     80  F   UNL A   1      49.757  26.288  29.488  1.00  0.00    -0.203 F 
ATOM     81  C   UNL A   1      51.522  26.047  27.946  1.00  0.00     0.198 A 
ATOM     82  C   UNL A   1      51.114  26.359  25.603  1.00  0.00     0.198 A 
ATOM     83  F   UNL A   1      48.961  26.943  24.851  1.00  0.00    -0.203 F 
ATOM     84  F   UNL A   1      52.368  25.795  28.955  1.00  0.00    -0.200 F 
ATOM     85  C   UNL A   1      51.987  26.068  26.641  1.00  0.00     0.200 A 
ATOM     86  F   UNL A   1      51.555  26.364  24.338  1.00  0.00    -0.200 F 
ATOM     87  F   UNL A   1      53.277  25.817  26.382  1.00  0.00    -0.200 F 
ENDBRANCH  53  77
BRANCH  65  88
ATOM     88  C   UNL A   1      45.977  32.366  29.358  1.00  0.00     0.064 A 
ATOM     89  C   UNL A   1      46.051  33.410  28.423  1.00  0.00     0.173 A 
ATOM     90  C   UNL A   1      46.338  32.647  30.685  1.00  0.00     0.173 A 
ATOM     91  F   UNL A   1      45.732  33.191  27.140  1.00  0.00    -0.203 F 
ATOM     92  C   UNL A   1      46.494  34.676  28.798  1.00  0.00     0.198 A 
ATOM     93  C   UNL A   1      46.747  33.922  31.063  1.00  0.00     0.198 A 
ATOM     94  F   UNL A   1      46.279  31.686  31.620  1.00  0.00    -0.203 F 
ATOM     95  F   UNL A   1      46.608  35.643  27.878  1.00  0.00    -0.200 F 
ATOM     96  C   UNL A   1      46.833  34.933  30.118  1.00  0.00     0.200 A 
ATOM     97  F   UNL A   1      47.058  34.172  32.342  1.00  0.00    -0.200 F 
ATOM     98  F   UNL A   1      47.252  36.154  30.478  1.00  0.00    -0.200 F 
ENDBRANCH  65  88
ENDBRANCH  39  40
ENDBRANCH  31  34
ENDBRANCH  29  30
ENDBRANCH  28  29
ENDBRANCH  27  28
ENDBRANCH   1  27
TORSDOF 17
ENDMDL
