MODEL 1
REMARK VINA RESULT:     -12.8      0.000      0.000
REMARK SMILES NC(=O)Nc1ccc(C(=O)N2C[C@@H](O)C[C@@H]2C(=O)NCCCCCCNC(=O)c2ccc(-c3c4nc(c(-c5c(F)c(F)c(F)c(F)c5F)c5ccc([nH]5)c(-c5c(F)c(F)c(F)c(F)c5F)c5nc(c(-c6c(F)c(F)c(F)c(F)c6F)c6ccc3[nH]6)C=C5)C=C4)cc2)cc1
REMARK SMILES IDX 22 1 21 2 20 3 19 4 17 5 18 6 16 8 11 9 12 10 13 11 15 12
REMARK SMILES IDX 9 13 10 14 8 15 5 16 6 17 93 18 7 19 92 20 4 21 1 22 2 23
REMARK SMILES IDX 3 26 14 28 23 30 24 31 25 32 26 33 27 34 28 36 29 37 30 38
REMARK SMILES IDX 91 39 31 40 90 41 32 42 33 43 34 44 84 45 35 46 89 47 83 48
REMARK SMILES IDX 85 49 36 50 88 51 82 52 81 53 37 55 69 56 49 57 68 58 50 59
REMARK SMILES IDX 53 60 67 61 86 62 51 63 52 64 66 66 87 67 54 68 38 69 39 70
REMARK SMILES IDX 47 71 40 72 41 73 45 74 48 75 42 76 43 77 46 78 44 79 70 80
REMARK SMILES IDX 71 81 79 82 72 83 73 84 77 85 80 86 74 87 75 88 78 89 76 90
REMARK SMILES IDX 55 91 56 92 64 93 57 94 58 95 62 96 65 97 59 98 60 99 63 100
REMARK SMILES IDX 61 101
REMARK H PARENT 19 7 1 24 1 25 4 27 14 29 26 35 85 54 53 65
REMARK Flexibility Score: inf
ROOT
ATOM      1  C   UNL A   1      32.794  30.011  25.651  1.00  0.00     0.002 C 
ENDROOT
BRANCH   1   2
ATOM      2  C   UNL A   1      33.447  28.989  26.585  1.00  0.00     0.021 C 
BRANCH   2   3
ATOM      3  C   UNL A   1      32.761  27.623  26.622  1.00  0.00     0.116 C 
BRANCH   3   4
ATOM      4  N   UNL A   1      33.546  26.652  25.898  1.00  0.00    -0.354 N 
ATOM      5  C   UNL A   1      33.576  26.286  24.591  1.00  0.00     0.242 C 
ATOM      6  O   UNL A   1      34.405  25.403  24.334  1.00  0.00    -0.273 OA
ATOM      7  H   UNL A   1      34.184  26.157  26.463  1.00  0.00     0.163 HD
BRANCH   5   8
ATOM      8  C   UNL A   1      32.793  27.016  23.449  1.00  0.00     0.177 C 
ATOM      9  N   UNL A   1      31.426  26.550  23.103  1.00  0.00    -0.324 N 
ATOM     10  C   UNL A   1      31.367  26.196  21.692  1.00  0.00     0.152 C 
ATOM     11  C   UNL A   1      32.785  25.768  21.378  1.00  0.00     0.136 C 
ATOM     12  C   UNL A   1      33.575  26.844  22.119  1.00  0.00     0.069 C 
BRANCH   9  13
ATOM     13  C   UNL A   1      30.276  27.044  23.690  1.00  0.00     0.254 C 
ATOM     14  O   UNL A   1      29.738  26.514  24.656  1.00  0.00    -0.269 OA
BRANCH  13  15
ATOM     15  C   UNL A   1      29.590  28.156  22.948  1.00  0.00     0.040 A 
ATOM     16  C   UNL A   1      28.405  30.587  22.187  1.00  0.00     0.042 A 
ATOM     17  C   UNL A   1      29.775  30.382  21.986  1.00  0.00     0.027 A 
ATOM     18  C   UNL A   1      27.614  29.524  22.611  1.00  0.00     0.027 A 
ATOM     19  C   UNL A   1      30.370  29.172  22.375  1.00  0.00     0.016 A 
ATOM     20  C   UNL A   1      28.203  28.328  23.013  1.00  0.00     0.016 A 
BRANCH  16  21
ATOM     21  N   UNL A   1      27.886  31.873  21.984  1.00  0.00    -0.308 N 
ATOM     22  N   UNL A   1      27.834  31.960  19.656  1.00  0.00    -0.351 N 
ATOM     23  C   UNL A   1      27.728  32.594  20.841  1.00  0.00     0.316 C 
ATOM     24  H   UNL A   1      27.723  32.463  18.816  1.00  0.00     0.161 HD
ATOM     25  H   UNL A   1      28.021  30.993  19.629  1.00  0.00     0.161 HD
ATOM     26  O   UNL A   1      27.410  33.778  20.886  1.00  0.00    -0.249 OA
ATOM     27  H   UNL A   1      27.586  32.330  22.803  1.00  0.00     0.171 HD
ENDBRANCH  16  21
ENDBRANCH  13  15
ENDBRANCH   9  13
BRANCH  11  28
ATOM     28  O   UNL A   1      33.057  25.732  19.991  1.00  0.00    -0.391 OA
ATOM     29  H   UNL A   1      33.758  26.370  19.783  1.00  0.00     0.211 HD
ENDBRANCH  11  28
ENDBRANCH   5   8
ENDBRANCH   3   4
ENDBRANCH   2   3
ENDBRANCH   1   2
BRANCH   1  30
ATOM     30  C   UNL A   1      31.428  30.530  26.122  1.00  0.00     0.002 C 
BRANCH  30  31
ATOM     31  C   UNL A   1      31.355  32.031  26.419  1.00  0.00     0.021 C 
BRANCH  31  32
ATOM     32  C   UNL A   1      32.570  32.598  27.149  1.00  0.00     0.116 C 
BRANCH  32  33
ATOM     33  N   UNL A   1      32.379  33.989  27.525  1.00  0.00    -0.352 N 
ATOM     34  C   UNL A   1      33.024  34.733  28.484  1.00  0.00     0.251 C 
ATOM     35  H   UNL A   1      31.686  34.469  27.017  1.00  0.00     0.163 HD
ATOM     36  O   UNL A   1      32.598  35.835  28.801  1.00  0.00    -0.269 OA
BRANCH  34  37
ATOM     37  C   UNL A   1      34.225  34.188  29.153  1.00  0.00     0.039 A 
ATOM     38  C   UNL A   1      34.066  33.427  30.314  1.00  0.00     0.014 A 
ATOM     39  C   UNL A   1      35.503  34.448  28.653  1.00  0.00     0.014 A 
ATOM     40  C   UNL A   1      35.186  32.877  30.941  1.00  0.00     0.010 A 
ATOM     41  C   UNL A   1      36.612  33.842  29.240  1.00  0.00     0.010 A 
ATOM     42  C   UNL A   1      36.467  33.053  30.394  1.00  0.00    -0.014 A 
BRANCH  42  43
ATOM     43  C   UNL A   1      37.671  32.455  31.027  1.00  0.00     0.031 A 
ATOM     44  C   UNL A   1      38.393  31.326  30.339  1.00  0.00     0.074 A 
ATOM     45  C   UNL A   1      38.086  32.881  32.237  1.00  0.00     0.049 A 
ATOM     46  N   UNL A   1      39.376  30.580  30.777  1.00  0.00    -0.248 NA
ATOM     47  C   UNL A   1      37.934  30.977  28.986  1.00  0.00     0.031 C 
ATOM     48  C   UNL A   1      37.471  33.958  33.013  1.00  0.00     0.029 A 
ATOM     49  N   UNL A   1      39.118  32.446  33.035  1.00  0.00    -0.354 N 
ATOM     50  C   UNL A   1      39.644  29.673  29.761  1.00  0.00     0.074 A 
ATOM     51  C   UNL A   1      38.685  29.922  28.707  1.00  0.00     0.031 C 
ATOM     52  C   UNL A   1      38.142  34.107  34.168  1.00  0.00     0.029 A 
ATOM     53  C   UNL A   1      39.202  33.105  34.238  1.00  0.00     0.049 A 
ATOM     54  H   UNL A   1      39.737  31.729  32.770  1.00  0.00     0.167 HD
ATOM     55  C   UNL A   1      40.617  28.734  29.701  1.00  0.00     0.037 A 
ATOM     56  C   UNL A   1      40.026  32.909  35.286  1.00  0.00     0.037 A 
ATOM     57  C   UNL A   1      41.584  28.498  30.740  1.00  0.00     0.049 A 
ATOM     58  C   UNL A   1      41.067  31.821  35.210  1.00  0.00     0.074 A 
ATOM     59  C   UNL A   1      42.614  27.574  30.767  1.00  0.00     0.029 A 
ATOM     60  N   UNL A   1      41.645  29.201  31.933  1.00  0.00    -0.354 N 
ATOM     61  N   UNL A   1      41.328  30.989  34.230  1.00  0.00    -0.248 NA
ATOM     62  C   UNL A   1      41.933  31.647  36.385  1.00  0.00     0.031 C 
ATOM     63  C   UNL A   1      43.275  27.691  31.992  1.00  0.00     0.029 A 
ATOM     64  C   UNL A   1      42.691  28.725  32.706  1.00  0.00     0.049 A 
ATOM     65  H   UNL A   1      41.036  29.929  32.194  1.00  0.00     0.167 HD
ATOM     66  C   UNL A   1      42.415  30.234  34.650  1.00  0.00     0.074 A 
ATOM     67  C   UNL A   1      42.769  30.706  35.971  1.00  0.00     0.031 C 
ATOM     68  C   UNL A   1      43.062  29.238  33.998  1.00  0.00     0.037 A 
BRANCH  55  69
ATOM     69  C   UNL A   1      40.701  27.893  28.460  1.00  0.00     0.064 A 
ATOM     70  C   UNL A   1      41.477  28.290  27.361  1.00  0.00     0.173 A 
ATOM     71  C   UNL A   1      40.059  26.647  28.394  1.00  0.00     0.173 A 
ATOM     72  F   UNL A   1      42.104  29.477  27.370  1.00  0.00    -0.203 F 
ATOM     73  C   UNL A   1      41.594  27.480  26.235  1.00  0.00     0.198 A 
ATOM     74  C   UNL A   1      40.202  25.826  27.279  1.00  0.00     0.198 A 
ATOM     75  F   UNL A   1      39.311  26.217  29.420  1.00  0.00    -0.203 F 
ATOM     76  F   UNL A   1      42.312  27.896  25.183  1.00  0.00    -0.200 F 
ATOM     77  C   UNL A   1      40.965  26.244  26.199  1.00  0.00     0.200 A 
ATOM     78  F   UNL A   1      39.609  24.625  27.253  1.00  0.00    -0.200 F 
ATOM     79  F   UNL A   1      41.094  25.457  25.123  1.00  0.00    -0.200 F 
ENDBRANCH  55  69
BRANCH  56  80
ATOM     80  C   UNL A   1      39.912  33.751  36.509  1.00  0.00     0.064 A 
ATOM     81  C   UNL A   1      39.094  33.361  37.580  1.00  0.00     0.173 A 
ATOM     82  C   UNL A   1      40.564  34.989  36.609  1.00  0.00     0.173 A 
ATOM     83  F   UNL A   1      38.432  32.196  37.526  1.00  0.00    -0.203 F 
ATOM     84  C   UNL A   1      38.899  34.194  38.680  1.00  0.00     0.198 A 
ATOM     85  C   UNL A   1      40.396  35.805  37.725  1.00  0.00     0.198 A 
ATOM     86  F   UNL A   1      41.362  35.409  35.616  1.00  0.00    -0.203 F 
ATOM     87  F   UNL A   1      38.052  33.828  39.651  1.00  0.00    -0.200 F 
ATOM     88  C   UNL A   1      39.550  35.414  38.752  1.00  0.00     0.200 A 
ATOM     89  F   UNL A   1      41.040  36.978  37.797  1.00  0.00    -0.200 F 
ATOM     90  F   UNL A   1      39.353  36.221  39.803  1.00  0.00    -0.200 F 
ENDBRANCH  56  80
BRANCH  68  91
ATOM     91  C   UNL A   1      44.274  28.644  34.656  1.00  0.00     0.064 A 
ATOM     92  C   UNL A   1      44.193  27.516  35.484  1.00  0.00     0.173 A 
ATOM     93  C   UNL A   1      45.546  29.180  34.397  1.00  0.00     0.173 A 
ATOM     94  F   UNL A   1      43.001  26.976  35.774  1.00  0.00    -0.203 F 
ATOM     95  C   UNL A   1      45.339  26.959  36.045  1.00  0.00     0.198 A 
ATOM     96  C   UNL A   1      46.691  28.600  34.934  1.00  0.00     0.198 A 
ATOM     97  F   UNL A   1      45.678  30.255  33.605  1.00  0.00    -0.203 F 
ATOM     98  F   UNL A   1      45.235  25.906  36.868  1.00  0.00    -0.200 F 
ATOM     99  C   UNL A   1      46.587  27.494  35.762  1.00  0.00     0.200 A 
ATOM    100  F   UNL A   1      47.897  29.109  34.645  1.00  0.00    -0.200 F 
ATOM    101  F   UNL A   1      47.689  26.945  36.290  1.00  0.00    -0.200 F 
ENDBRANCH  68  91
ENDBRANCH  42  43
ENDBRANCH  34  37
ENDBRANCH  32  33
ENDBRANCH  31  32
ENDBRANCH  30  31
ENDBRANCH   1  30
TORSDOF 17
ENDMDL
MODEL 2
REMARK VINA RESULT:     -12.8      4.699      9.764
REMARK SMILES NC(=O)Nc1ccc(C(=O)N2C[C@@H](O)C[C@@H]2C(=O)NCCCCCCNC(=O)c2ccc(-c3c4nc(c(-c5c(F)c(F)c(F)c(F)c5F)c5ccc([nH]5)c(-c5c(F)c(F)c(F)c(F)c5F)c5nc(c(-c6c(F)c(F)c(F)c(F)c6F)c6ccc3[nH]6)C=C5)C=C4)cc2)cc1
REMARK SMILES IDX 22 1 21 2 20 3 19 4 17 5 18 6 16 8 11 9 12 10 13 11 15 12
REMARK SMILES IDX 9 13 10 14 8 15 5 16 6 17 93 18 7 19 92 20 4 21 1 22 2 23
REMARK SMILES IDX 3 26 14 28 23 30 24 31 25 32 26 33 27 34 28 36 29 37 30 38
REMARK SMILES IDX 91 39 31 40 90 41 32 42 33 43 34 44 84 45 35 46 89 47 83 48
REMARK SMILES IDX 85 49 36 50 88 51 82 52 81 53 37 55 69 56 49 57 68 58 50 59
REMARK SMILES IDX 53 60 67 61 86 62 51 63 52 64 66 66 87 67 54 68 38 69 39 70
REMARK SMILES IDX 47 71 40 72 41 73 45 74 48 75 42 76 43 77 46 78 44 79 70 80
REMARK SMILES IDX 71 81 79 82 72 83 73 84 77 85 80 86 74 87 75 88 78 89 76 90
REMARK SMILES IDX 55 91 56 92 64 93 57 94 58 95 62 96 65 97 59 98 60 99 63 100
REMARK SMILES IDX 61 101
REMARK H PARENT 19 7 1 24 1 25 4 27 14 29 26 35 85 54 53 65
REMARK Flexibility Score: inf
ROOT
ATOM      1  C   UNL A   1      31.532  27.698  25.036  1.00  0.00     0.002 C 
ENDROOT
BRANCH   1   2
ATOM      2  C   UNL A   1      30.795  26.897  26.112  1.00  0.00     0.021 C 
BRANCH   2   3
ATOM      3  C   UNL A   1      30.338  25.504  25.675  1.00  0.00     0.116 C 
BRANCH   3   4
ATOM      4  N   UNL A   1      30.747  24.518  26.647  1.00  0.00    -0.354 N 
ATOM      5  C   UNL A   1      31.730  23.583  26.646  1.00  0.00     0.242 C 
ATOM      6  O   UNL A   1      31.784  22.907  27.682  1.00  0.00    -0.273 OA
ATOM      7  H   UNL A   1      30.207  24.525  27.470  1.00  0.00     0.163 HD
BRANCH   5   8
ATOM      8  C   UNL A   1      32.834  23.459  25.543  1.00  0.00     0.177 C 
ATOM      9  N   UNL A   1      33.256  22.107  25.095  1.00  0.00    -0.324 N 
ATOM     10  C   UNL A   1      34.691  21.950  25.281  1.00  0.00     0.152 C 
ATOM     11  C   UNL A   1      34.996  22.864  26.449  1.00  0.00     0.136 C 
ATOM     12  C   UNL A   1      34.151  24.081  26.083  1.00  0.00     0.069 C 
BRANCH   9  13
ATOM     13  C   UNL A   1      32.666  21.429  24.045  1.00  0.00     0.254 C 
ATOM     14  O   UNL A   1      32.133  21.996  23.098  1.00  0.00    -0.269 OA
BRANCH  13  15
ATOM     15  C   UNL A   1      32.521  19.944  24.225  1.00  0.00     0.040 A 
ATOM     16  C   UNL A   1      32.974  17.189  24.536  1.00  0.00     0.042 A 
ATOM     17  C   UNL A   1      32.903  18.019  25.661  1.00  0.00     0.027 A 
ATOM     18  C   UNL A   1      32.657  17.710  23.286  1.00  0.00     0.027 A 
ATOM     19  C   UNL A   1      32.687  19.397  25.506  1.00  0.00     0.016 A 
ATOM     20  C   UNL A   1      32.458  19.080  23.127  1.00  0.00     0.016 A 
BRANCH  16  21
ATOM     21  N   UNL A   1      33.398  15.865  24.710  1.00  0.00    -0.308 N 
ATOM     22  N   UNL A   1      31.511  14.931  25.710  1.00  0.00    -0.351 N 
ATOM     23  C   UNL A   1      32.809  14.825  25.361  1.00  0.00     0.316 C 
ATOM     24  H   UNL A   1      31.065  14.190  26.181  1.00  0.00     0.161 HD
ATOM     25  H   UNL A   1      31.007  15.749  25.493  1.00  0.00     0.161 HD
ATOM     26  O   UNL A   1      33.419  13.778  25.550  1.00  0.00    -0.249 OA
ATOM     27  H   UNL A   1      34.263  15.650  24.291  1.00  0.00     0.171 HD
ENDBRANCH  16  21
ENDBRANCH  13  15
ENDBRANCH   9  13
BRANCH  11  28
ATOM     28  O   UNL A   1      36.373  23.158  26.575  1.00  0.00    -0.391 OA
ATOM     29  H   UNL A   1      36.638  23.074  27.504  1.00  0.00     0.211 HD
ENDBRANCH  11  28
ENDBRANCH   5   8
ENDBRANCH   3   4
ENDBRANCH   2   3
ENDBRANCH   1   2
BRANCH   1  30
ATOM     30  C   UNL A   1      33.031  27.388  24.918  1.00  0.00     0.002 C 
BRANCH  30  31
ATOM     31  C   UNL A   1      33.975  28.451  25.488  1.00  0.00     0.021 C 
BRANCH  31  32
ATOM     32  C   UNL A   1      34.002  28.530  27.012  1.00  0.00     0.116 C 
BRANCH  32  33
ATOM     33  N   UNL A   1      33.865  29.896  27.490  1.00  0.00    -0.352 N 
ATOM     34  C   UNL A   1      34.720  30.643  28.264  1.00  0.00     0.251 C 
ATOM     35  H   UNL A   1      33.037  30.353  27.218  1.00  0.00     0.163 HD
ATOM     36  O   UNL A   1      34.353  31.710  28.737  1.00  0.00    -0.269 OA
BRANCH  34  37
ATOM     37  C   UNL A   1      36.083  30.143  28.545  1.00  0.00     0.039 A 
ATOM     38  C   UNL A   1      37.064  30.262  27.557  1.00  0.00     0.014 A 
ATOM     39  C   UNL A   1      36.386  29.536  29.766  1.00  0.00     0.014 A 
ATOM     40  C   UNL A   1      38.365  29.825  27.816  1.00  0.00     0.010 A 
ATOM     41  C   UNL A   1      37.699  29.164  30.048  1.00  0.00     0.010 A 
ATOM     42  C   UNL A   1      38.703  29.300  29.074  1.00  0.00    -0.014 A 
BRANCH  42  43
ATOM     43  C   UNL A   1      40.087  28.854  29.382  1.00  0.00     0.031 A 
ATOM     44  C   UNL A   1      41.000  29.750  30.178  1.00  0.00     0.074 A 
ATOM     45  C   UNL A   1      40.544  27.678  28.908  1.00  0.00     0.049 A 
ATOM     46  N   UNL A   1      42.275  29.612  30.442  1.00  0.00    -0.248 NA
ATOM     47  C   UNL A   1      40.402  30.975  30.733  1.00  0.00     0.031 C 
ATOM     48  C   UNL A   1      39.767  26.722  28.118  1.00  0.00     0.029 A 
ATOM     49  N   UNL A   1      41.784  27.092  29.009  1.00  0.00    -0.354 N 
ATOM     50  C   UNL A   1      42.630  30.732  31.182  1.00  0.00     0.074 A 
ATOM     51  C   UNL A   1      41.454  31.568  31.279  1.00  0.00     0.031 C 
ATOM     52  C   UNL A   1      40.542  25.667  27.815  1.00  0.00     0.029 A 
ATOM     53  C   UNL A   1      41.884  25.893  28.345  1.00  0.00     0.049 A 
ATOM     54  H   UNL A   1      42.530  27.495  29.509  1.00  0.00     0.167 HD
ATOM     55  C   UNL A   1      43.823  31.025  31.751  1.00  0.00     0.037 A 
ATOM     56  C   UNL A   1      42.943  25.078  28.167  1.00  0.00     0.037 A 
ATOM     57  C   UNL A   1      44.989  30.185  31.673  1.00  0.00     0.049 A 
ATOM     58  C   UNL A   1      44.272  25.457  28.771  1.00  0.00     0.074 A 
ATOM     59  C   UNL A   1      46.241  30.394  32.224  1.00  0.00     0.029 A 
ATOM     60  N   UNL A   1      45.042  28.970  31.007  1.00  0.00    -0.354 N 
ATOM     61  N   UNL A   1      44.587  26.505  29.493  1.00  0.00    -0.248 NA
ATOM     62  C   UNL A   1      45.394  24.536  28.538  1.00  0.00     0.031 C 
ATOM     63  C   UNL A   1      47.063  29.324  31.861  1.00  0.00     0.029 A 
ATOM     64  C   UNL A   1      46.307  28.422  31.129  1.00  0.00     0.049 A 
ATOM     65  H   UNL A   1      44.291  28.558  30.520  1.00  0.00     0.167 HD
ATOM     66  C   UNL A   1      45.922  26.343  29.842  1.00  0.00     0.074 A 
ATOM     67  C   UNL A   1      46.358  25.094  29.255  1.00  0.00     0.031 C 
ATOM     68  C   UNL A   1      46.714  27.155  30.581  1.00  0.00     0.037 A 
BRANCH  55  69
ATOM     69  C   UNL A   1      43.931  32.304  32.529  1.00  0.00     0.064 A 
ATOM     70  C   UNL A   1      44.289  33.509  31.906  1.00  0.00     0.173 A 
ATOM     71  C   UNL A   1      43.606  32.343  33.894  1.00  0.00     0.173 A 
ATOM     72  F   UNL A   1      44.617  33.525  30.605  1.00  0.00    -0.203 F 
ATOM     73  C   UNL A   1      44.334  34.702  32.624  1.00  0.00     0.198 A 
ATOM     74  C   UNL A   1      43.623  33.541  34.601  1.00  0.00     0.198 A 
ATOM     75  F   UNL A   1      43.250  31.220  34.536  1.00  0.00    -0.203 F 
ATOM     76  F   UNL A   1      44.713  35.834  32.015  1.00  0.00    -0.200 F 
ATOM     77  C   UNL A   1      43.991  34.718  33.967  1.00  0.00     0.200 A 
ATOM     78  F   UNL A   1      43.275  33.559  35.895  1.00  0.00    -0.200 F 
ATOM     79  F   UNL A   1      44.017  35.870  34.652  1.00  0.00    -0.200 F 
ENDBRANCH  55  69
BRANCH  56  80
ATOM     80  C   UNL A   1      42.810  23.821  27.381  1.00  0.00     0.064 A 
ATOM     81  C   UNL A   1      42.383  22.631  27.990  1.00  0.00     0.173 A 
ATOM     82  C   UNL A   1      43.164  23.765  26.025  1.00  0.00     0.173 A 
ATOM     83  F   UNL A   1      42.053  22.626  29.290  1.00  0.00    -0.203 F 
ATOM     84  C   UNL A   1      42.360  21.428  27.286  1.00  0.00     0.198 A 
ATOM     85  C   UNL A   1      43.106  22.569  25.313  1.00  0.00     0.198 A 
ATOM     86  F   UNL A   1      43.575  24.874  25.392  1.00  0.00    -0.203 F 
ATOM     87  F   UNL A   1      42.022  20.294  27.914  1.00  0.00    -0.200 F 
ATOM     88  C   UNL A   1      42.720  21.398  25.949  1.00  0.00     0.200 A 
ATOM     89  F   UNL A   1      43.441  22.548  24.016  1.00  0.00    -0.200 F 
ATOM     90  F   UNL A   1      42.710  20.241  25.275  1.00  0.00    -0.200 F 
ENDBRANCH  56  80
BRANCH  68  91
ATOM     91  C   UNL A   1      48.109  26.688  30.879  1.00  0.00     0.064 A 
ATOM     92  C   UNL A   1      48.400  25.865  31.976  1.00  0.00     0.173 A 
ATOM     93  C   UNL A   1      49.160  27.019  30.009  1.00  0.00     0.173 A 
ATOM     94  F   UNL A   1      47.434  25.532  32.844  1.00  0.00    -0.203 F 
ATOM     95  C   UNL A   1      49.696  25.410  32.203  1.00  0.00     0.198 A 
ATOM     96  C   UNL A   1      50.447  26.535  30.221  1.00  0.00     0.198 A 
ATOM     97  F   UNL A   1      48.933  27.798  28.940  1.00  0.00    -0.203 F 
ATOM     98  F   UNL A   1      49.960  24.659  33.282  1.00  0.00    -0.200 F 
ATOM     99  C   UNL A   1      50.716  25.736  31.321  1.00  0.00     0.200 A 
ATOM    100  F   UNL A   1      51.427  26.838  29.358  1.00  0.00    -0.200 F 
ATOM    101  F   UNL A   1      51.958  25.282  31.533  1.00  0.00    -0.200 F 
ENDBRANCH  68  91
ENDBRANCH  42  43
ENDBRANCH  34  37
ENDBRANCH  32  33
ENDBRANCH  31  32
ENDBRANCH  30  31
ENDBRANCH   1  30
TORSDOF 17
ENDMDL
MODEL 3
REMARK VINA RESULT:     -12.7      4.291      9.638
REMARK SMILES NC(=O)Nc1ccc(C(=O)N2C[C@@H](O)C[C@@H]2C(=O)NCCCCCCNC(=O)c2ccc(-c3c4nc(c(-c5c(F)c(F)c(F)c(F)c5F)c5ccc([nH]5)c(-c5c(F)c(F)c(F)c(F)c5F)c5nc(c(-c6c(F)c(F)c(F)c(F)c6F)c6ccc3[nH]6)C=C5)C=C4)cc2)cc1
REMARK SMILES IDX 22 1 21 2 20 3 19 4 17 5 18 6 16 8 11 9 12 10 13 11 15 12
REMARK SMILES IDX 9 13 10 14 8 15 5 16 6 17 93 18 7 19 92 20 4 21 1 22 2 23
REMARK SMILES IDX 3 26 14 28 23 30 24 31 25 32 26 33 27 34 28 36 29 37 30 38
REMARK SMILES IDX 91 39 31 40 90 41 32 42 33 43 34 44 84 45 35 46 89 47 83 48
REMARK SMILES IDX 85 49 36 50 88 51 82 52 81 53 37 55 69 56 49 57 68 58 50 59
REMARK SMILES IDX 53 60 67 61 86 62 51 63 52 64 66 66 87 67 54 68 38 69 39 70
REMARK SMILES IDX 47 71 40 72 41 73 45 74 48 75 42 76 43 77 46 78 44 79 70 80
REMARK SMILES IDX 71 81 79 82 72 83 73 84 77 85 80 86 74 87 75 88 78 89 76 90
REMARK SMILES IDX 55 91 56 92 64 93 57 94 58 95 62 96 65 97 59 98 60 99 63 100
REMARK SMILES IDX 61 101
REMARK H PARENT 19 7 1 24 1 25 4 27 14 29 26 35 85 54 53 65
REMARK Flexibility Score: inf
ROOT
ATOM      1  C   UNL A   1      31.261  27.561  24.978  1.00  0.00     0.002 C 
ENDROOT
BRANCH   1   2
ATOM      2  C   UNL A   1      30.762  26.703  26.144  1.00  0.00     0.021 C 
BRANCH   2   3
ATOM      3  C   UNL A   1      30.265  25.312  25.749  1.00  0.00     0.116 C 
BRANCH   3   4
ATOM      4  N   UNL A   1      30.751  24.325  26.683  1.00  0.00    -0.354 N 
ATOM      5  C   UNL A   1      31.794  23.457  26.640  1.00  0.00     0.242 C 
ATOM      6  O   UNL A   1      31.907  22.755  27.654  1.00  0.00    -0.273 OA
ATOM      7  H   UNL A   1      30.224  24.271  27.513  1.00  0.00     0.163 HD
BRANCH   5   8
ATOM      8  C   UNL A   1      32.887  23.440  25.521  1.00  0.00     0.177 C 
ATOM      9  N   UNL A   1      33.386  22.134  25.020  1.00  0.00    -0.324 N 
ATOM     10  C   UNL A   1      34.830  22.061  25.183  1.00  0.00     0.152 C 
ATOM     11  C   UNL A   1      35.095  22.950  26.379  1.00  0.00     0.136 C 
ATOM     12  C   UNL A   1      34.171  24.125  26.066  1.00  0.00     0.069 C 
BRANCH   9  13
ATOM     13  C   UNL A   1      32.824  21.457  23.954  1.00  0.00     0.254 C 
ATOM     14  O   UNL A   1      32.358  22.025  22.972  1.00  0.00    -0.269 OA
BRANCH  13  15
ATOM     15  C   UNL A   1      32.619  19.982  24.152  1.00  0.00     0.040 A 
ATOM     16  C   UNL A   1      32.959  17.215  24.499  1.00  0.00     0.042 A 
ATOM     17  C   UNL A   1      32.915  18.061  25.613  1.00  0.00     0.027 A 
ATOM     18  C   UNL A   1      32.670  17.732  23.241  1.00  0.00     0.027 A 
ATOM     19  C   UNL A   1      32.756  19.444  25.440  1.00  0.00     0.016 A 
ATOM     20  C   UNL A   1      32.527  19.107  23.064  1.00  0.00     0.016 A 
BRANCH  16  21
ATOM     21  N   UNL A   1      33.329  15.877  24.692  1.00  0.00    -0.308 N 
ATOM     22  N   UNL A   1      31.426  15.048  25.753  1.00  0.00    -0.351 N 
ATOM     23  C   UNL A   1      32.710  14.877  25.378  1.00  0.00     0.316 C 
ATOM     24  H   UNL A   1      30.959  14.337  26.249  1.00  0.00     0.161 HD
ATOM     25  H   UNL A   1      30.954  15.883  25.529  1.00  0.00     0.161 HD
ATOM     26  O   UNL A   1      33.278  13.809  25.576  1.00  0.00    -0.249 OA
ATOM     27  H   UNL A   1      34.174  15.616  24.260  1.00  0.00     0.171 HD
ENDBRANCH  16  21
ENDBRANCH  13  15
ENDBRANCH   9  13
BRANCH  11  28
ATOM     28  O   UNL A   1      36.452  23.326  26.498  1.00  0.00    -0.391 OA
ATOM     29  H   UNL A   1      37.017  22.557  26.322  1.00  0.00     0.211 HD
ENDBRANCH  11  28
ENDBRANCH   5   8
ENDBRANCH   3   4
ENDBRANCH   2   3
ENDBRANCH   1   2
BRANCH   1  30
ATOM     30  C   UNL A   1      32.676  27.221  24.490  1.00  0.00     0.002 C 
BRANCH  30  31
ATOM     31  C   UNL A   1      33.730  28.314  24.698  1.00  0.00     0.021 C 
BRANCH  31  32
ATOM     32  C   UNL A   1      34.098  28.578  26.156  1.00  0.00     0.116 C 
BRANCH  32  33
ATOM     33  N   UNL A   1      33.916  29.973  26.520  1.00  0.00    -0.352 N 
ATOM     34  C   UNL A   1      34.628  30.748  27.404  1.00  0.00     0.251 C 
ATOM     35  H   UNL A   1      33.171  30.430  26.067  1.00  0.00     0.163 HD
ATOM     36  O   UNL A   1      34.211  31.849  27.735  1.00  0.00    -0.269 OA
BRANCH  34  37
ATOM     37  C   UNL A   1      35.894  30.238  27.973  1.00  0.00     0.039 A 
ATOM     38  C   UNL A   1      35.887  29.700  29.263  1.00  0.00     0.014 A 
ATOM     39  C   UNL A   1      37.087  30.314  27.251  1.00  0.00     0.014 A 
ATOM     40  C   UNL A   1      37.066  29.184  29.805  1.00  0.00     0.010 A 
ATOM     41  C   UNL A   1      38.246  29.737  27.765  1.00  0.00     0.010 A 
ATOM     42  C   UNL A   1      38.250  29.169  29.051  1.00  0.00    -0.014 A 
BRANCH  42  43
ATOM     43  C   UNL A   1      39.511  28.601  29.596  1.00  0.00     0.031 A 
ATOM     44  C   UNL A   1      40.246  29.329  30.690  1.00  0.00     0.074 A 
ATOM     45  C   UNL A   1      40.025  27.468  29.077  1.00  0.00     0.049 A 
ATOM     46  N   UNL A   1      41.421  29.077  31.209  1.00  0.00    -0.248 NA
ATOM     47  C   UNL A   1      39.578  30.508  31.262  1.00  0.00     0.031 C 
ATOM     48  C   UNL A   1      39.419  26.671  28.010  1.00  0.00     0.029 A 
ATOM     49  N   UNL A   1      41.189  26.796  29.370  1.00  0.00    -0.354 N 
ATOM     50  C   UNL A   1      41.635  30.070  32.157  1.00  0.00     0.074 A 
ATOM     51  C   UNL A   1      40.496  30.959  32.104  1.00  0.00     0.031 C 
ATOM     52  C   UNL A   1      40.207  25.615  27.745  1.00  0.00     0.029 A 
ATOM     53  C   UNL A   1      41.399  25.686  28.587  1.00  0.00     0.049 A 
ATOM     54  H   UNL A   1      41.813  27.083  30.074  1.00  0.00     0.167 HD
ATOM     55  C   UNL A   1      42.674  30.212  33.013  1.00  0.00     0.037 A 
ATOM     56  C   UNL A   1      42.443  24.835  28.538  1.00  0.00     0.037 A 
ATOM     57  C   UNL A   1      43.798  29.316  33.081  1.00  0.00     0.049 A 
ATOM     58  C   UNL A   1      43.610  25.049  29.469  1.00  0.00     0.074 A 
ATOM     59  C   UNL A   1      44.897  29.373  33.921  1.00  0.00     0.029 A 
ATOM     60  N   UNL A   1      43.962  28.194  32.283  1.00  0.00    -0.354 N 
ATOM     61  N   UNL A   1      43.785  25.975  30.381  1.00  0.00    -0.248 NA
ATOM     62  C   UNL A   1      44.724  24.096  29.367  1.00  0.00     0.031 C 
ATOM     63  C   UNL A   1      45.745  28.308  33.606  1.00  0.00     0.029 A 
ATOM     64  C   UNL A   1      45.147  27.556  32.607  1.00  0.00     0.049 A 
ATOM     65  H   UNL A   1      43.330  27.896  31.589  1.00  0.00     0.167 HD
ATOM     66  C   UNL A   1      44.998  25.685  30.992  1.00  0.00     0.074 A 
ATOM     67  C   UNL A   1      45.516  24.496  30.351  1.00  0.00     0.031 C 
ATOM     68  C   UNL A   1      45.626  26.345  31.994  1.00  0.00     0.037 A 
BRANCH  55  69
ATOM     69  C   UNL A   1      42.643  31.373  33.964  1.00  0.00     0.064 A 
ATOM     70  C   UNL A   1      43.186  32.618  33.613  1.00  0.00     0.173 A 
ATOM     71  C   UNL A   1      42.005  31.262  35.209  1.00  0.00     0.173 A 
ATOM     72  F   UNL A   1      43.815  32.773  32.438  1.00  0.00    -0.203 F 
ATOM     73  C   UNL A   1      43.105  33.705  34.480  1.00  0.00     0.198 A 
ATOM     74  C   UNL A   1      41.900  32.359  36.059  1.00  0.00     0.198 A 
ATOM     75  F   UNL A   1      41.463  30.096  35.590  1.00  0.00    -0.203 F 
ATOM     76  F   UNL A   1      43.662  34.875  34.137  1.00  0.00    -0.200 F 
ATOM     77  C   UNL A   1      42.453  33.577  35.697  1.00  0.00     0.200 A 
ATOM     78  F   UNL A   1      41.254  32.239  37.228  1.00  0.00    -0.200 F 
ATOM     79  F   UNL A   1      42.360  34.629  36.521  1.00  0.00    -0.200 F 
ENDBRANCH  55  69
BRANCH  56  80
ATOM     80  C   UNL A   1      42.451  23.699  27.577  1.00  0.00     0.064 A 
ATOM     81  C   UNL A   1      42.010  22.424  27.962  1.00  0.00     0.173 A 
ATOM     82  C   UNL A   1      42.958  23.844  26.277  1.00  0.00     0.173 A 
ATOM     83  F   UNL A   1      41.536  22.226  29.201  1.00  0.00    -0.203 F 
ATOM     84  C   UNL A   1      42.116  21.333  27.101  1.00  0.00     0.198 A 
ATOM     85  C   UNL A   1      43.031  22.759  25.405  1.00  0.00     0.198 A 
ATOM     86  F   UNL A   1      43.390  25.042  25.854  1.00  0.00    -0.203 F 
ATOM     87  F   UNL A   1      41.757  20.113  27.524  1.00  0.00    -0.200 F 
ATOM     88  C   UNL A   1      42.625  21.501  25.824  1.00  0.00     0.200 A 
ATOM     89  F   UNL A   1      43.510  22.931  24.166  1.00  0.00    -0.200 F 
ATOM     90  F   UNL A   1      42.740  20.451  25.001  1.00  0.00    -0.200 F 
ENDBRANCH  56  80
BRANCH  68  91
ATOM     91  C   UNL A   1      46.900  25.756  32.528  1.00  0.00     0.064 A 
ATOM     92  C   UNL A   1      48.153  26.087  31.994  1.00  0.00     0.173 A 
ATOM     93  C   UNL A   1      46.864  24.897  33.638  1.00  0.00     0.173 A 
ATOM     94  F   UNL A   1      48.240  26.892  30.925  1.00  0.00    -0.203 F 
ATOM     95  C   UNL A   1      49.322  25.561  32.537  1.00  0.00     0.198 A 
ATOM     96  C   UNL A   1      48.037  24.400  34.198  1.00  0.00     0.198 A 
ATOM     97  F   UNL A   1      45.690  24.555  34.191  1.00  0.00    -0.203 F 
ATOM     98  F   UNL A   1      50.507  25.857  31.985  1.00  0.00    -0.200 F 
ATOM     99  C   UNL A   1      49.264  24.727  33.644  1.00  0.00     0.200 A 
ATOM    100  F   UNL A   1      47.979  23.607  35.278  1.00  0.00    -0.200 F 
ATOM    101  F   UNL A   1      50.392  24.236  34.175  1.00  0.00    -0.200 F 
ENDBRANCH  68  91
ENDBRANCH  42  43
ENDBRANCH  34  37
ENDBRANCH  32  33
ENDBRANCH  31  32
ENDBRANCH  30  31
ENDBRANCH   1  30
TORSDOF 17
ENDMDL
