MODEL 1
REMARK VINA RESULT:     -12.7      0.000      0.000
REMARK SMILES COc1ccc2c(c1)[C@@](NC=O)(C(=O)NCCCCCCNC(=O)c1ccc(-c3c4nc(c(-c5c(F)c(F)c(F)c(F)c5F)c5ccc([nH]5)c(-c5c(F)c(F)c(F)c(F)c5F)c5nc(c(-c6c(F)c(F)c(F)c(F)c6F)c6ccc3[nH]6)C=C5)C=C4)cc1)CCC2
REMARK SMILES IDX 19 1 18 2 17 3 16 4 15 5 13 6 14 7 9 9 3 10 4 11 8 12 5 13
REMARK SMILES IDX 7 14 6 15 90 16 88 17 89 18 2 19 1 20 10 21 11 22 12 24
REMARK SMILES IDX 20 25 21 26 22 27 23 28 24 30 25 31 26 32 87 33 27 34 86 35
REMARK SMILES IDX 28 36 29 37 30 38 80 39 31 40 85 41 79 42 81 43 32 44 84 45
REMARK SMILES IDX 78 46 77 47 33 49 65 50 45 51 64 52 46 53 49 54 63 55 82 56
REMARK SMILES IDX 47 57 48 58 62 60 83 61 50 62 34 63 35 64 43 65 36 66 37 67
REMARK SMILES IDX 41 68 44 69 38 70 39 71 42 72 40 73 66 74 67 75 75 76 68 77
REMARK SMILES IDX 69 78 73 79 76 80 70 81 71 82 74 83 72 84 51 85 52 86 60 87
REMARK SMILES IDX 53 88 54 89 58 90 61 91 55 92 56 93 59 94 57 95
REMARK H PARENT 15 8 10 23 22 29 81 48 49 59
REMARK Flexibility Score: inf
ROOT
ATOM      1  C   UNL A   1      31.414  30.871  25.906  1.00  0.00     0.002 C 
ENDROOT
BRANCH   1   2
ATOM      2  C   UNL A   1      32.167  29.884  26.805  1.00  0.00     0.002 C 
BRANCH   2   3
ATOM      3  C   UNL A   1      31.720  28.422  26.673  1.00  0.00     0.021 C 
BRANCH   3   4
ATOM      4  C   UNL A   1      32.772  27.511  26.034  1.00  0.00     0.116 C 
BRANCH   4   5
ATOM      5  N   UNL A   1      33.375  28.168  24.890  1.00  0.00    -0.354 N 
ATOM      6  C   UNL A   1      33.213  27.998  23.547  1.00  0.00     0.250 C 
ATOM      7  O   UNL A   1      33.954  28.691  22.836  1.00  0.00    -0.272 OA
ATOM      8  H   UNL A   1      34.024  28.870  25.129  1.00  0.00     0.163 HD
BRANCH   6   9
ATOM      9  C   UNL A   1      32.107  27.044  22.919  1.00  0.00     0.144 C 
ATOM     10  C   UNL A   1      29.529  29.814  22.251  1.00  0.00     0.119 A 
ATOM     11  C   UNL A   1      28.392  29.300  22.868  1.00  0.00     0.047 A 
ATOM     12  C   UNL A   1      30.712  29.081  22.300  1.00  0.00     0.053 A 
ATOM     13  C   UNL A   1      28.422  28.043  23.476  1.00  0.00     0.008 A 
ATOM     14  C   UNL A   1      30.770  27.812  22.927  1.00  0.00    -0.006 A 
ATOM     15  C   UNL A   1      29.598  27.276  23.483  1.00  0.00    -0.042 A 
ATOM     16  C   UNL A   1      29.583  25.909  24.112  1.00  0.00     0.036 C 
ATOM     17  C   UNL A   1      32.044  25.667  23.629  1.00  0.00     0.044 C 
ATOM     18  C   UNL A   1      30.668  25.010  23.531  1.00  0.00     0.008 C 
BRANCH  10  19
ATOM     19  O   UNL A   1      29.377  31.033  21.652  1.00  0.00    -0.497 OA
ATOM     20  C   UNL A   1      28.105  31.286  21.061  1.00  0.00     0.278 C 
ENDBRANCH  10  19
BRANCH   9  21
ATOM     21  N   UNL A   1      32.415  26.800  21.491  1.00  0.00    -0.341 N 
ATOM     22  C   UNL A   1      32.895  25.637  20.968  1.00  0.00     0.338 C 
ATOM     23  H   UNL A   1      32.259  27.543  20.866  1.00  0.00     0.164 HD
ATOM     24  O   UNL A   1      32.963  25.437  19.765  1.00  0.00    -0.279 OA
ENDBRANCH   9  21
ENDBRANCH   6   9
ENDBRANCH   4   5
ENDBRANCH   3   4
ENDBRANCH   2   3
ENDBRANCH   1   2
BRANCH   1  25
ATOM     25  C   UNL A   1      31.245  32.278  26.486  1.00  0.00     0.021 C 
BRANCH  25  26
ATOM     26  C   UNL A   1      32.462  32.812  27.236  1.00  0.00     0.116 C 
BRANCH  26  27
ATOM     27  N   UNL A   1      32.318  34.214  27.587  1.00  0.00    -0.352 N 
ATOM     28  C   UNL A   1      32.970  34.948  28.546  1.00  0.00     0.251 C 
ATOM     29  H   UNL A   1      31.653  34.713  27.058  1.00  0.00     0.163 HD
ATOM     30  O   UNL A   1      32.580  36.075  28.830  1.00  0.00    -0.269 OA
BRANCH  28  31
ATOM     31  C   UNL A   1      34.135  34.375  29.253  1.00  0.00     0.039 A 
ATOM     32  C   UNL A   1      33.924  33.701  30.460  1.00  0.00     0.014 A 
ATOM     33  C   UNL A   1      35.431  34.525  28.750  1.00  0.00     0.014 A 
ATOM     34  C   UNL A   1      35.005  33.131  31.133  1.00  0.00     0.010 A 
ATOM     35  C   UNL A   1      36.501  33.906  29.392  1.00  0.00     0.010 A 
ATOM     36  C   UNL A   1      36.299  33.206  30.591  1.00  0.00    -0.014 A 
BRANCH  36  37
ATOM     37  C   UNL A   1      37.446  32.548  31.265  1.00  0.00     0.031 A 
ATOM     38  C   UNL A   1      38.180  31.422  30.591  1.00  0.00     0.074 A 
ATOM     39  C   UNL A   1      37.792  32.932  32.508  1.00  0.00     0.049 A 
ATOM     40  N   UNL A   1      39.180  30.703  31.037  1.00  0.00    -0.248 NA
ATOM     41  C   UNL A   1      37.714  31.036  29.251  1.00  0.00     0.031 C 
ATOM     42  C   UNL A   1      37.126  33.978  33.285  1.00  0.00     0.029 A 
ATOM     43  N   UNL A   1      38.786  32.482  33.340  1.00  0.00    -0.354 N 
ATOM     44  C   UNL A   1      39.452  29.774  30.042  1.00  0.00     0.074 A 
ATOM     45  C   UNL A   1      38.484  29.990  28.987  1.00  0.00     0.031 C 
ATOM     46  C   UNL A   1      37.744  34.107  34.470  1.00  0.00     0.029 A 
ATOM     47  C   UNL A   1      38.829  33.134  34.548  1.00  0.00     0.049 A 
ATOM     48  H   UNL A   1      39.409  31.760  33.095  1.00  0.00     0.167 HD
ATOM     49  C   UNL A   1      40.432  28.841  30.002  1.00  0.00     0.037 A 
ATOM     50  C   UNL A   1      39.654  32.966  35.599  1.00  0.00     0.037 A 
ATOM     51  C   UNL A   1      41.415  28.652  31.037  1.00  0.00     0.049 A 
ATOM     52  C   UNL A   1      40.739  31.927  35.524  1.00  0.00     0.074 A 
ATOM     53  C   UNL A   1      42.494  27.786  31.054  1.00  0.00     0.029 A 
ATOM     54  N   UNL A   1      41.435  29.340  32.240  1.00  0.00    -0.354 N 
ATOM     55  N   UNL A   1      41.033  31.108  34.546  1.00  0.00    -0.248 NA
ATOM     56  C   UNL A   1      41.611  31.797  36.700  1.00  0.00     0.031 C 
ATOM     57  C   UNL A   1      43.144  27.921  32.286  1.00  0.00     0.029 A 
ATOM     58  C   UNL A   1      42.495  28.902  33.018  1.00  0.00     0.049 A 
ATOM     59  H   UNL A   1      40.792  30.038  32.504  1.00  0.00     0.167 HD
ATOM     60  C   UNL A   1      42.137  30.383  34.974  1.00  0.00     0.074 A 
ATOM     61  C   UNL A   1      42.469  30.872  36.296  1.00  0.00     0.031 C 
ATOM     62  C   UNL A   1      42.814  29.401  34.331  1.00  0.00     0.037 A 
BRANCH  49  63
ATOM     63  C   UNL A   1      40.497  27.950  28.795  1.00  0.00     0.064 A 
ATOM     64  C   UNL A   1      39.776  26.749  28.730  1.00  0.00     0.173 A 
ATOM     65  C   UNL A   1      41.253  28.325  27.675  1.00  0.00     0.173 A 
ATOM     66  F   UNL A   1      39.046  26.341  29.779  1.00  0.00    -0.203 F 
ATOM     67  C   UNL A   1      39.828  25.942  27.596  1.00  0.00     0.198 A 
ATOM     68  C   UNL A   1      41.282  27.530  26.532  1.00  0.00     0.198 A 
ATOM     69  F   UNL A   1      41.957  29.467  27.684  1.00  0.00    -0.203 F 
ATOM     70  F   UNL A   1      39.166  24.779  27.571  1.00  0.00    -0.200 F 
ATOM     71  C   UNL A   1      40.576  26.337  26.496  1.00  0.00     0.200 A 
ATOM     72  F   UNL A   1      41.996  27.918  25.466  1.00  0.00    -0.200 F 
ATOM     73  F   UNL A   1      40.619  25.564  25.402  1.00  0.00    -0.200 F 
ENDBRANCH  49  63
BRANCH  50  74
ATOM     74  C   UNL A   1      39.506  33.824  36.802  1.00  0.00     0.064 A 
ATOM     75  C   UNL A   1      38.749  33.394  37.901  1.00  0.00     0.173 A 
ATOM     76  C   UNL A   1      40.108  35.088  36.878  1.00  0.00     0.173 A 
ATOM     77  F   UNL A   1      38.137  32.201  37.865  1.00  0.00    -0.203 F 
ATOM     78  C   UNL A   1      38.582  34.204  39.022  1.00  0.00     0.198 A 
ATOM     79  C   UNL A   1      39.962  35.887  38.010  1.00  0.00     0.198 A 
ATOM     80  F   UNL A   1      40.846  35.543  35.855  1.00  0.00    -0.203 F 
ATOM     81  F   UNL A   1      37.817  33.786  40.039  1.00  0.00    -0.200 F 
ATOM     82  C   UNL A   1      39.193  35.447  39.078  1.00  0.00     0.200 A 
ATOM     83  F   UNL A   1      40.564  37.082  38.066  1.00  0.00    -0.200 F 
ATOM     84  F   UNL A   1      39.035  36.225  40.157  1.00  0.00    -0.200 F 
ENDBRANCH  50  74
BRANCH  62  85
ATOM     85  C   UNL A   1      43.996  28.808  35.039  1.00  0.00     0.064 A 
ATOM     86  C   UNL A   1      45.280  29.356  34.906  1.00  0.00     0.173 A 
ATOM     87  C   UNL A   1      43.837  27.698  35.880  1.00  0.00     0.173 A 
ATOM     88  F   UNL A   1      45.486  30.407  34.099  1.00  0.00    -0.203 F 
ATOM     89  C   UNL A   1      46.368  28.795  35.570  1.00  0.00     0.198 A 
ATOM     90  C   UNL A   1      44.922  27.157  36.564  1.00  0.00     0.198 A 
ATOM     91  F   UNL A   1      42.628  27.140  36.045  1.00  0.00    -0.203 F 
ATOM     92  F   UNL A   1      47.594  29.305  35.391  1.00  0.00    -0.200 F 
ATOM     93  C   UNL A   1      46.187  27.701  36.404  1.00  0.00     0.200 A 
ATOM     94  F   UNL A   1      44.744  26.107  37.377  1.00  0.00    -0.200 F 
ATOM     95  F   UNL A   1      47.235  27.166  37.044  1.00  0.00    -0.200 F 
ENDBRANCH  62  85
ENDBRANCH  36  37
ENDBRANCH  28  31
ENDBRANCH  26  27
ENDBRANCH  25  26
ENDBRANCH   1  25
TORSDOF 15
ENDMDL
MODEL 2
REMARK VINA RESULT:     -12.6      0.588      7.456
REMARK SMILES COc1ccc2c(c1)[C@@](NC=O)(C(=O)NCCCCCCNC(=O)c1ccc(-c3c4nc(c(-c5c(F)c(F)c(F)c(F)c5F)c5ccc([nH]5)c(-c5c(F)c(F)c(F)c(F)c5F)c5nc(c(-c6c(F)c(F)c(F)c(F)c6F)c6ccc3[nH]6)C=C5)C=C4)cc1)CCC2
REMARK SMILES IDX 19 1 18 2 17 3 16 4 15 5 13 6 14 7 9 9 3 10 4 11 8 12 5 13
REMARK SMILES IDX 7 14 6 15 90 16 88 17 89 18 2 19 1 20 10 21 11 22 12 24
REMARK SMILES IDX 20 25 21 26 22 27 23 28 24 30 25 31 26 32 87 33 27 34 86 35
REMARK SMILES IDX 28 36 29 37 30 38 80 39 31 40 85 41 79 42 81 43 32 44 84 45
REMARK SMILES IDX 78 46 77 47 33 49 65 50 45 51 64 52 46 53 49 54 63 55 82 56
REMARK SMILES IDX 47 57 48 58 62 60 83 61 50 62 34 63 35 64 43 65 36 66 37 67
REMARK SMILES IDX 41 68 44 69 38 70 39 71 42 72 40 73 66 74 67 75 75 76 68 77
REMARK SMILES IDX 69 78 73 79 76 80 70 81 71 82 74 83 72 84 51 85 52 86 60 87
REMARK SMILES IDX 53 88 54 89 58 90 61 91 55 92 56 93 59 94 57 95
REMARK H PARENT 15 8 10 23 22 29 81 48 49 59
REMARK Flexibility Score: inf
ROOT
ATOM      1  C   UNL A   1      31.255  30.879  25.854  1.00  0.00     0.002 C 
ENDROOT
BRANCH   1   2
ATOM      2  C   UNL A   1      32.129  29.889  26.632  1.00  0.00     0.002 C 
BRANCH   2   3
ATOM      3  C   UNL A   1      31.686  28.424  26.535  1.00  0.00     0.021 C 
BRANCH   3   4
ATOM      4  C   UNL A   1      32.737  27.502  25.910  1.00  0.00     0.116 C 
BRANCH   4   5
ATOM      5  N   UNL A   1      33.325  28.132  24.743  1.00  0.00    -0.354 N 
ATOM      6  C   UNL A   1      33.131  27.944  23.407  1.00  0.00     0.250 C 
ATOM      7  O   UNL A   1      33.866  28.614  22.669  1.00  0.00    -0.272 OA
ATOM      8  H   UNL A   1      33.990  28.826  24.957  1.00  0.00     0.163 HD
BRANCH   6   9
ATOM      9  C   UNL A   1      31.997  26.998  22.818  1.00  0.00     0.144 C 
ATOM     10  C   UNL A   1      29.419  29.787  22.237  1.00  0.00     0.119 A 
ATOM     11  C   UNL A   1      28.300  29.282  22.894  1.00  0.00     0.047 A 
ATOM     12  C   UNL A   1      30.597  29.045  22.246  1.00  0.00     0.053 A 
ATOM     13  C   UNL A   1      28.341  28.025  23.502  1.00  0.00     0.008 A 
ATOM     14  C   UNL A   1      30.667  27.777  22.872  1.00  0.00    -0.006 A 
ATOM     15  C   UNL A   1      29.510  27.249  23.468  1.00  0.00    -0.042 A 
ATOM     16  C   UNL A   1      29.507  25.883  24.099  1.00  0.00     0.036 C 
ATOM     17  C   UNL A   1      31.948  25.621  23.531  1.00  0.00     0.044 C 
ATOM     18  C   UNL A   1      30.564  24.975  23.480  1.00  0.00     0.008 C 
BRANCH  10  19
ATOM     19  O   UNL A   1      29.255  31.007  21.643  1.00  0.00    -0.497 OA
ATOM     20  C   UNL A   1      28.900  32.083  22.508  1.00  0.00     0.278 C 
ENDBRANCH  10  19
BRANCH   9  21
ATOM     21  N   UNL A   1      32.253  26.751  21.381  1.00  0.00    -0.341 N 
ATOM     22  C   UNL A   1      32.873  25.655  20.859  1.00  0.00     0.338 C 
ATOM     23  H   UNL A   1      31.949  27.439  20.746  1.00  0.00     0.164 HD
ATOM     24  O   UNL A   1      32.899  25.424  19.660  1.00  0.00    -0.279 OA
ENDBRANCH   9  21
ENDBRANCH   6   9
ENDBRANCH   4   5
ENDBRANCH   3   4
ENDBRANCH   2   3
ENDBRANCH   1   2
BRANCH   1  25
ATOM     25  C   UNL A   1      31.162  32.281  26.463  1.00  0.00     0.021 C 
BRANCH  25  26
ATOM     26  C   UNL A   1      32.408  32.735  27.218  1.00  0.00     0.116 C 
BRANCH  26  27
ATOM     27  N   UNL A   1      32.351  34.142  27.574  1.00  0.00    -0.352 N 
ATOM     28  C   UNL A   1      33.076  34.839  28.508  1.00  0.00     0.251 C 
ATOM     29  H   UNL A   1      31.694  34.676  27.070  1.00  0.00     0.163 HD
ATOM     30  O   UNL A   1      32.757  35.984  28.806  1.00  0.00    -0.269 OA
BRANCH  28  31
ATOM     31  C   UNL A   1      34.234  34.204  29.171  1.00  0.00     0.039 A 
ATOM     32  C   UNL A   1      34.000  33.262  30.177  1.00  0.00     0.014 A 
ATOM     33  C   UNL A   1      35.544  34.555  28.829  1.00  0.00     0.014 A 
ATOM     34  C   UNL A   1      35.078  32.632  30.801  1.00  0.00     0.010 A 
ATOM     35  C   UNL A   1      36.618  33.883  29.410  1.00  0.00     0.010 A 
ATOM     36  C   UNL A   1      36.395  32.918  30.403  1.00  0.00    -0.014 A 
BRANCH  36  37
ATOM     37  C   UNL A   1      37.545  32.207  31.014  1.00  0.00     0.031 A 
ATOM     38  C   UNL A   1      38.020  32.573  32.393  1.00  0.00     0.074 A 
ATOM     39  C   UNL A   1      38.195  31.266  30.303  1.00  0.00     0.049 A 
ATOM     40  N   UNL A   1      39.028  32.090  33.077  1.00  0.00    -0.248 NA
ATOM     41  C   UNL A   1      37.281  33.639  33.086  1.00  0.00     0.031 C 
ATOM     42  C   UNL A   1      37.860  30.857  28.939  1.00  0.00     0.029 A 
ATOM     43  N   UNL A   1      39.278  30.487  30.628  1.00  0.00    -0.354 N 
ATOM     44  C   UNL A   1      39.052  32.801  34.268  1.00  0.00     0.074 A 
ATOM     45  C   UNL A   1      37.988  33.779  34.199  1.00  0.00     0.031 C 
ATOM     46  C   UNL A   1      38.703  29.887  28.551  1.00  0.00     0.029 A 
ATOM     47  C   UNL A   1      39.655  29.626  29.627  1.00  0.00     0.049 A 
ATOM     48  H   UNL A   1      39.740  30.541  31.495  1.00  0.00     0.167 HD
ATOM     49  C   UNL A   1      39.875  32.638  35.332  1.00  0.00     0.037 A 
ATOM     50  C   UNL A   1      40.656  28.727  29.584  1.00  0.00     0.037 A 
ATOM     51  C   UNL A   1      40.911  31.641  35.411  1.00  0.00     0.049 A 
ATOM     52  C   UNL A   1      41.548  28.561  30.783  1.00  0.00     0.074 A 
ATOM     53  C   UNL A   1      41.744  31.346  36.476  1.00  0.00     0.029 A 
ATOM     54  N   UNL A   1      41.255  30.777  34.383  1.00  0.00    -0.354 N 
ATOM     55  N   UNL A   1      41.512  29.186  31.933  1.00  0.00    -0.248 NA
ATOM     56  C   UNL A   1      42.618  27.558  30.677  1.00  0.00     0.031 C 
ATOM     57  C   UNL A   1      42.622  30.331  36.077  1.00  0.00     0.029 A 
ATOM     58  C   UNL A   1      42.305  29.964  34.779  1.00  0.00     0.049 A 
ATOM     59  H   UNL A   1      40.818  30.745  33.501  1.00  0.00     0.167 HD
ATOM     60  C   UNL A   1      42.532  28.637  32.697  1.00  0.00     0.074 A 
ATOM     61  C   UNL A   1      43.160  27.616  31.884  1.00  0.00     0.031 C 
ATOM     62  C   UNL A   1      42.916  28.951  33.959  1.00  0.00     0.037 A 
BRANCH  49  63
ATOM     63  C   UNL A   1      39.687  33.557  36.504  1.00  0.00     0.064 A 
ATOM     64  C   UNL A   1      40.301  34.817  36.555  1.00  0.00     0.173 A 
ATOM     65  C   UNL A   1      38.848  33.190  37.567  1.00  0.00     0.173 A 
ATOM     66  F   UNL A   1      41.120  35.209  35.568  1.00  0.00    -0.203 F 
ATOM     67  C   UNL A   1      40.101  35.668  37.639  1.00  0.00     0.198 A 
ATOM     68  C   UNL A   1      38.629  34.055  38.637  1.00  0.00     0.198 A 
ATOM     69  F   UNL A   1      38.234  31.998  37.565  1.00  0.00    -0.203 F 
ATOM     70  F   UNL A   1      40.730  36.849  37.686  1.00  0.00    -0.200 F 
ATOM     71  C   UNL A   1      39.260  35.289  38.675  1.00  0.00     0.200 A 
ATOM     72  F   UNL A   1      37.808  33.692  39.632  1.00  0.00    -0.200 F 
ATOM     73  F   UNL A   1      39.062  36.113  39.714  1.00  0.00    -0.200 F 
ENDBRANCH  49  63
BRANCH  50  74
ATOM     74  C   UNL A   1      40.847  27.888  28.373  1.00  0.00     0.064 A 
ATOM     75  C   UNL A   1      41.645  28.335  27.310  1.00  0.00     0.173 A 
ATOM     76  C   UNL A   1      40.236  26.632  28.248  1.00  0.00     0.173 A 
ATOM     77  F   UNL A   1      42.234  29.539  27.376  1.00  0.00    -0.203 F 
ATOM     78  C   UNL A   1      41.808  27.567  26.160  1.00  0.00     0.198 A 
ATOM     79  C   UNL A   1      40.420  25.854  27.108  1.00  0.00     0.198 A 
ATOM     80  F   UNL A   1      39.466  26.158  29.239  1.00  0.00    -0.203 F 
ATOM     81  F   UNL A   1      42.541  28.037  25.142  1.00  0.00    -0.200 F 
ATOM     82  C   UNL A   1      41.199  26.325  26.061  1.00  0.00     0.200 A 
ATOM     83  F   UNL A   1      39.841  24.649  27.021  1.00  0.00    -0.200 F 
ATOM     84  F   UNL A   1      41.358  25.585  24.955  1.00  0.00    -0.200 F 
ENDBRANCH  50  74
BRANCH  62  85
ATOM     85  C   UNL A   1      44.051  28.164  34.545  1.00  0.00     0.064 A 
ATOM     86  C   UNL A   1      43.833  26.951  35.214  1.00  0.00     0.173 A 
ATOM     87  C   UNL A   1      45.372  28.615  34.411  1.00  0.00     0.173 A 
ATOM     88  F   UNL A   1      42.586  26.488  35.383  1.00  0.00    -0.203 F 
ATOM     89  C   UNL A   1      44.897  26.232  35.752  1.00  0.00     0.198 A 
ATOM     90  C   UNL A   1      46.436  27.879  34.925  1.00  0.00     0.198 A 
ATOM     91  F   UNL A   1      45.633  29.766  33.774  1.00  0.00    -0.203 F 
ATOM     92  F   UNL A   1      44.662  25.099  36.429  1.00  0.00    -0.200 F 
ATOM     93  C   UNL A   1      46.197  26.692  35.601  1.00  0.00     0.200 A 
ATOM     94  F   UNL A   1      47.691  28.319  34.770  1.00  0.00    -0.200 F 
ATOM     95  F   UNL A   1      47.219  25.995  36.116  1.00  0.00    -0.200 F 
ENDBRANCH  62  85
ENDBRANCH  36  37
ENDBRANCH  28  31
ENDBRANCH  26  27
ENDBRANCH  25  26
ENDBRANCH   1  25
TORSDOF 15
ENDMDL
MODEL 3
REMARK VINA RESULT:     -12.6      0.185      1.948
REMARK SMILES COc1ccc2c(c1)[C@@](NC=O)(C(=O)NCCCCCCNC(=O)c1ccc(-c3c4nc(c(-c5c(F)c(F)c(F)c(F)c5F)c5ccc([nH]5)c(-c5c(F)c(F)c(F)c(F)c5F)c5nc(c(-c6c(F)c(F)c(F)c(F)c6F)c6ccc3[nH]6)C=C5)C=C4)cc1)CCC2
REMARK SMILES IDX 19 1 18 2 17 3 16 4 15 5 13 6 14 7 9 9 3 10 4 11 8 12 5 13
REMARK SMILES IDX 7 14 6 15 90 16 88 17 89 18 2 19 1 20 10 21 11 22 12 24
REMARK SMILES IDX 20 25 21 26 22 27 23 28 24 30 25 31 26 32 87 33 27 34 86 35
REMARK SMILES IDX 28 36 29 37 30 38 80 39 31 40 85 41 79 42 81 43 32 44 84 45
REMARK SMILES IDX 78 46 77 47 33 49 65 50 45 51 64 52 46 53 49 54 63 55 82 56
REMARK SMILES IDX 47 57 48 58 62 60 83 61 50 62 34 63 35 64 43 65 36 66 37 67
REMARK SMILES IDX 41 68 44 69 38 70 39 71 42 72 40 73 66 74 67 75 75 76 68 77
REMARK SMILES IDX 69 78 73 79 76 80 70 81 71 82 74 83 72 84 51 85 52 86 60 87
REMARK SMILES IDX 53 88 54 89 58 90 61 91 55 92 56 93 59 94 57 95
REMARK H PARENT 15 8 10 23 22 29 81 48 49 59
REMARK Flexibility Score: inf
ROOT
ATOM      1  C   UNL A   1      31.374  30.929  25.838  1.00  0.00     0.002 C 
ENDROOT
BRANCH   1   2
ATOM      2  C   UNL A   1      32.339  29.985  26.565  1.00  0.00     0.002 C 
BRANCH   2   3
ATOM      3  C   UNL A   1      31.776  28.587  26.855  1.00  0.00     0.021 C 
BRANCH   3   4
ATOM      4  C   UNL A   1      32.423  27.477  26.022  1.00  0.00     0.116 C 
BRANCH   4   5
ATOM      5  N   UNL A   1      33.108  28.045  24.877  1.00  0.00    -0.354 N 
ATOM      6  C   UNL A   1      32.976  27.837  23.536  1.00  0.00     0.250 C 
ATOM      7  O   UNL A   1      33.787  28.447  22.826  1.00  0.00    -0.272 OA
ATOM      8  H   UNL A   1      33.799  28.706  25.112  1.00  0.00     0.163 HD
BRANCH   6   9
ATOM      9  C   UNL A   1      31.823  26.943  22.905  1.00  0.00     0.144 C 
ATOM     10  C   UNL A   1      29.372  29.837  22.288  1.00  0.00     0.119 A 
ATOM     11  C   UNL A   1      28.216  29.369  22.908  1.00  0.00     0.047 A 
ATOM     12  C   UNL A   1      30.519  29.049  22.320  1.00  0.00     0.053 A 
ATOM     13  C   UNL A   1      28.192  28.105  23.501  1.00  0.00     0.008 A 
ATOM     14  C   UNL A   1      30.523  27.772  22.932  1.00  0.00    -0.006 A 
ATOM     15  C   UNL A   1      29.330  27.284  23.490  1.00  0.00    -0.042 A 
ATOM     16  C   UNL A   1      29.257  25.912  24.104  1.00  0.00     0.036 C 
ATOM     17  C   UNL A   1      31.700  25.561  23.599  1.00  0.00     0.044 C 
ATOM     18  C   UNL A   1      30.294  24.970  23.504  1.00  0.00     0.008 C 
BRANCH  10  19
ATOM     19  O   UNL A   1      29.272  31.069  21.704  1.00  0.00    -0.497 OA
ATOM     20  C   UNL A   1      28.064  31.329  20.993  1.00  0.00     0.278 C 
ENDBRANCH  10  19
BRANCH   9  21
ATOM     21  N   UNL A   1      32.109  26.702  21.472  1.00  0.00    -0.341 N 
ATOM     22  C   UNL A   1      32.849  25.674  20.971  1.00  0.00     0.338 C 
ATOM     23  H   UNL A   1      31.731  27.340  20.826  1.00  0.00     0.164 HD
ATOM     24  O   UNL A   1      32.904  25.426  19.775  1.00  0.00    -0.279 OA
ENDBRANCH   9  21
ENDBRANCH   6   9
ENDBRANCH   4   5
ENDBRANCH   3   4
ENDBRANCH   2   3
ENDBRANCH   1   2
BRANCH   1  25
ATOM     25  C   UNL A   1      31.182  32.296  26.501  1.00  0.00     0.021 C 
BRANCH  25  26
ATOM     26  C   UNL A   1      32.402  32.820  27.253  1.00  0.00     0.116 C 
BRANCH  26  27
ATOM     27  N   UNL A   1      32.262  34.220  27.615  1.00  0.00    -0.352 N 
ATOM     28  C   UNL A   1      32.914  34.942  28.583  1.00  0.00     0.251 C 
ATOM     29  H   UNL A   1      31.602  34.726  27.088  1.00  0.00     0.163 HD
ATOM     30  O   UNL A   1      32.528  36.069  28.875  1.00  0.00    -0.269 OA
BRANCH  28  31
ATOM     31  C   UNL A   1      34.073  34.358  29.290  1.00  0.00     0.039 A 
ATOM     32  C   UNL A   1      33.856  33.688  30.498  1.00  0.00     0.014 A 
ATOM     33  C   UNL A   1      35.370  34.494  28.785  1.00  0.00     0.014 A 
ATOM     34  C   UNL A   1      34.932  33.108  31.171  1.00  0.00     0.010 A 
ATOM     35  C   UNL A   1      36.435  33.864  29.427  1.00  0.00     0.010 A 
ATOM     36  C   UNL A   1      36.226  33.168  30.627  1.00  0.00    -0.014 A 
BRANCH  36  37
ATOM     37  C   UNL A   1      37.367  32.499  31.301  1.00  0.00     0.031 A 
ATOM     38  C   UNL A   1      38.083  31.359  30.633  1.00  0.00     0.074 A 
ATOM     39  C   UNL A   1      37.723  32.887  32.541  1.00  0.00     0.049 A 
ATOM     40  N   UNL A   1      39.075  30.629  31.079  1.00  0.00    -0.248 NA
ATOM     41  C   UNL A   1      37.606  30.971  29.297  1.00  0.00     0.031 C 
ATOM     42  C   UNL A   1      37.074  33.947  33.313  1.00  0.00     0.029 A 
ATOM     43  N   UNL A   1      38.714  32.429  33.372  1.00  0.00    -0.354 N 
ATOM     44  C   UNL A   1      39.329  29.690  30.089  1.00  0.00     0.074 A 
ATOM     45  C   UNL A   1      38.360  29.912  29.037  1.00  0.00     0.031 C 
ATOM     46  C   UNL A   1      37.699  34.076  34.494  1.00  0.00     0.029 A 
ATOM     47  C   UNL A   1      38.771  33.089  34.575  1.00  0.00     0.049 A 
ATOM     48  H   UNL A   1      39.326  31.697  33.129  1.00  0.00     0.167 HD
ATOM     49  C   UNL A   1      40.296  28.743  30.052  1.00  0.00     0.037 A 
ATOM     50  C   UNL A   1      39.597  32.916  35.624  1.00  0.00     0.037 A 
ATOM     51  C   UNL A   1      41.281  28.548  31.084  1.00  0.00     0.049 A 
ATOM     52  C   UNL A   1      40.668  31.862  35.552  1.00  0.00     0.074 A 
ATOM     53  C   UNL A   1      42.348  27.667  31.103  1.00  0.00     0.029 A 
ATOM     54  N   UNL A   1      41.316  29.244  32.283  1.00  0.00    -0.354 N 
ATOM     55  N   UNL A   1      40.947  31.032  34.578  1.00  0.00    -0.248 NA
ATOM     56  C   UNL A   1      41.543  31.728  36.725  1.00  0.00     0.031 C 
ATOM     57  C   UNL A   1      43.005  27.802  32.332  1.00  0.00     0.029 A 
ATOM     58  C   UNL A   1      42.372  28.796  33.060  1.00  0.00     0.049 A 
ATOM     59  H   UNL A   1      40.683  29.952  32.544  1.00  0.00     0.167 HD
ATOM     60  C   UNL A   1      42.042  30.296  35.006  1.00  0.00     0.074 A 
ATOM     61  C   UNL A   1      42.387  30.789  36.324  1.00  0.00     0.031 C 
ATOM     62  C   UNL A   1      42.703  29.300  34.367  1.00  0.00     0.037 A 
BRANCH  49  63
ATOM     63  C   UNL A   1      40.344  27.844  28.851  1.00  0.00     0.064 A 
ATOM     64  C   UNL A   1      41.113  28.166  27.722  1.00  0.00     0.173 A 
ATOM     65  C   UNL A   1      39.650  26.625  28.848  1.00  0.00     0.173 A 
ATOM     66  F   UNL A   1      41.786  29.325  27.673  1.00  0.00    -0.203 F 
ATOM     67  C   UNL A   1      41.165  27.312  26.624  1.00  0.00     0.198 A 
ATOM     68  C   UNL A   1      39.726  25.761  27.758  1.00  0.00     0.198 A 
ATOM     69  F   UNL A   1      38.905  26.267  29.904  1.00  0.00    -0.203 F 
ATOM     70  F   UNL A   1      41.871  27.659  25.540  1.00  0.00    -0.200 F 
ATOM     71  C   UNL A   1      40.478  26.107  26.646  1.00  0.00     0.200 A 
ATOM     72  F   UNL A   1      39.070  24.592  27.785  1.00  0.00    -0.200 F 
ATOM     73  F   UNL A   1      40.536  25.282  25.591  1.00  0.00    -0.200 F 
ENDBRANCH  49  63
BRANCH  50  74
ATOM     74  C   UNL A   1      39.466  33.784  36.822  1.00  0.00     0.064 A 
ATOM     75  C   UNL A   1      40.112  35.027  36.880  1.00  0.00     0.173 A 
ATOM     76  C   UNL A   1      38.704  33.391  37.931  1.00  0.00     0.173 A 
ATOM     77  F   UNL A   1      40.869  35.436  35.851  1.00  0.00    -0.203 F 
ATOM     78  C   UNL A   1      40.016  35.836  38.011  1.00  0.00     0.198 A 
ATOM     79  C   UNL A   1      38.588  34.212  39.051  1.00  0.00     0.198 A 
ATOM     80  F   UNL A   1      38.064  32.212  37.923  1.00  0.00    -0.203 F 
ATOM     81  F   UNL A   1      40.679  36.999  38.056  1.00  0.00    -0.200 F 
ATOM     82  C   UNL A   1      39.251  35.430  39.093  1.00  0.00     0.200 A 
ATOM     83  F   UNL A   1      37.838  33.822  40.090  1.00  0.00    -0.200 F 
ATOM     84  F   UNL A   1      39.158  36.209  40.179  1.00  0.00    -0.200 F 
ENDBRANCH  50  74
BRANCH  62  85
ATOM     85  C   UNL A   1      43.881  28.696  35.075  1.00  0.00     0.064 A 
ATOM     86  C   UNL A   1      43.738  27.586  35.919  1.00  0.00     0.173 A 
ATOM     87  C   UNL A   1      45.168  29.218  34.884  1.00  0.00     0.173 A 
ATOM     88  F   UNL A   1      42.524  27.062  36.146  1.00  0.00    -0.203 F 
ATOM     89  C   UNL A   1      44.840  27.036  36.568  1.00  0.00     0.198 A 
ATOM     90  C   UNL A   1      46.272  28.649  35.513  1.00  0.00     0.198 A 
ATOM     91  F   UNL A   1      45.358  30.277  34.083  1.00  0.00    -0.203 F 
ATOM     92  F   UNL A   1      44.674  26.004  37.407  1.00  0.00    -0.200 F 
ATOM     93  C   UNL A   1      46.106  27.563  36.359  1.00  0.00     0.200 A 
ATOM     94  F   UNL A   1      47.495  29.152  35.303  1.00  0.00    -0.200 F 
ATOM     95  F   UNL A   1      47.166  27.029  36.983  1.00  0.00    -0.200 F 
ENDBRANCH  62  85
ENDBRANCH  36  37
ENDBRANCH  28  31
ENDBRANCH  26  27
ENDBRANCH  25  26
ENDBRANCH   1  25
TORSDOF 15
ENDMDL
