MODEL 1
REMARK VINA RESULT:     -12.1      0.000      0.000
REMARK SMILES [NH3+][C@H](C(=O)NCCCCCCNC(=O)c1ccc(-c2c3nc(c(-c4c(F)c(F)c(F)c(F)c4F)c4ccc([nH]4)c(-c4c(F)c(F)c(F)c(F)c4F)c4nc(c(-c5c(F)c(F)c(F)c(F)c5F)c5ccc2[nH]5)C=C4)C=C3)cc1)c1cc(F)c(F)c(F)c1F
REMARK SMILES IDX 9 1 8 2 7 3 6 4 5 5 3 6 4 7 2 9 1 10 78 14 79 15 86 16 80 17
REMARK SMILES IDX 84 18 87 19 81 20 82 21 85 22 83 23 10 24 11 25 12 26 13 27
REMARK SMILES IDX 14 29 15 30 16 31 77 32 17 33 76 34 18 35 19 36 20 37 70 38
REMARK SMILES IDX 21 39 75 40 69 41 71 42 22 43 74 44 68 45 67 46 23 48 55 49
REMARK SMILES IDX 35 50 54 51 36 52 39 53 53 54 72 55 37 56 38 57 52 59 73 60
REMARK SMILES IDX 40 61 24 62 25 63 33 64 26 65 27 66 31 67 34 68 28 69 29 70
REMARK SMILES IDX 32 71 30 72 56 73 57 74 65 75 58 76 59 77 63 78 66 79 60 80
REMARK SMILES IDX 61 81 64 82 62 83 41 84 42 85 50 86 43 87 44 88 48 89 51 90
REMARK SMILES IDX 45 91 46 92 49 93 47 94
REMARK H PARENT 5 8 1 11 1 12 1 13 12 28 71 47 39 58
REMARK Flexibility Score: inf
ROOT
ATOM      1  C   UNL A   1      31.427  30.686  26.704  1.00  0.00     0.002 C 
ENDROOT
BRANCH   1   2
ATOM      2  C   UNL A   1      31.933  29.993  25.433  1.00  0.00     0.002 C 
BRANCH   2   3
ATOM      3  C   UNL A   1      33.175  29.115  25.618  1.00  0.00     0.021 C 
BRANCH   3   4
ATOM      4  C   UNL A   1      32.999  27.672  25.143  1.00  0.00     0.116 C 
BRANCH   4   5
ATOM      5  N   UNL A   1      31.972  26.990  25.908  1.00  0.00    -0.351 N 
ATOM      6  C   UNL A   1      30.849  26.336  25.483  1.00  0.00     0.283 C 
ATOM      7  O   UNL A   1      30.081  25.894  26.343  1.00  0.00    -0.268 OA
ATOM      8  H   UNL A   1      32.104  26.999  26.884  1.00  0.00     0.163 HD
BRANCH   6   9
ATOM      9  C   UNL A   1      30.583  26.129  23.966  1.00  0.00     0.305 C 
BRANCH   9  10
ATOM     10  N   UNL A   1      30.007  24.784  23.753  1.00  0.00    -0.343 N 
ATOM     11  H   UNL A   1      30.213  24.473  22.803  1.00  0.00     0.345 HD
ATOM     12  H   UNL A   1      28.997  24.821  23.887  1.00  0.00     0.345 HD
ATOM     13  H   UNL A   1      30.415  24.130  24.421  1.00  0.00     0.345 HD
ENDBRANCH   9  10
BRANCH   9  14
ATOM     14  C   UNL A   1      29.718  27.240  23.399  1.00  0.00     0.061 A 
ATOM     15  C   UNL A   1      30.310  28.259  22.632  1.00  0.00     0.056 A 
ATOM     16  C   UNL A   1      28.341  27.340  23.657  1.00  0.00     0.171 A 
ATOM     17  C   UNL A   1      29.557  29.339  22.176  1.00  0.00     0.162 A 
ATOM     18  C   UNL A   1      27.586  28.404  23.161  1.00  0.00     0.198 A 
ATOM     19  F   UNL A   1      27.722  26.408  24.397  1.00  0.00    -0.203 F 
ATOM     20  F   UNL A   1      30.172  30.317  21.496  1.00  0.00    -0.204 F 
ATOM     21  C   UNL A   1      28.197  29.411  22.432  1.00  0.00     0.197 A 
ATOM     22  F   UNL A   1      26.269  28.458  23.403  1.00  0.00    -0.200 F 
ATOM     23  F   UNL A   1      27.484  30.453  21.985  1.00  0.00    -0.200 F 
ENDBRANCH   9  14
ENDBRANCH   6   9
ENDBRANCH   4   5
ENDBRANCH   3   4
ENDBRANCH   2   3
ENDBRANCH   1   2
BRANCH   1  24
ATOM     24  C   UNL A   1      31.408  32.216  26.657  1.00  0.00     0.021 C 
BRANCH  24  25
ATOM     25  C   UNL A   1      32.675  32.893  27.172  1.00  0.00     0.116 C 
BRANCH  25  26
ATOM     26  N   UNL A   1      32.432  34.259  27.607  1.00  0.00    -0.352 N 
ATOM     27  C   UNL A   1      33.002  34.962  28.637  1.00  0.00     0.251 C 
ATOM     28  H   UNL A   1      31.759  34.751  27.085  1.00  0.00     0.163 HD
ATOM     29  O   UNL A   1      32.534  36.048  28.975  1.00  0.00    -0.269 OA
BRANCH  27  30
ATOM     30  C   UNL A   1      34.169  34.413  29.358  1.00  0.00     0.039 A 
ATOM     31  C   UNL A   1      33.961  33.752  30.572  1.00  0.00     0.014 A 
ATOM     32  C   UNL A   1      35.463  34.565  28.856  1.00  0.00     0.014 A 
ATOM     33  C   UNL A   1      35.045  33.193  31.252  1.00  0.00     0.010 A 
ATOM     34  C   UNL A   1      36.535  33.951  29.500  1.00  0.00     0.010 A 
ATOM     35  C   UNL A   1      36.337  33.261  30.706  1.00  0.00    -0.014 A 
BRANCH  35  36
ATOM     36  C   UNL A   1      37.492  32.619  31.382  1.00  0.00     0.031 A 
ATOM     37  C   UNL A   1      38.210  31.472  30.727  1.00  0.00     0.074 A 
ATOM     38  C   UNL A   1      37.852  33.025  32.614  1.00  0.00     0.049 A 
ATOM     39  N   UNL A   1      39.194  30.740  31.186  1.00  0.00    -0.248 NA
ATOM     40  C   UNL A   1      37.742  31.079  29.390  1.00  0.00     0.031 C 
ATOM     41  C   UNL A   1      37.206  34.096  33.372  1.00  0.00     0.029 A 
ATOM     42  N   UNL A   1      38.845  32.578  33.449  1.00  0.00    -0.354 N 
ATOM     43  C   UNL A   1      39.451  29.793  30.203  1.00  0.00     0.074 A 
ATOM     44  C   UNL A   1      38.488  30.011  29.145  1.00  0.00     0.031 C 
ATOM     45  C   UNL A   1      37.830  34.237  34.553  1.00  0.00     0.029 A 
ATOM     46  C   UNL A   1      38.897  33.245  34.648  1.00  0.00     0.049 A 
ATOM     47  H   UNL A   1      39.461  31.848  33.212  1.00  0.00     0.167 HD
ATOM     48  C   UNL A   1      40.418  28.844  30.175  1.00  0.00     0.037 A 
ATOM     49  C   UNL A   1      39.710  33.071  35.709  1.00  0.00     0.037 A 
ATOM     50  C   UNL A   1      41.390  28.648  31.218  1.00  0.00     0.049 A 
ATOM     51  C   UNL A   1      40.771  32.008  35.655  1.00  0.00     0.074 A 
ATOM     52  C   UNL A   1      42.450  27.758  31.255  1.00  0.00     0.029 A 
ATOM     53  N   UNL A   1      41.420  29.352  32.413  1.00  0.00    -0.354 N 
ATOM     54  N   UNL A   1      41.049  31.164  34.692  1.00  0.00    -0.248 NA
ATOM     55  C   UNL A   1      41.637  31.876  36.836  1.00  0.00     0.031 C 
ATOM     56  C   UNL A   1      43.092  27.892  32.490  1.00  0.00     0.029 A 
ATOM     57  C   UNL A   1      42.464  28.900  33.203  1.00  0.00     0.049 A 
ATOM     58  H   UNL A   1      40.791  30.068  32.662  1.00  0.00     0.167 HD
ATOM     59  C   UNL A   1      42.134  30.420  35.136  1.00  0.00     0.074 A 
ATOM     60  C   UNL A   1      42.474  30.923  36.452  1.00  0.00     0.031 C 
ATOM     61  C   UNL A   1      42.791  29.413  34.510  1.00  0.00     0.037 A 
BRANCH  48  62
ATOM     62  C   UNL A   1      40.468  27.944  28.974  1.00  0.00     0.064 A 
ATOM     63  C   UNL A   1      41.258  28.251  27.856  1.00  0.00     0.173 A 
ATOM     64  C   UNL A   1      39.737  26.747  28.951  1.00  0.00     0.173 A 
ATOM     65  F   UNL A   1      41.968  29.389  27.823  1.00  0.00    -0.203 F 
ATOM     66  C   UNL A   1      41.287  27.412  26.746  1.00  0.00     0.198 A 
ATOM     67  C   UNL A   1      39.793  25.894  27.851  1.00  0.00     0.198 A 
ATOM     68  F   UNL A   1      38.971  26.401  29.996  1.00  0.00    -0.203 F 
ATOM     69  F   UNL A   1      42.007  27.754  25.668  1.00  0.00    -0.200 F 
ATOM     70  C   UNL A   1      40.561  26.231  26.747  1.00  0.00     0.200 A 
ATOM     71  F   UNL A   1      39.100  24.746  27.859  1.00  0.00    -0.200 F 
ATOM     72  F   UNL A   1      40.592  25.422  25.679  1.00  0.00    -0.200 F 
ENDBRANCH  48  62
BRANCH  49  73
ATOM     73  C   UNL A   1      39.567  33.948  36.899  1.00  0.00     0.064 A 
ATOM     74  C   UNL A   1      38.803  33.540  38.002  1.00  0.00     0.173 A 
ATOM     75  C   UNL A   1      40.194  35.201  36.965  1.00  0.00     0.173 A 
ATOM     76  F   UNL A   1      38.168  32.360  37.976  1.00  0.00    -0.203 F 
ATOM     77  C   UNL A   1      38.658  34.360  39.120  1.00  0.00     0.198 A 
ATOM     78  C   UNL A   1      40.070  36.007  38.094  1.00  0.00     0.198 A 
ATOM     79  F   UNL A   1      40.941  35.633  35.939  1.00  0.00    -0.203 F 
ATOM     80  F   UNL A   1      37.890  33.963  40.143  1.00  0.00    -0.200 F 
ATOM     81  C   UNL A   1      39.297  35.590  39.167  1.00  0.00     0.200 A 
ATOM     82  F   UNL A   1      40.701  37.188  38.144  1.00  0.00    -0.200 F 
ATOM     83  F   UNL A   1      39.164  36.374  40.245  1.00  0.00    -0.200 F 
ENDBRANCH  49  73
BRANCH  61  84
ATOM     84  C   UNL A   1      43.961  28.805  35.227  1.00  0.00     0.064 A 
ATOM     85  C   UNL A   1      45.265  29.289  35.049  1.00  0.00     0.173 A 
ATOM     86  C   UNL A   1      43.769  27.751  36.134  1.00  0.00     0.173 A 
ATOM     87  F   UNL A   1      45.503  30.285  34.182  1.00  0.00    -0.203 F 
ATOM     88  C   UNL A   1      46.337  28.724  35.734  1.00  0.00     0.198 A 
ATOM     89  C   UNL A   1      44.839  27.208  36.837  1.00  0.00     0.198 A 
ATOM     90  F   UNL A   1      42.540  27.255  36.343  1.00  0.00    -0.203 F 
ATOM     91  F   UNL A   1      47.581  29.172  35.514  1.00  0.00    -0.200 F 
ATOM     92  C   UNL A   1      46.123  27.690  36.633  1.00  0.00     0.200 A 
ATOM     93  F   UNL A   1      44.629  26.216  37.715  1.00  0.00    -0.200 F 
ATOM     94  F   UNL A   1      47.156  27.152  37.297  1.00  0.00    -0.200 F 
ENDBRANCH  61  84
ENDBRANCH  35  36
ENDBRANCH  27  30
ENDBRANCH  25  26
ENDBRANCH  24  25
ENDBRANCH   1  24
TORSDOF 15
ENDMDL
MODEL 2
REMARK VINA RESULT:     -12.0      6.464     11.576
REMARK SMILES [NH3+][C@H](C(=O)NCCCCCCNC(=O)c1ccc(-c2c3nc(c(-c4c(F)c(F)c(F)c(F)c4F)c4ccc([nH]4)c(-c4c(F)c(F)c(F)c(F)c4F)c4nc(c(-c5c(F)c(F)c(F)c(F)c5F)c5ccc2[nH]5)C=C4)C=C3)cc1)c1cc(F)c(F)c(F)c1F
REMARK SMILES IDX 9 1 8 2 7 3 6 4 5 5 3 6 4 7 2 9 1 10 78 14 79 15 86 16 80 17
REMARK SMILES IDX 84 18 87 19 81 20 82 21 85 22 83 23 10 24 11 25 12 26 13 27
REMARK SMILES IDX 14 29 15 30 16 31 77 32 17 33 76 34 18 35 19 36 20 37 70 38
REMARK SMILES IDX 21 39 75 40 69 41 71 42 22 43 74 44 68 45 67 46 23 48 55 49
REMARK SMILES IDX 35 50 54 51 36 52 39 53 53 54 72 55 37 56 38 57 52 59 73 60
REMARK SMILES IDX 40 61 24 62 25 63 33 64 26 65 27 66 31 67 34 68 28 69 29 70
REMARK SMILES IDX 32 71 30 72 56 73 57 74 65 75 58 76 59 77 63 78 66 79 60 80
REMARK SMILES IDX 61 81 64 82 62 83 41 84 42 85 50 86 43 87 44 88 48 89 51 90
REMARK SMILES IDX 45 91 46 92 49 93 47 94
REMARK H PARENT 5 8 1 11 1 12 1 13 12 28 71 47 39 58
REMARK Flexibility Score: inf
ROOT
ATOM      1  C   UNL A   1      36.678  20.526  25.003  1.00  0.00     0.002 C 
ENDROOT
BRANCH   1   2
ATOM      2  C   UNL A   1      36.794  21.872  24.276  1.00  0.00     0.002 C 
BRANCH   2   3
ATOM      3  C   UNL A   1      36.375  23.096  25.097  1.00  0.00     0.021 C 
BRANCH   3   4
ATOM      4  C   UNL A   1      34.939  23.557  24.847  1.00  0.00     0.116 C 
BRANCH   4   5
ATOM      5  N   UNL A   1      34.650  23.627  23.428  1.00  0.00    -0.351 N 
ATOM      6  C   UNL A   1      33.539  23.230  22.736  1.00  0.00     0.283 C 
ATOM      7  O   UNL A   1      33.562  23.328  21.505  1.00  0.00    -0.268 OA
ATOM      8  H   UNL A   1      35.364  24.023  22.876  1.00  0.00     0.163 HD
BRANCH   6   9
ATOM      9  C   UNL A   1      32.284  22.711  23.491  1.00  0.00     0.305 C 
BRANCH   9  10
ATOM     10  N   UNL A   1      31.068  23.199  22.805  1.00  0.00    -0.343 N 
ATOM     11  H   UNL A   1      30.244  22.926  23.339  1.00  0.00     0.345 HD
ATOM     12  H   UNL A   1      31.018  22.792  21.872  1.00  0.00     0.345 HD
ATOM     13  H   UNL A   1      31.104  24.216  22.732  1.00  0.00     0.345 HD
ENDBRANCH   9  10
BRANCH   9  14
ATOM     14  C   UNL A   1      32.313  21.201  23.641  1.00  0.00     0.061 A 
ATOM     15  C   UNL A   1      32.571  20.633  24.902  1.00  0.00     0.056 A 
ATOM     16  C   UNL A   1      32.153  20.325  22.556  1.00  0.00     0.171 A 
ATOM     17  C   UNL A   1      32.694  19.253  25.052  1.00  0.00     0.162 A 
ATOM     18  C   UNL A   1      32.237  18.942  22.723  1.00  0.00     0.198 A 
ATOM     19  F   UNL A   1      31.921  20.807  21.326  1.00  0.00    -0.203 F 
ATOM     20  F   UNL A   1      32.997  18.756  26.259  1.00  0.00    -0.204 F 
ATOM     21  C   UNL A   1      32.521  18.406  23.969  1.00  0.00     0.197 A 
ATOM     22  F   UNL A   1      32.055  18.129  21.672  1.00  0.00    -0.200 F 
ATOM     23  F   UNL A   1      32.639  17.081  24.127  1.00  0.00    -0.200 F 
ENDBRANCH   9  14
ENDBRANCH   6   9
ENDBRANCH   4   5
ENDBRANCH   3   4
ENDBRANCH   2   3
ENDBRANCH   1   2
BRANCH   1  24
ATOM     24  C   UNL A   1      37.926  19.642  24.953  1.00  0.00     0.021 C 
BRANCH  24  25
ATOM     25  C   UNL A   1      39.113  20.156  25.764  1.00  0.00     0.116 C 
BRANCH  25  26
ATOM     26  N   UNL A   1      40.150  19.150  25.922  1.00  0.00    -0.352 N 
ATOM     27  C   UNL A   1      41.498  19.309  26.120  1.00  0.00     0.251 C 
ATOM     28  H   UNL A   1      39.839  18.217  25.881  1.00  0.00     0.163 HD
ATOM     29  O   UNL A   1      42.250  18.339  26.041  1.00  0.00    -0.269 OA
BRANCH  27  30
ATOM     30  C   UNL A   1      42.056  20.645  26.410  1.00  0.00     0.039 A 
ATOM     31  C   UNL A   1      42.392  21.482  25.341  1.00  0.00     0.014 A 
ATOM     32  C   UNL A   1      42.271  21.067  27.724  1.00  0.00     0.014 A 
ATOM     33  C   UNL A   1      42.887  22.764  25.593  1.00  0.00     0.010 A 
ATOM     34  C   UNL A   1      42.701  22.368  27.975  1.00  0.00     0.010 A 
ATOM     35  C   UNL A   1      43.016  23.228  26.911  1.00  0.00    -0.014 A 
BRANCH  35  36
ATOM     36  C   UNL A   1      43.480  24.609  27.198  1.00  0.00     0.031 A 
ATOM     37  C   UNL A   1      42.527  25.627  27.757  1.00  0.00     0.074 A 
ATOM     38  C   UNL A   1      44.743  24.963  26.893  1.00  0.00     0.049 A 
ATOM     39  N   UNL A   1      42.724  26.897  28.010  1.00  0.00    -0.248 NA
ATOM     40  C   UNL A   1      41.162  25.163  28.046  1.00  0.00     0.031 C 
ATOM     41  C   UNL A   1      45.749  24.079  26.305  1.00  0.00     0.029 A 
ATOM     42  N   UNL A   1      45.393  26.165  27.027  1.00  0.00    -0.354 N 
ATOM     43  C   UNL A   1      41.509  27.384  28.471  1.00  0.00     0.074 A 
ATOM     44  C   UNL A   1      40.566  26.288  28.415  1.00  0.00     0.031 C 
ATOM     45  C   UNL A   1      46.895  24.761  26.146  1.00  0.00     0.029 A 
ATOM     46  C   UNL A   1      46.693  26.138  26.588  1.00  0.00     0.049 A 
ATOM     47  H   UNL A   1      44.966  26.970  27.400  1.00  0.00     0.167 HD
ATOM     48  C   UNL A   1      41.212  28.627  28.921  1.00  0.00     0.037 A 
ATOM     49  C   UNL A   1      47.619  27.117  26.542  1.00  0.00     0.037 A 
ATOM     50  C   UNL A   1      42.159  29.708  28.999  1.00  0.00     0.049 A 
ATOM     51  C   UNL A   1      47.263  28.489  27.043  1.00  0.00     0.074 A 
ATOM     52  C   UNL A   1      41.974  30.984  29.501  1.00  0.00     0.029 A 
ATOM     53  N   UNL A   1      43.473  29.640  28.559  1.00  0.00    -0.354 N 
ATOM     54  N   UNL A   1      46.130  28.920  27.541  1.00  0.00    -0.248 NA
ATOM     55  C   UNL A   1      48.318  29.510  26.981  1.00  0.00     0.031 C 
ATOM     56  C   UNL A   1      43.161  31.702  29.323  1.00  0.00     0.029 A 
ATOM     57  C   UNL A   1      44.102  30.858  28.755  1.00  0.00     0.049 A 
ATOM     58  H   UNL A   1      43.896  28.842  28.164  1.00  0.00     0.167 HD
ATOM     59  C   UNL A   1      46.341  30.251  27.876  1.00  0.00     0.074 A 
ATOM     60  C   UNL A   1      47.717  30.553  27.536  1.00  0.00     0.031 C 
ATOM     61  C   UNL A   1      45.473  31.142  28.415  1.00  0.00     0.037 A 
BRANCH  48  62
ATOM     62  C   UNL A   1      39.800  28.883  29.364  1.00  0.00     0.064 A 
ATOM     63  C   UNL A   1      38.826  29.370  28.479  1.00  0.00     0.173 A 
ATOM     64  C   UNL A   1      39.408  28.612  30.684  1.00  0.00     0.173 A 
ATOM     65  F   UNL A   1      39.152  29.656  27.209  1.00  0.00    -0.203 F 
ATOM     66  C   UNL A   1      37.524  29.611  28.906  1.00  0.00     0.198 A 
ATOM     67  C   UNL A   1      38.096  28.824  31.100  1.00  0.00     0.198 A 
ATOM     68  F   UNL A   1      40.296  28.138  31.570  1.00  0.00    -0.203 F 
ATOM     69  F   UNL A   1      36.626  30.129  28.056  1.00  0.00    -0.200 F 
ATOM     70  C   UNL A   1      37.158  29.331  30.214  1.00  0.00     0.200 A 
ATOM     71  F   UNL A   1      37.740  28.542  32.361  1.00  0.00    -0.200 F 
ATOM     72  F   UNL A   1      35.903  29.561  30.624  1.00  0.00    -0.200 F 
ENDBRANCH  48  62
BRANCH  49  73
ATOM     73  C   UNL A   1      48.980  26.822  26.027  1.00  0.00     0.064 A 
ATOM     74  C   UNL A   1      49.296  27.029  24.677  1.00  0.00     0.173 A 
ATOM     75  C   UNL A   1      49.992  26.337  26.869  1.00  0.00     0.173 A 
ATOM     76  F   UNL A   1      48.356  27.471  23.830  1.00  0.00    -0.203 F 
ATOM     77  C   UNL A   1      50.569  26.747  24.185  1.00  0.00     0.198 A 
ATOM     78  C   UNL A   1      51.271  26.082  26.381  1.00  0.00     0.198 A 
ATOM     79  F   UNL A   1      49.741  26.129  28.170  1.00  0.00    -0.203 F 
ATOM     80  F   UNL A   1      50.833  26.916  22.883  1.00  0.00    -0.200 F 
ATOM     81  C   UNL A   1      51.557  26.280  25.038  1.00  0.00     0.200 A 
ATOM     82  F   UNL A   1      52.228  25.645  27.211  1.00  0.00    -0.200 F 
ATOM     83  F   UNL A   1      52.783  26.016  24.567  1.00  0.00    -0.200 F 
ENDBRANCH  49  73
BRANCH  61  84
ATOM     84  C   UNL A   1      45.994  32.521  28.700  1.00  0.00     0.064 A 
ATOM     85  C   UNL A   1      45.886  33.556  27.760  1.00  0.00     0.173 A 
ATOM     86  C   UNL A   1      46.572  32.820  29.943  1.00  0.00     0.173 A 
ATOM     87  F   UNL A   1      45.356  33.318  26.550  1.00  0.00    -0.203 F 
ATOM     88  C   UNL A   1      46.360  34.834  28.046  1.00  0.00     0.198 A 
ATOM     89  C   UNL A   1      47.018  34.104  30.235  1.00  0.00     0.198 A 
ATOM     90  F   UNL A   1      46.693  31.865  30.878  1.00  0.00    -0.203 F 
ATOM     91  F   UNL A   1      46.289  35.796  27.115  1.00  0.00    -0.200 F 
ATOM     92  C   UNL A   1      46.918  35.109  29.285  1.00  0.00     0.200 A 
ATOM     93  F   UNL A   1      47.546  34.372  31.438  1.00  0.00    -0.200 F 
ATOM     94  F   UNL A   1      47.367  36.341  29.561  1.00  0.00    -0.200 F 
ENDBRANCH  61  84
ENDBRANCH  35  36
ENDBRANCH  27  30
ENDBRANCH  25  26
ENDBRANCH  24  25
ENDBRANCH   1  24
TORSDOF 15
ENDMDL
MODEL 3
REMARK VINA RESULT:     -12.0      6.471     11.573
REMARK SMILES [NH3+][C@H](C(=O)NCCCCCCNC(=O)c1ccc(-c2c3nc(c(-c4c(F)c(F)c(F)c(F)c4F)c4ccc([nH]4)c(-c4c(F)c(F)c(F)c(F)c4F)c4nc(c(-c5c(F)c(F)c(F)c(F)c5F)c5ccc2[nH]5)C=C4)C=C3)cc1)c1cc(F)c(F)c(F)c1F
REMARK SMILES IDX 9 1 8 2 7 3 6 4 5 5 3 6 4 7 2 9 1 10 78 14 79 15 86 16 80 17
REMARK SMILES IDX 84 18 87 19 81 20 82 21 85 22 83 23 10 24 11 25 12 26 13 27
REMARK SMILES IDX 14 29 15 30 16 31 77 32 17 33 76 34 18 35 19 36 20 37 70 38
REMARK SMILES IDX 21 39 75 40 69 41 71 42 22 43 74 44 68 45 67 46 23 48 55 49
REMARK SMILES IDX 35 50 54 51 36 52 39 53 53 54 72 55 37 56 38 57 52 59 73 60
REMARK SMILES IDX 40 61 24 62 25 63 33 64 26 65 27 66 31 67 34 68 28 69 29 70
REMARK SMILES IDX 32 71 30 72 56 73 57 74 65 75 58 76 59 77 63 78 66 79 60 80
REMARK SMILES IDX 61 81 64 82 62 83 41 84 42 85 50 86 43 87 44 88 48 89 51 90
REMARK SMILES IDX 45 91 46 92 49 93 47 94
REMARK H PARENT 5 8 1 11 1 12 1 13 12 28 71 47 39 58
REMARK Flexibility Score: inf
ROOT
ATOM      1  C   UNL A   1      36.602  20.534  25.001  1.00  0.00     0.002 C 
ENDROOT
BRANCH   1   2
ATOM      2  C   UNL A   1      36.905  22.014  24.739  1.00  0.00     0.002 C 
BRANCH   2   3
ATOM      3  C   UNL A   1      36.300  22.994  25.750  1.00  0.00     0.021 C 
BRANCH   3   4
ATOM      4  C   UNL A   1      34.911  23.507  25.371  1.00  0.00     0.116 C 
BRANCH   4   5
ATOM      5  N   UNL A   1      34.763  23.609  23.932  1.00  0.00    -0.351 N 
ATOM      6  C   UNL A   1      33.744  23.192  23.121  1.00  0.00     0.283 C 
ATOM      7  O   UNL A   1      33.886  23.328  21.902  1.00  0.00    -0.268 OA
ATOM      8  H   UNL A   1      35.513  24.046  23.466  1.00  0.00     0.163 HD
BRANCH   6   9
ATOM      9  C   UNL A   1      32.440  22.607  23.731  1.00  0.00     0.305 C 
BRANCH   9  10
ATOM     10  N   UNL A   1      31.285  23.038  22.916  1.00  0.00    -0.343 N 
ATOM     11  H   UNL A   1      31.435  23.994  22.593  1.00  0.00     0.345 HD
ATOM     12  H   UNL A   1      30.437  22.999  23.480  1.00  0.00     0.345 HD
ATOM     13  H   UNL A   1      31.187  22.419  22.111  1.00  0.00     0.345 HD
ENDBRANCH   9  10
BRANCH   9  14
ATOM     14  C   UNL A   1      32.528  21.098  23.883  1.00  0.00     0.061 A 
ATOM     15  C   UNL A   1      32.378  20.277  22.751  1.00  0.00     0.056 A 
ATOM     16  C   UNL A   1      32.693  20.466  25.126  1.00  0.00     0.171 A 
ATOM     17  C   UNL A   1      32.363  18.889  22.873  1.00  0.00     0.162 A 
ATOM     18  C   UNL A   1      32.719  19.075  25.233  1.00  0.00     0.198 A 
ATOM     19  F   UNL A   1      32.824  21.196  26.244  1.00  0.00    -0.203 F 
ATOM     20  F   UNL A   1      32.162  18.143  21.778  1.00  0.00    -0.204 F 
ATOM     21  C   UNL A   1      32.539  18.286  24.109  1.00  0.00     0.197 A 
ATOM     22  F   UNL A   1      32.903  18.501  26.431  1.00  0.00    -0.200 F 
ATOM     23  F   UNL A   1      32.526  16.951  24.213  1.00  0.00    -0.200 F 
ENDBRANCH   9  14
ENDBRANCH   6   9
ENDBRANCH   4   5
ENDBRANCH   3   4
ENDBRANCH   2   3
ENDBRANCH   1   2
BRANCH   1  24
ATOM     24  C   UNL A   1      37.817  19.603  25.001  1.00  0.00     0.021 C 
BRANCH  24  25
ATOM     25  C   UNL A   1      39.043  20.143  25.734  1.00  0.00     0.116 C 
BRANCH  25  26
ATOM     26  N   UNL A   1      40.069  19.129  25.912  1.00  0.00    -0.352 N 
ATOM     27  C   UNL A   1      41.415  19.277  26.126  1.00  0.00     0.251 C 
ATOM     28  H   UNL A   1      39.750  18.198  25.873  1.00  0.00     0.163 HD
ATOM     29  O   UNL A   1      42.160  18.300  26.064  1.00  0.00    -0.269 OA
BRANCH  27  30
ATOM     30  C   UNL A   1      41.982  20.610  26.414  1.00  0.00     0.039 A 
ATOM     31  C   UNL A   1      42.280  21.461  25.345  1.00  0.00     0.014 A 
ATOM     32  C   UNL A   1      42.240  21.016  27.725  1.00  0.00     0.014 A 
ATOM     33  C   UNL A   1      42.782  22.741  25.596  1.00  0.00     0.010 A 
ATOM     34  C   UNL A   1      42.676  22.314  27.978  1.00  0.00     0.010 A 
ATOM     35  C   UNL A   1      42.955  23.188  26.915  1.00  0.00    -0.014 A 
BRANCH  35  36
ATOM     36  C   UNL A   1      43.427  24.566  27.203  1.00  0.00     0.031 A 
ATOM     37  C   UNL A   1      42.478  25.591  27.759  1.00  0.00     0.074 A 
ATOM     38  C   UNL A   1      44.693  24.912  26.903  1.00  0.00     0.049 A 
ATOM     39  N   UNL A   1      42.682  26.859  28.013  1.00  0.00    -0.248 NA
ATOM     40  C   UNL A   1      41.109  25.135  28.043  1.00  0.00     0.031 C 
ATOM     41  C   UNL A   1      45.696  24.022  26.319  1.00  0.00     0.029 A 
ATOM     42  N   UNL A   1      45.350  26.110  27.039  1.00  0.00    -0.354 N 
ATOM     43  C   UNL A   1      41.468  27.354  28.469  1.00  0.00     0.074 A 
ATOM     44  C   UNL A   1      40.519  26.264  28.410  1.00  0.00     0.031 C 
ATOM     45  C   UNL A   1      46.846  24.697  26.164  1.00  0.00     0.029 A 
ATOM     46  C   UNL A   1      46.652  26.075  26.605  1.00  0.00     0.049 A 
ATOM     47  H   UNL A   1      44.927  26.917  27.410  1.00  0.00     0.167 HD
ATOM     48  C   UNL A   1      41.178  28.599  28.918  1.00  0.00     0.037 A 
ATOM     49  C   UNL A   1      47.583  27.047  26.562  1.00  0.00     0.037 A 
ATOM     50  C   UNL A   1      42.132  29.674  28.999  1.00  0.00     0.049 A 
ATOM     51  C   UNL A   1      47.234  28.422  27.062  1.00  0.00     0.074 A 
ATOM     52  C   UNL A   1      41.953  30.952  29.501  1.00  0.00     0.029 A 
ATOM     53  N   UNL A   1      43.447  29.597  28.564  1.00  0.00    -0.354 N 
ATOM     54  N   UNL A   1      46.103  28.861  27.555  1.00  0.00    -0.248 NA
ATOM     55  C   UNL A   1      48.297  29.437  27.003  1.00  0.00     0.031 C 
ATOM     56  C   UNL A   1      43.145  31.661  29.327  1.00  0.00     0.029 A 
ATOM     57  C   UNL A   1      44.083  30.812  28.762  1.00  0.00     0.049 A 
ATOM     58  H   UNL A   1      43.866  28.797  28.171  1.00  0.00     0.167 HD
ATOM     59  C   UNL A   1      46.321  30.190  27.890  1.00  0.00     0.074 A 
ATOM     60  C   UNL A   1      47.700  30.483  27.556  1.00  0.00     0.031 C 
ATOM     61  C   UNL A   1      45.457  31.087  28.427  1.00  0.00     0.037 A 
BRANCH  48  62
ATOM     62  C   UNL A   1      39.766  28.863  29.356  1.00  0.00     0.064 A 
ATOM     63  C   UNL A   1      39.356  28.658  30.682  1.00  0.00     0.173 A 
ATOM     64  C   UNL A   1      38.818  29.353  28.445  1.00  0.00     0.173 A 
ATOM     65  F   UNL A   1      40.220  28.180  31.590  1.00  0.00    -0.203 F 
ATOM     66  C   UNL A   1      38.041  28.898  31.072  1.00  0.00     0.198 A 
ATOM     67  C   UNL A   1      37.512  29.623  28.847  1.00  0.00     0.198 A 
ATOM     68  F   UNL A   1      39.158  29.575  27.167  1.00  0.00    -0.203 F 
ATOM     69  F   UNL A   1      37.660  28.642  32.331  1.00  0.00    -0.200 F 
ATOM     70  C   UNL A   1      37.123  29.387  30.156  1.00  0.00     0.200 A 
ATOM     71  F   UNL A   1      36.627  30.107  27.963  1.00  0.00    -0.200 F 
ATOM     72  F   UNL A   1      35.858  29.621  30.533  1.00  0.00    -0.200 F 
ENDBRANCH  48  62
BRANCH  49  73
ATOM     73  C   UNL A   1      48.945  26.744  26.052  1.00  0.00     0.064 A 
ATOM     74  C   UNL A   1      49.912  26.170  26.889  1.00  0.00     0.173 A 
ATOM     75  C   UNL A   1      49.305  27.010  24.723  1.00  0.00     0.173 A 
ATOM     76  F   UNL A   1      49.620  25.917  28.173  1.00  0.00    -0.203 F 
ATOM     77  C   UNL A   1      51.194  25.889  26.421  1.00  0.00     0.198 A 
ATOM     78  C   UNL A   1      50.578  26.703  24.249  1.00  0.00     0.198 A 
ATOM     79  F   UNL A   1      48.413  27.552  23.881  1.00  0.00    -0.203 F 
ATOM     80  F   UNL A   1      52.111  25.378  27.252  1.00  0.00    -0.200 F 
ATOM     81  C   UNL A   1      51.524  26.150  25.099  1.00  0.00     0.200 A 
ATOM     82  F   UNL A   1      50.889  26.942  22.967  1.00  0.00    -0.200 F 
ATOM     83  F   UNL A   1      52.754  25.872  24.646  1.00  0.00    -0.200 F 
ENDBRANCH  49  73
BRANCH  61  84
ATOM     84  C   UNL A   1      45.985  32.463  28.713  1.00  0.00     0.064 A 
ATOM     85  C   UNL A   1      45.876  33.501  27.777  1.00  0.00     0.173 A 
ATOM     86  C   UNL A   1      46.572  32.754  29.954  1.00  0.00     0.173 A 
ATOM     87  F   UNL A   1      45.338  33.269  26.571  1.00  0.00    -0.203 F 
ATOM     88  C   UNL A   1      46.358  34.776  28.065  1.00  0.00     0.198 A 
ATOM     89  C   UNL A   1      47.025  34.035  30.248  1.00  0.00     0.198 A 
ATOM     90  F   UNL A   1      46.694  31.796  30.885  1.00  0.00    -0.203 F 
ATOM     91  F   UNL A   1      46.285  35.742  27.138  1.00  0.00    -0.200 F 
ATOM     92  C   UNL A   1      46.925  35.044  29.302  1.00  0.00     0.200 A 
ATOM     93  F   UNL A   1      47.562  34.297  31.449  1.00  0.00    -0.200 F 
ATOM     94  F   UNL A   1      47.381  36.273  29.579  1.00  0.00    -0.200 F 
ENDBRANCH  61  84
ENDBRANCH  35  36
ENDBRANCH  27  30
ENDBRANCH  25  26
ENDBRANCH  24  25
ENDBRANCH   1  24
TORSDOF 15
ENDMDL
