MODEL 1
REMARK VINA RESULT:     -13.2      0.000      0.000
REMARK SMILES CCc1cc(C(=O)c2[nH]c3cc(Cl)ccc3c2CC(=O)NCCCCCCNC(=O)c2ccc(-c3c4nc(c(-c5c(F)c(F)c(F)c(F)c5F)c5ccc([nH]5)c(-c5c(F)c(F)c(F)c(F)c5F)c5nc(c(-c6c(F)c(F)c(F)c(F)c6F)c6ccc3[nH]6)C=C5)C=C4)cc2)ncc1Cl
REMARK SMILES IDX 23 1 22 2 21 3 19 4 20 5 18 7 17 8 8 9 9 10 10 11 16 13
REMARK SMILES IDX 11 14 15 15 12 16 14 17 13 18 6 19 7 20 5 21 3 22 4 23 96 24
REMARK SMILES IDX 95 25 97 26 94 27 2 28 1 29 24 30 25 31 26 32 27 33 28 34
REMARK SMILES IDX 29 35 30 37 31 38 32 39 93 40 33 41 92 42 34 43 35 44 36 45
REMARK SMILES IDX 86 46 37 47 91 48 85 49 87 50 38 51 90 52 84 53 83 54 39 56
REMARK SMILES IDX 71 57 51 58 70 59 52 60 55 61 69 62 88 63 53 64 54 65 68 67
REMARK SMILES IDX 89 68 56 69 40 70 41 71 49 72 42 73 43 74 47 75 50 76 44 77
REMARK SMILES IDX 45 78 48 79 46 80 72 81 73 82 81 83 74 84 75 85 79 86 82 87
REMARK SMILES IDX 76 88 77 89 80 90 78 91 57 92 58 93 66 94 59 95 60 96 64 97
REMARK SMILES IDX 67 98 61 99 62 100 65 101 63 102
REMARK H PARENT 21 6 9 12 28 36 87 55 55 66
REMARK Flexibility Score: inf
ROOT
ATOM      1  C   UNL A   1      32.737  28.546  26.772  1.00  0.00     0.021 C 
ENDROOT
BRANCH   1   2
ATOM      2  C   UNL A   1      31.681  27.777  25.977  1.00  0.00     0.116 C 
BRANCH   2   3
ATOM      3  N   UNL A   1      31.250  26.563  26.644  1.00  0.00    -0.356 N 
ATOM      4  C   UNL A   1      31.761  25.300  26.558  1.00  0.00     0.224 C 
ATOM      5  O   UNL A   1      31.283  24.420  27.277  1.00  0.00    -0.275 OA
ATOM      6  H   UNL A   1      30.477  26.666  27.245  1.00  0.00     0.163 HD
BRANCH   4   7
ATOM      7  C   UNL A   1      32.951  25.004  25.660  1.00  0.00     0.138 C 
BRANCH   7   8
ATOM      8  C   UNL A   1      32.617  24.223  24.422  1.00  0.00    -0.002 A 
ATOM      9  C   UNL A   1      32.261  24.722  23.173  1.00  0.00     0.093 A 
ATOM     10  N   UNL A   1      32.136  23.653  22.318  1.00  0.00    -0.351 N 
ATOM     11  C   UNL A   1      32.281  22.469  22.998  1.00  0.00     0.048 A 
ATOM     12  H   UNL A   1      31.966  23.725  21.352  1.00  0.00     0.167 HD
ATOM     13  C   UNL A   1      32.582  22.791  24.321  1.00  0.00     0.004 A 
ATOM     14  C   UNL A   1      32.184  21.150  22.537  1.00  0.00     0.047 A 
ATOM     15  C   UNL A   1      32.798  21.736  25.234  1.00  0.00     0.012 A 
ATOM     16  C   UNL A   1      32.403  20.128  23.465  1.00  0.00     0.043 A 
ATOM     17  C   UNL A   1      32.705  20.409  24.794  1.00  0.00     0.021 A 
ATOM     18  Cl  UNL A   1      32.299  18.489  22.948  1.00  0.00    -0.084 Cl
BRANCH   9  19
ATOM     19  C   UNL A   1      32.123  26.094  22.718  1.00  0.00     0.227 C 
ATOM     20  O   UNL A   1      33.053  26.665  22.160  1.00  0.00    -0.285 OA
BRANCH  19  21
ATOM     21  C   UNL A   1      30.771  26.760  22.853  1.00  0.00     0.113 A 
ATOM     22  C   UNL A   1      29.286  28.667  22.630  1.00  0.00    -0.026 A 
ATOM     23  C   UNL A   1      30.535  28.061  22.399  1.00  0.00     0.037 A 
ATOM     24  C   UNL A   1      28.306  27.922  23.296  1.00  0.00     0.062 A 
ATOM     25  C   UNL A   1      28.619  26.632  23.699  1.00  0.00     0.132 A 
ATOM     26  Cl  UNL A   1      26.740  28.546  23.648  1.00  0.00    -0.082 Cl
ATOM     27  N   UNL A   1      29.824  26.043  23.506  1.00  0.00    -0.251 NA
BRANCH  22  28
ATOM     28  C   UNL A   1      29.079  30.103  22.206  1.00  0.00     0.034 C 
ATOM     29  C   UNL A   1      28.946  31.032  23.406  1.00  0.00     0.009 C 
ENDBRANCH  22  28
ENDBRANCH  19  21
ENDBRANCH   9  19
ENDBRANCH   7   8
ENDBRANCH   4   7
ENDBRANCH   2   3
ENDBRANCH   1   2
BRANCH   1  30
ATOM     30  C   UNL A   1      32.809  30.048  26.470  1.00  0.00     0.002 C 
BRANCH  30  31
ATOM     31  C   UNL A   1      31.470  30.743  26.200  1.00  0.00     0.002 C 
BRANCH  31  32
ATOM     32  C   UNL A   1      31.405  32.241  26.529  1.00  0.00     0.021 C 
BRANCH  32  33
ATOM     33  C   UNL A   1      32.626  32.824  27.242  1.00  0.00     0.116 C 
BRANCH  33  34
ATOM     34  N   UNL A   1      32.429  34.204  27.650  1.00  0.00    -0.352 N 
ATOM     35  C   UNL A   1      33.039  34.928  28.642  1.00  0.00     0.251 C 
ATOM     36  H   UNL A   1      31.752  34.696  27.133  1.00  0.00     0.163 HD
ATOM     37  O   UNL A   1      32.630  36.058  28.900  1.00  0.00    -0.269 OA
BRANCH  35  38
ATOM     38  C   UNL A   1      34.172  34.379  29.425  1.00  0.00     0.039 A 
ATOM     39  C   UNL A   1      35.458  34.479  28.876  1.00  0.00     0.014 A 
ATOM     40  C   UNL A   1      33.984  33.685  30.625  1.00  0.00     0.014 A 
ATOM     41  C   UNL A   1      36.552  33.913  29.535  1.00  0.00     0.010 A 
ATOM     42  C   UNL A   1      35.082  33.134  31.295  1.00  0.00     0.010 A 
ATOM     43  C   UNL A   1      36.371  33.236  30.750  1.00  0.00    -0.014 A 
BRANCH  43  44
ATOM     44  C   UNL A   1      37.524  32.598  31.431  1.00  0.00     0.031 A 
ATOM     45  C   UNL A   1      38.312  31.525  30.736  1.00  0.00     0.074 A 
ATOM     46  C   UNL A   1      37.861  32.975  32.677  1.00  0.00     0.049 A 
ATOM     47  N   UNL A   1      39.318  30.817  31.186  1.00  0.00    -0.248 NA
ATOM     48  C   UNL A   1      37.911  31.200  29.359  1.00  0.00     0.031 C 
ATOM     49  C   UNL A   1      37.178  33.999  33.465  1.00  0.00     0.029 A 
ATOM     50  N   UNL A   1      38.870  32.536  33.497  1.00  0.00    -0.354 N 
ATOM     51  C   UNL A   1      39.650  29.943  30.161  1.00  0.00     0.074 A 
ATOM     52  C   UNL A   1      38.749  30.216  29.061  1.00  0.00     0.031 C 
ATOM     53  C   UNL A   1      37.796  34.119  34.653  1.00  0.00     0.029 A 
ATOM     54  C   UNL A   1      38.908  33.175  34.710  1.00  0.00     0.049 A 
ATOM     55  H   UNL A   1      39.506  31.829  33.239  1.00  0.00     0.167 HD
ATOM     56  C   UNL A   1      40.616  28.994  30.141  1.00  0.00     0.037 A 
ATOM     57  C   UNL A   1      39.749  33.018  35.749  1.00  0.00     0.037 A 
ATOM     58  C   UNL A   1      41.537  28.731  31.214  1.00  0.00     0.049 A 
ATOM     59  C   UNL A   1      40.863  32.015  35.670  1.00  0.00     0.074 A 
ATOM     60  C   UNL A   1      42.532  27.772  31.286  1.00  0.00     0.029 A 
ATOM     61  N   UNL A   1      41.584  29.447  32.398  1.00  0.00    -0.354 N 
ATOM     62  N   UNL A   1      41.151  31.178  34.705  1.00  0.00    -0.248 NA
ATOM     63  C   UNL A   1      41.770  31.937  36.826  1.00  0.00     0.031 C 
ATOM     64  C   UNL A   1      43.190  27.913  32.515  1.00  0.00     0.029 A 
ATOM     65  C   UNL A   1      42.604  28.964  33.201  1.00  0.00     0.049 A 
ATOM     66  H   UNL A   1      40.983  30.190  32.634  1.00  0.00     0.167 HD
ATOM     67  C   UNL A   1      42.273  30.482  35.129  1.00  0.00     0.074 A 
ATOM     68  C   UNL A   1      42.620  30.995  36.438  1.00  0.00     0.031 C 
ATOM     69  C   UNL A   1      42.949  29.499  34.489  1.00  0.00     0.037 A 
BRANCH  56  70
ATOM     70  C   UNL A   1      40.711  28.150  28.913  1.00  0.00     0.064 A 
ATOM     71  C   UNL A   1      39.955  26.978  28.776  1.00  0.00     0.173 A 
ATOM     72  C   UNL A   1      41.547  28.531  27.854  1.00  0.00     0.173 A 
ATOM     73  F   UNL A   1      39.155  26.572  29.772  1.00  0.00    -0.203 F 
ATOM     74  C   UNL A   1      40.037  26.212  27.618  1.00  0.00     0.198 A 
ATOM     75  C   UNL A   1      41.622  27.766  26.695  1.00  0.00     0.198 A 
ATOM     76  F   UNL A   1      42.293  29.643  27.948  1.00  0.00    -0.203 F 
ATOM     77  F   UNL A   1      39.320  25.085  27.509  1.00  0.00    -0.200 F 
ATOM     78  C   UNL A   1      40.868  26.607  26.579  1.00  0.00     0.200 A 
ATOM     79  F   UNL A   1      42.427  28.146  25.693  1.00  0.00    -0.200 F 
ATOM     80  F   UNL A   1      40.947  25.865  25.465  1.00  0.00    -0.200 F 
ENDBRANCH  56  70
BRANCH  57  81
ATOM     81  C   UNL A   1      39.584  33.863  36.953  1.00  0.00     0.064 A 
ATOM     82  C   UNL A   1      40.146  35.144  37.008  1.00  0.00     0.173 A 
ATOM     83  C   UNL A   1      38.854  33.410  38.058  1.00  0.00     0.173 A 
ATOM     84  F   UNL A   1      40.867  35.604  35.975  1.00  0.00    -0.203 F 
ATOM     85  C   UNL A   1      39.985  35.947  38.133  1.00  0.00     0.198 A 
ATOM     86  C   UNL A   1      38.687  34.216  39.180  1.00  0.00     0.198 A 
ATOM     87  F   UNL A   1      38.304  32.187  38.045  1.00  0.00    -0.203 F 
ATOM     88  F   UNL A   1      40.543  37.164  38.172  1.00  0.00    -0.200 F 
ATOM     89  C   UNL A   1      39.253  35.483  39.218  1.00  0.00     0.200 A 
ATOM     90  F   UNL A   1      37.981  33.767  40.227  1.00  0.00    -0.200 F 
ATOM     91  F   UNL A   1      39.099  36.255  40.301  1.00  0.00    -0.200 F 
ENDBRANCH  57  81
BRANCH  69  92
ATOM     92  C   UNL A   1      44.142  28.930  35.185  1.00  0.00     0.064 A 
ATOM     93  C   UNL A   1      45.423  29.450  34.963  1.00  0.00     0.173 A 
ATOM     94  C   UNL A   1      43.998  27.882  36.104  1.00  0.00     0.173 A 
ATOM     95  F   UNL A   1      45.605  30.445  34.080  1.00  0.00    -0.203 F 
ATOM     96  C   UNL A   1      46.527  28.936  35.637  1.00  0.00     0.198 A 
ATOM     97  C   UNL A   1      45.102  27.373  36.781  1.00  0.00     0.198 A 
ATOM     98  F   UNL A   1      42.789  27.351  36.340  1.00  0.00    -0.203 F 
ATOM     99  F   UNL A   1      47.747  29.436  35.403  1.00  0.00    -0.200 F 
ATOM    100  C   UNL A   1      46.365  27.900  36.547  1.00  0.00     0.200 A 
ATOM    101  F   UNL A   1      44.948  26.368  37.654  1.00  0.00    -0.200 F 
ATOM    102  F   UNL A   1      47.429  27.403  37.193  1.00  0.00    -0.200 F 
ENDBRANCH  69  92
ENDBRANCH  43  44
ENDBRANCH  35  38
ENDBRANCH  33  34
ENDBRANCH  32  33
ENDBRANCH  31  32
ENDBRANCH  30  31
ENDBRANCH   1  30
TORSDOF 17
ENDMDL
MODEL 2
REMARK VINA RESULT:     -13.1      0.700      7.081
REMARK SMILES CCc1cc(C(=O)c2[nH]c3cc(Cl)ccc3c2CC(=O)NCCCCCCNC(=O)c2ccc(-c3c4nc(c(-c5c(F)c(F)c(F)c(F)c5F)c5ccc([nH]5)c(-c5c(F)c(F)c(F)c(F)c5F)c5nc(c(-c6c(F)c(F)c(F)c(F)c6F)c6ccc3[nH]6)C=C5)C=C4)cc2)ncc1Cl
REMARK SMILES IDX 23 1 22 2 21 3 19 4 20 5 18 7 17 8 8 9 9 10 10 11 16 13
REMARK SMILES IDX 11 14 15 15 12 16 14 17 13 18 6 19 7 20 5 21 3 22 4 23 96 24
REMARK SMILES IDX 95 25 97 26 94 27 2 28 1 29 24 30 25 31 26 32 27 33 28 34
REMARK SMILES IDX 29 35 30 37 31 38 32 39 93 40 33 41 92 42 34 43 35 44 36 45
REMARK SMILES IDX 86 46 37 47 91 48 85 49 87 50 38 51 90 52 84 53 83 54 39 56
REMARK SMILES IDX 71 57 51 58 70 59 52 60 55 61 69 62 88 63 53 64 54 65 68 67
REMARK SMILES IDX 89 68 56 69 40 70 41 71 49 72 42 73 43 74 47 75 50 76 44 77
REMARK SMILES IDX 45 78 48 79 46 80 72 81 73 82 81 83 74 84 75 85 79 86 82 87
REMARK SMILES IDX 76 88 77 89 80 90 78 91 57 92 58 93 66 94 59 95 60 96 64 97
REMARK SMILES IDX 67 98 61 99 62 100 65 101 63 102
REMARK H PARENT 21 6 9 12 28 36 87 55 55 66
REMARK Flexibility Score: inf
ROOT
ATOM      1  C   UNL A   1      32.387  28.644  25.705  1.00  0.00     0.021 C 
ENDROOT
BRANCH   1   2
ATOM      2  C   UNL A   1      32.794  27.558  26.702  1.00  0.00     0.116 C 
BRANCH   2   3
ATOM      3  N   UNL A   1      31.761  26.560  26.898  1.00  0.00    -0.356 N 
ATOM      4  C   UNL A   1      31.750  25.243  26.538  1.00  0.00     0.224 C 
ATOM      5  O   UNL A   1      30.789  24.547  26.872  1.00  0.00    -0.275 OA
ATOM      6  H   UNL A   1      30.950  26.878  27.357  1.00  0.00     0.163 HD
BRANCH   4   7
ATOM      7  C   UNL A   1      32.938  24.627  25.816  1.00  0.00     0.138 C 
BRANCH   7   8
ATOM      8  C   UNL A   1      32.600  23.975  24.506  1.00  0.00    -0.002 A 
ATOM      9  C   UNL A   1      32.274  24.599  23.307  1.00  0.00     0.093 A 
ATOM     10  N   UNL A   1      32.133  23.620  22.353  1.00  0.00    -0.351 N 
ATOM     11  C   UNL A   1      32.239  22.374  22.919  1.00  0.00     0.048 A 
ATOM     12  H   UNL A   1      31.978  23.788  21.396  1.00  0.00     0.167 HD
ATOM     13  C   UNL A   1      32.531  22.561  24.269  1.00  0.00     0.004 A 
ATOM     14  C   UNL A   1      32.116  21.107  22.334  1.00  0.00     0.047 A 
ATOM     15  C   UNL A   1      32.708  21.419  25.080  1.00  0.00     0.012 A 
ATOM     16  C   UNL A   1      32.296  19.997  23.163  1.00  0.00     0.043 A 
ATOM     17  C   UNL A   1      32.588  20.142  24.515  1.00  0.00     0.021 A 
ATOM     18  Cl  UNL A   1      32.158  18.417  22.490  1.00  0.00    -0.084 Cl
BRANCH   9  19
ATOM     19  C   UNL A   1      32.176  26.011  22.983  1.00  0.00     0.227 C 
ATOM     20  O   UNL A   1      33.159  26.634  22.598  1.00  0.00    -0.285 OA
BRANCH  19  21
ATOM     21  C   UNL A   1      30.812  26.664  23.029  1.00  0.00     0.113 A 
ATOM     22  C   UNL A   1      29.315  28.538  22.655  1.00  0.00    -0.026 A 
ATOM     23  C   UNL A   1      30.580  27.939  22.506  1.00  0.00     0.037 A 
ATOM     24  C   UNL A   1      28.316  27.810  23.312  1.00  0.00     0.062 A 
ATOM     25  C   UNL A   1      28.627  26.543  23.786  1.00  0.00     0.132 A 
ATOM     26  Cl  UNL A   1      26.729  28.427  23.567  1.00  0.00    -0.082 Cl
ATOM     27  N   UNL A   1      29.846  25.964  23.673  1.00  0.00    -0.251 NA
BRANCH  22  28
ATOM     28  C   UNL A   1      29.109  29.949  22.157  1.00  0.00     0.034 C 
ATOM     29  C   UNL A   1      28.860  30.921  23.303  1.00  0.00     0.009 C 
ENDBRANCH  22  28
ENDBRANCH  19  21
ENDBRANCH   9  19
ENDBRANCH   7   8
ENDBRANCH   4   7
ENDBRANCH   2   3
ENDBRANCH   1   2
BRANCH   1  30
ATOM     30  C   UNL A   1      32.439  30.076  26.249  1.00  0.00     0.002 C 
BRANCH  30  31
ATOM     31  C   UNL A   1      31.257  30.978  25.879  1.00  0.00     0.002 C 
BRANCH  31  32
ATOM     32  C   UNL A   1      31.233  32.368  26.530  1.00  0.00     0.021 C 
BRANCH  32  33
ATOM     33  C   UNL A   1      32.535  32.819  27.194  1.00  0.00     0.116 C 
BRANCH  33  34
ATOM     34  N   UNL A   1      32.490  34.205  27.626  1.00  0.00    -0.352 N 
ATOM     35  C   UNL A   1      33.215  34.853  28.594  1.00  0.00     0.251 C 
ATOM     36  H   UNL A   1      31.838  34.767  27.149  1.00  0.00     0.163 HD
ATOM     37  O   UNL A   1      32.929  36.012  28.884  1.00  0.00    -0.269 OA
BRANCH  35  38
ATOM     38  C   UNL A   1      34.328  34.186  29.312  1.00  0.00     0.039 A 
ATOM     39  C   UNL A   1      35.637  34.471  28.902  1.00  0.00     0.014 A 
ATOM     40  C   UNL A   1      34.107  33.222  30.301  1.00  0.00     0.014 A 
ATOM     41  C   UNL A   1      36.720  33.816  29.493  1.00  0.00     0.010 A 
ATOM     42  C   UNL A   1      35.192  32.579  30.908  1.00  0.00     0.010 A 
ATOM     43  C   UNL A   1      36.504  32.865  30.501  1.00  0.00    -0.014 A 
BRANCH  43  44
ATOM     44  C   UNL A   1      37.648  32.137  31.102  1.00  0.00     0.031 A 
ATOM     45  C   UNL A   1      38.072  32.430  32.512  1.00  0.00     0.074 A 
ATOM     46  C   UNL A   1      38.313  31.217  30.381  1.00  0.00     0.049 A 
ATOM     47  N   UNL A   1      39.076  31.935  33.194  1.00  0.00    -0.248 NA
ATOM     48  C   UNL A   1      37.268  33.415  33.252  1.00  0.00     0.031 C 
ATOM     49  C   UNL A   1      38.009  30.841  29.002  1.00  0.00     0.029 A 
ATOM     50  N   UNL A   1      39.386  30.430  30.717  1.00  0.00    -0.354 N 
ATOM     51  C   UNL A   1      39.042  32.569  34.427  1.00  0.00     0.074 A 
ATOM     52  C   UNL A   1      37.913  33.475  34.409  1.00  0.00     0.031 C 
ATOM     53  C   UNL A   1      38.869  29.884  28.611  1.00  0.00     0.029 A 
ATOM     54  C   UNL A   1      39.787  29.590  29.708  1.00  0.00     0.049 A 
ATOM     55  H   UNL A   1      39.826  30.464  31.597  1.00  0.00     0.167 HD
ATOM     56  C   UNL A   1      39.881  32.414  35.478  1.00  0.00     0.037 A 
ATOM     57  C   UNL A   1      40.781  28.684  29.676  1.00  0.00     0.037 A 
ATOM     58  C   UNL A   1      40.988  31.497  35.523  1.00  0.00     0.049 A 
ATOM     59  C   UNL A   1      41.646  28.472  30.883  1.00  0.00     0.074 A 
ATOM     60  C   UNL A   1      41.904  31.292  36.540  1.00  0.00     0.029 A 
ATOM     61  N   UNL A   1      41.317  30.617  34.505  1.00  0.00    -0.354 N 
ATOM     62  N   UNL A   1      41.619  29.095  32.035  1.00  0.00    -0.248 NA
ATOM     63  C   UNL A   1      42.678  27.429  30.787  1.00  0.00     0.031 C 
ATOM     64  C   UNL A   1      42.785  30.279  36.140  1.00  0.00     0.029 A 
ATOM     65  C   UNL A   1      42.411  29.853  34.877  1.00  0.00     0.049 A 
ATOM     66  H   UNL A   1      40.843  30.544  33.645  1.00  0.00     0.167 HD
ATOM     67  C   UNL A   1      42.620  28.518  32.802  1.00  0.00     0.074 A 
ATOM     68  C   UNL A   1      43.235  27.489  31.990  1.00  0.00     0.031 C 
ATOM     69  C   UNL A   1      42.997  28.821  34.067  1.00  0.00     0.037 A 
BRANCH  56  70
ATOM     70  C   UNL A   1      39.640  33.278  36.672  1.00  0.00     0.064 A 
ATOM     71  C   UNL A   1      40.287  34.512  36.818  1.00  0.00     0.173 A 
ATOM     72  C   UNL A   1      38.733  32.879  37.664  1.00  0.00     0.173 A 
ATOM     73  F   UNL A   1      41.172  34.923  35.898  1.00  0.00    -0.203 F 
ATOM     74  C   UNL A   1      40.037  35.318  37.924  1.00  0.00     0.198 A 
ATOM     75  C   UNL A   1      38.482  33.691  38.765  1.00  0.00     0.198 A 
ATOM     76  F   UNL A   1      38.097  31.702  37.565  1.00  0.00    -0.203 F 
ATOM     77  F   UNL A   1      40.677  36.489  38.057  1.00  0.00    -0.200 F 
ATOM     78  C   UNL A   1      39.134  34.909  38.894  1.00  0.00     0.200 A 
ATOM     79  F   UNL A   1      37.611  33.293  39.704  1.00  0.00    -0.200 F 
ATOM     80  F   UNL A   1      38.897  35.686  39.961  1.00  0.00    -0.200 F 
ENDBRANCH  56  70
BRANCH  57  81
ATOM     81  C   UNL A   1      40.991  27.879  28.452  1.00  0.00     0.064 A 
ATOM     82  C   UNL A   1      40.309  26.670  28.267  1.00  0.00     0.173 A 
ATOM     83  C   UNL A   1      41.863  28.310  27.446  1.00  0.00     0.173 A 
ATOM     84  F   UNL A   1      39.479  26.216  29.219  1.00  0.00    -0.203 F 
ATOM     85  C   UNL A   1      40.495  25.914  27.114  1.00  0.00     0.198 A 
ATOM     86  C   UNL A   1      42.044  27.556  26.289  1.00  0.00     0.198 A 
ATOM     87  F   UNL A   1      42.537  29.460  27.587  1.00  0.00    -0.203 F 
ATOM     88  F   UNL A   1      39.845  24.752  26.963  1.00  0.00    -0.200 F 
ATOM     89  C   UNL A   1      41.360  26.359  26.124  1.00  0.00     0.200 A 
ATOM     90  F   UNL A   1      42.879  27.987  25.334  1.00  0.00    -0.200 F 
ATOM     91  F   UNL A   1      41.541  25.631  25.014  1.00  0.00    -0.200 F 
ENDBRANCH  57  81
BRANCH  69  92
ATOM     92  C   UNL A   1      44.111  28.019  34.655  1.00  0.00     0.064 A 
ATOM     93  C   UNL A   1      45.442  28.440  34.542  1.00  0.00     0.173 A 
ATOM     94  C   UNL A   1      43.842  26.841  35.365  1.00  0.00     0.173 A 
ATOM     95  F   UNL A   1      45.741  29.556  33.858  1.00  0.00    -0.203 F 
ATOM     96  C   UNL A   1      46.472  27.704  35.118  1.00  0.00     0.198 A 
ATOM     97  C   UNL A   1      44.874  26.109  35.945  1.00  0.00     0.198 A 
ATOM     98  F   UNL A   1      42.582  26.400  35.490  1.00  0.00    -0.203 F 
ATOM     99  F   UNL A   1      47.741  28.114  34.989  1.00  0.00    -0.200 F 
ATOM    100  C   UNL A   1      46.188  26.541  35.821  1.00  0.00     0.200 A 
ATOM    101  F   UNL A   1      44.601  24.983  36.618  1.00  0.00    -0.200 F 
ATOM    102  F   UNL A   1      47.181  25.831  36.373  1.00  0.00    -0.200 F 
ENDBRANCH  69  92
ENDBRANCH  43  44
ENDBRANCH  35  38
ENDBRANCH  33  34
ENDBRANCH  32  33
ENDBRANCH  31  32
ENDBRANCH  30  31
ENDBRANCH   1  30
TORSDOF 17
ENDMDL
MODEL 3
REMARK VINA RESULT:     -13.0      5.081      9.608
REMARK SMILES CCc1cc(C(=O)c2[nH]c3cc(Cl)ccc3c2CC(=O)NCCCCCCNC(=O)c2ccc(-c3c4nc(c(-c5c(F)c(F)c(F)c(F)c5F)c5ccc([nH]5)c(-c5c(F)c(F)c(F)c(F)c5F)c5nc(c(-c6c(F)c(F)c(F)c(F)c6F)c6ccc3[nH]6)C=C5)C=C4)cc2)ncc1Cl
REMARK SMILES IDX 23 1 22 2 21 3 19 4 20 5 18 7 17 8 8 9 9 10 10 11 16 13
REMARK SMILES IDX 11 14 15 15 12 16 14 17 13 18 6 19 7 20 5 21 3 22 4 23 96 24
REMARK SMILES IDX 95 25 97 26 94 27 2 28 1 29 24 30 25 31 26 32 27 33 28 34
REMARK SMILES IDX 29 35 30 37 31 38 32 39 93 40 33 41 92 42 34 43 35 44 36 45
REMARK SMILES IDX 86 46 37 47 91 48 85 49 87 50 38 51 90 52 84 53 83 54 39 56
REMARK SMILES IDX 71 57 51 58 70 59 52 60 55 61 69 62 88 63 53 64 54 65 68 67
REMARK SMILES IDX 89 68 56 69 40 70 41 71 49 72 42 73 43 74 47 75 50 76 44 77
REMARK SMILES IDX 45 78 48 79 46 80 72 81 73 82 81 83 74 84 75 85 79 86 82 87
REMARK SMILES IDX 76 88 77 89 80 90 78 91 57 92 58 93 66 94 59 95 60 96 64 97
REMARK SMILES IDX 67 98 61 99 62 100 65 101 63 102
REMARK H PARENT 21 6 9 12 28 36 87 55 55 66
REMARK Flexibility Score: inf
ROOT
ATOM      1  C   UNL A   1      37.681  23.762  25.657  1.00  0.00     0.021 C 
ENDROOT
BRANCH   1   2
ATOM      2  C   UNL A   1      36.186  24.040  25.819  1.00  0.00     0.116 C 
BRANCH   2   3
ATOM      3  N   UNL A   1      35.473  24.033  24.557  1.00  0.00    -0.356 N 
ATOM      4  C   UNL A   1      34.336  24.699  24.201  1.00  0.00     0.224 C 
ATOM      5  O   UNL A   1      33.937  24.607  23.039  1.00  0.00    -0.275 OA
ATOM      6  H   UNL A   1      35.865  23.464  23.856  1.00  0.00     0.163 HD
BRANCH   4   7
ATOM      7  C   UNL A   1      33.625  25.606  25.194  1.00  0.00     0.138 C 
BRANCH   7   8
ATOM      8  C   UNL A   1      32.129  25.621  25.062  1.00  0.00    -0.002 A 
ATOM      9  C   UNL A   1      31.219  24.720  25.604  1.00  0.00     0.093 A 
ATOM     10  N   UNL A   1      29.957  25.174  25.306  1.00  0.00    -0.351 N 
ATOM     11  C   UNL A   1      30.018  26.274  24.487  1.00  0.00     0.048 A 
ATOM     12  H   UNL A   1      29.123  24.767  25.634  1.00  0.00     0.167 HD
ATOM     13  C   UNL A   1      31.367  26.580  24.313  1.00  0.00     0.004 A 
ATOM     14  C   UNL A   1      28.985  27.022  23.907  1.00  0.00     0.047 A 
ATOM     15  C   UNL A   1      31.702  27.696  23.515  1.00  0.00     0.012 A 
ATOM     16  C   UNL A   1      29.350  28.119  23.123  1.00  0.00     0.043 A 
ATOM     17  C   UNL A   1      30.685  28.457  22.925  1.00  0.00     0.021 A 
ATOM     18  Cl  UNL A   1      28.116  29.074  22.391  1.00  0.00    -0.084 Cl
BRANCH   9  19
ATOM     19  C   UNL A   1      31.443  23.548  26.432  1.00  0.00     0.227 C 
ATOM     20  O   UNL A   1      30.894  23.440  27.523  1.00  0.00    -0.285 OA
BRANCH  19  21
ATOM     21  C   UNL A   1      32.280  22.422  25.868  1.00  0.00     0.113 A 
ATOM     22  C   UNL A   1      32.692  20.651  24.260  1.00  0.00    -0.026 A 
ATOM     23  C   UNL A   1      31.929  21.752  24.692  1.00  0.00     0.037 A 
ATOM     24  C   UNL A   1      33.804  20.280  25.024  1.00  0.00     0.062 A 
ATOM     25  C   UNL A   1      34.091  21.010  26.169  1.00  0.00     0.132 A 
ATOM     26  Cl  UNL A   1      34.818  18.951  24.611  1.00  0.00    -0.082 Cl
ATOM     27  N   UNL A   1      33.352  22.055  26.613  1.00  0.00    -0.251 NA
BRANCH  22  28
ATOM     28  C   UNL A   1      32.248  19.888  23.033  1.00  0.00     0.034 C 
ATOM     29  C   UNL A   1      31.911  20.823  21.878  1.00  0.00     0.009 C 
ENDBRANCH  22  28
ENDBRANCH  19  21
ENDBRANCH   9  19
ENDBRANCH   7   8
ENDBRANCH   4   7
ENDBRANCH   2   3
ENDBRANCH   1   2
BRANCH   1  30
ATOM     30  C   UNL A   1      38.099  22.306  25.890  1.00  0.00     0.002 C 
BRANCH  30  31
ATOM     31  C   UNL A   1      37.660  21.301  24.819  1.00  0.00     0.002 C 
BRANCH  31  32
ATOM     32  C   UNL A   1      38.359  19.935  24.843  1.00  0.00     0.021 C 
BRANCH  32  33
ATOM     33  C   UNL A   1      39.042  19.554  26.157  1.00  0.00     0.116 C 
BRANCH  33  34
ATOM     34  N   UNL A   1      40.307  18.873  25.952  1.00  0.00    -0.352 N 
ATOM     35  C   UNL A   1      41.589  19.359  25.991  1.00  0.00     0.251 C 
ATOM     36  H   UNL A   1      40.234  17.912  25.755  1.00  0.00     0.163 HD
ATOM     37  O   UNL A   1      42.521  18.627  25.664  1.00  0.00    -0.269 OA
BRANCH  35  38
ATOM     38  C   UNL A   1      41.883  20.753  26.403  1.00  0.00     0.039 A 
ATOM     39  C   UNL A   1      41.894  21.742  25.411  1.00  0.00     0.014 A 
ATOM     40  C   UNL A   1      42.243  21.084  27.713  1.00  0.00     0.014 A 
ATOM     41  C   UNL A   1      42.238  23.058  25.730  1.00  0.00     0.010 A 
ATOM     42  C   UNL A   1      42.568  22.406  28.039  1.00  0.00     0.010 A 
ATOM     43  C   UNL A   1      42.577  23.399  27.047  1.00  0.00    -0.014 A 
BRANCH  43  44
ATOM     44  C   UNL A   1      42.982  24.785  27.382  1.00  0.00     0.031 A 
ATOM     45  C   UNL A   1      44.379  25.254  27.096  1.00  0.00     0.074 A 
ATOM     46  C   UNL A   1      42.098  25.626  27.950  1.00  0.00     0.049 A 
ATOM     47  N   UNL A   1      44.934  26.410  27.362  1.00  0.00    -0.248 NA
ATOM     48  C   UNL A   1      45.274  24.293  26.432  1.00  0.00     0.031 C 
ATOM     49  C   UNL A   1      40.714  25.297  28.285  1.00  0.00     0.029 A 
ATOM     50  N   UNL A   1      42.240  26.932  28.344  1.00  0.00    -0.354 N 
ATOM     51  C   UNL A   1      46.247  26.307  26.926  1.00  0.00     0.074 A 
ATOM     52  C   UNL A   1      46.406  24.980  26.368  1.00  0.00     0.031 C 
ATOM     53  C   UNL A   1      40.127  26.380  28.825  1.00  0.00     0.029 A 
ATOM     54  C   UNL A   1      41.097  27.470  28.881  1.00  0.00     0.049 A 
ATOM     55  H   UNL A   1      43.081  27.436  28.252  1.00  0.00     0.167 HD
ATOM     56  C   UNL A   1      47.233  27.232  26.993  1.00  0.00     0.037 A 
ATOM     57  C   UNL A   1      40.860  28.705  29.359  1.00  0.00     0.037 A 
ATOM     58  C   UNL A   1      47.083  28.562  27.518  1.00  0.00     0.049 A 
ATOM     59  C   UNL A   1      41.948  29.739  29.347  1.00  0.00     0.074 A 
ATOM     60  C   UNL A   1      48.037  29.558  27.644  1.00  0.00     0.029 A 
ATOM     61  N   UNL A   1      45.892  29.089  27.988  1.00  0.00    -0.354 N 
ATOM     62  N   UNL A   1      43.192  29.620  28.954  1.00  0.00    -0.248 NA
ATOM     63  C   UNL A   1      41.597  31.079  29.840  1.00  0.00     0.031 C 
ATOM     64  C   UNL A   1      47.419  30.693  28.184  1.00  0.00     0.029 A 
ATOM     65  C   UNL A   1      46.081  30.401  28.388  1.00  0.00     0.049 A 
ATOM     66  H   UNL A   1      45.036  28.603  28.030  1.00  0.00     0.167 HD
ATOM     67  C   UNL A   1      43.769  30.866  29.145  1.00  0.00     0.074 A 
ATOM     68  C   UNL A   1      42.741  31.732  29.683  1.00  0.00     0.031 C 
ATOM     69  C   UNL A   1      45.044  31.253  28.900  1.00  0.00     0.037 A 
BRANCH  56  70
ATOM     70  C   UNL A   1      48.581  26.823  26.496  1.00  0.00     0.064 A 
ATOM     71  C   UNL A   1      48.961  27.040  25.166  1.00  0.00     0.173 A 
ATOM     72  C   UNL A   1      49.508  26.233  27.367  1.00  0.00     0.173 A 
ATOM     73  F   UNL A   1      48.098  27.588  24.298  1.00  0.00    -0.203 F 
ATOM     74  C   UNL A   1      50.227  26.674  24.720  1.00  0.00     0.198 A 
ATOM     75  C   UNL A   1      50.775  25.874  26.919  1.00  0.00     0.198 A 
ATOM     76  F   UNL A   1      49.181  26.003  28.648  1.00  0.00    -0.203 F 
ATOM     77  F   UNL A   1      50.570  26.873  23.440  1.00  0.00    -0.200 F 
ATOM     78  C   UNL A   1      51.133  26.094  25.597  1.00  0.00     0.200 A 
ATOM     79  F   UNL A   1      51.649  25.312  27.767  1.00  0.00    -0.200 F 
ATOM     80  F   UNL A   1      52.352  25.740  25.165  1.00  0.00    -0.200 F 
ENDBRANCH  56  70
BRANCH  57  81
ATOM     81  C   UNL A   1      39.512  29.041  29.868  1.00  0.00     0.064 A 
ATOM     82  C   UNL A   1      39.179  28.818  31.210  1.00  0.00     0.173 A 
ATOM     83  C   UNL A   1      38.541  29.599  29.028  1.00  0.00     0.173 A 
ATOM     84  F   UNL A   1      40.078  28.267  32.040  1.00  0.00    -0.203 F 
ATOM     85  C   UNL A   1      37.916  29.141  31.696  1.00  0.00     0.198 A 
ATOM     86  C   UNL A   1      37.280  29.928  29.516  1.00  0.00     0.198 A 
ATOM     87  F   UNL A   1      38.820  29.824  27.735  1.00  0.00    -0.203 F 
ATOM     88  F   UNL A   1      37.613  28.905  32.980  1.00  0.00    -0.200 F 
ATOM     89  C   UNL A   1      36.968  29.698  30.849  1.00  0.00     0.200 A 
ATOM     90  F   UNL A   1      36.365  30.466  28.698  1.00  0.00    -0.200 F 
ATOM     91  F   UNL A   1      35.751  30.008  31.317  1.00  0.00    -0.200 F 
ENDBRANCH  57  81
BRANCH  69  92
ATOM     92  C   UNL A   1      45.390  32.677  29.192  1.00  0.00     0.064 A 
ATOM     93  C   UNL A   1      45.230  33.673  28.220  1.00  0.00     0.173 A 
ATOM     94  C   UNL A   1      45.851  33.052  30.461  1.00  0.00     0.173 A 
ATOM     95  F   UNL A   1      44.803  33.352  26.989  1.00  0.00    -0.203 F 
ATOM     96  C   UNL A   1      45.526  35.002  28.508  1.00  0.00     0.198 A 
ATOM     97  C   UNL A   1      46.142  34.382  30.747  1.00  0.00     0.198 A 
ATOM     98  F   UNL A   1      46.026  32.128  31.417  1.00  0.00    -0.203 F 
ATOM     99  F   UNL A   1      45.379  35.939  27.562  1.00  0.00    -0.200 F 
ATOM    100  C   UNL A   1      45.979  35.356  29.771  1.00  0.00     0.200 A 
ATOM    101  F   UNL A   1      46.586  34.724  31.965  1.00  0.00    -0.200 F 
ATOM    102  F   UNL A   1      46.266  36.635  30.046  1.00  0.00    -0.200 F 
ENDBRANCH  69  92
ENDBRANCH  43  44
ENDBRANCH  35  38
ENDBRANCH  33  34
ENDBRANCH  32  33
ENDBRANCH  31  32
ENDBRANCH  30  31
ENDBRANCH   1  30
TORSDOF 17
ENDMDL
