MODEL 1
REMARK VINA RESULT:     -11.7      0.000      0.000
REMARK SMILES COCCCN1C(=O)CC[C@@H](C(=O)NCCCCCCNC(=O)c2ccc(-c3c4nc(c(-c5c(F)c(F)c(F)c(F)c5F)c5ccc([nH]5)c(-c5c(F)c(F)c(F)c(F)c5F)c5nc(c(-c6c(F)c(F)c(F)c(F)c6F)c6ccc3[nH]6)C=C5)C=C4)cc2)[C@@H]1c1ccc(F)cc1
REMARK SMILES IDX 16 1 15 2 14 3 12 4 13 5 11 7 6 8 7 9 87 10 8 11 9 12 10 13
REMARK SMILES IDX 5 14 4 15 3 16 2 17 1 18 88 19 89 20 94 21 90 22 93 23 91 24
REMARK SMILES IDX 92 25 17 26 18 27 19 28 20 29 21 30 22 31 23 33 24 34 25 35
REMARK SMILES IDX 86 36 26 37 85 38 27 39 28 40 29 41 79 42 30 43 84 44 78 45
REMARK SMILES IDX 80 46 31 47 83 48 77 49 76 50 32 52 64 53 44 54 63 55 45 56
REMARK SMILES IDX 48 57 62 58 81 59 46 60 47 61 61 63 82 64 49 65 33 66 34 67
REMARK SMILES IDX 42 68 35 69 36 70 40 71 43 72 37 73 38 74 41 75 39 76 65 77
REMARK SMILES IDX 66 78 74 79 67 80 68 81 72 82 75 83 69 84 70 85 73 86 71 87
REMARK SMILES IDX 50 88 51 89 59 90 52 91 53 92 57 93 60 94 54 95 55 96 58 97
REMARK SMILES IDX 56 98
REMARK H PARENT 14 6 21 32 80 51 48 62
REMARK Flexibility Score: inf
ROOT
ATOM      1  C   UNL A   1      40.441  22.520  27.136  1.00  0.00     0.021 C 
ENDROOT
BRANCH   1   2
ATOM      2  C   UNL A   1      39.228  22.091  26.314  1.00  0.00     0.116 C 
BRANCH   2   3
ATOM      3  N   UNL A   1      38.095  22.961  26.546  1.00  0.00    -0.356 N 
ATOM      4  C   UNL A   1      36.834  22.918  26.033  1.00  0.00     0.225 C 
ATOM      5  O   UNL A   1      36.087  23.860  26.293  1.00  0.00    -0.275 OA
ATOM      6  H   UNL A   1      38.261  23.700  27.174  1.00  0.00     0.163 HD
BRANCH   4   7
ATOM      7  C   UNL A   1      36.402  21.721  25.189  1.00  0.00     0.106 C 
ATOM      8  N   UNL A   1      34.254  22.703  24.393  1.00  0.00    -0.335 N 
ATOM      9  C   UNL A   1      34.781  23.110  23.175  1.00  0.00     0.223 C 
ATOM     10  C   UNL A   1      34.865  21.620  25.177  1.00  0.00     0.128 C 
ATOM     11  O   UNL A   1      34.116  23.717  22.335  1.00  0.00    -0.275 OA
ATOM     12  C   UNL A   1      36.261  22.893  22.938  1.00  0.00     0.101 C 
ATOM     13  C   UNL A   1      36.923  21.799  23.755  1.00  0.00     0.026 C 
BRANCH   8  14
ATOM     14  C   UNL A   1      32.929  23.185  24.809  1.00  0.00     0.122 C 
BRANCH  14  15
ATOM     15  C   UNL A   1      32.934  23.807  26.206  1.00  0.00     0.050 C 
BRANCH  15  16
ATOM     16  C   UNL A   1      31.997  23.142  27.214  1.00  0.00     0.161 C 
BRANCH  16  17
ATOM     17  O   UNL A   1      30.702  23.742  27.217  1.00  0.00    -0.385 OA
ATOM     18  C   UNL A   1      29.637  22.806  27.106  1.00  0.00     0.194 C 
ENDBRANCH  16  17
ENDBRANCH  15  16
ENDBRANCH  14  15
ENDBRANCH   8  14
BRANCH  10  19
ATOM     19  C   UNL A   1      34.357  20.231  24.742  1.00  0.00    -0.024 A 
ATOM     20  C   UNL A   1      35.177  19.084  24.772  1.00  0.00     0.009 A 
ATOM     21  C   UNL A   1      33.050  20.086  24.239  1.00  0.00     0.009 A 
ATOM     22  C   UNL A   1      34.716  17.849  24.312  1.00  0.00     0.039 A 
ATOM     23  C   UNL A   1      32.585  18.846  23.788  1.00  0.00     0.039 A 
ATOM     24  C   UNL A   1      33.423  17.741  23.824  1.00  0.00     0.123 A 
ATOM     25  F   UNL A   1      32.981  16.560  23.374  1.00  0.00    -0.207 F 
ENDBRANCH  10  19
ENDBRANCH   4   7
ENDBRANCH   2   3
ENDBRANCH   1   2
BRANCH   1  26
ATOM     26  C   UNL A   1      41.703  21.683  26.898  1.00  0.00     0.002 C 
BRANCH  26  27
ATOM     27  C   UNL A   1      41.540  20.175  27.111  1.00  0.00     0.002 C 
BRANCH  27  28
ATOM     28  C   UNL A   1      41.962  19.296  25.932  1.00  0.00     0.021 C 
BRANCH  28  29
ATOM     29  C   UNL A   1      43.369  18.722  26.028  1.00  0.00     0.116 C 
BRANCH  29  30
ATOM     30  N   UNL A   1      44.028  18.645  24.737  1.00  0.00    -0.352 N 
ATOM     31  C   UNL A   1      44.609  19.643  23.996  1.00  0.00     0.251 C 
ATOM     32  H   UNL A   1      44.064  17.747  24.334  1.00  0.00     0.163 HD
ATOM     33  O   UNL A   1      44.983  19.415  22.850  1.00  0.00    -0.269 OA
BRANCH  31  34
ATOM     34  C   UNL A   1      44.769  21.000  24.565  1.00  0.00     0.039 A 
ATOM     35  C   UNL A   1      44.243  22.085  23.859  1.00  0.00     0.014 A 
ATOM     36  C   UNL A   1      45.470  21.215  25.756  1.00  0.00     0.014 A 
ATOM     37  C   UNL A   1      44.399  23.380  24.357  1.00  0.00     0.010 A 
ATOM     38  C   UNL A   1      45.559  22.498  26.290  1.00  0.00     0.010 A 
ATOM     39  C   UNL A   1      45.048  23.597  25.583  1.00  0.00    -0.014 A 
BRANCH  39  40
ATOM     40  C   UNL A   1      45.253  24.973  26.101  1.00  0.00     0.031 A 
ATOM     41  C   UNL A   1      46.613  25.610  26.028  1.00  0.00     0.074 A 
ATOM     42  C   UNL A   1      44.224  25.637  26.662  1.00  0.00     0.049 A 
ATOM     43  N   UNL A   1      46.999  26.794  26.434  1.00  0.00    -0.248 NA
ATOM     44  C   UNL A   1      47.694  24.798  25.445  1.00  0.00     0.031 C 
ATOM     45  C   UNL A   1      42.872  25.110  26.840  1.00  0.00     0.029 A 
ATOM     46  N   UNL A   1      44.160  26.904  27.186  1.00  0.00    -0.354 N 
ATOM     47  C   UNL A   1      48.361  26.860  26.169  1.00  0.00     0.074 A 
ATOM     48  C   UNL A   1      48.749  25.577  25.625  1.00  0.00     0.031 C 
ATOM     49  C   UNL A   1      42.103  26.055  27.406  1.00  0.00     0.029 A 
ATOM     50  C   UNL A   1      42.913  27.244  27.651  1.00  0.00     0.049 A 
ATOM     51  H   UNL A   1      44.934  27.512  27.224  1.00  0.00     0.167 HD
ATOM     52  C   UNL A   1      49.207  27.904  26.336  1.00  0.00     0.037 A 
ATOM     53  C   UNL A   1      42.474  28.390  28.204  1.00  0.00     0.037 A 
ATOM     54  C   UNL A   1      48.813  29.191  26.845  1.00  0.00     0.049 A 
ATOM     55  C   UNL A   1      43.428  29.547  28.349  1.00  0.00     0.074 A 
ATOM     56  C   UNL A   1      49.581  30.331  27.008  1.00  0.00     0.029 A 
ATOM     57  N   UNL A   1      47.532  29.509  27.273  1.00  0.00    -0.354 N 
ATOM     58  N   UNL A   1      44.698  29.619  28.034  1.00  0.00    -0.248 NA
ATOM     59  C   UNL A   1      42.877  30.787  28.912  1.00  0.00     0.031 C 
ATOM     60  C   UNL A   1      48.774  31.327  27.567  1.00  0.00     0.029 A 
ATOM     61  C   UNL A   1      47.490  30.824  27.707  1.00  0.00     0.049 A 
ATOM     62  H   UNL A   1      46.765  28.892  27.269  1.00  0.00     0.167 HD
ATOM     63  C   UNL A   1      45.091  30.918  28.328  1.00  0.00     0.074 A 
ATOM     64  C   UNL A   1      43.918  31.604  28.830  1.00  0.00     0.031 C 
ATOM     65  C   UNL A   1      46.311  31.493  28.194  1.00  0.00     0.037 A 
BRANCH  52  66
ATOM     66  C   UNL A   1      50.645  27.697  25.953  1.00  0.00     0.064 A 
ATOM     67  C   UNL A   1      51.617  27.348  26.904  1.00  0.00     0.173 A 
ATOM     68  C   UNL A   1      51.054  27.830  24.618  1.00  0.00     0.173 A 
ATOM     69  F   UNL A   1      51.281  27.222  28.196  1.00  0.00    -0.203 F 
ATOM     70  C   UNL A   1      52.949  27.172  26.537  1.00  0.00     0.198 A 
ATOM     71  C   UNL A   1      52.382  27.622  24.249  1.00  0.00     0.198 A 
ATOM     72  F   UNL A   1      50.167  28.160  23.668  1.00  0.00    -0.203 F 
ATOM     73  F   UNL A   1      53.868  26.894  27.473  1.00  0.00    -0.200 F 
ATOM     74  C   UNL A   1      53.329  27.302  25.211  1.00  0.00     0.200 A 
ATOM     75  F   UNL A   1      52.745  27.739  22.965  1.00  0.00    -0.200 F 
ATOM     76  F   UNL A   1      54.610  27.130  24.859  1.00  0.00    -0.200 F 
ENDBRANCH  52  66
BRANCH  53  77
ATOM     77  C   UNL A   1      41.053  28.521  28.616  1.00  0.00     0.064 A 
ATOM     78  C   UNL A   1      40.639  28.148  29.902  1.00  0.00     0.173 A 
ATOM     79  C   UNL A   1      40.080  29.007  27.732  1.00  0.00     0.173 A 
ATOM     80  F   UNL A   1      41.531  27.659  30.776  1.00  0.00    -0.203 F 
ATOM     81  C   UNL A   1      39.301  28.232  30.281  1.00  0.00     0.198 A 
ATOM     82  C   UNL A   1      38.746  29.118  28.121  1.00  0.00     0.198 A 
ATOM     83  F   UNL A   1      40.425  29.385  26.492  1.00  0.00    -0.203 F 
ATOM     84  F   UNL A   1      38.925  27.822  31.500  1.00  0.00    -0.200 F 
ATOM     85  C   UNL A   1      38.356  28.721  29.392  1.00  0.00     0.200 A 
ATOM     86  F   UNL A   1      37.838  29.605  27.265  1.00  0.00    -0.200 F 
ATOM     87  F   UNL A   1      37.070  28.803  29.756  1.00  0.00    -0.200 F 
ENDBRANCH  53  77
BRANCH  65  88
ATOM     88  C   UNL A   1      46.426  32.946  28.555  1.00  0.00     0.064 A 
ATOM     89  C   UNL A   1      46.245  33.960  27.602  1.00  0.00     0.173 A 
ATOM     90  C   UNL A   1      46.707  33.327  29.876  1.00  0.00     0.173 A 
ATOM     91  F   UNL A   1      45.988  33.647  26.324  1.00  0.00    -0.203 F 
ATOM     92  C   UNL A   1      46.382  35.301  27.951  1.00  0.00     0.198 A 
ATOM     93  C   UNL A   1      46.810  34.670  30.227  1.00  0.00     0.198 A 
ATOM     94  F   UNL A   1      46.878  32.397  30.827  1.00  0.00    -0.203 F 
ATOM     95  F   UNL A   1      46.266  36.250  27.012  1.00  0.00    -0.200 F 
ATOM     96  C   UNL A   1      46.660  35.655  29.263  1.00  0.00     0.200 A 
ATOM     97  F   UNL A   1      47.064  35.011  31.499  1.00  0.00    -0.200 F 
ATOM     98  F   UNL A   1      46.792  36.946  29.597  1.00  0.00    -0.200 F 
ENDBRANCH  65  88
ENDBRANCH  39  40
ENDBRANCH  31  34
ENDBRANCH  29  30
ENDBRANCH  28  29
ENDBRANCH  27  28
ENDBRANCH  26  27
ENDBRANCH   1  26
TORSDOF 18
ENDMDL
MODEL 2
REMARK VINA RESULT:     -11.6      6.734     12.056
REMARK SMILES COCCCN1C(=O)CC[C@@H](C(=O)NCCCCCCNC(=O)c2ccc(-c3c4nc(c(-c5c(F)c(F)c(F)c(F)c5F)c5ccc([nH]5)c(-c5c(F)c(F)c(F)c(F)c5F)c5nc(c(-c6c(F)c(F)c(F)c(F)c6F)c6ccc3[nH]6)C=C5)C=C4)cc2)[C@@H]1c1ccc(F)cc1
REMARK SMILES IDX 16 1 15 2 14 3 12 4 13 5 11 7 6 8 7 9 87 10 8 11 9 12 10 13
REMARK SMILES IDX 5 14 4 15 3 16 2 17 1 18 88 19 89 20 94 21 90 22 93 23 91 24
REMARK SMILES IDX 92 25 17 26 18 27 19 28 20 29 21 30 22 31 23 33 24 34 25 35
REMARK SMILES IDX 86 36 26 37 85 38 27 39 28 40 29 41 79 42 30 43 84 44 78 45
REMARK SMILES IDX 80 46 31 47 83 48 77 49 76 50 32 52 64 53 44 54 63 55 45 56
REMARK SMILES IDX 48 57 62 58 81 59 46 60 47 61 61 63 82 64 49 65 33 66 34 67
REMARK SMILES IDX 42 68 35 69 36 70 40 71 43 72 37 73 38 74 41 75 39 76 65 77
REMARK SMILES IDX 66 78 74 79 67 80 68 81 72 82 75 83 69 84 70 85 73 86 71 87
REMARK SMILES IDX 50 88 51 89 59 90 52 91 53 92 57 93 60 94 54 95 55 96 58 97
REMARK SMILES IDX 56 98
REMARK H PARENT 14 6 21 32 80 51 48 62
REMARK Flexibility Score: inf
ROOT
ATOM      1  C   UNL A   1      35.282  31.437  27.804  1.00  0.00     0.021 C 
ENDROOT
BRANCH   1   2
ATOM      2  C   UNL A   1      34.771  30.111  27.249  1.00  0.00     0.116 C 
BRANCH   2   3
ATOM      3  N   UNL A   1      33.409  30.225  26.771  1.00  0.00    -0.356 N 
ATOM      4  C   UNL A   1      32.794  29.624  25.715  1.00  0.00     0.225 C 
ATOM      5  O   UNL A   1      31.653  29.993  25.443  1.00  0.00    -0.275 OA
ATOM      6  H   UNL A   1      32.836  30.832  27.294  1.00  0.00     0.163 HD
BRANCH   4   7
ATOM      7  C   UNL A   1      33.522  28.530  24.939  1.00  0.00     0.106 C 
ATOM      8  N   UNL A   1      31.480  27.332  24.162  1.00  0.00    -0.335 N 
ATOM      9  C   UNL A   1      31.485  27.936  22.912  1.00  0.00     0.223 C 
ATOM     10  C   UNL A   1      32.700  27.229  24.976  1.00  0.00     0.128 C 
ATOM     11  O   UNL A   1      30.619  27.714  22.066  1.00  0.00    -0.275 OA
ATOM     12  C   UNL A   1      32.536  28.992  22.642  1.00  0.00     0.101 C 
ATOM     13  C   UNL A   1      33.794  28.925  23.489  1.00  0.00     0.026 C 
BRANCH   8  14
ATOM     14  C   UNL A   1      30.303  26.566  24.594  1.00  0.00     0.122 C 
BRANCH  14  15
ATOM     15  C   UNL A   1      30.492  25.902  25.959  1.00  0.00     0.050 C 
BRANCH  15  16
ATOM     16  C   UNL A   1      30.531  24.375  25.936  1.00  0.00     0.161 C 
BRANCH  16  17
ATOM     17  O   UNL A   1      30.319  23.815  27.232  1.00  0.00    -0.385 OA
ATOM     18  C   UNL A   1      29.469  22.675  27.232  1.00  0.00     0.194 C 
ENDBRANCH  16  17
ENDBRANCH  15  16
ENDBRANCH  14  15
ENDBRANCH   8  14
BRANCH  10  19
ATOM     19  C   UNL A   1      33.531  25.981  24.619  1.00  0.00    -0.024 A 
ATOM     20  C   UNL A   1      33.459  25.362  23.354  1.00  0.00     0.009 A 
ATOM     21  C   UNL A   1      34.356  25.383  25.591  1.00  0.00     0.009 A 
ATOM     22  C   UNL A   1      34.171  24.193  23.075  1.00  0.00     0.039 A 
ATOM     23  C   UNL A   1      35.078  24.219  25.308  1.00  0.00     0.039 A 
ATOM     24  C   UNL A   1      34.974  23.632  24.054  1.00  0.00     0.123 A 
ATOM     25  F   UNL A   1      35.651  22.508  23.792  1.00  0.00    -0.207 F 
ENDBRANCH  10  19
ENDBRANCH   4   7
ENDBRANCH   2   3
ENDBRANCH   1   2
BRANCH   1  26
ATOM     26  C   UNL A   1      34.237  32.253  28.575  1.00  0.00     0.002 C 
BRANCH  26  27
ATOM     27  C   UNL A   1      34.416  33.773  28.513  1.00  0.00     0.002 C 
BRANCH  27  28
ATOM     28  C   UNL A   1      33.127  34.589  28.627  1.00  0.00     0.021 C 
BRANCH  28  29
ATOM     29  C   UNL A   1      33.298  35.984  29.214  1.00  0.00     0.116 C 
BRANCH  29  30
ATOM     30  N   UNL A   1      32.533  36.171  30.434  1.00  0.00    -0.352 N 
ATOM     31  C   UNL A   1      32.761  35.669  31.690  1.00  0.00     0.251 C 
ATOM     32  H   UNL A   1      31.736  36.742  30.348  1.00  0.00     0.163 HD
ATOM     33  O   UNL A   1      31.917  35.811  32.568  1.00  0.00    -0.269 OA
BRANCH  31  34
ATOM     34  C   UNL A   1      34.014  34.938  31.987  1.00  0.00     0.039 A 
ATOM     35  C   UNL A   1      33.942  33.567  32.240  1.00  0.00     0.014 A 
ATOM     36  C   UNL A   1      35.245  35.599  32.062  1.00  0.00     0.014 A 
ATOM     37  C   UNL A   1      35.102  32.854  32.548  1.00  0.00     0.010 A 
ATOM     38  C   UNL A   1      36.411  34.874  32.294  1.00  0.00     0.010 A 
ATOM     39  C   UNL A   1      36.348  33.499  32.566  1.00  0.00    -0.014 A 
BRANCH  39  40
ATOM     40  C   UNL A   1      37.583  32.758  32.929  1.00  0.00     0.031 A 
ATOM     41  C   UNL A   1      38.269  33.035  34.238  1.00  0.00     0.074 A 
ATOM     42  C   UNL A   1      38.100  31.858  32.071  1.00  0.00     0.049 A 
ATOM     43  N   UNL A   1      39.359  32.504  34.733  1.00  0.00    -0.248 NA
ATOM     44  C   UNL A   1      37.666  34.068  35.096  1.00  0.00     0.031 C 
ATOM     45  C   UNL A   1      37.559  31.538  30.751  1.00  0.00     0.029 A 
ATOM     46  N   UNL A   1      39.201  31.046  32.187  1.00  0.00    -0.354 N 
ATOM     47  C   UNL A   1      39.576  33.147  35.945  1.00  0.00     0.074 A 
ATOM     48  C   UNL A   1      38.543  34.149  36.084  1.00  0.00     0.031 C 
ATOM     49  C   UNL A   1      38.312  30.577  30.189  1.00  0.00     0.029 A 
ATOM     50  C   UNL A   1      39.400  30.232  31.098  1.00  0.00     0.049 A 
ATOM     51  H   UNL A   1      39.792  31.047  32.975  1.00  0.00     0.167 HD
ATOM     52  C   UNL A   1      40.532  32.904  36.874  1.00  0.00     0.037 A 
ATOM     53  C   UNL A   1      40.350  29.306  30.867  1.00  0.00     0.037 A 
ATOM     54  C   UNL A   1      41.540  31.884  36.750  1.00  0.00     0.049 A 
ATOM     55  C   UNL A   1      41.382  29.034  31.929  1.00  0.00     0.074 A 
ATOM     56  C   UNL A   1      42.524  31.524  37.654  1.00  0.00     0.029 A 
ATOM     57  N   UNL A   1      41.687  31.055  35.647  1.00  0.00    -0.354 N 
ATOM     58  N   UNL A   1      41.538  29.603  33.100  1.00  0.00    -0.248 NA
ATOM     59  C   UNL A   1      42.361  27.977  31.640  1.00  0.00     0.031 C 
ATOM     60  C   UNL A   1      43.289  30.502  37.084  1.00  0.00     0.029 A 
ATOM     61  C   UNL A   1      42.752  30.190  35.845  1.00  0.00     0.049 A 
ATOM     62  H   UNL A   1      41.120  31.077  34.844  1.00  0.00     0.167 HD
ATOM     63  C   UNL A   1      42.607  28.952  33.701  1.00  0.00     0.074 A 
ATOM     64  C   UNL A   1      43.050  27.934  32.771  1.00  0.00     0.031 C 
ATOM     65  C   UNL A   1      43.172  29.176  34.912  1.00  0.00     0.037 A 
BRANCH  52  66
ATOM     66  C   UNL A   1      40.526  33.756  38.112  1.00  0.00     0.064 A 
ATOM     67  C   UNL A   1      39.723  33.439  39.219  1.00  0.00     0.173 A 
ATOM     68  C   UNL A   1      41.345  34.891  38.201  1.00  0.00     0.173 A 
ATOM     69  F   UNL A   1      38.911  32.373  39.180  1.00  0.00    -0.203 F 
ATOM     70  C   UNL A   1      39.717  34.245  40.355  1.00  0.00     0.198 A 
ATOM     71  C   UNL A   1      41.360  35.677  39.352  1.00  0.00     0.198 A 
ATOM     72  F   UNL A   1      42.135  35.238  37.174  1.00  0.00    -0.203 F 
ATOM     73  F   UNL A   1      38.900  33.952  41.376  1.00  0.00    -0.200 F 
ATOM     74  C   UNL A   1      40.540  35.358  40.423  1.00  0.00     0.200 A 
ATOM     75  F   UNL A   1      42.164  36.747  39.419  1.00  0.00    -0.200 F 
ATOM     76  F   UNL A   1      40.535  36.131  41.518  1.00  0.00    -0.200 F 
ENDBRANCH  52  66
BRANCH  53  77
ATOM     77  C   UNL A   1      40.340  28.531  29.600  1.00  0.00     0.064 A 
ATOM     78  C   UNL A   1      39.615  27.337  29.492  1.00  0.00     0.173 A 
ATOM     79  C   UNL A   1      41.062  28.961  28.478  1.00  0.00     0.173 A 
ATOM     80  F   UNL A   1      38.925  26.876  30.546  1.00  0.00    -0.203 F 
ATOM     81  C   UNL A   1      39.633  26.587  28.319  1.00  0.00     0.198 A 
ATOM     82  C   UNL A   1      41.056  28.225  27.294  1.00  0.00     0.198 A 
ATOM     83  F   UNL A   1      41.766  30.101  28.526  1.00  0.00    -0.203 F 
ATOM     84  F   UNL A   1      38.972  25.423  28.260  1.00  0.00    -0.200 F 
ATOM     85  C   UNL A   1      40.350  27.033  27.219  1.00  0.00     0.200 A 
ATOM     86  F   UNL A   1      41.738  28.666  26.229  1.00  0.00    -0.200 F 
ATOM     87  F   UNL A   1      40.367  26.312  26.090  1.00  0.00    -0.200 F 
ENDBRANCH  53  77
BRANCH  65  88
ATOM     88  C   UNL A   1      44.301  28.272  35.318  1.00  0.00     0.064 A 
ATOM     89  C   UNL A   1      45.638  28.584  35.028  1.00  0.00     0.173 A 
ATOM     90  C   UNL A   1      44.040  27.084  36.018  1.00  0.00     0.173 A 
ATOM     91  F   UNL A   1      45.938  29.701  34.349  1.00  0.00    -0.203 F 
ATOM     92  C   UNL A   1      46.668  27.721  35.389  1.00  0.00     0.198 A 
ATOM     93  C   UNL A   1      45.076  26.239  36.406  1.00  0.00     0.198 A 
ATOM     94  F   UNL A   1      42.780  26.744  36.329  1.00  0.00    -0.203 F 
ATOM     95  F   UNL A   1      47.932  28.008  35.048  1.00  0.00    -0.200 F 
ATOM     96  C   UNL A   1      46.387  26.551  36.082  1.00  0.00     0.200 A 
ATOM     97  F   UNL A   1      44.804  25.117  37.087  1.00  0.00    -0.200 F 
ATOM     98  F   UNL A   1      47.380  25.721  36.427  1.00  0.00    -0.200 F 
ENDBRANCH  65  88
ENDBRANCH  39  40
ENDBRANCH  31  34
ENDBRANCH  29  30
ENDBRANCH  28  29
ENDBRANCH  27  28
ENDBRANCH  26  27
ENDBRANCH   1  26
TORSDOF 18
ENDMDL
MODEL 3
REMARK VINA RESULT:     -11.6      5.868     11.377
REMARK SMILES COCCCN1C(=O)CC[C@@H](C(=O)NCCCCCCNC(=O)c2ccc(-c3c4nc(c(-c5c(F)c(F)c(F)c(F)c5F)c5ccc([nH]5)c(-c5c(F)c(F)c(F)c(F)c5F)c5nc(c(-c6c(F)c(F)c(F)c(F)c6F)c6ccc3[nH]6)C=C5)C=C4)cc2)[C@@H]1c1ccc(F)cc1
REMARK SMILES IDX 16 1 15 2 14 3 12 4 13 5 11 7 6 8 7 9 87 10 8 11 9 12 10 13
REMARK SMILES IDX 5 14 4 15 3 16 2 17 1 18 88 19 89 20 94 21 90 22 93 23 91 24
REMARK SMILES IDX 92 25 17 26 18 27 19 28 20 29 21 30 22 31 23 33 24 34 25 35
REMARK SMILES IDX 86 36 26 37 85 38 27 39 28 40 29 41 79 42 30 43 84 44 78 45
REMARK SMILES IDX 80 46 31 47 83 48 77 49 76 50 32 52 64 53 44 54 63 55 45 56
REMARK SMILES IDX 48 57 62 58 81 59 46 60 47 61 61 63 82 64 49 65 33 66 34 67
REMARK SMILES IDX 42 68 35 69 36 70 40 71 43 72 37 73 38 74 41 75 39 76 65 77
REMARK SMILES IDX 66 78 74 79 67 80 68 81 72 82 75 83 69 84 70 85 73 86 71 87
REMARK SMILES IDX 50 88 51 89 59 90 52 91 53 92 57 93 60 94 54 95 55 96 58 97
REMARK SMILES IDX 56 98
REMARK H PARENT 14 6 21 32 80 51 48 62
REMARK Flexibility Score: inf
ROOT
ATOM      1  C   UNL A   1      31.929  28.225  27.010  1.00  0.00     0.021 C 
ENDROOT
BRANCH   1   2
ATOM      2  C   UNL A   1      31.801  27.774  25.558  1.00  0.00     0.116 C 
BRANCH   2   3
ATOM      3  N   UNL A   1      31.163  26.478  25.460  1.00  0.00    -0.356 N 
ATOM      4  C   UNL A   1      31.680  25.266  25.115  1.00  0.00     0.225 C 
ATOM      5  O   UNL A   1      30.890  24.334  24.981  1.00  0.00    -0.275 OA
ATOM      6  H   UNL A   1      30.202  26.472  25.677  1.00  0.00     0.163 HD
BRANCH   4   7
ATOM      7  C   UNL A   1      33.188  25.113  24.931  1.00  0.00     0.106 C 
ATOM      8  N   UNL A   1      33.080  23.209  23.326  1.00  0.00    -0.335 N 
ATOM      9  C   UNL A   1      33.233  24.017  22.209  1.00  0.00     0.223 C 
ATOM     10  C   UNL A   1      33.533  23.638  24.658  1.00  0.00     0.128 C 
ATOM     11  O   UNL A   1      33.226  23.570  21.062  1.00  0.00    -0.275 OA
ATOM     12  C   UNL A   1      33.292  25.515  22.423  1.00  0.00     0.101 C 
ATOM     13  C   UNL A   1      33.729  25.985  23.799  1.00  0.00     0.026 C 
BRANCH   8  14
ATOM     14  C   UNL A   1      32.682  21.805  23.159  1.00  0.00     0.122 C 
BRANCH  14  15
ATOM     15  C   UNL A   1      32.038  21.214  24.414  1.00  0.00     0.050 C 
BRANCH  15  16
ATOM     16  C   UNL A   1      32.789  20.037  25.035  1.00  0.00     0.161 C 
BRANCH  16  17
ATOM     17  O   UNL A   1      32.126  18.795  24.799  1.00  0.00    -0.385 OA
ATOM     18  C   UNL A   1      32.453  18.199  23.550  1.00  0.00     0.194 C 
ENDBRANCH  16  17
ENDBRANCH  15  16
ENDBRANCH  14  15
ENDBRANCH   8  14
BRANCH  10  19
ATOM     19  C   UNL A   1      35.020  23.312  24.898  1.00  0.00    -0.024 A 
ATOM     20  C   UNL A   1      35.675  22.248  24.246  1.00  0.00     0.009 A 
ATOM     21  C   UNL A   1      35.759  24.052  25.841  1.00  0.00     0.009 A 
ATOM     22  C   UNL A   1      37.005  21.930  24.528  1.00  0.00     0.039 A 
ATOM     23  C   UNL A   1      37.095  23.741  26.116  1.00  0.00     0.039 A 
ATOM     24  C   UNL A   1      37.703  22.680  25.460  1.00  0.00     0.123 A 
ATOM     25  F   UNL A   1      38.976  22.373  25.739  1.00  0.00    -0.207 F 
ENDBRANCH  10  19
ENDBRANCH   4   7
ENDBRANCH   2   3
ENDBRANCH   1   2
BRANCH   1  26
ATOM     26  C   UNL A   1      32.199  29.724  27.192  1.00  0.00     0.002 C 
BRANCH  26  27
ATOM     27  C   UNL A   1      31.531  30.640  26.160  1.00  0.00     0.002 C 
BRANCH  27  28
ATOM     28  C   UNL A   1      31.408  32.109  26.571  1.00  0.00     0.021 C 
BRANCH  28  29
ATOM     29  C   UNL A   1      32.707  32.763  27.022  1.00  0.00     0.116 C 
BRANCH  29  30
ATOM     30  N   UNL A   1      32.497  34.079  27.596  1.00  0.00    -0.352 N 
ATOM     31  C   UNL A   1      33.117  34.671  28.667  1.00  0.00     0.251 C 
ATOM     32  H   UNL A   1      31.810  34.628  27.152  1.00  0.00     0.163 HD
ATOM     33  O   UNL A   1      32.699  35.737  29.104  1.00  0.00    -0.269 OA
BRANCH  31  34
ATOM     34  C   UNL A   1      34.280  34.019  29.311  1.00  0.00     0.039 A 
ATOM     35  C   UNL A   1      35.563  34.456  28.971  1.00  0.00     0.014 A 
ATOM     36  C   UNL A   1      34.119  32.956  30.207  1.00  0.00     0.014 A 
ATOM     37  C   UNL A   1      36.681  33.846  29.543  1.00  0.00     0.010 A 
ATOM     38  C   UNL A   1      35.231  32.399  30.834  1.00  0.00     0.010 A 
ATOM     39  C   UNL A   1      36.523  32.819  30.488  1.00  0.00    -0.014 A 
BRANCH  39  40
ATOM     40  C   UNL A   1      37.706  32.138  31.073  1.00  0.00     0.031 A 
ATOM     41  C   UNL A   1      38.162  32.485  32.464  1.00  0.00     0.074 A 
ATOM     42  C   UNL A   1      38.384  31.230  30.345  1.00  0.00     0.049 A 
ATOM     43  N   UNL A   1      39.174  32.012  33.147  1.00  0.00    -0.248 NA
ATOM     44  C   UNL A   1      37.396  33.522  33.172  1.00  0.00     0.031 C 
ATOM     45  C   UNL A   1      38.074  30.846  28.969  1.00  0.00     0.029 A 
ATOM     46  N   UNL A   1      39.477  30.465  30.668  1.00  0.00    -0.354 N 
ATOM     47  C   UNL A   1      39.172  32.703  34.353  1.00  0.00     0.074 A 
ATOM     48  C   UNL A   1      38.099  33.669  34.285  1.00  0.00     0.031 C 
ATOM     49  C   UNL A   1      38.937  29.896  28.573  1.00  0.00     0.029 A 
ATOM     50  C   UNL A   1      39.875  29.622  29.658  1.00  0.00     0.049 A 
ATOM     51  H   UNL A   1      39.932  30.514  31.539  1.00  0.00     0.167 HD
ATOM     52  C   UNL A   1      39.973  32.528  35.431  1.00  0.00     0.037 A 
ATOM     53  C   UNL A   1      40.878  28.726  29.619  1.00  0.00     0.037 A 
ATOM     54  C   UNL A   1      41.019  31.543  35.510  1.00  0.00     0.049 A 
ATOM     55  C   UNL A   1      41.734  28.529  30.842  1.00  0.00     0.074 A 
ATOM     56  C   UNL A   1      41.856  31.251  36.574  1.00  0.00     0.029 A 
ATOM     57  N   UNL A   1      41.370  30.683  34.479  1.00  0.00    -0.354 N 
ATOM     58  N   UNL A   1      41.680  29.142  31.999  1.00  0.00    -0.248 NA
ATOM     59  C   UNL A   1      42.779  27.500  30.755  1.00  0.00     0.031 C 
ATOM     60  C   UNL A   1      42.735  30.239  36.174  1.00  0.00     0.029 A 
ATOM     61  C   UNL A   1      42.415  29.866  34.878  1.00  0.00     0.049 A 
ATOM     62  H   UNL A   1      40.939  30.656  33.594  1.00  0.00     0.167 HD
ATOM     63  C   UNL A   1      42.658  28.553  32.789  1.00  0.00     0.074 A 
ATOM     64  C   UNL A   1      43.278  27.521  31.983  1.00  0.00     0.031 C 
ATOM     65  C   UNL A   1      43.013  28.838  34.066  1.00  0.00     0.037 A 
BRANCH  52  66
ATOM     66  C   UNL A   1      39.740  33.419  36.618  1.00  0.00     0.064 A 
ATOM     67  C   UNL A   1      40.435  34.628  36.778  1.00  0.00     0.173 A 
ATOM     68  C   UNL A   1      38.796  33.072  37.596  1.00  0.00     0.173 A 
ATOM     69  F   UNL A   1      41.357  35.000  35.879  1.00  0.00    -0.203 F 
ATOM     70  C   UNL A   1      40.218  35.439  37.890  1.00  0.00     0.198 A 
ATOM     71  C   UNL A   1      38.559  33.901  38.691  1.00  0.00     0.198 A 
ATOM     72  F   UNL A   1      38.102  31.929  37.492  1.00  0.00    -0.203 F 
ATOM     73  F   UNL A   1      40.935  36.560  38.049  1.00  0.00    -0.200 F 
ATOM     74  C   UNL A   1      39.277  35.078  38.841  1.00  0.00     0.200 A 
ATOM     75  F   UNL A   1      37.641  33.555  39.604  1.00  0.00    -0.200 F 
ATOM     76  F   UNL A   1      39.067  35.860  39.909  1.00  0.00    -0.200 F 
ENDBRANCH  52  66
BRANCH  53  77
ATOM     77  C   UNL A   1      41.098  27.909  28.397  1.00  0.00     0.064 A 
ATOM     78  C   UNL A   1      40.433  26.689  28.218  1.00  0.00     0.173 A 
ATOM     79  C   UNL A   1      41.984  28.324  27.393  1.00  0.00     0.173 A 
ATOM     80  F   UNL A   1      39.590  26.242  29.161  1.00  0.00    -0.203 F 
ATOM     81  C   UNL A   1      40.664  25.901  27.093  1.00  0.00     0.198 A 
ATOM     82  C   UNL A   1      42.193  27.549  26.254  1.00  0.00     0.198 A 
ATOM     83  F   UNL A   1      42.640  29.487  27.513  1.00  0.00    -0.203 F 
ATOM     84  F   UNL A   1      40.052  24.715  26.971  1.00  0.00    -0.200 F 
ATOM     85  C   UNL A   1      41.540  26.333  26.109  1.00  0.00     0.200 A 
ATOM     86  F   UNL A   1      43.029  27.976  25.299  1.00  0.00    -0.200 F 
ATOM     87  F   UNL A   1      41.762  25.576  25.027  1.00  0.00    -0.200 F 
ENDBRANCH  53  77
BRANCH  65  88
ATOM     88  C   UNL A   1      44.090  27.992  34.682  1.00  0.00     0.064 A 
ATOM     89  C   UNL A   1      45.442  28.362  34.628  1.00  0.00     0.173 A 
ATOM     90  C   UNL A   1      43.760  26.800  35.347  1.00  0.00     0.173 A 
ATOM     91  F   UNL A   1      45.809  29.484  33.992  1.00  0.00    -0.203 F 
ATOM     92  C   UNL A   1      46.428  27.550  35.183  1.00  0.00     0.198 A 
ATOM     93  C   UNL A   1      44.745  26.009  35.929  1.00  0.00     0.198 A 
ATOM     94  F   UNL A   1      42.481  26.406  35.436  1.00  0.00    -0.203 F 
ATOM     95  F   UNL A   1      47.718  27.892  35.066  1.00  0.00    -0.200 F 
ATOM     96  C   UNL A   1      46.079  26.377  35.836  1.00  0.00     0.200 A 
ATOM     97  F   UNL A   1      44.405  24.883  36.572  1.00  0.00    -0.200 F 
ATOM     98  F   UNL A   1      47.029  25.597  36.368  1.00  0.00    -0.200 F 
ENDBRANCH  65  88
ENDBRANCH  39  40
ENDBRANCH  31  34
ENDBRANCH  29  30
ENDBRANCH  28  29
ENDBRANCH  27  28
ENDBRANCH  26  27
ENDBRANCH   1  26
TORSDOF 18
ENDMDL
