MODEL 1
REMARK VINA RESULT:     -12.2      0.000      0.000
REMARK SMILES O=C(NCCCCCCNC(=O)c1nc2c(F)cccc2s1)c1ccc(-c2c3nc(c(-c4c(F)c(F)c(F)c(F)c4F)c4ccc([nH]4)c(-c4c(F)c(F)c(F)c(F)c4F)c4nc(c(-c5c(F)c(F)c(F)c(F)c5F)c5ccc2[nH]5)C=C4)C=C3)cc1
REMARK SMILES IDX 5 1 4 2 3 3 1 4 2 5 23 7 24 8 85 9 25 10 84 11 26 12 27 13
REMARK SMILES IDX 28 14 78 15 29 16 83 17 77 18 79 19 30 20 82 21 76 22 75 23
REMARK SMILES IDX 31 25 63 26 43 27 62 28 44 29 47 30 61 31 80 32 45 33 46 34
REMARK SMILES IDX 60 36 81 37 48 38 32 39 33 40 41 41 34 42 35 43 39 44 42 45
REMARK SMILES IDX 36 46 37 47 40 48 38 49 64 50 65 51 73 52 66 53 67 54 71 55
REMARK SMILES IDX 74 56 68 57 69 58 72 59 70 60 49 61 50 62 58 63 51 64 52 65
REMARK SMILES IDX 56 66 59 67 53 68 54 69 57 70 55 71 6 72 7 73 8 74 9 75
REMARK SMILES IDX 10 76 11 77 12 79 13 80 14 81 22 82 15 83 21 84 16 85 20 86
REMARK SMILES IDX 17 87 18 88 19 89
REMARK H PARENT 3 6 79 24 47 35 10 78
REMARK Flexibility Score: inf
ROOT
ATOM      1  C   UNL A   1      33.857  30.533  27.303  1.00  0.00     0.021 C 
ENDROOT
BRANCH   1   2
ATOM      2  C   UNL A   1      34.709  31.688  27.828  1.00  0.00     0.116 C 
BRANCH   2   3
ATOM      3  N   UNL A   1      34.454  32.056  29.208  1.00  0.00    -0.352 N 
ATOM      4  O   UNL A   1      34.747  32.445  31.391  1.00  0.00    -0.269 OA
ATOM      5  C   UNL A   1      35.201  31.964  30.353  1.00  0.00     0.251 C 
ATOM      6  H   UNL A   1      33.564  32.450  29.352  1.00  0.00     0.163 HD
BRANCH   5   7
ATOM      7  C   UNL A   1      36.468  31.205  30.410  1.00  0.00     0.039 A 
ATOM      8  C   UNL A   1      37.730  31.796  30.460  1.00  0.00     0.014 A 
ATOM      9  C   UNL A   1      36.359  29.805  30.379  1.00  0.00     0.014 A 
ATOM     10  C   UNL A   1      38.863  31.018  30.287  1.00  0.00     0.010 A 
ATOM     11  C   UNL A   1      37.493  29.016  30.261  1.00  0.00     0.010 A 
ATOM     12  C   UNL A   1      38.736  29.633  30.156  1.00  0.00    -0.014 A 
BRANCH  12  13
ATOM     13  C   UNL A   1      39.967  28.854  30.115  1.00  0.00     0.031 A 
ATOM     14  C   UNL A   1      40.595  28.665  31.456  1.00  0.00     0.074 A 
ATOM     15  C   UNL A   1      40.430  28.261  28.997  1.00  0.00     0.049 A 
ATOM     16  N   UNL A   1      41.778  29.015  31.848  1.00  0.00    -0.248 NA
ATOM     17  C   UNL A   1      39.741  28.134  32.535  1.00  0.00     0.031 C 
ATOM     18  C   UNL A   1      39.772  28.143  27.695  1.00  0.00     0.029 A 
ATOM     19  N   UNL A   1      41.578  27.549  28.821  1.00  0.00    -0.354 N 
ATOM     20  C   UNL A   1      41.878  28.598  33.174  1.00  0.00     0.074 A 
ATOM     21  C   UNL A   1      40.560  28.192  33.584  1.00  0.00     0.031 C 
ATOM     22  C   UNL A   1      40.420  27.219  26.948  1.00  0.00     0.029 A 
ATOM     23  C   UNL A   1      41.605  26.780  27.664  1.00  0.00     0.049 A 
ATOM     24  H   UNL A   1      42.325  27.576  29.461  1.00  0.00     0.167 HD
ATOM     25  C   UNL A   1      43.080  28.409  33.780  1.00  0.00     0.037 A 
ATOM     26  C   UNL A   1      42.503  25.804  27.370  1.00  0.00     0.037 A 
ATOM     27  C   UNL A   1      44.132  29.123  33.115  1.00  0.00     0.049 A 
ATOM     28  C   UNL A   1      43.687  26.016  28.240  1.00  0.00     0.074 A 
ATOM     29  C   UNL A   1      44.402  30.458  32.889  1.00  0.00     0.029 A 
ATOM     30  N   UNL A   1      44.931  28.432  32.240  1.00  0.00    -0.354 N 
ATOM     31  N   UNL A   1      44.497  27.032  28.134  1.00  0.00    -0.248 NA
ATOM     32  C   UNL A   1      43.711  25.323  29.518  1.00  0.00     0.031 C 
ATOM     33  C   UNL A   1      44.959  30.506  31.578  1.00  0.00     0.029 A 
ATOM     34  C   UNL A   1      45.052  29.196  31.109  1.00  0.00     0.049 A 
ATOM     35  H   UNL A   1      45.340  27.550  32.396  1.00  0.00     0.167 HD
ATOM     36  C   UNL A   1      44.810  27.366  29.443  1.00  0.00     0.074 A 
ATOM     37  C   UNL A   1      44.358  26.234  30.248  1.00  0.00     0.031 C 
ATOM     38  C   UNL A   1      45.147  28.645  29.778  1.00  0.00     0.037 A 
BRANCH  25  39
ATOM     39  C   UNL A   1      43.338  27.301  34.766  1.00  0.00     0.064 A 
ATOM     40  C   UNL A   1      43.551  27.599  36.124  1.00  0.00     0.173 A 
ATOM     41  C   UNL A   1      43.663  25.985  34.369  1.00  0.00     0.173 A 
ATOM     42  F   UNL A   1      43.325  28.835  36.595  1.00  0.00    -0.203 F 
ATOM     43  C   UNL A   1      44.080  26.655  37.009  1.00  0.00     0.198 A 
ATOM     44  C   UNL A   1      44.137  25.030  35.265  1.00  0.00     0.198 A 
ATOM     45  F   UNL A   1      43.641  25.608  33.084  1.00  0.00    -0.203 F 
ATOM     46  F   UNL A   1      44.369  27.011  38.268  1.00  0.00    -0.200 F 
ATOM     47  C   UNL A   1      44.370  25.371  36.580  1.00  0.00     0.200 A 
ATOM     48  F   UNL A   1      44.440  23.802  34.820  1.00  0.00    -0.200 F 
ATOM     49  F   UNL A   1      44.920  24.480  37.414  1.00  0.00    -0.200 F 
ENDBRANCH  25  39
BRANCH  26  50
ATOM     50  C   UNL A   1      42.261  24.503  26.693  1.00  0.00     0.064 A 
ATOM     51  C   UNL A   1      43.124  24.048  25.680  1.00  0.00     0.173 A 
ATOM     52  C   UNL A   1      41.377  23.549  27.232  1.00  0.00     0.173 A 
ATOM     53  F   UNL A   1      44.030  24.878  25.142  1.00  0.00    -0.203 F 
ATOM     54  C   UNL A   1      43.128  22.713  25.261  1.00  0.00     0.198 A 
ATOM     55  C   UNL A   1      41.376  22.219  26.808  1.00  0.00     0.198 A 
ATOM     56  F   UNL A   1      40.566  23.861  28.253  1.00  0.00    -0.203 F 
ATOM     57  F   UNL A   1      44.015  22.301  24.344  1.00  0.00    -0.200 F 
ATOM     58  C   UNL A   1      42.262  21.797  25.835  1.00  0.00     0.200 A 
ATOM     59  F   UNL A   1      40.561  21.334  27.400  1.00  0.00    -0.200 F 
ATOM     60  F   UNL A   1      42.313  20.504  25.486  1.00  0.00    -0.200 F 
ENDBRANCH  26  50
BRANCH  38  61
ATOM     61  C   UNL A   1      45.407  29.617  28.660  1.00  0.00     0.064 A 
ATOM     62  C   UNL A   1      44.409  30.392  28.044  1.00  0.00     0.173 A 
ATOM     63  C   UNL A   1      46.738  29.884  28.312  1.00  0.00     0.173 A 
ATOM     64  F   UNL A   1      43.122  30.265  28.392  1.00  0.00    -0.203 F 
ATOM     65  C   UNL A   1      44.730  31.369  27.102  1.00  0.00     0.198 A 
ATOM     66  C   UNL A   1      47.057  30.885  27.399  1.00  0.00     0.198 A 
ATOM     67  F   UNL A   1      47.734  29.213  28.907  1.00  0.00    -0.203 F 
ATOM     68  F   UNL A   1      43.759  32.096  26.528  1.00  0.00    -0.200 F 
ATOM     69  C   UNL A   1      46.054  31.620  26.787  1.00  0.00     0.200 A 
ATOM     70  F   UNL A   1      48.343  31.160  27.137  1.00  0.00    -0.200 F 
ATOM     71  F   UNL A   1      46.368  32.595  25.922  1.00  0.00    -0.200 F 
ENDBRANCH  38  61
ENDBRANCH  12  13
ENDBRANCH   5   7
ENDBRANCH   2   3
ENDBRANCH   1   2
BRANCH   1  72
ATOM     72  C   UNL A   1      34.653  29.274  26.949  1.00  0.00     0.002 C 
BRANCH  72  73
ATOM     73  C   UNL A   1      33.847  28.156  26.278  1.00  0.00     0.002 C 
BRANCH  73  74
ATOM     74  C   UNL A   1      32.559  27.751  27.001  1.00  0.00     0.021 C 
BRANCH  74  75
ATOM     75  C   UNL A   1      31.571  26.960  26.150  1.00  0.00     0.116 C 
BRANCH  75  76
ATOM     76  N   UNL A   1      31.124  25.750  26.820  1.00  0.00    -0.350 N 
ATOM     77  C   UNL A   1      31.587  24.461  26.666  1.00  0.00     0.280 C 
ATOM     78  H   UNL A   1      30.394  25.868  27.470  1.00  0.00     0.163 HD
ATOM     79  O   UNL A   1      30.937  23.562  27.225  1.00  0.00    -0.267 OA
BRANCH  77  80
ATOM     80  C   UNL A   1      32.774  24.220  25.864  1.00  0.00     0.182 A 
ATOM     81  N   UNL A   1      33.999  24.303  26.336  1.00  0.00    -0.228 NA
ATOM     82  S   UNL A   1      32.639  23.825  24.199  1.00  0.00    -0.109 S 
ATOM     83  C   UNL A   1      34.904  23.890  25.366  1.00  0.00     0.118 A 
ATOM     84  C   UNL A   1      34.331  23.521  24.145  1.00  0.00     0.058 A 
ATOM     85  C   UNL A   1      36.305  23.779  25.495  1.00  0.00     0.150 A 
ATOM     86  C   UNL A   1      35.094  22.996  23.088  1.00  0.00     0.021 A 
ATOM     87  F   UNL A   1      36.916  24.142  26.632  1.00  0.00    -0.205 F 
ATOM     88  C   UNL A   1      37.078  23.270  24.451  1.00  0.00     0.041 A 
ATOM     89  C   UNL A   1      36.476  22.867  23.265  1.00  0.00     0.005 A 
ENDBRANCH  77  80
ENDBRANCH  75  76
ENDBRANCH  74  75
ENDBRANCH  73  74
ENDBRANCH  72  73
ENDBRANCH   1  72
TORSDOF 13
ENDMDL
MODEL 2
REMARK VINA RESULT:     -12.0      3.345      8.845
REMARK SMILES O=C(NCCCCCCNC(=O)c1nc2c(F)cccc2s1)c1ccc(-c2c3nc(c(-c4c(F)c(F)c(F)c(F)c4F)c4ccc([nH]4)c(-c4c(F)c(F)c(F)c(F)c4F)c4nc(c(-c5c(F)c(F)c(F)c(F)c5F)c5ccc2[nH]5)C=C4)C=C3)cc1
REMARK SMILES IDX 5 1 4 2 3 3 1 4 2 5 23 7 24 8 85 9 25 10 84 11 26 12 27 13
REMARK SMILES IDX 28 14 78 15 29 16 83 17 77 18 79 19 30 20 82 21 76 22 75 23
REMARK SMILES IDX 31 25 63 26 43 27 62 28 44 29 47 30 61 31 80 32 45 33 46 34
REMARK SMILES IDX 60 36 81 37 48 38 32 39 33 40 41 41 34 42 35 43 39 44 42 45
REMARK SMILES IDX 36 46 37 47 40 48 38 49 64 50 65 51 73 52 66 53 67 54 71 55
REMARK SMILES IDX 74 56 68 57 69 58 72 59 70 60 49 61 50 62 58 63 51 64 52 65
REMARK SMILES IDX 56 66 59 67 53 68 54 69 57 70 55 71 6 72 7 73 8 74 9 75
REMARK SMILES IDX 10 76 11 77 12 79 13 80 14 81 22 82 15 83 21 84 16 85 20 86
REMARK SMILES IDX 17 87 18 88 19 89
REMARK H PARENT 3 6 79 24 47 35 10 78
REMARK Flexibility Score: inf
ROOT
ATOM      1  C   UNL A   1      38.423  21.761  25.568  1.00  0.00     0.021 C 
ENDROOT
BRANCH   1   2
ATOM      2  C   UNL A   1      39.641  21.609  26.480  1.00  0.00     0.116 C 
BRANCH   2   3
ATOM      3  N   UNL A   1      40.921  21.801  25.825  1.00  0.00    -0.352 N 
ATOM      4  O   UNL A   1      42.922  22.636  25.278  1.00  0.00    -0.269 OA
ATOM      5  C   UNL A   1      41.872  22.784  25.902  1.00  0.00     0.251 C 
ATOM      6  H   UNL A   1      41.154  21.078  25.199  1.00  0.00     0.163 HD
BRANCH   5   7
ATOM      7  C   UNL A   1      41.630  24.063  26.603  1.00  0.00     0.039 A 
ATOM      8  C   UNL A   1      40.882  25.113  26.073  1.00  0.00     0.014 A 
ATOM      9  C   UNL A   1      42.230  24.207  27.864  1.00  0.00     0.014 A 
ATOM     10  C   UNL A   1      40.892  26.350  26.695  1.00  0.00     0.010 A 
ATOM     11  C   UNL A   1      42.198  25.428  28.520  1.00  0.00     0.010 A 
ATOM     12  C   UNL A   1      41.578  26.510  27.902  1.00  0.00    -0.014 A 
BRANCH  12  13
ATOM     13  C   UNL A   1      41.440  27.793  28.580  1.00  0.00     0.031 A 
ATOM     14  C   UNL A   1      42.556  28.742  28.288  1.00  0.00     0.074 A 
ATOM     15  C   UNL A   1      40.356  28.135  29.303  1.00  0.00     0.049 A 
ATOM     16  N   UNL A   1      43.376  29.300  29.120  1.00  0.00    -0.248 NA
ATOM     17  C   UNL A   1      42.877  28.994  26.871  1.00  0.00     0.031 C 
ATOM     18  C   UNL A   1      39.092  27.409  29.438  1.00  0.00     0.029 A 
ATOM     19  N   UNL A   1      40.127  29.274  30.013  1.00  0.00    -0.354 N 
ATOM     20  C   UNL A   1      44.211  30.105  28.346  1.00  0.00     0.074 A 
ATOM     21  C   UNL A   1      43.952  29.774  26.970  1.00  0.00     0.031 C 
ATOM     22  C   UNL A   1      38.163  28.227  29.986  1.00  0.00     0.029 A 
ATOM     23  C   UNL A   1      38.798  29.480  30.357  1.00  0.00     0.049 A 
ATOM     24  H   UNL A   1      40.845  29.900  30.260  1.00  0.00     0.167 HD
ATOM     25  C   UNL A   1      44.903  31.146  28.881  1.00  0.00     0.037 A 
ATOM     26  C   UNL A   1      38.262  30.631  30.840  1.00  0.00     0.037 A 
ATOM     27  C   UNL A   1      45.061  31.010  30.300  1.00  0.00     0.049 A 
ATOM     28  C   UNL A   1      39.380  31.451  31.370  1.00  0.00     0.074 A 
ATOM     29  C   UNL A   1      45.703  30.101  31.119  1.00  0.00     0.029 A 
ATOM     30  N   UNL A   1      44.203  31.700  31.117  1.00  0.00    -0.354 N 
ATOM     31  N   UNL A   1      40.082  31.133  32.422  1.00  0.00    -0.248 NA
ATOM     32  C   UNL A   1      40.003  32.401  30.462  1.00  0.00     0.031 C 
ATOM     33  C   UNL A   1      44.849  29.958  32.252  1.00  0.00     0.029 A 
ATOM     34  C   UNL A   1      43.774  30.831  32.085  1.00  0.00     0.049 A 
ATOM     35  H   UNL A   1      43.942  32.645  31.024  1.00  0.00     0.167 HD
ATOM     36  C   UNL A   1      41.380  31.499  32.098  1.00  0.00     0.074 A 
ATOM     37  C   UNL A   1      41.258  32.342  30.912  1.00  0.00     0.031 C 
ATOM     38  C   UNL A   1      42.447  30.856  32.653  1.00  0.00     0.037 A 
BRANCH  25  39
ATOM     39  C   UNL A   1      45.127  32.444  28.153  1.00  0.00     0.064 A 
ATOM     40  C   UNL A   1      44.060  33.343  27.966  1.00  0.00     0.173 A 
ATOM     41  C   UNL A   1      46.286  32.702  27.389  1.00  0.00     0.173 A 
ATOM     42  F   UNL A   1      42.894  33.160  28.604  1.00  0.00    -0.203 F 
ATOM     43  C   UNL A   1      44.143  34.402  27.056  1.00  0.00     0.198 A 
ATOM     44  C   UNL A   1      46.385  33.789  26.524  1.00  0.00     0.198 A 
ATOM     45  F   UNL A   1      47.320  31.851  27.363  1.00  0.00    -0.203 F 
ATOM     46  F   UNL A   1      43.069  35.169  26.829  1.00  0.00    -0.200 F 
ATOM     47  C   UNL A   1      45.306  34.625  26.339  1.00  0.00     0.200 A 
ATOM     48  F   UNL A   1      47.510  33.969  25.817  1.00  0.00    -0.200 F 
ATOM     49  F   UNL A   1      45.370  35.609  25.433  1.00  0.00    -0.200 F 
ENDBRANCH  25  39
BRANCH  26  50
ATOM     50  C   UNL A   1      36.939  31.233  30.529  1.00  0.00     0.064 A 
ATOM     51  C   UNL A   1      36.043  31.573  31.560  1.00  0.00     0.173 A 
ATOM     52  C   UNL A   1      36.657  31.770  29.258  1.00  0.00     0.173 A 
ATOM     53  F   UNL A   1      36.260  31.143  32.811  1.00  0.00    -0.203 F 
ATOM     54  C   UNL A   1      34.957  32.428  31.339  1.00  0.00     0.198 A 
ATOM     55  C   UNL A   1      35.569  32.616  29.038  1.00  0.00     0.198 A 
ATOM     56  F   UNL A   1      37.489  31.568  28.226  1.00  0.00    -0.203 F 
ATOM     57  F   UNL A   1      34.169  32.786  32.362  1.00  0.00    -0.200 F 
ATOM     58  C   UNL A   1      34.729  32.959  30.080  1.00  0.00     0.200 A 
ATOM     59  F   UNL A   1      35.382  33.154  27.824  1.00  0.00    -0.200 F 
ATOM     60  F   UNL A   1      33.733  33.833  29.882  1.00  0.00    -0.200 F 
ENDBRANCH  26  50
BRANCH  38  61
ATOM     61  C   UNL A   1      42.183  29.917  33.798  1.00  0.00     0.064 A 
ATOM     62  C   UNL A   1      41.794  28.576  33.640  1.00  0.00     0.173 A 
ATOM     63  C   UNL A   1      42.488  30.352  35.095  1.00  0.00     0.173 A 
ATOM     64  F   UNL A   1      41.578  28.057  32.425  1.00  0.00    -0.203 F 
ATOM     65  C   UNL A   1      41.689  27.720  34.737  1.00  0.00     0.198 A 
ATOM     66  C   UNL A   1      42.417  29.486  36.181  1.00  0.00     0.198 A 
ATOM     67  F   UNL A   1      42.915  31.607  35.298  1.00  0.00    -0.203 F 
ATOM     68  F   UNL A   1      41.316  26.443  34.561  1.00  0.00    -0.200 F 
ATOM     69  C   UNL A   1      42.010  28.173  36.005  1.00  0.00     0.200 A 
ATOM     70  F   UNL A   1      42.780  29.916  37.399  1.00  0.00    -0.200 F 
ATOM     71  F   UNL A   1      41.960  27.338  37.052  1.00  0.00    -0.200 F 
ENDBRANCH  38  61
ENDBRANCH  12  13
ENDBRANCH   5   7
ENDBRANCH   2   3
ENDBRANCH   1   2
BRANCH   1  72
ATOM     72  C   UNL A   1      37.746  23.132  25.645  1.00  0.00     0.002 C 
BRANCH  72  73
ATOM     73  C   UNL A   1      36.430  23.257  24.868  1.00  0.00     0.002 C 
BRANCH  73  74
ATOM     74  C   UNL A   1      35.439  24.289  25.418  1.00  0.00     0.021 C 
BRANCH  74  75
ATOM     75  C   UNL A   1      34.077  24.292  24.733  1.00  0.00     0.116 C 
BRANCH  75  76
ATOM     76  N   UNL A   1      34.149  24.827  23.384  1.00  0.00    -0.350 N 
ATOM     77  C   UNL A   1      33.746  26.063  22.926  1.00  0.00     0.280 C 
ATOM     78  H   UNL A   1      34.539  24.227  22.707  1.00  0.00     0.163 HD
ATOM     79  O   UNL A   1      33.755  26.236  21.696  1.00  0.00    -0.267 OA
BRANCH  77  80
ATOM     80  C   UNL A   1      33.324  27.075  23.880  1.00  0.00     0.182 A 
ATOM     81  N   UNL A   1      34.075  27.489  24.878  1.00  0.00    -0.228 NA
ATOM     82  S   UNL A   1      31.768  27.788  23.768  1.00  0.00    -0.109 S 
ATOM     83  C   UNL A   1      33.450  28.547  25.526  1.00  0.00     0.118 A 
ATOM     84  C   UNL A   1      32.199  28.899  25.009  1.00  0.00     0.058 A 
ATOM     85  C   UNL A   1      33.950  29.303  26.608  1.00  0.00     0.150 A 
ATOM     86  C   UNL A   1      31.472  30.001  25.490  1.00  0.00     0.021 A 
ATOM     87  F   UNL A   1      35.131  28.999  27.164  1.00  0.00    -0.205 F 
ATOM     88  C   UNL A   1      33.236  30.394  27.104  1.00  0.00     0.041 A 
ATOM     89  C   UNL A   1      32.016  30.750  26.539  1.00  0.00     0.005 A 
ENDBRANCH  77  80
ENDBRANCH  75  76
ENDBRANCH  74  75
ENDBRANCH  73  74
ENDBRANCH  72  73
ENDBRANCH   1  72
TORSDOF 13
ENDMDL
MODEL 3
REMARK VINA RESULT:     -12.0      3.450      8.715
REMARK SMILES O=C(NCCCCCCNC(=O)c1nc2c(F)cccc2s1)c1ccc(-c2c3nc(c(-c4c(F)c(F)c(F)c(F)c4F)c4ccc([nH]4)c(-c4c(F)c(F)c(F)c(F)c4F)c4nc(c(-c5c(F)c(F)c(F)c(F)c5F)c5ccc2[nH]5)C=C4)C=C3)cc1
REMARK SMILES IDX 5 1 4 2 3 3 1 4 2 5 23 7 24 8 85 9 25 10 84 11 26 12 27 13
REMARK SMILES IDX 28 14 78 15 29 16 83 17 77 18 79 19 30 20 82 21 76 22 75 23
REMARK SMILES IDX 31 25 63 26 43 27 62 28 44 29 47 30 61 31 80 32 45 33 46 34
REMARK SMILES IDX 60 36 81 37 48 38 32 39 33 40 41 41 34 42 35 43 39 44 42 45
REMARK SMILES IDX 36 46 37 47 40 48 38 49 64 50 65 51 73 52 66 53 67 54 71 55
REMARK SMILES IDX 74 56 68 57 69 58 72 59 70 60 49 61 50 62 58 63 51 64 52 65
REMARK SMILES IDX 56 66 59 67 53 68 54 69 57 70 55 71 6 72 7 73 8 74 9 75
REMARK SMILES IDX 10 76 11 77 12 79 13 80 14 81 22 82 15 83 21 84 16 85 20 86
REMARK SMILES IDX 17 87 18 88 19 89
REMARK H PARENT 3 6 79 24 47 35 10 78
REMARK Flexibility Score: inf
ROOT
ATOM      1  C   UNL A   1      38.677  22.663  25.906  1.00  0.00     0.021 C 
ENDROOT
BRANCH   1   2
ATOM      2  C   UNL A   1      39.783  21.839  26.565  1.00  0.00     0.116 C 
BRANCH   2   3
ATOM      3  N   UNL A   1      41.048  21.837  25.854  1.00  0.00    -0.352 N 
ATOM      4  O   UNL A   1      43.123  22.366  25.211  1.00  0.00    -0.269 OA
ATOM      5  C   UNL A   1      42.134  22.671  25.877  1.00  0.00     0.251 C 
ATOM      6  H   UNL A   1      41.145  21.084  25.228  1.00  0.00     0.163 HD
BRANCH   5   7
ATOM      7  C   UNL A   1      42.112  23.977  26.569  1.00  0.00     0.039 A 
ATOM      8  C   UNL A   1      42.615  24.188  27.852  1.00  0.00     0.014 A 
ATOM      9  C   UNL A   1      41.514  25.042  25.876  1.00  0.00     0.014 A 
ATOM     10  C   UNL A   1      42.354  25.379  28.508  1.00  0.00     0.010 A 
ATOM     11  C   UNL A   1      41.299  26.257  26.507  1.00  0.00     0.010 A 
ATOM     12  C   UNL A   1      41.668  26.399  27.842  1.00  0.00    -0.014 A 
BRANCH  12  13
ATOM     13  C   UNL A   1      41.543  27.677  28.531  1.00  0.00     0.031 A 
ATOM     14  C   UNL A   1      42.665  28.619  28.241  1.00  0.00     0.074 A 
ATOM     15  C   UNL A   1      40.465  28.021  29.261  1.00  0.00     0.049 A 
ATOM     16  N   UNL A   1      43.493  29.165  29.073  1.00  0.00    -0.248 NA
ATOM     17  C   UNL A   1      42.981  28.880  26.824  1.00  0.00     0.031 C 
ATOM     18  C   UNL A   1      39.196  27.304  29.397  1.00  0.00     0.029 A 
ATOM     19  N   UNL A   1      40.249  29.156  29.981  1.00  0.00    -0.354 N 
ATOM     20  C   UNL A   1      44.330  29.970  28.301  1.00  0.00     0.074 A 
ATOM     21  C   UNL A   1      44.062  29.651  26.924  1.00  0.00     0.031 C 
ATOM     22  C   UNL A   1      38.277  28.125  29.956  1.00  0.00     0.029 A 
ATOM     23  C   UNL A   1      38.922  29.369  30.334  1.00  0.00     0.049 A 
ATOM     24  H   UNL A   1      40.973  29.775  30.230  1.00  0.00     0.167 HD
ATOM     25  C   UNL A   1      45.033  31.001  28.841  1.00  0.00     0.037 A 
ATOM     26  C   UNL A   1      38.398  30.521  30.828  1.00  0.00     0.037 A 
ATOM     27  C   UNL A   1      45.197  30.853  30.258  1.00  0.00     0.049 A 
ATOM     28  C   UNL A   1      39.525  31.328  31.359  1.00  0.00     0.074 A 
ATOM     29  C   UNL A   1      45.836  29.932  31.066  1.00  0.00     0.029 A 
ATOM     30  N   UNL A   1      44.348  31.543  31.084  1.00  0.00    -0.354 N 
ATOM     31  N   UNL A   1      40.230  30.997  32.405  1.00  0.00    -0.248 NA
ATOM     32  C   UNL A   1      40.150  32.281  30.455  1.00  0.00     0.031 C 
ATOM     33  C   UNL A   1      44.987  29.787  32.202  1.00  0.00     0.029 A 
ATOM     34  C   UNL A   1      43.918  30.669  32.048  1.00  0.00     0.049 A 
ATOM     35  H   UNL A   1      44.094  32.491  31.000  1.00  0.00     0.167 HD
ATOM     36  C   UNL A   1      41.529  31.355  32.078  1.00  0.00     0.074 A 
ATOM     37  C   UNL A   1      41.407  32.208  30.899  1.00  0.00     0.031 C 
ATOM     38  C   UNL A   1      42.594  30.700  32.622  1.00  0.00     0.037 A 
BRANCH  25  39
ATOM     39  C   UNL A   1      45.263  32.303  28.122  1.00  0.00     0.064 A 
ATOM     40  C   UNL A   1      44.192  33.188  27.902  1.00  0.00     0.173 A 
ATOM     41  C   UNL A   1      46.443  32.577  27.395  1.00  0.00     0.173 A 
ATOM     42  F   UNL A   1      43.009  32.990  28.503  1.00  0.00    -0.203 F 
ATOM     43  C   UNL A   1      44.289  34.250  26.997  1.00  0.00     0.198 A 
ATOM     44  C   UNL A   1      46.555  33.667  26.536  1.00  0.00     0.198 A 
ATOM     45  F   UNL A   1      47.488  31.739  27.401  1.00  0.00    -0.203 F 
ATOM     46  F   UNL A   1      43.214  35.004  26.737  1.00  0.00    -0.200 F 
ATOM     47  C   UNL A   1      45.471  34.490  26.317  1.00  0.00     0.200 A 
ATOM     48  F   UNL A   1      47.699  33.862  25.864  1.00  0.00    -0.200 F 
ATOM     49  F   UNL A   1      45.552  35.476  25.415  1.00  0.00    -0.200 F 
ENDBRANCH  25  39
BRANCH  26  50
ATOM     50  C   UNL A   1      37.078  31.135  30.529  1.00  0.00     0.064 A 
ATOM     51  C   UNL A   1      36.183  31.458  31.566  1.00  0.00     0.173 A 
ATOM     52  C   UNL A   1      36.800  31.700  29.269  1.00  0.00     0.173 A 
ATOM     53  F   UNL A   1      36.397  31.001  32.808  1.00  0.00    -0.203 F 
ATOM     54  C   UNL A   1      35.101  32.322  31.361  1.00  0.00     0.198 A 
ATOM     55  C   UNL A   1      35.716  32.555  29.065  1.00  0.00     0.198 A 
ATOM     56  F   UNL A   1      37.632  31.515  28.234  1.00  0.00    -0.203 F 
ATOM     57  F   UNL A   1      34.313  32.663  32.391  1.00  0.00    -0.200 F 
ATOM     58  C   UNL A   1      34.877  32.880  30.113  1.00  0.00     0.200 A 
ATOM     59  F   UNL A   1      35.533  33.119  27.862  1.00  0.00    -0.200 F 
ATOM     60  F   UNL A   1      33.884  33.763  29.933  1.00  0.00    -0.200 F 
ENDBRANCH  26  50
BRANCH  38  61
ATOM     61  C   UNL A   1      42.327  29.754  33.761  1.00  0.00     0.064 A 
ATOM     62  C   UNL A   1      41.993  28.399  33.595  1.00  0.00     0.173 A 
ATOM     63  C   UNL A   1      42.576  30.202  35.066  1.00  0.00     0.173 A 
ATOM     64  F   UNL A   1      41.834  27.870  32.376  1.00  0.00    -0.203 F 
ATOM     65  C   UNL A   1      41.884  27.542  34.691  1.00  0.00     0.198 A 
ATOM     66  C   UNL A   1      42.503  29.336  36.152  1.00  0.00     0.198 A 
ATOM     67  F   UNL A   1      42.951  31.473  35.278  1.00  0.00    -0.203 F 
ATOM     68  F   UNL A   1      41.564  26.252  34.506  1.00  0.00    -0.200 F 
ATOM     69  C   UNL A   1      42.149  28.009  35.966  1.00  0.00     0.200 A 
ATOM     70  F   UNL A   1      42.811  29.781  37.379  1.00  0.00    -0.200 F 
ATOM     71  F   UNL A   1      42.097  27.174  37.014  1.00  0.00    -0.200 F 
ENDBRANCH  38  61
ENDBRANCH  12  13
ENDBRANCH   5   7
ENDBRANCH   2   3
ENDBRANCH   1   2
BRANCH   1  72
ATOM     72  C   UNL A   1      37.668  21.837  25.104  1.00  0.00     0.002 C 
BRANCH  72  73
ATOM     73  C   UNL A   1      36.642  22.649  24.306  1.00  0.00     0.002 C 
BRANCH  73  74
ATOM     74  C   UNL A   1      36.081  23.883  25.023  1.00  0.00     0.021 C 
BRANCH  74  75
ATOM     75  C   UNL A   1      34.560  23.925  25.123  1.00  0.00     0.116 C 
BRANCH  75  76
ATOM     76  N   UNL A   1      34.089  23.467  26.419  1.00  0.00    -0.350 N 
ATOM     77  C   UNL A   1      33.519  22.255  26.748  1.00  0.00     0.280 C 
ATOM     78  H   UNL A   1      34.190  24.107  27.161  1.00  0.00     0.163 HD
ATOM     79  O   UNL A   1      33.042  22.152  27.889  1.00  0.00    -0.267 OA
BRANCH  77  80
ATOM     80  C   UNL A   1      33.492  21.189  25.761  1.00  0.00     0.182 A 
ATOM     81  N   UNL A   1      34.431  20.273  25.656  1.00  0.00    -0.228 NA
ATOM     82  S   UNL A   1      32.208  21.077  24.629  1.00  0.00    -0.109 S 
ATOM     83  C   UNL A   1      34.055  19.323  24.714  1.00  0.00     0.118 A 
ATOM     84  C   UNL A   1      32.825  19.563  24.094  1.00  0.00     0.058 A 
ATOM     85  C   UNL A   1      34.757  18.155  24.350  1.00  0.00     0.150 A 
ATOM     86  C   UNL A   1      32.256  18.657  23.182  1.00  0.00     0.021 A 
ATOM     87  F   UNL A   1      35.954  17.882  24.890  1.00  0.00    -0.205 F 
ATOM     88  C   UNL A   1      34.211  17.250  23.439  1.00  0.00     0.041 A 
ATOM     89  C   UNL A   1      32.964  17.492  22.873  1.00  0.00     0.005 A 
ENDBRANCH  77  80
ENDBRANCH  75  76
ENDBRANCH  74  75
ENDBRANCH  73  74
ENDBRANCH  72  73
ENDBRANCH   1  72
TORSDOF 13
ENDMDL
