MODEL 1
REMARK VINA RESULT:     -12.4      0.000      0.000
REMARK SMILES CC(C)c1cc(C2CC[NH+](Cc3c[nH]nc3C(=O)NCCCCCCNC(=O)c3ccc(-c4c5nc(c(-c6c(F)c(F)c(F)c(F)c6F)c6ccc([nH]6)c(-c6c(F)c(F)c(F)c(F)c6F)c6nc(c(-c7c(F)c(F)c(F)c(F)c7F)c7ccc4[nH]7)C=C6)C=C5)cc3)CC2)n[nH]1
REMARK SMILES IDX 21 1 20 2 19 3 17 4 18 5 16 7 12 8 13 9 14 10 15 11 11 13
REMARK SMILES IDX 10 14 7 15 8 16 93 17 9 18 92 19 6 21 4 22 5 23 95 24 94 25
REMARK SMILES IDX 2 27 1 28 3 29 22 30 23 31 24 32 25 33 26 34 27 35 28 37
REMARK SMILES IDX 29 38 30 39 91 40 31 41 90 42 32 43 33 44 34 45 84 46 35 47
REMARK SMILES IDX 89 48 83 49 85 50 36 51 88 52 82 53 81 54 37 56 69 57 49 58
REMARK SMILES IDX 68 59 50 60 53 61 67 62 86 63 51 64 52 65 66 67 87 68 54 69
REMARK SMILES IDX 38 70 39 71 47 72 40 73 41 74 45 75 48 76 42 77 43 78 46 79
REMARK SMILES IDX 44 80 70 81 71 82 79 83 72 84 73 85 77 86 80 87 74 88 75 89
REMARK SMILES IDX 78 90 76 91 55 92 56 93 64 94 57 95 58 96 62 97 65 98 59 99
REMARK SMILES IDX 60 100 63 101 61 102
REMARK H PARENT 19 6 14 12 10 20 95 26 26 36 85 55 53 66
REMARK Flexibility Score: inf
ROOT
ATOM      1  C   UNL A   1      33.371  29.470  26.871  1.00  0.00     0.021 C 
ENDROOT
BRANCH   1   2
ATOM      2  C   UNL A   1      33.808  28.290  26.016  1.00  0.00     0.116 C 
BRANCH   2   3
ATOM      3  N   UNL A   1      34.042  28.601  24.647  1.00  0.00    -0.351 N 
ATOM      4  C   UNL A   1      33.225  28.514  23.546  1.00  0.00     0.272 C 
ATOM      5  O   UNL A   1      33.804  28.860  22.505  1.00  0.00    -0.267 OA
ATOM      6  H   UNL A   1      34.947  28.940  24.456  1.00  0.00     0.163 HD
BRANCH   4   7
ATOM      7  C   UNL A   1      31.785  28.071  23.517  1.00  0.00     0.158 A 
ATOM      8  C   UNL A   1      30.881  27.205  24.282  1.00  0.00     0.057 A 
ATOM      9  C   UNL A   1      29.639  27.419  23.695  1.00  0.00     0.115 A 
ATOM     10  N   UNL A   1      29.824  28.239  22.641  1.00  0.00    -0.284 N 
ATOM     11  N   UNL A   1      31.079  28.628  22.499  1.00  0.00    -0.170 NA
ATOM     12  H   UNL A   1      29.098  28.520  22.039  1.00  0.00     0.189 HD
BRANCH   8  13
ATOM     13  C   UNL A   1      31.015  26.300  25.484  1.00  0.00     0.303 C 
BRANCH  13  14
ATOM     14  N   UNL A   1      30.822  24.847  25.215  1.00  0.00    -0.331 N 
ATOM     15  C   UNL A   1      31.770  22.021  25.128  1.00  0.00     0.051 C 
ATOM     16  C   UNL A   1      31.593  22.861  23.862  1.00  0.00     0.071 C 
ATOM     17  C   UNL A   1      30.710  22.467  26.128  1.00  0.00     0.071 C 
ATOM     18  C   UNL A   1      31.687  24.364  24.134  1.00  0.00     0.263 C 
ATOM     19  C   UNL A   1      30.720  23.977  26.389  1.00  0.00     0.263 C 
ATOM     20  H   UNL A   1      29.870  24.773  24.857  1.00  0.00     0.348 HD
BRANCH  15  21
ATOM     21  C   UNL A   1      33.170  22.052  25.688  1.00  0.00     0.066 A 
ATOM     22  C   UNL A   1      35.381  22.190  25.943  1.00  0.00     0.038 A 
ATOM     23  C   UNL A   1      34.386  22.249  25.004  1.00  0.00     0.049 A 
ATOM     24  N   UNL A   1      34.732  21.981  27.128  1.00  0.00    -0.282 N 
ATOM     25  N   UNL A   1      33.392  21.885  26.999  1.00  0.00    -0.180 NA
ATOM     26  H   UNL A   1      35.197  21.906  27.992  1.00  0.00     0.190 HD
BRANCH  22  27
ATOM     27  C   UNL A   1      36.857  22.308  25.748  1.00  0.00     0.031 C 
ATOM     28  C   UNL A   1      37.428  21.217  24.851  1.00  0.00     0.014 C 
ATOM     29  C   UNL A   1      37.224  23.705  25.250  1.00  0.00     0.014 C 
ENDBRANCH  22  27
ENDBRANCH  15  21
ENDBRANCH  13  14
ENDBRANCH   8  13
ENDBRANCH   4   7
ENDBRANCH   2   3
ENDBRANCH   1   2
BRANCH   1  30
ATOM     30  C   UNL A   1      31.874  29.756  26.879  1.00  0.00     0.002 C 
BRANCH  30  31
ATOM     31  C   UNL A   1      31.403  30.857  25.923  1.00  0.00     0.002 C 
BRANCH  31  32
ATOM     32  C   UNL A   1      31.267  32.268  26.509  1.00  0.00     0.021 C 
BRANCH  32  33
ATOM     33  C   UNL A   1      32.513  32.842  27.180  1.00  0.00     0.116 C 
BRANCH  33  34
ATOM     34  N   UNL A   1      32.327  34.210  27.628  1.00  0.00    -0.352 N 
ATOM     35  C   UNL A   1      32.960  34.920  28.614  1.00  0.00     0.251 C 
ATOM     36  H   UNL A   1      31.631  34.711  27.143  1.00  0.00     0.163 HD
ATOM     37  O   UNL A   1      32.529  36.020  28.945  1.00  0.00    -0.269 OA
BRANCH  35  38
ATOM     38  C   UNL A   1      34.146  34.367  29.303  1.00  0.00     0.039 A 
ATOM     39  C   UNL A   1      33.953  33.655  30.491  1.00  0.00     0.014 A 
ATOM     40  C   UNL A   1      35.440  34.576  28.818  1.00  0.00     0.014 A 
ATOM     41  C   UNL A   1      35.049  33.106  31.161  1.00  0.00     0.010 A 
ATOM     42  C   UNL A   1      36.527  33.973  29.451  1.00  0.00     0.010 A 
ATOM     43  C   UNL A   1      36.342  33.231  30.627  1.00  0.00    -0.014 A 
BRANCH  43  44
ATOM     44  C   UNL A   1      37.502  32.571  31.281  1.00  0.00     0.031 A 
ATOM     45  C   UNL A   1      38.192  31.409  30.621  1.00  0.00     0.074 A 
ATOM     46  C   UNL A   1      37.893  32.983  32.503  1.00  0.00     0.049 A 
ATOM     47  N   UNL A   1      39.176  30.669  31.069  1.00  0.00    -0.248 NA
ATOM     48  C   UNL A   1      37.697  31.009  29.295  1.00  0.00     0.031 C 
ATOM     49  C   UNL A   1      37.270  34.065  33.268  1.00  0.00     0.029 A 
ATOM     50  N   UNL A   1      38.896  32.530  33.326  1.00  0.00    -0.354 N 
ATOM     51  C   UNL A   1      39.404  29.710  30.092  1.00  0.00     0.074 A 
ATOM     52  C   UNL A   1      38.432  29.934  29.044  1.00  0.00     0.031 C 
ATOM     53  C   UNL A   1      37.909  34.200  34.442  1.00  0.00     0.029 A 
ATOM     54  C   UNL A   1      38.960  33.190  34.529  1.00  0.00     0.049 A 
ATOM     55  H   UNL A   1      39.510  31.803  33.076  1.00  0.00     0.167 HD
ATOM     56  C   UNL A   1      40.350  28.740  30.066  1.00  0.00     0.037 A 
ATOM     57  C   UNL A   1      39.765  32.993  35.591  1.00  0.00     0.037 A 
ATOM     58  C   UNL A   1      41.338  28.543  31.095  1.00  0.00     0.049 A 
ATOM     59  C   UNL A   1      40.813  31.914  35.528  1.00  0.00     0.074 A 
ATOM     60  C   UNL A   1      42.391  27.644  31.118  1.00  0.00     0.029 A 
ATOM     61  N   UNL A   1      41.391  29.250  32.287  1.00  0.00    -0.354 N 
ATOM     62  N   UNL A   1      41.074  31.071  34.560  1.00  0.00    -0.248 NA
ATOM     63  C   UNL A   1      41.683  31.765  36.703  1.00  0.00     0.031 C 
ATOM     64  C   UNL A   1      43.047  27.768  32.346  1.00  0.00     0.029 A 
ATOM     65  C   UNL A   1      42.440  28.785  33.065  1.00  0.00     0.049 A 
ATOM     66  H   UNL A   1      40.775  29.974  32.543  1.00  0.00     0.167 HD
ATOM     67  C   UNL A   1      42.152  30.312  34.995  1.00  0.00     0.074 A 
ATOM     68  C   UNL A   1      42.509  30.808  36.308  1.00  0.00     0.031 C 
ATOM     69  C   UNL A   1      42.787  29.293  34.367  1.00  0.00     0.037 A 
BRANCH  56  70
ATOM     70  C   UNL A   1      40.374  27.810  28.888  1.00  0.00     0.064 A 
ATOM     71  C   UNL A   1      41.159  28.073  27.756  1.00  0.00     0.173 A 
ATOM     72  C   UNL A   1      39.663  26.601  28.927  1.00  0.00     0.173 A 
ATOM     73  F   UNL A   1      41.854  29.218  27.666  1.00  0.00    -0.203 F 
ATOM     74  C   UNL A   1      41.218  27.168  26.699  1.00  0.00     0.198 A 
ATOM     75  C   UNL A   1      39.746  25.686  27.880  1.00  0.00     0.198 A 
ATOM     76  F   UNL A   1      38.902  26.297  29.988  1.00  0.00    -0.203 F 
ATOM     77  F   UNL A   1      41.949  27.455  25.613  1.00  0.00    -0.200 F 
ATOM     78  C   UNL A   1      40.519  25.972  26.766  1.00  0.00     0.200 A 
ATOM     79  F   UNL A   1      39.083  24.523  27.954  1.00  0.00    -0.200 F 
ATOM     80  F   UNL A   1      40.592  25.094  25.755  1.00  0.00    -0.200 F 
ENDBRANCH  56  70
BRANCH  57  81
ATOM     81  C   UNL A   1      39.612  33.833  36.809  1.00  0.00     0.064 A 
ATOM     82  C   UNL A   1      38.816  33.414  37.884  1.00  0.00     0.173 A 
ATOM     83  C   UNL A   1      40.240  35.084  36.912  1.00  0.00     0.173 A 
ATOM     84  F   UNL A   1      38.179  32.235  37.824  1.00  0.00    -0.203 F 
ATOM     85  C   UNL A   1      38.628  34.225  39.001  1.00  0.00     0.198 A 
ATOM     86  C   UNL A   1      40.077  35.880  38.045  1.00  0.00     0.198 A 
ATOM     87  F   UNL A   1      41.018  35.531  35.916  1.00  0.00    -0.203 F 
ATOM     88  F   UNL A   1      37.814  33.824  39.987  1.00  0.00    -0.200 F 
ATOM     89  C   UNL A   1      39.262  35.455  39.083  1.00  0.00     0.200 A 
ATOM     90  F   UNL A   1      40.705  37.060  38.126  1.00  0.00    -0.200 F 
ATOM     91  F   UNL A   1      39.079  36.236  40.156  1.00  0.00    -0.200 F 
ENDBRANCH  57  81
BRANCH  69  92
ATOM     92  C   UNL A   1      43.954  28.667  35.075  1.00  0.00     0.064 A 
ATOM     93  C   UNL A   1      45.258  29.164  34.925  1.00  0.00     0.173 A 
ATOM     94  C   UNL A   1      43.759  27.582  35.943  1.00  0.00     0.173 A 
ATOM     95  F   UNL A   1      45.499  30.189  34.095  1.00  0.00    -0.203 F 
ATOM     96  C   UNL A   1      46.328  28.578  35.598  1.00  0.00     0.198 A 
ATOM     97  C   UNL A   1      44.827  27.021  36.639  1.00  0.00     0.198 A 
ATOM     98  F   UNL A   1      42.532  27.075  36.127  1.00  0.00    -0.203 F 
ATOM     99  F   UNL A   1      47.571  29.036  35.401  1.00  0.00    -0.200 F 
ATOM    100  C   UNL A   1      46.110  27.514  36.460  1.00  0.00     0.200 A 
ATOM    101  F   UNL A   1      44.612  26.002  37.483  1.00  0.00    -0.200 F 
ATOM    102  F   UNL A   1      47.140  26.957  37.113  1.00  0.00    -0.200 F 
ENDBRANCH  69  92
ENDBRANCH  43  44
ENDBRANCH  35  38
ENDBRANCH  33  34
ENDBRANCH  32  33
ENDBRANCH  31  32
ENDBRANCH  30  31
ENDBRANCH   1  30
TORSDOF 17
ENDMDL
MODEL 2
REMARK VINA RESULT:     -12.3      1.023      2.165
REMARK SMILES CC(C)c1cc(C2CC[NH+](Cc3c[nH]nc3C(=O)NCCCCCCNC(=O)c3ccc(-c4c5nc(c(-c6c(F)c(F)c(F)c(F)c6F)c6ccc([nH]6)c(-c6c(F)c(F)c(F)c(F)c6F)c6nc(c(-c7c(F)c(F)c(F)c(F)c7F)c7ccc4[nH]7)C=C6)C=C5)cc3)CC2)n[nH]1
REMARK SMILES IDX 21 1 20 2 19 3 17 4 18 5 16 7 12 8 13 9 14 10 15 11 11 13
REMARK SMILES IDX 10 14 7 15 8 16 93 17 9 18 92 19 6 21 4 22 5 23 95 24 94 25
REMARK SMILES IDX 2 27 1 28 3 29 22 30 23 31 24 32 25 33 26 34 27 35 28 37
REMARK SMILES IDX 29 38 30 39 91 40 31 41 90 42 32 43 33 44 34 45 84 46 35 47
REMARK SMILES IDX 89 48 83 49 85 50 36 51 88 52 82 53 81 54 37 56 69 57 49 58
REMARK SMILES IDX 68 59 50 60 53 61 67 62 86 63 51 64 52 65 66 67 87 68 54 69
REMARK SMILES IDX 38 70 39 71 47 72 40 73 41 74 45 75 48 76 42 77 43 78 46 79
REMARK SMILES IDX 44 80 70 81 71 82 79 83 72 84 73 85 77 86 80 87 74 88 75 89
REMARK SMILES IDX 78 90 76 91 55 92 56 93 64 94 57 95 58 96 62 97 65 98 59 99
REMARK SMILES IDX 60 100 63 101 61 102
REMARK H PARENT 19 6 14 12 10 20 95 26 26 36 85 55 53 66
REMARK Flexibility Score: inf
ROOT
ATOM      1  C   UNL A   1      33.495  29.152  26.797  1.00  0.00     0.021 C 
ENDROOT
BRANCH   1   2
ATOM      2  C   UNL A   1      33.636  27.927  25.907  1.00  0.00     0.116 C 
BRANCH   2   3
ATOM      3  N   UNL A   1      33.836  28.213  24.527  1.00  0.00    -0.351 N 
ATOM      4  C   UNL A   1      32.995  28.094  23.446  1.00  0.00     0.272 C 
ATOM      5  O   UNL A   1      33.546  28.426  22.386  1.00  0.00    -0.267 OA
ATOM      6  H   UNL A   1      34.731  28.558  24.309  1.00  0.00     0.163 HD
BRANCH   4   7
ATOM      7  C   UNL A   1      31.560  27.633  23.459  1.00  0.00     0.158 A 
ATOM      8  C   UNL A   1      30.798  26.404  23.703  1.00  0.00     0.057 A 
ATOM      9  C   UNL A   1      29.471  26.819  23.653  1.00  0.00     0.115 A 
ATOM     10  N   UNL A   1      29.467  28.125  23.315  1.00  0.00    -0.284 N 
ATOM     11  N   UNL A   1      30.681  28.630  23.178  1.00  0.00    -0.170 NA
ATOM     12  H   UNL A   1      28.644  28.648  23.183  1.00  0.00     0.189 HD
BRANCH   8  13
ATOM     13  C   UNL A   1      31.139  24.970  24.033  1.00  0.00     0.303 C 
BRANCH  13  14
ATOM     14  N   UNL A   1      32.534  24.738  24.503  1.00  0.00    -0.331 N 
ATOM     15  C   UNL A   1      34.728  22.998  25.528  1.00  0.00     0.051 C 
ATOM     16  C   UNL A   1      33.984  23.987  26.427  1.00  0.00     0.071 C 
ATOM     17  C   UNL A   1      34.788  23.601  24.130  1.00  0.00     0.071 C 
ATOM     18  C   UNL A   1      32.583  24.317  25.906  1.00  0.00     0.263 C 
ATOM     19  C   UNL A   1      33.415  24.009  23.586  1.00  0.00     0.263 C 
ATOM     20  H   UNL A   1      32.974  25.657  24.477  1.00  0.00     0.348 HD
BRANCH  15  21
ATOM     21  C   UNL A   1      34.154  21.603  25.552  1.00  0.00     0.066 A 
ATOM     22  C   UNL A   1      33.462  19.554  25.009  1.00  0.00     0.038 A 
ATOM     23  C   UNL A   1      34.058  20.675  24.495  1.00  0.00     0.049 A 
ATOM     24  N   UNL A   1      33.246  19.845  26.327  1.00  0.00    -0.282 N 
ATOM     25  N   UNL A   1      33.649  21.084  26.679  1.00  0.00    -0.180 NA
ATOM     26  H   UNL A   1      32.835  19.212  26.959  1.00  0.00     0.190 HD
BRANCH  22  27
ATOM     27  C   UNL A   1      33.099  18.285  24.309  1.00  0.00     0.031 C 
ATOM     28  C   UNL A   1      32.365  18.520  22.995  1.00  0.00     0.014 C 
ATOM     29  C   UNL A   1      34.332  17.402  24.124  1.00  0.00     0.014 C 
ENDBRANCH  22  27
ENDBRANCH  15  21
ENDBRANCH  13  14
ENDBRANCH   8  13
ENDBRANCH   4   7
ENDBRANCH   2   3
ENDBRANCH   1   2
BRANCH   1  30
ATOM     30  C   UNL A   1      32.068  29.627  27.040  1.00  0.00     0.002 C 
BRANCH  30  31
ATOM     31  C   UNL A   1      31.537  30.671  26.051  1.00  0.00     0.002 C 
BRANCH  31  32
ATOM     32  C   UNL A   1      31.373  32.101  26.579  1.00  0.00     0.021 C 
BRANCH  32  33
ATOM     33  C   UNL A   1      32.638  32.772  27.112  1.00  0.00     0.116 C 
BRANCH  33  34
ATOM     34  N   UNL A   1      32.398  34.123  27.586  1.00  0.00    -0.352 N 
ATOM     35  C   UNL A   1      32.989  34.831  28.598  1.00  0.00     0.251 C 
ATOM     36  H   UNL A   1      31.693  34.610  27.099  1.00  0.00     0.163 HD
ATOM     37  O   UNL A   1      32.515  35.909  28.944  1.00  0.00    -0.269 OA
BRANCH  35  38
ATOM     38  C   UNL A   1      34.181  34.303  29.296  1.00  0.00     0.039 A 
ATOM     39  C   UNL A   1      33.990  33.530  30.445  1.00  0.00     0.014 A 
ATOM     40  C   UNL A   1      35.477  34.596  28.860  1.00  0.00     0.014 A 
ATOM     41  C   UNL A   1      35.092  33.002  31.122  1.00  0.00     0.010 A 
ATOM     42  C   UNL A   1      36.573  34.015  29.496  1.00  0.00     0.010 A 
ATOM     43  C   UNL A   1      36.392  33.212  30.633  1.00  0.00    -0.014 A 
BRANCH  43  44
ATOM     44  C   UNL A   1      37.564  32.578  31.290  1.00  0.00     0.031 A 
ATOM     45  C   UNL A   1      38.275  31.424  30.639  1.00  0.00     0.074 A 
ATOM     46  C   UNL A   1      37.949  33.006  32.509  1.00  0.00     0.049 A 
ATOM     47  N   UNL A   1      39.273  30.705  31.091  1.00  0.00    -0.248 NA
ATOM     48  C   UNL A   1      37.786  31.005  29.316  1.00  0.00     0.031 C 
ATOM     49  C   UNL A   1      37.307  34.082  33.267  1.00  0.00     0.029 A 
ATOM     50  N   UNL A   1      38.960  32.578  33.334  1.00  0.00    -0.354 N 
ATOM     51  C   UNL A   1      39.517  29.743  30.120  1.00  0.00     0.074 A 
ATOM     52  C   UNL A   1      38.540  29.942  29.072  1.00  0.00     0.031 C 
ATOM     53  C   UNL A   1      37.944  34.237  34.439  1.00  0.00     0.029 A 
ATOM     54  C   UNL A   1      39.013  33.247  34.533  1.00  0.00     0.049 A 
ATOM     55  H   UNL A   1      39.587  31.860  33.089  1.00  0.00     0.167 HD
ATOM     56  C   UNL A   1      40.480  28.791  30.101  1.00  0.00     0.037 A 
ATOM     57  C   UNL A   1      39.822  33.072  35.596  1.00  0.00     0.037 A 
ATOM     58  C   UNL A   1      41.472  28.619  31.131  1.00  0.00     0.049 A 
ATOM     59  C   UNL A   1      40.889  32.012  35.540  1.00  0.00     0.074 A 
ATOM     60  C   UNL A   1      42.542  27.739  31.159  1.00  0.00     0.029 A 
ATOM     61  N   UNL A   1      41.513  29.335  32.317  1.00  0.00    -0.354 N 
ATOM     62  N   UNL A   1      41.165  31.167  34.578  1.00  0.00    -0.248 NA
ATOM     63  C   UNL A   1      41.763  31.888  36.715  1.00  0.00     0.031 C 
ATOM     64  C   UNL A   1      43.196  27.884  32.385  1.00  0.00     0.029 A 
ATOM     65  C   UNL A   1      42.571  28.895  33.098  1.00  0.00     0.049 A 
ATOM     66  H   UNL A   1      40.885  30.050  32.568  1.00  0.00     0.167 HD
ATOM     67  C   UNL A   1      42.257  30.430  35.017  1.00  0.00     0.074 A 
ATOM     68  C   UNL A   1      42.605  30.942  36.326  1.00  0.00     0.031 C 
ATOM     69  C   UNL A   1      42.910  29.419  34.396  1.00  0.00     0.037 A 
BRANCH  56  70
ATOM     70  C   UNL A   1      40.521  27.852  28.930  1.00  0.00     0.064 A 
ATOM     71  C   UNL A   1      39.747  26.683  28.893  1.00  0.00     0.173 A 
ATOM     72  C   UNL A   1      41.286  28.168  27.797  1.00  0.00     0.173 A 
ATOM     73  F   UNL A   1      39.003  26.332  29.954  1.00  0.00    -0.203 F 
ATOM     74  C   UNL A   1      39.750  25.857  27.773  1.00  0.00     0.198 A 
ATOM     75  C   UNL A   1      41.264  27.354  26.667  1.00  0.00     0.198 A 
ATOM     76  F   UNL A   1      42.038  29.278  27.776  1.00  0.00    -0.203 F 
ATOM     77  F   UNL A   1      39.028  24.728  27.773  1.00  0.00    -0.200 F 
ATOM     78  C   UNL A   1      40.501  26.198  26.657  1.00  0.00     0.200 A 
ATOM     79  F   UNL A   1      41.978  27.694  25.584  1.00  0.00    -0.200 F 
ATOM     80  F   UNL A   1      40.488  25.410  25.573  1.00  0.00    -0.200 F 
ENDBRANCH  56  70
BRANCH  57  81
ATOM     81  C   UNL A   1      39.655  33.919  36.808  1.00  0.00     0.064 A 
ATOM     82  C   UNL A   1      38.862  33.495  37.884  1.00  0.00     0.173 A 
ATOM     83  C   UNL A   1      40.266  35.179  36.904  1.00  0.00     0.173 A 
ATOM     84  F   UNL A   1      38.242  32.307  37.831  1.00  0.00    -0.203 F 
ATOM     85  C   UNL A   1      38.661  34.312  38.995  1.00  0.00     0.198 A 
ATOM     86  C   UNL A   1      40.089  35.980  38.030  1.00  0.00     0.198 A 
ATOM     87  F   UNL A   1      41.038  35.629  35.906  1.00  0.00    -0.203 F 
ATOM     88  F   UNL A   1      37.850  33.906  39.981  1.00  0.00    -0.200 F 
ATOM     89  C   UNL A   1      39.278  35.551  39.069  1.00  0.00     0.200 A 
ATOM     90  F   UNL A   1      40.700  37.170  38.105  1.00  0.00    -0.200 F 
ATOM     91  F   UNL A   1      39.081  36.336  40.137  1.00  0.00    -0.200 F 
ENDBRANCH  57  81
BRANCH  69  92
ATOM     92  C   UNL A   1      44.089  28.819  35.107  1.00  0.00     0.064 A 
ATOM     93  C   UNL A   1      43.949  27.717  35.964  1.00  0.00     0.173 A 
ATOM     94  C   UNL A   1      45.379  29.331  34.899  1.00  0.00     0.173 A 
ATOM     95  F   UNL A   1      42.735  27.201  36.208  1.00  0.00    -0.203 F 
ATOM     96  C   UNL A   1      45.055  27.167  36.608  1.00  0.00     0.198 A 
ATOM     97  C   UNL A   1      46.485  28.757  35.519  1.00  0.00     0.198 A 
ATOM     98  F   UNL A   1      45.568  30.379  34.084  1.00  0.00    -0.203 F 
ATOM     99  F   UNL A   1      44.891  26.147  37.461  1.00  0.00    -0.200 F 
ATOM    100  C   UNL A   1      46.321  27.682  36.378  1.00  0.00     0.200 A 
ATOM    101  F   UNL A   1      47.711  29.246  35.284  1.00  0.00    -0.200 F 
ATOM    102  F   UNL A   1      47.386  27.145  36.993  1.00  0.00    -0.200 F 
ENDBRANCH  69  92
ENDBRANCH  43  44
ENDBRANCH  35  38
ENDBRANCH  33  34
ENDBRANCH  32  33
ENDBRANCH  31  32
ENDBRANCH  30  31
ENDBRANCH   1  30
TORSDOF 17
ENDMDL
MODEL 3
REMARK VINA RESULT:     -12.3      5.433     11.140
REMARK SMILES CC(C)c1cc(C2CC[NH+](Cc3c[nH]nc3C(=O)NCCCCCCNC(=O)c3ccc(-c4c5nc(c(-c6c(F)c(F)c(F)c(F)c6F)c6ccc([nH]6)c(-c6c(F)c(F)c(F)c(F)c6F)c6nc(c(-c7c(F)c(F)c(F)c(F)c7F)c7ccc4[nH]7)C=C6)C=C5)cc3)CC2)n[nH]1
REMARK SMILES IDX 21 1 20 2 19 3 17 4 18 5 16 7 12 8 13 9 14 10 15 11 11 13
REMARK SMILES IDX 10 14 7 15 8 16 93 17 9 18 92 19 6 21 4 22 5 23 95 24 94 25
REMARK SMILES IDX 2 27 1 28 3 29 22 30 23 31 24 32 25 33 26 34 27 35 28 37
REMARK SMILES IDX 29 38 30 39 91 40 31 41 90 42 32 43 33 44 34 45 84 46 35 47
REMARK SMILES IDX 89 48 83 49 85 50 36 51 88 52 82 53 81 54 37 56 69 57 49 58
REMARK SMILES IDX 68 59 50 60 53 61 67 62 86 63 51 64 52 65 66 67 87 68 54 69
REMARK SMILES IDX 38 70 39 71 47 72 40 73 41 74 45 75 48 76 42 77 43 78 46 79
REMARK SMILES IDX 44 80 70 81 71 82 79 83 72 84 73 85 77 86 80 87 74 88 75 89
REMARK SMILES IDX 78 90 76 91 55 92 56 93 64 94 57 95 58 96 62 97 65 98 59 99
REMARK SMILES IDX 60 100 63 101 61 102
REMARK H PARENT 19 6 14 12 10 20 95 26 26 36 85 55 53 66
REMARK Flexibility Score: inf
ROOT
ATOM      1  C   UNL A   1      36.202  23.076  24.655  1.00  0.00     0.021 C 
ENDROOT
BRANCH   1   2
ATOM      2  C   UNL A   1      35.288  23.714  23.620  1.00  0.00     0.116 C 
BRANCH   2   3
ATOM      3  N   UNL A   1      34.249  22.867  23.140  1.00  0.00    -0.351 N 
ATOM      4  C   UNL A   1      33.152  22.333  23.771  1.00  0.00     0.272 C 
ATOM      5  O   UNL A   1      32.481  21.615  23.014  1.00  0.00    -0.267 OA
ATOM      6  H   UNL A   1      34.331  22.623  22.189  1.00  0.00     0.163 HD
BRANCH   4   7
ATOM      7  C   UNL A   1      32.734  22.548  25.203  1.00  0.00     0.158 A 
ATOM      8  C   UNL A   1      31.950  23.504  25.992  1.00  0.00     0.057 A 
ATOM      9  C   UNL A   1      31.915  22.938  27.262  1.00  0.00     0.115 A 
ATOM     10  N   UNL A   1      32.683  21.830  27.234  1.00  0.00    -0.284 N 
ATOM     11  N   UNL A   1      33.192  21.581  26.039  1.00  0.00    -0.170 NA
ATOM     12  H   UNL A   1      32.847  21.264  28.021  1.00  0.00     0.189 HD
BRANCH   8  13
ATOM     13  C   UNL A   1      31.202  24.784  25.703  1.00  0.00     0.303 C 
BRANCH  13  14
ATOM     14  N   UNL A   1      32.023  26.026  25.741  1.00  0.00    -0.331 N 
ATOM     15  C   UNL A   1      32.685  28.793  24.845  1.00  0.00     0.051 C 
ATOM     16  C   UNL A   1      33.513  27.578  24.421  1.00  0.00     0.071 C 
ATOM     17  C   UNL A   1      32.158  28.523  26.250  1.00  0.00     0.071 C 
ATOM     18  C   UNL A   1      32.714  26.273  24.472  1.00  0.00     0.263 C 
ATOM     19  C   UNL A   1      31.403  27.196  26.370  1.00  0.00     0.263 C 
ATOM     20  H   UNL A   1      32.759  25.831  26.420  1.00  0.00     0.348 HD
BRANCH  15  21
ATOM     21  C   UNL A   1      31.603  29.164  23.863  1.00  0.00     0.066 A 
ATOM     22  C   UNL A   1      29.684  29.788  22.912  1.00  0.00     0.038 A 
ATOM     23  C   UNL A   1      30.276  29.561  24.126  1.00  0.00     0.049 A 
ATOM     24  N   UNL A   1      30.664  29.539  21.992  1.00  0.00    -0.282 N 
ATOM     25  N   UNL A   1      31.834  29.151  22.542  1.00  0.00    -0.180 NA
ATOM     26  H   UNL A   1      30.530  29.633  21.022  1.00  0.00     0.190 HD
BRANCH  22  27
ATOM     27  C   UNL A   1      28.278  30.200  22.621  1.00  0.00     0.031 C 
ATOM     28  C   UNL A   1      27.793  31.334  23.516  1.00  0.00     0.014 C 
ATOM     29  C   UNL A   1      28.111  30.533  21.139  1.00  0.00     0.014 C 
ENDBRANCH  22  27
ENDBRANCH  15  21
ENDBRANCH  13  14
ENDBRANCH   8  13
ENDBRANCH   4   7
ENDBRANCH   2   3
ENDBRANCH   1   2
BRANCH   1  30
ATOM     30  C   UNL A   1      37.026  21.893  24.162  1.00  0.00     0.002 C 
BRANCH  30  31
ATOM     31  C   UNL A   1      36.730  20.549  24.838  1.00  0.00     0.002 C 
BRANCH  31  32
ATOM     32  C   UNL A   1      37.910  19.584  25.000  1.00  0.00     0.021 C 
BRANCH  32  33
ATOM     33  C   UNL A   1      39.121  20.122  25.759  1.00  0.00     0.116 C 
BRANCH  33  34
ATOM     34  N   UNL A   1      40.184  19.141  25.884  1.00  0.00    -0.352 N 
ATOM     35  C   UNL A   1      41.528  19.303  26.088  1.00  0.00     0.251 C 
ATOM     36  H   UNL A   1      39.888  18.204  25.812  1.00  0.00     0.163 HD
ATOM     37  O   UNL A   1      42.279  18.336  25.995  1.00  0.00    -0.269 OA
BRANCH  35  38
ATOM     38  C   UNL A   1      42.092  20.634  26.398  1.00  0.00     0.039 A 
ATOM     39  C   UNL A   1      42.472  21.459  25.335  1.00  0.00     0.014 A 
ATOM     40  C   UNL A   1      42.290  21.059  27.715  1.00  0.00     0.014 A 
ATOM     41  C   UNL A   1      42.994  22.729  25.590  1.00  0.00     0.010 A 
ATOM     42  C   UNL A   1      42.750  22.351  27.969  1.00  0.00     0.010 A 
ATOM     43  C   UNL A   1      43.105  23.199  26.909  1.00  0.00    -0.014 A 
BRANCH  43  44
ATOM     44  C   UNL A   1      43.572  24.582  27.187  1.00  0.00     0.031 A 
ATOM     45  C   UNL A   1      42.612  25.626  27.688  1.00  0.00     0.074 A 
ATOM     46  C   UNL A   1      44.852  24.912  26.927  1.00  0.00     0.049 A 
ATOM     47  N   UNL A   1      42.822  26.897  27.924  1.00  0.00    -0.248 NA
ATOM     48  C   UNL A   1      41.228  25.192  27.933  1.00  0.00     0.031 C 
ATOM     49  C   UNL A   1      45.866  24.003  26.389  1.00  0.00     0.029 A 
ATOM     50  N   UNL A   1      45.517  26.107  27.061  1.00  0.00    -0.354 N 
ATOM     51  C   UNL A   1      41.598  27.416  28.326  1.00  0.00     0.074 A 
ATOM     52  C   UNL A   1      40.640  26.333  28.266  1.00  0.00     0.031 C 
ATOM     53  C   UNL A   1      47.024  24.666  26.249  1.00  0.00     0.029 A 
ATOM     54  C   UNL A   1      46.827  26.056  26.648  1.00  0.00     0.049 A 
ATOM     55  H   UNL A   1      45.096  26.921  27.419  1.00  0.00     0.167 HD
ATOM     56  C   UNL A   1      41.307  28.677  28.725  1.00  0.00     0.037 A 
ATOM     57  C   UNL A   1      47.761  27.025  26.584  1.00  0.00     0.037 A 
ATOM     58  C   UNL A   1      42.272  29.742  28.817  1.00  0.00     0.049 A 
ATOM     59  C   UNL A   1      47.409  28.415  27.044  1.00  0.00     0.074 A 
ATOM     60  C   UNL A   1      42.091  31.030  29.292  1.00  0.00     0.029 A 
ATOM     61  N   UNL A   1      43.596  29.646  28.419  1.00  0.00    -0.354 N 
ATOM     62  N   UNL A   1      46.270  28.870  27.505  1.00  0.00    -0.248 NA
ATOM     63  C   UNL A   1      48.475  29.424  26.981  1.00  0.00     0.031 C 
ATOM     64  C   UNL A   1      43.289  31.730  29.131  1.00  0.00     0.029 A 
ATOM     65  C   UNL A   1      44.236  30.862  28.609  1.00  0.00     0.049 A 
ATOM     66  H   UNL A   1      44.021  28.836  28.055  1.00  0.00     0.167 HD
ATOM     67  C   UNL A   1      46.488  30.206  27.813  1.00  0.00     0.074 A 
ATOM     68  C   UNL A   1      47.875  30.484  27.503  1.00  0.00     0.031 C 
ATOM     69  C   UNL A   1      45.618  31.122  28.303  1.00  0.00     0.037 A 
BRANCH  56  70
ATOM     70  C   UNL A   1      39.887  28.988  29.098  1.00  0.00     0.064 A 
ATOM     71  C   UNL A   1      38.948  29.413  28.145  1.00  0.00     0.173 A 
ATOM     72  C   UNL A   1      39.439  28.784  30.412  1.00  0.00     0.173 A 
ATOM     73  F   UNL A   1      39.326  29.629  26.875  1.00  0.00    -0.203 F 
ATOM     74  C   UNL A   1      37.620  29.637  28.497  1.00  0.00     0.198 A 
ATOM     75  C   UNL A   1      38.104  28.982  30.754  1.00  0.00     0.198 A 
ATOM     76  F   UNL A   1      40.293  28.372  31.361  1.00  0.00    -0.203 F 
ATOM     77  F   UNL A   1      36.749  30.073  27.577  1.00  0.00    -0.200 F 
ATOM     78  C   UNL A   1      37.197  29.412  29.799  1.00  0.00     0.200 A 
ATOM     79  F   UNL A   1      37.694  28.749  32.009  1.00  0.00    -0.200 F 
ATOM     80  F   UNL A   1      35.914  29.611  30.131  1.00  0.00    -0.200 F 
ENDBRANCH  56  70
BRANCH  57  81
ATOM     81  C   UNL A   1      49.119  26.720  26.062  1.00  0.00     0.064 A 
ATOM     82  C   UNL A   1      50.115  26.192  26.897  1.00  0.00     0.173 A 
ATOM     83  C   UNL A   1      49.457  26.972  24.724  1.00  0.00     0.173 A 
ATOM     84  F   UNL A   1      49.846  25.952  28.189  1.00  0.00    -0.203 F 
ATOM     85  C   UNL A   1      51.403  25.958  26.422  1.00  0.00     0.198 A 
ATOM     86  C   UNL A   1      50.738  26.707  24.243  1.00  0.00     0.198 A 
ATOM     87  F   UNL A   1      48.542  27.471  23.882  1.00  0.00    -0.203 F 
ATOM     88  F   UNL A   1      52.350  25.509  27.257  1.00  0.00    -0.200 F 
ATOM     89  C   UNL A   1      51.713  26.211  25.095  1.00  0.00     0.200 A 
ATOM     90  F   UNL A   1      51.028  26.939  22.956  1.00  0.00    -0.200 F 
ATOM     91  F   UNL A   1      52.953  25.989  24.639  1.00  0.00    -0.200 F 
ENDBRANCH  57  81
BRANCH  69  92
ATOM     92  C   UNL A   1      46.147  32.502  28.567  1.00  0.00     0.064 A 
ATOM     93  C   UNL A   1      46.084  33.513  27.596  1.00  0.00     0.173 A 
ATOM     94  C   UNL A   1      46.688  32.827  29.821  1.00  0.00     0.173 A 
ATOM     95  F   UNL A   1      45.590  33.250  26.378  1.00  0.00    -0.203 F 
ATOM     96  C   UNL A   1      46.570  34.791  27.862  1.00  0.00     0.198 A 
ATOM     97  C   UNL A   1      47.142  34.115  30.093  1.00  0.00     0.198 A 
ATOM     98  F   UNL A   1      46.765  31.899  30.785  1.00  0.00    -0.203 F 
ATOM     99  F   UNL A   1      46.547  35.727  26.904  1.00  0.00    -0.200 F 
ATOM    100  C   UNL A   1      47.090  35.092  29.112  1.00  0.00     0.200 A 
ATOM    101  F   UNL A   1      47.631  34.408  31.306  1.00  0.00    -0.200 F 
ATOM    102  F   UNL A   1      47.550  36.326  29.368  1.00  0.00    -0.200 F 
ENDBRANCH  69  92
ENDBRANCH  43  44
ENDBRANCH  35  38
ENDBRANCH  33  34
ENDBRANCH  32  33
ENDBRANCH  31  32
ENDBRANCH  30  31
ENDBRANCH   1  30
TORSDOF 17
ENDMDL
