MODEL 1
REMARK VINA RESULT:     -12.8      0.000      0.000
REMARK SMILES O=C(NCCCCCCNC(=O)[C@@H]1CCCC[C@@H]1C(=O)Nc1cc(C(F)(F)F)cc(C(F)(F)F)c1)c1ccc(-c2c3nc(c(-c4c(F)c(F)c(F)c(F)c4F)c4ccc([nH]4)c(-c4c(F)c(F)c(F)c(F)c4F)c4nc(c(-c5c(F)c(F)c(F)c(F)c5F)c5ccc2[nH]5)C=C4)C=C3)cc1
REMARK SMILES IDX 7 1 6 2 5 3 4 4 3 5 1 6 2 7 36 9 37 10 98 11 38 12 97 13
REMARK SMILES IDX 39 14 40 15 41 16 91 17 42 18 96 19 90 20 92 21 43 22 95 23
REMARK SMILES IDX 89 24 88 25 44 27 76 28 56 29 75 30 57 31 60 32 74 33 93 34
REMARK SMILES IDX 58 35 59 36 73 38 94 39 61 40 45 41 46 42 54 43 47 44 48 45
REMARK SMILES IDX 52 46 55 47 49 48 50 49 53 50 51 51 77 52 78 53 86 54 79 55
REMARK SMILES IDX 80 56 84 57 87 58 81 59 82 60 85 61 83 62 62 63 63 64 71 65
REMARK SMILES IDX 64 66 65 67 69 68 72 69 66 70 67 71 70 72 68 73 8 74 9 75
REMARK SMILES IDX 10 76 11 77 12 79 13 80 14 81 18 82 15 83 17 84 16 85 19 86
REMARK SMILES IDX 20 87 21 88 22 90 23 91 35 92 24 93 30 94 29 95 25 96 26 97
REMARK SMILES IDX 27 98 28 99 31 100 32 101 33 102 34 103
REMARK H PARENT 3 8 92 26 60 37 10 78 21 89
REMARK Flexibility Score: inf
ROOT
ATOM      1  C   UNL A   1      37.148  22.319  24.516  1.00  0.00     0.002 C 
ENDROOT
BRANCH   1   2
ATOM      2  C   UNL A   1      36.831  20.910  25.026  1.00  0.00     0.002 C 
BRANCH   2   3
ATOM      3  C   UNL A   1      37.984  19.911  24.949  1.00  0.00     0.021 C 
BRANCH   3   4
ATOM      4  C   UNL A   1      39.217  20.292  25.758  1.00  0.00     0.116 C 
BRANCH   4   5
ATOM      5  N   UNL A   1      40.218  19.238  25.816  1.00  0.00    -0.352 N 
ATOM      6  O   UNL A   1      42.316  18.401  25.998  1.00  0.00    -0.269 OA
ATOM      7  C   UNL A   1      41.562  19.364  26.079  1.00  0.00     0.251 C 
ATOM      8  H   UNL A   1      39.895  18.324  25.648  1.00  0.00     0.163 HD
BRANCH   7   9
ATOM      9  C   UNL A   1      42.094  20.697  26.425  1.00  0.00     0.039 A 
ATOM     10  C   UNL A   1      42.280  21.054  27.763  1.00  0.00     0.014 A 
ATOM     11  C   UNL A   1      42.362  21.606  25.401  1.00  0.00     0.014 A 
ATOM     12  C   UNL A   1      42.611  22.364  28.085  1.00  0.00     0.010 A 
ATOM     13  C   UNL A   1      42.767  22.902  25.723  1.00  0.00     0.010 A 
ATOM     14  C   UNL A   1      42.868  23.296  27.068  1.00  0.00    -0.014 A 
BRANCH  14  15
ATOM     15  C   UNL A   1      43.305  24.668  27.415  1.00  0.00     0.031 A 
ATOM     16  C   UNL A   1      42.333  25.671  27.961  1.00  0.00     0.074 A 
ATOM     17  C   UNL A   1      44.589  25.006  27.201  1.00  0.00     0.049 A 
ATOM     18  N   UNL A   1      42.512  26.942  28.213  1.00  0.00    -0.248 NA
ATOM     19  C   UNL A   1      40.977  25.184  28.252  1.00  0.00     0.031 C 
ATOM     20  C   UNL A   1      45.617  24.105  26.675  1.00  0.00     0.029 A 
ATOM     21  N   UNL A   1      45.246  26.195  27.382  1.00  0.00    -0.354 N 
ATOM     22  C   UNL A   1      41.287  27.417  28.661  1.00  0.00     0.074 A 
ATOM     23  C   UNL A   1      40.367  26.298  28.637  1.00  0.00     0.031 C 
ATOM     24  C   UNL A   1      46.777  24.770  26.582  1.00  0.00     0.029 A 
ATOM     25  C   UNL A   1      46.556  26.158  26.972  1.00  0.00     0.049 A 
ATOM     26  H   UNL A   1      44.822  26.996  27.766  1.00  0.00     0.167 HD
ATOM     27  C   UNL A   1      40.966  28.674  29.050  1.00  0.00     0.037 A 
ATOM     28  C   UNL A   1      47.468  27.141  26.877  1.00  0.00     0.037 A 
ATOM     29  C   UNL A   1      41.899  29.771  29.079  1.00  0.00     0.049 A 
ATOM     30  C   UNL A   1      47.084  28.530  27.289  1.00  0.00     0.074 A 
ATOM     31  C   UNL A   1      41.691  31.072  29.500  1.00  0.00     0.029 A 
ATOM     32  N   UNL A   1      43.222  29.694  28.661  1.00  0.00    -0.354 N 
ATOM     33  N   UNL A   1      45.930  28.966  27.735  1.00  0.00    -0.248 NA
ATOM     34  C   UNL A   1      48.121  29.564  27.185  1.00  0.00     0.031 C 
ATOM     35  C   UNL A   1      42.871  31.794  29.290  1.00  0.00     0.029 A 
ATOM     36  C   UNL A   1      43.832  30.930  28.789  1.00  0.00     0.049 A 
ATOM     37  H   UNL A   1      43.660  28.880  28.323  1.00  0.00     0.167 HD
ATOM     38  C   UNL A   1      46.103  30.320  27.980  1.00  0.00     0.074 A 
ATOM     39  C   UNL A   1      47.478  30.632  27.641  1.00  0.00     0.031 C 
ATOM     40  C   UNL A   1      45.204  31.219  28.448  1.00  0.00     0.037 A 
BRANCH  27  41
ATOM     41  C   UNL A   1      39.539  28.939  29.439  1.00  0.00     0.064 A 
ATOM     42  C   UNL A   1      38.586  29.382  28.509  1.00  0.00     0.173 A 
ATOM     43  C   UNL A   1      39.114  28.727  30.760  1.00  0.00     0.173 A 
ATOM     44  F   UNL A   1      38.940  29.612  27.236  1.00  0.00    -0.203 F 
ATOM     45  C   UNL A   1      37.272  29.636  28.896  1.00  0.00     0.198 A 
ATOM     46  C   UNL A   1      37.793  28.954  31.137  1.00  0.00     0.198 A 
ATOM     47  F   UNL A   1      39.982  28.296  31.688  1.00  0.00    -0.203 F 
ATOM     48  F   UNL A   1      36.392  30.111  28.003  1.00  0.00    -0.200 F 
ATOM     49  C   UNL A   1      36.875  29.418  30.206  1.00  0.00     0.200 A 
ATOM     50  F   UNL A   1      37.410  28.730  32.401  1.00  0.00    -0.200 F 
ATOM     51  F   UNL A   1      35.610  29.664  30.577  1.00  0.00    -0.200 F 
ENDBRANCH  27  41
BRANCH  28  52
ATOM     52  C   UNL A   1      48.815  26.820  26.346  1.00  0.00     0.064 A 
ATOM     53  C   UNL A   1      49.797  26.253  27.167  1.00  0.00     0.173 A 
ATOM     54  C   UNL A   1      49.115  26.992  24.987  1.00  0.00     0.173 A 
ATOM     55  F   UNL A   1      49.559  26.081  28.475  1.00  0.00    -0.203 F 
ATOM     56  C   UNL A   1      51.030  25.864  26.646  1.00  0.00     0.198 A 
ATOM     57  C   UNL A   1      50.337  26.578  24.462  1.00  0.00     0.198 A 
ATOM     58  F   UNL A   1      48.201  27.518  24.158  1.00  0.00    -0.203 F 
ATOM     59  F   UNL A   1      51.959  25.335  27.453  1.00  0.00    -0.200 F 
ATOM     60  C   UNL A   1      51.294  26.016  25.292  1.00  0.00     0.200 A 
ATOM     61  F   UNL A   1      50.578  26.706  23.150  1.00  0.00    -0.200 F 
ATOM     62  F   UNL A   1      52.468  25.616  24.788  1.00  0.00    -0.200 F 
ENDBRANCH  28  52
BRANCH  40  63
ATOM     63  C   UNL A   1      45.685  32.623  28.655  1.00  0.00     0.064 A 
ATOM     64  C   UNL A   1      45.546  33.601  27.660  1.00  0.00     0.173 A 
ATOM     65  C   UNL A   1      46.234  33.007  29.888  1.00  0.00     0.173 A 
ATOM     66  F   UNL A   1      45.042  33.276  26.460  1.00  0.00    -0.203 F 
ATOM     67  C   UNL A   1      45.948  34.914  27.890  1.00  0.00     0.198 A 
ATOM     68  C   UNL A   1      46.612  34.325  30.122  1.00  0.00     0.198 A 
ATOM     69  F   UNL A   1      46.384  32.106  30.871  1.00  0.00    -0.203 F 
ATOM     70  F   UNL A   1      45.834  35.829  26.917  1.00  0.00    -0.200 F 
ATOM     71  C   UNL A   1      46.471  35.276  29.123  1.00  0.00     0.200 A 
ATOM     72  F   UNL A   1      47.108  34.676  31.317  1.00  0.00    -0.200 F 
ATOM     73  F   UNL A   1      46.844  36.544  29.348  1.00  0.00    -0.200 F 
ENDBRANCH  40  63
ENDBRANCH  14  15
ENDBRANCH   7   9
ENDBRANCH   4   5
ENDBRANCH   3   4
ENDBRANCH   2   3
ENDBRANCH   1   2
BRANCH   1  74
ATOM     74  C   UNL A   1      36.608  22.653  23.120  1.00  0.00     0.021 C 
BRANCH  74  75
ATOM     75  C   UNL A   1      35.425  23.624  23.079  1.00  0.00     0.116 C 
BRANCH  75  76
ATOM     76  N   UNL A   1      34.172  22.977  22.724  1.00  0.00    -0.356 N 
ATOM     77  C   UNL A   1      33.225  22.400  23.521  1.00  0.00     0.223 C 
ATOM     78  H   UNL A   1      33.977  22.949  21.760  1.00  0.00     0.163 HD
ATOM     79  O   UNL A   1      32.189  21.994  22.997  1.00  0.00    -0.275 OA
BRANCH  77  80
ATOM     80  C   UNL A   1      33.468  22.305  25.013  1.00  0.00     0.091 C 
ATOM     81  C   UNL A   1      33.019  20.964  25.597  1.00  0.00     0.014 C 
ATOM     82  C   UNL A   1      32.932  23.498  25.823  1.00  0.00     0.091 C 
ATOM     83  C   UNL A   1      33.585  20.806  27.004  1.00  0.00     0.001 C 
ATOM     84  C   UNL A   1      33.514  23.368  27.257  1.00  0.00     0.014 C 
ATOM     85  C   UNL A   1      33.271  21.996  27.911  1.00  0.00     0.001 C 
BRANCH  82  86
ATOM     86  C   UNL A   1      31.398  23.650  25.963  1.00  0.00     0.228 C 
ATOM     87  O   UNL A   1      30.622  22.700  25.867  1.00  0.00    -0.274 OA
ATOM     88  N   UNL A   1      30.929  24.821  26.512  1.00  0.00    -0.326 N 
ATOM     89  H   UNL A   1      30.406  24.731  27.342  1.00  0.00     0.169 HD
BRANCH  88  90
ATOM     90  C   UNL A   1      31.103  26.131  26.035  1.00  0.00     0.042 A 
ATOM     91  C   UNL A   1      30.378  26.544  24.915  1.00  0.00     0.039 A 
ATOM     92  C   UNL A   1      32.092  26.967  26.548  1.00  0.00     0.039 A 
ATOM     93  C   UNL A   1      30.581  27.821  24.359  1.00  0.00     0.058 A 
ATOM     94  C   UNL A   1      32.330  28.240  26.007  1.00  0.00     0.058 A 
ATOM     95  C   UNL A   1      31.555  28.664  24.920  1.00  0.00     0.026 A 
BRANCH  93  96
ATOM     96  C   UNL A   1      29.815  28.264  23.135  1.00  0.00     0.416 C 
ATOM     97  F   UNL A   1      30.280  27.680  21.998  1.00  0.00    -0.166 F 
ATOM     98  F   UNL A   1      28.488  27.969  23.196  1.00  0.00    -0.166 F 
ATOM     99  F   UNL A   1      29.889  29.608  22.927  1.00  0.00    -0.166 F 
ENDBRANCH  93  96
BRANCH  94 100
ATOM    100  C   UNL A   1      33.440  29.098  26.568  1.00  0.00     0.416 C 
ATOM    101  F   UNL A   1      34.615  28.955  25.895  1.00  0.00    -0.166 F 
ATOM    102  F   UNL A   1      33.151  30.428  26.512  1.00  0.00    -0.166 F 
ATOM    103  F   UNL A   1      33.713  28.822  27.869  1.00  0.00    -0.166 F 
ENDBRANCH  94 100
ENDBRANCH  88  90
ENDBRANCH  82  86
ENDBRANCH  77  80
ENDBRANCH  75  76
ENDBRANCH  74  75
ENDBRANCH   1  74
TORSDOF 17
ENDMDL
MODEL 2
REMARK VINA RESULT:     -12.7      5.561     10.812
REMARK SMILES O=C(NCCCCCCNC(=O)[C@@H]1CCCC[C@@H]1C(=O)Nc1cc(C(F)(F)F)cc(C(F)(F)F)c1)c1ccc(-c2c3nc(c(-c4c(F)c(F)c(F)c(F)c4F)c4ccc([nH]4)c(-c4c(F)c(F)c(F)c(F)c4F)c4nc(c(-c5c(F)c(F)c(F)c(F)c5F)c5ccc2[nH]5)C=C4)C=C3)cc1
REMARK SMILES IDX 7 1 6 2 5 3 4 4 3 5 1 6 2 7 36 9 37 10 98 11 38 12 97 13
REMARK SMILES IDX 39 14 40 15 41 16 91 17 42 18 96 19 90 20 92 21 43 22 95 23
REMARK SMILES IDX 89 24 88 25 44 27 76 28 56 29 75 30 57 31 60 32 74 33 93 34
REMARK SMILES IDX 58 35 59 36 73 38 94 39 61 40 45 41 46 42 54 43 47 44 48 45
REMARK SMILES IDX 52 46 55 47 49 48 50 49 53 50 51 51 77 52 78 53 86 54 79 55
REMARK SMILES IDX 80 56 84 57 87 58 81 59 82 60 85 61 83 62 62 63 63 64 71 65
REMARK SMILES IDX 64 66 65 67 69 68 72 69 66 70 67 71 70 72 68 73 8 74 9 75
REMARK SMILES IDX 10 76 11 77 12 79 13 80 14 81 18 82 15 83 17 84 16 85 19 86
REMARK SMILES IDX 20 87 21 88 22 90 23 91 35 92 24 93 30 94 29 95 25 96 26 97
REMARK SMILES IDX 27 98 28 99 31 100 32 101 33 102 34 103
REMARK H PARENT 3 8 92 26 60 37 10 78 21 89
REMARK Flexibility Score: inf
ROOT
ATOM      1  C   UNL A   1      32.397  29.742  27.250  1.00  0.00     0.002 C 
ENDROOT
BRANCH   1   2
ATOM      2  C   UNL A   1      31.754  30.588  26.147  1.00  0.00     0.002 C 
BRANCH   2   3
ATOM      3  C   UNL A   1      31.467  32.041  26.520  1.00  0.00     0.021 C 
BRANCH   3   4
ATOM      4  C   UNL A   1      32.602  32.753  27.244  1.00  0.00     0.116 C 
BRANCH   4   5
ATOM      5  N   UNL A   1      32.285  34.125  27.607  1.00  0.00    -0.352 N 
ATOM      6  O   UNL A   1      32.482  36.032  28.816  1.00  0.00    -0.269 OA
ATOM      7  C   UNL A   1      32.916  34.921  28.534  1.00  0.00     0.251 C 
ATOM      8  H   UNL A   1      31.527  34.535  27.131  1.00  0.00     0.163 HD
BRANCH   7   9
ATOM      9  C   UNL A   1      34.114  34.396  29.219  1.00  0.00     0.039 A 
ATOM     10  C   UNL A   1      35.387  34.653  28.705  1.00  0.00     0.014 A 
ATOM     11  C   UNL A   1      33.951  33.604  30.356  1.00  0.00     0.014 A 
ATOM     12  C   UNL A   1      36.492  34.011  29.251  1.00  0.00     0.010 A 
ATOM     13  C   UNL A   1      35.070  33.019  30.950  1.00  0.00     0.010 A 
ATOM     14  C   UNL A   1      36.344  33.198  30.385  1.00  0.00    -0.014 A 
BRANCH  14  15
ATOM     15  C   UNL A   1      37.536  32.586  31.017  1.00  0.00     0.031 A 
ATOM     16  C   UNL A   1      38.276  31.470  30.342  1.00  0.00     0.074 A 
ATOM     17  C   UNL A   1      37.922  33.031  32.226  1.00  0.00     0.049 A 
ATOM     18  N   UNL A   1      39.266  30.744  30.795  1.00  0.00    -0.248 NA
ATOM     19  C   UNL A   1      37.842  31.116  28.983  1.00  0.00     0.031 C 
ATOM     20  C   UNL A   1      37.272  34.114  32.968  1.00  0.00     0.029 A 
ATOM     21  N   UNL A   1      38.939  32.625  33.049  1.00  0.00    -0.354 N 
ATOM     22  C   UNL A   1      39.553  29.826  29.794  1.00  0.00     0.074 A 
ATOM     23  C   UNL A   1      38.624  30.080  28.711  1.00  0.00     0.031 C 
ATOM     24  C   UNL A   1      37.908  34.291  34.133  1.00  0.00     0.029 A 
ATOM     25  C   UNL A   1      38.963  33.290  34.249  1.00  0.00     0.049 A 
ATOM     26  H   UNL A   1      39.588  31.926  32.804  1.00  0.00     0.167 HD
ATOM     27  C   UNL A   1      40.502  28.860  29.788  1.00  0.00     0.037 A 
ATOM     28  C   UNL A   1      39.719  33.088  35.343  1.00  0.00     0.037 A 
ATOM     29  C   UNL A   1      41.426  28.632  30.870  1.00  0.00     0.049 A 
ATOM     30  C   UNL A   1      40.746  31.997  35.324  1.00  0.00     0.074 A 
ATOM     31  C   UNL A   1      42.456  27.712  30.948  1.00  0.00     0.029 A 
ATOM     32  N   UNL A   1      41.423  29.330  32.071  1.00  0.00    -0.354 N 
ATOM     33  N   UNL A   1      41.027  31.148  34.365  1.00  0.00    -0.248 NA
ATOM     34  C   UNL A   1      41.559  31.830  36.536  1.00  0.00     0.031 C 
ATOM     35  C   UNL A   1      43.043  27.820  32.214  1.00  0.00     0.029 A 
ATOM     36  C   UNL A   1      42.415  28.843  32.905  1.00  0.00     0.049 A 
ATOM     37  H   UNL A   1      40.805  30.063  32.296  1.00  0.00     0.167 HD
ATOM     38  C   UNL A   1      42.059  30.356  34.846  1.00  0.00     0.074 A 
ATOM     39  C   UNL A   1      42.360  30.832  36.182  1.00  0.00     0.031 C 
ATOM     40  C   UNL A   1      42.699  29.333  34.232  1.00  0.00     0.037 A 
BRANCH  27  41
ATOM     41  C   UNL A   1      40.565  27.953  28.592  1.00  0.00     0.064 A 
ATOM     42  C   UNL A   1      39.855  26.744  28.539  1.00  0.00     0.173 A 
ATOM     43  C   UNL A   1      41.334  28.310  27.473  1.00  0.00     0.173 A 
ATOM     44  F   UNL A   1      39.115  26.349  29.584  1.00  0.00    -0.203 F 
ATOM     45  C   UNL A   1      39.941  25.911  27.424  1.00  0.00     0.198 A 
ATOM     46  C   UNL A   1      41.394  27.490  26.349  1.00  0.00     0.198 A 
ATOM     47  F   UNL A   1      42.027  29.459  27.467  1.00  0.00    -0.203 F 
ATOM     48  F   UNL A   1      39.297  24.736  27.418  1.00  0.00    -0.200 F 
ATOM     49  C   UNL A   1      40.705  26.286  26.330  1.00  0.00     0.200 A 
ATOM     50  F   UNL A   1      42.124  27.860  25.288  1.00  0.00    -0.200 F 
ATOM     51  F   UNL A   1      40.787  25.483  25.260  1.00  0.00    -0.200 F 
ENDBRANCH  27  41
BRANCH  28  52
ATOM     52  C   UNL A   1      39.493  33.939  36.537  1.00  0.00     0.064 A 
ATOM     53  C   UNL A   1      38.707  33.490  37.604  1.00  0.00     0.173 A 
ATOM     54  C   UNL A   1      40.133  35.180  36.670  1.00  0.00     0.173 A 
ATOM     55  F   UNL A   1      38.067  32.315  37.516  1.00  0.00    -0.203 F 
ATOM     56  C   UNL A   1      38.572  34.249  38.764  1.00  0.00     0.198 A 
ATOM     57  C   UNL A   1      40.019  35.926  37.841  1.00  0.00     0.198 A 
ATOM     58  F   UNL A   1      40.908  35.647  35.680  1.00  0.00    -0.203 F 
ATOM     59  F   UNL A   1      37.804  33.804  39.768  1.00  0.00    -0.200 F 
ATOM     60  C   UNL A   1      39.238  35.460  38.887  1.00  0.00     0.200 A 
ATOM     61  F   UNL A   1      40.683  37.084  37.963  1.00  0.00    -0.200 F 
ATOM     62  F   UNL A   1      39.130  36.175  40.014  1.00  0.00    -0.200 F 
ENDBRANCH  28  52
BRANCH  40  63
ATOM     63  C   UNL A   1      43.816  28.675  34.985  1.00  0.00     0.064 A 
ATOM     64  C   UNL A   1      45.128  29.165  34.929  1.00  0.00     0.173 A 
ATOM     65  C   UNL A   1      43.555  27.578  35.819  1.00  0.00     0.173 A 
ATOM     66  F   UNL A   1      45.429  30.202  34.132  1.00  0.00    -0.203 F 
ATOM     67  C   UNL A   1      46.142  28.575  35.679  1.00  0.00     0.198 A 
ATOM     68  C   UNL A   1      44.566  27.005  36.584  1.00  0.00     0.198 A 
ATOM     69  F   UNL A   1      42.314  27.075  35.906  1.00  0.00    -0.203 F 
ATOM     70  F   UNL A   1      47.396  29.039  35.590  1.00  0.00    -0.200 F 
ATOM     71  C   UNL A   1      45.858  27.502  36.511  1.00  0.00     0.200 A 
ATOM     72  F   UNL A   1      44.288  25.975  37.396  1.00  0.00    -0.200 F 
ATOM     73  F   UNL A   1      46.833  26.943  37.242  1.00  0.00    -0.200 F 
ENDBRANCH  40  63
ENDBRANCH  14  15
ENDBRANCH   7   9
ENDBRANCH   4   5
ENDBRANCH   3   4
ENDBRANCH   2   3
ENDBRANCH   1   2
BRANCH   1  74
ATOM     74  C   UNL A   1      33.756  29.124  26.900  1.00  0.00     0.021 C 
BRANCH  74  75
ATOM     75  C   UNL A   1      33.733  27.642  26.513  1.00  0.00     0.116 C 
BRANCH  75  76
ATOM     76  N   UNL A   1      32.452  27.007  26.775  1.00  0.00    -0.356 N 
ATOM     77  C   UNL A   1      31.512  26.536  25.904  1.00  0.00     0.223 C 
ATOM     78  H   UNL A   1      32.228  26.900  27.727  1.00  0.00     0.163 HD
ATOM     79  O   UNL A   1      30.536  25.944  26.362  1.00  0.00    -0.275 OA
BRANCH  77  80
ATOM     80  C   UNL A   1      31.714  26.731  24.415  1.00  0.00     0.091 C 
ATOM     81  C   UNL A   1      30.495  27.355  23.735  1.00  0.00     0.014 C 
ATOM     82  C   UNL A   1      32.218  25.483  23.672  1.00  0.00     0.091 C 
ATOM     83  C   UNL A   1      30.877  27.825  22.335  1.00  0.00     0.001 C 
ATOM     84  C   UNL A   1      32.633  25.942  22.248  1.00  0.00     0.014 C 
ATOM     85  C   UNL A   1      31.543  26.731  21.500  1.00  0.00     0.001 C 
BRANCH  82  86
ATOM     86  C   UNL A   1      31.239  24.295  23.502  1.00  0.00     0.228 C 
ATOM     87  O   UNL A   1      30.017  24.430  23.517  1.00  0.00    -0.274 OA
ATOM     88  N   UNL A   1      31.759  23.116  23.018  1.00  0.00    -0.326 N 
ATOM     89  H   UNL A   1      31.375  22.791  22.171  1.00  0.00     0.169 HD
BRANCH  88  90
ATOM     90  C   UNL A   1      32.768  22.318  23.582  1.00  0.00     0.042 A 
ATOM     91  C   UNL A   1      32.486  20.983  23.878  1.00  0.00     0.039 A 
ATOM     92  C   UNL A   1      33.979  22.864  23.999  1.00  0.00     0.039 A 
ATOM     93  C   UNL A   1      33.444  20.171  24.515  1.00  0.00     0.058 A 
ATOM     94  C   UNL A   1      34.949  22.086  24.650  1.00  0.00     0.058 A 
ATOM     95  C   UNL A   1      34.676  20.733  24.889  1.00  0.00     0.026 A 
BRANCH  93  96
ATOM     96  C   UNL A   1      33.136  18.732  24.857  1.00  0.00     0.416 C 
ATOM     97  F   UNL A   1      32.117  18.232  24.108  1.00  0.00    -0.166 F 
ATOM     98  F   UNL A   1      34.193  17.897  24.664  1.00  0.00    -0.166 F 
ATOM     99  F   UNL A   1      32.765  18.569  26.157  1.00  0.00    -0.166 F 
ENDBRANCH  93  96
BRANCH  94 100
ATOM    100  C   UNL A   1      36.233  22.728  25.122  1.00  0.00     0.416 C 
ATOM    101  F   UNL A   1      37.067  23.064  24.100  1.00  0.00    -0.166 F 
ATOM    102  F   UNL A   1      36.017  23.886  25.808  1.00  0.00    -0.166 F 
ATOM    103  F   UNL A   1      36.951  21.924  25.948  1.00  0.00    -0.166 F 
ENDBRANCH  94 100
ENDBRANCH  88  90
ENDBRANCH  82  86
ENDBRANCH  77  80
ENDBRANCH  75  76
ENDBRANCH  74  75
ENDBRANCH   1  74
TORSDOF 17
ENDMDL
MODEL 3
REMARK VINA RESULT:     -12.7      5.366     10.772
REMARK SMILES O=C(NCCCCCCNC(=O)[C@@H]1CCCC[C@@H]1C(=O)Nc1cc(C(F)(F)F)cc(C(F)(F)F)c1)c1ccc(-c2c3nc(c(-c4c(F)c(F)c(F)c(F)c4F)c4ccc([nH]4)c(-c4c(F)c(F)c(F)c(F)c4F)c4nc(c(-c5c(F)c(F)c(F)c(F)c5F)c5ccc2[nH]5)C=C4)C=C3)cc1
REMARK SMILES IDX 7 1 6 2 5 3 4 4 3 5 1 6 2 7 36 9 37 10 98 11 38 12 97 13
REMARK SMILES IDX 39 14 40 15 41 16 91 17 42 18 96 19 90 20 92 21 43 22 95 23
REMARK SMILES IDX 89 24 88 25 44 27 76 28 56 29 75 30 57 31 60 32 74 33 93 34
REMARK SMILES IDX 58 35 59 36 73 38 94 39 61 40 45 41 46 42 54 43 47 44 48 45
REMARK SMILES IDX 52 46 55 47 49 48 50 49 53 50 51 51 77 52 78 53 86 54 79 55
REMARK SMILES IDX 80 56 84 57 87 58 81 59 82 60 85 61 83 62 62 63 63 64 71 65
REMARK SMILES IDX 64 66 65 67 69 68 72 69 66 70 67 71 70 72 68 73 8 74 9 75
REMARK SMILES IDX 10 76 11 77 12 79 13 80 14 81 18 82 15 83 17 84 16 85 19 86
REMARK SMILES IDX 20 87 21 88 22 90 23 91 35 92 24 93 30 94 29 95 25 96 26 97
REMARK SMILES IDX 27 98 28 99 31 100 32 101 33 102 34 103
REMARK H PARENT 3 8 92 26 60 37 10 78 21 89
REMARK Flexibility Score: inf
ROOT
ATOM      1  C   UNL A   1      32.468  29.553  27.134  1.00  0.00     0.002 C 
ENDROOT
BRANCH   1   2
ATOM      2  C   UNL A   1      31.763  30.465  26.126  1.00  0.00     0.002 C 
BRANCH   2   3
ATOM      3  C   UNL A   1      31.470  31.881  26.618  1.00  0.00     0.021 C 
BRANCH   3   4
ATOM      4  C   UNL A   1      32.655  32.598  27.251  1.00  0.00     0.116 C 
BRANCH   4   5
ATOM      5  N   UNL A   1      32.366  33.974  27.624  1.00  0.00    -0.352 N 
ATOM      6  O   UNL A   1      32.604  35.868  28.846  1.00  0.00    -0.269 OA
ATOM      7  C   UNL A   1      33.015  34.750  28.555  1.00  0.00     0.251 C 
ATOM      8  H   UNL A   1      31.614  34.401  27.154  1.00  0.00     0.163 HD
BRANCH   7   9
ATOM      9  C   UNL A   1      34.204  34.198  29.233  1.00  0.00     0.039 A 
ATOM     10  C   UNL A   1      35.486  34.524  28.782  1.00  0.00     0.014 A 
ATOM     11  C   UNL A   1      34.027  33.310  30.295  1.00  0.00     0.014 A 
ATOM     12  C   UNL A   1      36.589  33.864  29.309  1.00  0.00     0.010 A 
ATOM     13  C   UNL A   1      35.142  32.703  30.874  1.00  0.00     0.010 A 
ATOM     14  C   UNL A   1      36.427  32.957  30.367  1.00  0.00    -0.014 A 
BRANCH  14  15
ATOM     15  C   UNL A   1      37.614  32.322  30.984  1.00  0.00     0.031 A 
ATOM     16  C   UNL A   1      38.361  31.233  30.273  1.00  0.00     0.074 A 
ATOM     17  C   UNL A   1      37.991  32.720  32.212  1.00  0.00     0.049 A 
ATOM     18  N   UNL A   1      39.348  30.490  30.705  1.00  0.00    -0.248 NA
ATOM     19  C   UNL A   1      37.938  30.931  28.898  1.00  0.00     0.031 C 
ATOM     20  C   UNL A   1      37.333  33.772  32.990  1.00  0.00     0.029 A 
ATOM     21  N   UNL A   1      39.001  32.282  33.027  1.00  0.00    -0.354 N 
ATOM     22  C   UNL A   1      39.643  29.611  29.672  1.00  0.00     0.074 A 
ATOM     23  C   UNL A   1      38.723  29.907  28.592  1.00  0.00     0.031 C 
ATOM     24  C   UNL A   1      37.961  33.904  34.167  1.00  0.00     0.029 A 
ATOM     25  C   UNL A   1      39.015  32.900  34.253  1.00  0.00     0.049 A 
ATOM     26  H   UNL A   1      39.653  31.593  32.761  1.00  0.00     0.167 HD
ATOM     27  C   UNL A   1      40.594  28.647  29.636  1.00  0.00     0.037 A 
ATOM     28  C   UNL A   1      39.762  32.656  35.344  1.00  0.00     0.037 A 
ATOM     29  C   UNL A   1      41.508  28.378  30.716  1.00  0.00     0.049 A 
ATOM     30  C   UNL A   1      40.791  31.567  35.292  1.00  0.00     0.074 A 
ATOM     31  C   UNL A   1      42.539  27.455  30.767  1.00  0.00     0.029 A 
ATOM     32  N   UNL A   1      41.495  29.028  31.943  1.00  0.00    -0.354 N 
ATOM     33  N   UNL A   1      41.080  30.757  34.302  1.00  0.00    -0.248 NA
ATOM     34  C   UNL A   1      41.593  31.354  36.502  1.00  0.00     0.031 C 
ATOM     35  C   UNL A   1      43.115  27.514  32.041  1.00  0.00     0.029 A 
ATOM     36  C   UNL A   1      42.481  28.510  32.766  1.00  0.00     0.049 A 
ATOM     37  H   UNL A   1      40.875  29.752  32.192  1.00  0.00     0.167 HD
ATOM     38  C   UNL A   1      42.108  29.947  34.761  1.00  0.00     0.074 A 
ATOM     39  C   UNL A   1      42.398  30.371  36.117  1.00  0.00     0.031 C 
ATOM     40  C   UNL A   1      42.754  28.948  34.113  1.00  0.00     0.037 A 
BRANCH  27  41
ATOM     41  C   UNL A   1      40.667  27.787  28.407  1.00  0.00     0.064 A 
ATOM     42  C   UNL A   1      41.422  28.158  27.284  1.00  0.00     0.173 A 
ATOM     43  C   UNL A   1      39.984  26.561  28.360  1.00  0.00     0.173 A 
ATOM     44  F   UNL A   1      42.085  29.323  27.271  1.00  0.00    -0.203 F 
ATOM     45  C   UNL A   1      41.462  27.350  26.149  1.00  0.00     0.198 A 
ATOM     46  C   UNL A   1      40.050  25.743  27.235  1.00  0.00     0.198 A 
ATOM     47  F   UNL A   1      39.253  26.153  29.408  1.00  0.00    -0.203 F 
ATOM     48  F   UNL A   1      42.147  27.751  25.068  1.00  0.00    -0.200 F 
ATOM     49  C   UNL A   1      40.781  26.143  26.126  1.00  0.00     0.200 A 
ATOM     50  F   UNL A   1      39.400  24.571  27.220  1.00  0.00    -0.200 F 
ATOM     51  F   UNL A   1      40.820  25.368  25.033  1.00  0.00    -0.200 F 
ENDBRANCH  27  41
BRANCH  28  52
ATOM     52  C   UNL A   1      39.526  33.460  36.568  1.00  0.00     0.064 A 
ATOM     53  C   UNL A   1      40.110  34.722  36.726  1.00  0.00     0.173 A 
ATOM     54  C   UNL A   1      38.641  33.018  37.563  1.00  0.00     0.173 A 
ATOM     55  F   UNL A   1      40.971  35.182  35.806  1.00  0.00    -0.203 F 
ATOM     56  C   UNL A   1      39.813  35.517  37.832  1.00  0.00     0.198 A 
ATOM     57  C   UNL A   1      38.324  33.824  38.654  1.00  0.00     0.198 A 
ATOM     58  F   UNL A   1      38.046  31.821  37.449  1.00  0.00    -0.203 F 
ATOM     59  F   UNL A   1      40.393  36.717  37.967  1.00  0.00    -0.200 F 
ATOM     60  C   UNL A   1      38.911  35.072  38.787  1.00  0.00     0.200 A 
ATOM     61  F   UNL A   1      37.435  33.398  39.562  1.00  0.00    -0.200 F 
ATOM     62  F   UNL A   1      38.605  35.848  39.835  1.00  0.00    -0.200 F 
ENDBRANCH  28  52
BRANCH  40  63
ATOM     63  C   UNL A   1      43.865  28.262  34.849  1.00  0.00     0.064 A 
ATOM     64  C   UNL A   1      43.651  27.070  35.556  1.00  0.00     0.173 A 
ATOM     65  C   UNL A   1      45.171  28.771  34.793  1.00  0.00     0.173 A 
ATOM     66  F   UNL A   1      42.416  26.554  35.651  1.00  0.00    -0.203 F 
ATOM     67  C   UNL A   1      44.706  26.416  36.187  1.00  0.00     0.198 A 
ATOM     68  C   UNL A   1      46.226  28.103  35.405  1.00  0.00     0.198 A 
ATOM     69  F   UNL A   1      45.424  29.909  34.126  1.00  0.00    -0.203 F 
ATOM     70  F   UNL A   1      44.476  25.294  36.882  1.00  0.00    -0.200 F 
ATOM     71  C   UNL A   1      45.992  26.928  36.103  1.00  0.00     0.200 A 
ATOM     72  F   UNL A   1      47.471  28.593  35.314  1.00  0.00    -0.200 F 
ATOM     73  F   UNL A   1      47.009  26.290  36.699  1.00  0.00    -0.200 F 
ENDBRANCH  40  63
ENDBRANCH  14  15
ENDBRANCH   7   9
ENDBRANCH   4   5
ENDBRANCH   3   4
ENDBRANCH   2   3
ENDBRANCH   1   2
BRANCH   1  74
ATOM     74  C   UNL A   1      31.757  28.228  27.436  1.00  0.00     0.021 C 
BRANCH  74  75
ATOM     75  C   UNL A   1      32.462  26.965  26.932  1.00  0.00     0.116 C 
BRANCH  75  76
ATOM     76  N   UNL A   1      31.537  25.955  26.445  1.00  0.00    -0.356 N 
ATOM     77  C   UNL A   1      30.775  25.935  25.312  1.00  0.00     0.223 C 
ATOM     78  H   UNL A   1      31.446  25.163  27.022  1.00  0.00     0.163 HD
ATOM     79  O   UNL A   1      30.131  24.918  25.059  1.00  0.00    -0.275 OA
BRANCH  77  80
ATOM     80  C   UNL A   1      30.770  27.144  24.399  1.00  0.00     0.091 C 
ATOM     81  C   UNL A   1      29.443  27.313  23.657  1.00  0.00     0.014 C 
ATOM     82  C   UNL A   1      31.979  27.233  23.453  1.00  0.00     0.091 C 
ATOM     83  C   UNL A   1      29.384  28.701  23.028  1.00  0.00     0.001 C 
ATOM     84  C   UNL A   1      31.950  28.649  22.816  1.00  0.00     0.014 C 
ATOM     85  C   UNL A   1      30.605  29.017  22.165  1.00  0.00     0.001 C 
BRANCH  82  86
ATOM     86  C   UNL A   1      32.070  26.212  22.294  1.00  0.00     0.228 C 
ATOM     87  O   UNL A   1      31.404  26.310  21.264  1.00  0.00    -0.274 OA
ATOM     88  N   UNL A   1      33.145  25.352  22.296  1.00  0.00    -0.326 N 
ATOM     89  H   UNL A   1      33.742  25.407  21.514  1.00  0.00     0.169 HD
BRANCH  88  90
ATOM     90  C   UNL A   1      33.497  24.407  23.273  1.00  0.00     0.042 A 
ATOM     91  C   UNL A   1      34.767  24.473  23.850  1.00  0.00     0.039 A 
ATOM     92  C   UNL A   1      32.678  23.318  23.560  1.00  0.00     0.039 A 
ATOM     93  C   UNL A   1      35.186  23.500  24.775  1.00  0.00     0.058 A 
ATOM     94  C   UNL A   1      33.073  22.322  24.467  1.00  0.00     0.058 A 
ATOM     95  C   UNL A   1      34.326  22.432  25.082  1.00  0.00     0.026 A 
BRANCH  93  96
ATOM     96  C   UNL A   1      36.568  23.554  25.386  1.00  0.00     0.416 C 
ATOM     97  F   UNL A   1      36.932  22.368  25.941  1.00  0.00    -0.166 F 
ATOM     98  F   UNL A   1      37.540  23.866  24.486  1.00  0.00    -0.166 F 
ATOM     99  F   UNL A   1      36.667  24.482  26.378  1.00  0.00    -0.166 F 
ENDBRANCH  93  96
BRANCH  94 100
ATOM    100  C   UNL A   1      32.171  21.136  24.718  1.00  0.00     0.416 C 
ATOM    101  F   UNL A   1      31.783  20.510  23.573  1.00  0.00    -0.166 F 
ATOM    102  F   UNL A   1      32.773  20.172  25.470  1.00  0.00    -0.166 F 
ATOM    103  F   UNL A   1      31.029  21.472  25.372  1.00  0.00    -0.166 F 
ENDBRANCH  94 100
ENDBRANCH  88  90
ENDBRANCH  82  86
ENDBRANCH  77  80
ENDBRANCH  75  76
ENDBRANCH  74  75
ENDBRANCH   1  74
TORSDOF 17
ENDMDL
