MODEL 1
REMARK VINA RESULT:     -13.5      0.000      0.000
REMARK SMILES CS(=O)(=O)c1ccc(/C=C(/C(=O)NCCCCCCNC(=O)c2ccc(-c3c4nc(c(-c5c(F)c(F)c(F)c(F)c5F)c5ccc([nH]5)c(-c5c(F)c(F)c(F)c(F)c5F)c5nc(c(-c6c(F)c(F)c(F)c(F)c6F)c6ccc3[nH]6)C=C5)C=C4)cc2)c2ccc(-c3ccc(F)cc3F)cc2)cc1
REMARK SMILES IDX 16 1 15 2 14 3 13 4 11 5 12 6 10 8 9 9 8 10 5 11 6 12 101 13
REMARK SMILES IDX 7 14 100 15 2 16 1 17 3 18 4 19 86 20 87 21 99 22 88 23
REMARK SMILES IDX 98 24 89 25 90 26 91 27 96 28 92 29 95 30 97 31 93 32 94 33
REMARK SMILES IDX 17 34 18 35 19 36 20 37 21 38 22 40 23 41 24 42 85 43 25 44
REMARK SMILES IDX 84 45 26 46 27 47 28 48 78 49 29 50 83 51 77 52 79 53 30 54
REMARK SMILES IDX 82 55 76 56 75 57 31 59 63 60 43 61 62 62 44 63 47 64 61 65
REMARK SMILES IDX 80 66 45 67 46 68 60 70 81 71 48 72 32 73 33 74 41 75 34 76
REMARK SMILES IDX 35 77 39 78 42 79 36 80 37 81 40 82 38 83 64 84 65 85 73 86
REMARK SMILES IDX 66 87 67 88 71 89 74 90 68 91 69 92 72 93 70 94 49 95 50 96
REMARK SMILES IDX 58 97 51 98 52 99 56 100 59 101 53 102 54 103 57 104 55 105
REMARK H PARENT 13 7 20 39 79 58 47 69
REMARK Flexibility Score: inf
ROOT
ATOM      1  C   UNL A   1      31.040  26.786  26.125  1.00  0.00     0.002 C 
ENDROOT
BRANCH   1   2
ATOM      2  C   UNL A   1      30.980  25.321  25.661  1.00  0.00     0.021 C 
BRANCH   2   3
ATOM      3  C   UNL A   1      30.219  25.125  24.345  1.00  0.00     0.116 C 
BRANCH   3   4
ATOM      4  N   UNL A   1      31.081  25.457  23.229  1.00  0.00    -0.352 N 
ATOM      5  C   UNL A   1      32.219  24.925  22.717  1.00  0.00     0.251 C 
ATOM      6  O   UNL A   1      32.737  25.560  21.795  1.00  0.00    -0.269 OA
ATOM      7  H   UNL A   1      30.771  26.248  22.731  1.00  0.00     0.163 HD
BRANCH   5   8
ATOM      8  C   UNL A   1      32.803  23.600  23.151  1.00  0.00     0.047 C 
ATOM      9  C   UNL A   1      32.076  22.461  23.224  1.00  0.00     0.022 C 
BRANCH   9  10
ATOM     10  C   UNL A   1      32.527  21.082  23.529  1.00  0.00    -0.025 A 
ATOM     11  C   UNL A   1      33.401  18.437  23.903  1.00  0.00     0.067 A 
ATOM     12  C   UNL A   1      33.762  19.425  24.821  1.00  0.00     0.021 A 
ATOM     13  C   UNL A   1      32.563  18.742  22.831  1.00  0.00     0.021 A 
ATOM     14  C   UNL A   1      33.309  20.737  24.639  1.00  0.00     0.009 A 
ATOM     15  C   UNL A   1      32.134  20.061  22.647  1.00  0.00     0.009 A 
BRANCH  11  16
ATOM     16  S   UNL A   1      33.982  16.775  24.137  1.00  0.00     0.175 S 
ATOM     17  C   UNL A   1      32.680  15.991  25.053  1.00  0.00     0.163 C 
ATOM     18  O   UNL A   1      35.149  16.829  24.989  1.00  0.00    -0.224 OA
ATOM     19  O   UNL A   1      34.045  16.160  22.820  1.00  0.00    -0.224 OA
ENDBRANCH  11  16
ENDBRANCH   9  10
BRANCH   8  20
ATOM     20  C   UNL A   1      34.179  23.635  23.706  1.00  0.00    -0.013 A 
ATOM     21  C   UNL A   1      34.339  24.059  25.033  1.00  0.00     0.009 A 
ATOM     22  C   UNL A   1      35.295  23.163  23.010  1.00  0.00     0.009 A 
ATOM     23  C   UNL A   1      35.567  23.935  25.677  1.00  0.00     0.009 A 
ATOM     24  C   UNL A   1      36.526  23.024  23.669  1.00  0.00     0.009 A 
ATOM     25  C   UNL A   1      36.672  23.366  25.026  1.00  0.00    -0.015 A 
BRANCH  25  26
ATOM     26  C   UNL A   1      37.907  23.080  25.780  1.00  0.00     0.018 A 
ATOM     27  C   UNL A   1      38.507  24.095  26.558  1.00  0.00     0.015 A 
ATOM     28  C   UNL A   1      38.527  21.820  25.777  1.00  0.00     0.133 A 
ATOM     29  C   UNL A   1      39.675  23.857  27.284  1.00  0.00     0.040 A 
ATOM     30  C   UNL A   1      39.692  21.574  26.501  1.00  0.00     0.079 A 
ATOM     31  F   UNL A   1      38.007  20.811  25.062  1.00  0.00    -0.206 F 
ATOM     32  C   UNL A   1      40.255  22.597  27.248  1.00  0.00     0.126 A 
ATOM     33  F   UNL A   1      41.374  22.369  27.946  1.00  0.00    -0.207 F 
ENDBRANCH  25  26
ENDBRANCH   8  20
ENDBRANCH   5   8
ENDBRANCH   3   4
ENDBRANCH   2   3
ENDBRANCH   1   2
BRANCH   1  34
ATOM     34  C   UNL A   1      32.452  27.339  26.356  1.00  0.00     0.002 C 
BRANCH  34  35
ATOM     35  C   UNL A   1      33.245  27.636  25.081  1.00  0.00     0.021 C 
BRANCH  35  36
ATOM     36  C   UNL A   1      34.047  28.933  25.123  1.00  0.00     0.116 C 
BRANCH  36  37
ATOM     37  N   UNL A   1      33.276  30.032  25.679  1.00  0.00    -0.352 N 
ATOM     38  C   UNL A   1      33.499  30.751  26.826  1.00  0.00     0.251 C 
ATOM     39  H   UNL A   1      32.483  30.299  25.161  1.00  0.00     0.163 HD
ATOM     40  O   UNL A   1      32.645  31.521  27.254  1.00  0.00    -0.269 OA
BRANCH  38  41
ATOM     41  C   UNL A   1      34.770  30.584  27.564  1.00  0.00     0.039 A 
ATOM     42  C   UNL A   1      35.639  31.673  27.669  1.00  0.00     0.014 A 
ATOM     43  C   UNL A   1      35.112  29.353  28.131  1.00  0.00     0.014 A 
ATOM     44  C   UNL A   1      36.830  31.542  28.386  1.00  0.00     0.010 A 
ATOM     45  C   UNL A   1      36.271  29.239  28.895  1.00  0.00     0.010 A 
ATOM     46  C   UNL A   1      37.144  30.332  29.024  1.00  0.00    -0.014 A 
BRANCH  46  47
ATOM     47  C   UNL A   1      38.389  30.183  29.817  1.00  0.00     0.031 A 
ATOM     48  C   UNL A   1      39.553  29.419  29.255  1.00  0.00     0.074 A 
ATOM     49  C   UNL A   1      38.447  30.683  31.067  1.00  0.00     0.049 A 
ATOM     50  N   UNL A   1      40.697  29.119  29.817  1.00  0.00    -0.248 NA
ATOM     51  C   UNL A   1      39.401  28.898  27.887  1.00  0.00     0.031 C 
ATOM     52  C   UNL A   1      37.366  31.405  31.739  1.00  0.00     0.029 A 
ATOM     53  N   UNL A   1      39.455  30.649  31.997  1.00  0.00    -0.354 N 
ATOM     54  C   UNL A   1      41.390  28.363  28.882  1.00  0.00     0.074 A 
ATOM     55  C   UNL A   1      40.523  28.210  27.733  1.00  0.00     0.031 C 
ATOM     56  C   UNL A   1      37.774  31.758  32.969  1.00  0.00     0.029 A 
ATOM     57  C   UNL A   1      39.132  31.265  33.181  1.00  0.00     0.049 A 
ATOM     58  H   UNL A   1      40.327  30.223  31.832  1.00  0.00     0.167 HD
ATOM     59  C   UNL A   1      42.645  27.860  28.966  1.00  0.00     0.037 A 
ATOM     60  C   UNL A   1      39.849  31.411  34.310  1.00  0.00     0.037 A 
ATOM     61  C   UNL A   1      43.518  28.042  30.095  1.00  0.00     0.049 A 
ATOM     62  C   UNL A   1      41.246  30.855  34.371  1.00  0.00     0.074 A 
ATOM     63  C   UNL A   1      44.829  27.627  30.249  1.00  0.00     0.029 A 
ATOM     64  N   UNL A   1      43.165  28.698  31.265  1.00  0.00    -0.354 N 
ATOM     65  N   UNL A   1      41.915  30.198  33.457  1.00  0.00    -0.248 NA
ATOM     66  C   UNL A   1      41.990  31.071  35.620  1.00  0.00     0.031 C 
ATOM     67  C   UNL A   1      45.260  28.002  31.526  1.00  0.00     0.029 A 
ATOM     68  C   UNL A   1      44.230  28.686  32.152  1.00  0.00     0.049 A 
ATOM     69  H   UNL A   1      42.289  29.112  31.439  1.00  0.00     0.167 HD
ATOM     70  C   UNL A   1      43.164  29.942  34.006  1.00  0.00     0.074 A 
ATOM     71  C   UNL A   1      43.165  30.528  35.331  1.00  0.00     0.031 C 
ATOM     72  C   UNL A   1      44.215  29.283  33.462  1.00  0.00     0.037 A 
BRANCH  59  73
ATOM     73  C   UNL A   1      43.151  27.065  27.797  1.00  0.00     0.064 A 
ATOM     74  C   UNL A   1      43.824  27.679  26.730  1.00  0.00     0.173 A 
ATOM     75  C   UNL A   1      42.992  25.673  27.760  1.00  0.00     0.173 A 
ATOM     76  F   UNL A   1      43.990  29.010  26.713  1.00  0.00    -0.203 F 
ATOM     77  C   UNL A   1      44.294  26.930  25.654  1.00  0.00     0.198 A 
ATOM     78  C   UNL A   1      43.488  24.923  26.697  1.00  0.00     0.198 A 
ATOM     79  F   UNL A   1      42.360  25.036  28.759  1.00  0.00    -0.203 F 
ATOM     80  F   UNL A   1      44.893  27.544  24.624  1.00  0.00    -0.200 F 
ATOM     81  C   UNL A   1      44.132  25.553  25.642  1.00  0.00     0.200 A 
ATOM     82  F   UNL A   1      43.340  23.591  26.690  1.00  0.00    -0.200 F 
ATOM     83  F   UNL A   1      44.590  24.832  24.609  1.00  0.00    -0.200 F 
ENDBRANCH  59  73
BRANCH  60  84
ATOM     84  C   UNL A   1      39.270  32.141  35.465  1.00  0.00     0.064 A 
ATOM     85  C   UNL A   1      39.524  33.507  35.650  1.00  0.00     0.173 A 
ATOM     86  C   UNL A   1      38.452  31.495  36.403  1.00  0.00     0.173 A 
ATOM     87  F   UNL A   1      40.316  34.163  34.789  1.00  0.00    -0.203 F 
ATOM     88  C   UNL A   1      38.994  34.196  36.738  1.00  0.00     0.198 A 
ATOM     89  C   UNL A   1      37.903  32.191  37.479  1.00  0.00     0.198 A 
ATOM     90  F   UNL A   1      38.175  30.190  36.267  1.00  0.00    -0.203 F 
ATOM     91  F   UNL A   1      39.284  35.494  36.913  1.00  0.00    -0.200 F 
ATOM     92  C   UNL A   1      38.180  33.539  37.649  1.00  0.00     0.200 A 
ATOM     93  F   UNL A   1      37.107  31.556  38.349  1.00  0.00    -0.200 F 
ATOM     94  F   UNL A   1      37.668  34.203  38.694  1.00  0.00    -0.200 F 
ENDBRANCH  60  84
BRANCH  72  95
ATOM     95  C   UNL A   1      45.464  29.186  34.286  1.00  0.00     0.064 A 
ATOM     96  C   UNL A   1      45.704  28.092  35.130  1.00  0.00     0.173 A 
ATOM     97  C   UNL A   1      46.451  30.179  34.197  1.00  0.00     0.173 A 
ATOM     98  F   UNL A   1      44.782  27.126  35.260  1.00  0.00    -0.203 F 
ATOM     99  C   UNL A   1      46.879  28.006  35.870  1.00  0.00     0.198 A 
ATOM    100  C   UNL A   1      47.636  30.077  34.919  1.00  0.00     0.198 A 
ATOM    101  F   UNL A   1      46.270  31.243  33.399  1.00  0.00    -0.203 F 
ATOM    102  F   UNL A   1      47.071  26.971  36.701  1.00  0.00    -0.200 F 
ATOM    103  C   UNL A   1      47.847  28.993  35.759  1.00  0.00     0.200 A 
ATOM    104  F   UNL A   1      48.574  31.027  34.804  1.00  0.00    -0.200 F 
ATOM    105  F   UNL A   1      48.980  28.906  36.469  1.00  0.00    -0.200 F 
ENDBRANCH  72  95
ENDBRANCH  46  47
ENDBRANCH  38  41
ENDBRANCH  36  37
ENDBRANCH  35  36
ENDBRANCH  34  35
ENDBRANCH   1  34
TORSDOF 17
ENDMDL
MODEL 2
REMARK VINA RESULT:     -13.2      0.586      6.965
REMARK SMILES CS(=O)(=O)c1ccc(/C=C(/C(=O)NCCCCCCNC(=O)c2ccc(-c3c4nc(c(-c5c(F)c(F)c(F)c(F)c5F)c5ccc([nH]5)c(-c5c(F)c(F)c(F)c(F)c5F)c5nc(c(-c6c(F)c(F)c(F)c(F)c6F)c6ccc3[nH]6)C=C5)C=C4)cc2)c2ccc(-c3ccc(F)cc3F)cc2)cc1
REMARK SMILES IDX 16 1 15 2 14 3 13 4 11 5 12 6 10 8 9 9 8 10 5 11 6 12 101 13
REMARK SMILES IDX 7 14 100 15 2 16 1 17 3 18 4 19 86 20 87 21 99 22 88 23
REMARK SMILES IDX 98 24 89 25 90 26 91 27 96 28 92 29 95 30 97 31 93 32 94 33
REMARK SMILES IDX 17 34 18 35 19 36 20 37 21 38 22 40 23 41 24 42 85 43 25 44
REMARK SMILES IDX 84 45 26 46 27 47 28 48 78 49 29 50 83 51 77 52 79 53 30 54
REMARK SMILES IDX 82 55 76 56 75 57 31 59 63 60 43 61 62 62 44 63 47 64 61 65
REMARK SMILES IDX 80 66 45 67 46 68 60 70 81 71 48 72 32 73 33 74 41 75 34 76
REMARK SMILES IDX 35 77 39 78 42 79 36 80 37 81 40 82 38 83 64 84 65 85 73 86
REMARK SMILES IDX 66 87 67 88 71 89 74 90 68 91 69 92 72 93 70 94 49 95 50 96
REMARK SMILES IDX 58 97 51 98 52 99 56 100 59 101 53 102 54 103 57 104 55 105
REMARK H PARENT 13 7 20 39 79 58 47 69
REMARK Flexibility Score: inf
ROOT
ATOM      1  C   UNL A   1      30.409  27.830  23.921  1.00  0.00     0.002 C 
ENDROOT
BRANCH   1   2
ATOM      2  C   UNL A   1      29.681  26.566  24.407  1.00  0.00     0.021 C 
BRANCH   2   3
ATOM      3  C   UNL A   1      30.317  25.263  23.912  1.00  0.00     0.116 C 
BRANCH   3   4
ATOM      4  N   UNL A   1      31.272  25.553  22.863  1.00  0.00    -0.352 N 
ATOM      5  C   UNL A   1      32.440  24.992  22.459  1.00  0.00     0.251 C 
ATOM      6  O   UNL A   1      33.041  25.595  21.567  1.00  0.00    -0.269 OA
ATOM      7  H   UNL A   1      31.018  26.335  22.321  1.00  0.00     0.163 HD
BRANCH   5   8
ATOM      8  C   UNL A   1      32.964  23.670  22.971  1.00  0.00     0.047 C 
ATOM      9  C   UNL A   1      32.195  22.560  23.076  1.00  0.00     0.022 C 
BRANCH   9  10
ATOM     10  C   UNL A   1      32.588  21.182  23.457  1.00  0.00    -0.025 A 
ATOM     11  C   UNL A   1      33.366  18.534  23.980  1.00  0.00     0.067 A 
ATOM     12  C   UNL A   1      33.687  19.545  24.888  1.00  0.00     0.021 A 
ATOM     13  C   UNL A   1      32.613  18.819  22.842  1.00  0.00     0.021 A 
ATOM     14  C   UNL A   1      33.281  20.859  24.631  1.00  0.00     0.009 A 
ATOM     15  C   UNL A   1      32.231  20.141  22.585  1.00  0.00     0.009 A 
BRANCH  11  16
ATOM     16  S   UNL A   1      33.886  16.867  24.311  1.00  0.00     0.175 S 
ATOM     17  C   UNL A   1      32.647  16.243  25.418  1.00  0.00     0.163 C 
ATOM     18  O   UNL A   1      35.135  16.929  25.038  1.00  0.00    -0.224 OA
ATOM     19  O   UNL A   1      33.785  16.137  23.057  1.00  0.00    -0.224 OA
ENDBRANCH  11  16
ENDBRANCH   9  10
BRANCH   8  20
ATOM     20  C   UNL A   1      34.323  23.684  23.566  1.00  0.00    -0.013 A 
ATOM     21  C   UNL A   1      34.462  24.177  24.871  1.00  0.00     0.009 A 
ATOM     22  C   UNL A   1      35.439  23.131  22.933  1.00  0.00     0.009 A 
ATOM     23  C   UNL A   1      35.665  24.044  25.560  1.00  0.00     0.009 A 
ATOM     24  C   UNL A   1      36.644  22.984  23.636  1.00  0.00     0.009 A 
ATOM     25  C   UNL A   1      36.764  23.397  24.976  1.00  0.00    -0.015 A 
BRANCH  25  26
ATOM     26  C   UNL A   1      37.965  23.108  25.782  1.00  0.00     0.018 A 
ATOM     27  C   UNL A   1      38.528  24.119  26.591  1.00  0.00     0.015 A 
ATOM     28  C   UNL A   1      38.585  21.849  25.802  1.00  0.00     0.133 A 
ATOM     29  C   UNL A   1      39.663  23.879  27.368  1.00  0.00     0.040 A 
ATOM     30  C   UNL A   1      39.717  21.600  26.575  1.00  0.00     0.079 A 
ATOM     31  F   UNL A   1      38.099  20.843  25.059  1.00  0.00    -0.206 F 
ATOM     32  C   UNL A   1      40.246  22.620  27.351  1.00  0.00     0.126 A 
ATOM     33  F   UNL A   1      41.333  22.389  28.097  1.00  0.00    -0.207 F 
ENDBRANCH  25  26
ENDBRANCH   8  20
ENDBRANCH   5   8
ENDBRANCH   3   4
ENDBRANCH   2   3
ENDBRANCH   1   2
BRANCH   1  34
ATOM     34  C   UNL A   1      31.231  28.561  24.989  1.00  0.00     0.002 C 
BRANCH  34  35
ATOM     35  C   UNL A   1      32.656  28.035  25.180  1.00  0.00     0.021 C 
BRANCH  35  36
ATOM     36  C   UNL A   1      33.710  29.120  25.377  1.00  0.00     0.116 C 
BRANCH  36  37
ATOM     37  N   UNL A   1      33.136  30.347  25.905  1.00  0.00    -0.352 N 
ATOM     38  C   UNL A   1      33.514  31.074  27.005  1.00  0.00     0.251 C 
ATOM     39  H   UNL A   1      32.370  30.707  25.403  1.00  0.00     0.163 HD
ATOM     40  O   UNL A   1      32.804  31.983  27.423  1.00  0.00    -0.269 OA
BRANCH  38  41
ATOM     41  C   UNL A   1      34.777  30.750  27.704  1.00  0.00     0.039 A 
ATOM     42  C   UNL A   1      35.804  31.697  27.716  1.00  0.00     0.014 A 
ATOM     43  C   UNL A   1      34.954  29.511  28.324  1.00  0.00     0.014 A 
ATOM     44  C   UNL A   1      36.993  31.420  28.395  1.00  0.00     0.010 A 
ATOM     45  C   UNL A   1      36.116  29.258  29.050  1.00  0.00     0.010 A 
ATOM     46  C   UNL A   1      37.148  30.208  29.086  1.00  0.00    -0.014 A 
BRANCH  46  47
ATOM     47  C   UNL A   1      38.391  29.910  29.840  1.00  0.00     0.031 A 
ATOM     48  C   UNL A   1      38.579  30.456  31.227  1.00  0.00     0.074 A 
ATOM     49  C   UNL A   1      39.374  29.201  29.253  1.00  0.00     0.049 A 
ATOM     50  N   UNL A   1      39.617  30.367  32.020  1.00  0.00    -0.248 NA
ATOM     51  C   UNL A   1      37.459  31.228  31.789  1.00  0.00     0.031 C 
ATOM     52  C   UNL A   1      39.328  28.657  27.895  1.00  0.00     0.029 A 
ATOM     53  N   UNL A   1      40.608  28.828  29.721  1.00  0.00    -0.354 N 
ATOM     54  C   UNL A   1      39.284  31.084  33.160  1.00  0.00     0.074 A 
ATOM     55  C   UNL A   1      37.966  31.640  32.942  1.00  0.00     0.031 C 
ATOM     56  C   UNL A   1      40.476  28.006  27.645  1.00  0.00     0.029 A 
ATOM     57  C   UNL A   1      41.347  28.111  28.812  1.00  0.00     0.049 A 
ATOM     58  H   UNL A   1      40.934  29.052  30.622  1.00  0.00     0.167 HD
ATOM     59  C   UNL A   1      40.004  31.246  34.296  1.00  0.00     0.037 A 
ATOM     60  C   UNL A   1      42.589  27.601  28.908  1.00  0.00     0.037 A 
ATOM     61  C   UNL A   1      41.300  30.664  34.524  1.00  0.00     0.049 A 
ATOM     62  C   UNL A   1      43.362  27.783  30.186  1.00  0.00     0.074 A 
ATOM     63  C   UNL A   1      42.082  30.716  35.665  1.00  0.00     0.029 A 
ATOM     64  N   UNL A   1      42.004  29.919  33.589  1.00  0.00    -0.354 N 
ATOM     65  N   UNL A   1      43.011  28.408  31.283  1.00  0.00    -0.248 NA
ATOM     66  C   UNL A   1      44.700  27.179  30.242  1.00  0.00     0.031 C 
ATOM     67  C   UNL A   1      43.275  30.030  35.410  1.00  0.00     0.029 A 
ATOM     68  C   UNL A   1      43.218  29.518  34.124  1.00  0.00     0.049 A 
ATOM     69  H   UNL A   1      41.688  29.706  32.683  1.00  0.00     0.167 HD
ATOM     70  C   UNL A   1      44.070  28.254  32.166  1.00  0.00     0.074 A 
ATOM     71  C   UNL A   1      45.072  27.464  31.483  1.00  0.00     0.031 C 
ATOM     72  C   UNL A   1      44.199  28.723  33.431  1.00  0.00     0.037 A 
BRANCH  59  73
ATOM     73  C   UNL A   1      39.401  32.085  35.384  1.00  0.00     0.064 A 
ATOM     74  C   UNL A   1      38.573  31.525  36.368  1.00  0.00     0.173 A 
ATOM     75  C   UNL A   1      39.681  33.457  35.463  1.00  0.00     0.173 A 
ATOM     76  F   UNL A   1      38.266  30.220  36.329  1.00  0.00    -0.203 F 
ATOM     77  C   UNL A   1      38.024  32.314  37.376  1.00  0.00     0.198 A 
ATOM     78  C   UNL A   1      39.153  34.238  36.488  1.00  0.00     0.198 A 
ATOM     79  F   UNL A   1      40.471  34.041  34.549  1.00  0.00    -0.203 F 
ATOM     80  F   UNL A   1      37.199  31.765  38.278  1.00  0.00    -0.200 F 
ATOM     81  C   UNL A   1      38.320  33.667  37.439  1.00  0.00     0.200 A 
ATOM     82  F   UNL A   1      39.447  35.544  36.555  1.00  0.00    -0.200 F 
ATOM     83  F   UNL A   1      37.795  34.424  38.413  1.00  0.00    -0.200 F 
ENDBRANCH  59  73
BRANCH  60  84
ATOM     84  C   UNL A   1      43.168  26.843  27.771  1.00  0.00     0.064 A 
ATOM     85  C   UNL A   1      43.115  25.443  27.742  1.00  0.00     0.173 A 
ATOM     86  C   UNL A   1      43.780  27.497  26.692  1.00  0.00     0.173 A 
ATOM     87  F   UNL A   1      42.557  24.774  28.761  1.00  0.00    -0.203 F 
ATOM     88  C   UNL A   1      43.667  24.724  26.685  1.00  0.00     0.198 A 
ATOM     89  C   UNL A   1      44.311  26.778  25.623  1.00  0.00     0.198 A 
ATOM     90  F   UNL A   1      43.850  28.836  26.670  1.00  0.00    -0.203 F 
ATOM     91  F   UNL A   1      43.638  23.383  26.701  1.00  0.00    -0.200 F 
ATOM     92  C   UNL A   1      44.260  25.392  25.624  1.00  0.00     0.200 A 
ATOM     93  F   UNL A   1      44.871  27.426  24.594  1.00  0.00    -0.200 F 
ATOM     94  F   UNL A   1      44.788  24.700  24.605  1.00  0.00    -0.200 F 
ENDBRANCH  60  84
BRANCH  72  95
ATOM     95  C   UNL A   1      45.456  28.370  34.168  1.00  0.00     0.064 A 
ATOM     96  C   UNL A   1      45.548  27.210  34.950  1.00  0.00     0.173 A 
ATOM     97  C   UNL A   1      46.595  29.182  34.057  1.00  0.00     0.173 A 
ATOM     98  F   UNL A   1      44.480  26.412  35.100  1.00  0.00    -0.203 F 
ATOM     99  C   UNL A   1      46.730  26.885  35.610  1.00  0.00     0.198 A 
ATOM    100  C   UNL A   1      47.783  28.841  34.697  1.00  0.00     0.198 A 
ATOM    101  F   UNL A   1      46.559  30.300  33.316  1.00  0.00    -0.203 F 
ATOM    102  F   UNL A   1      46.784  25.792  36.384  1.00  0.00    -0.200 F 
ATOM    103  C   UNL A   1      47.847  27.696  35.477  1.00  0.00     0.200 A 
ATOM    104  F   UNL A   1      48.865  29.619  34.560  1.00  0.00    -0.200 F 
ATOM    105  F   UNL A   1      48.986  27.378  36.109  1.00  0.00    -0.200 F 
ENDBRANCH  72  95
ENDBRANCH  46  47
ENDBRANCH  38  41
ENDBRANCH  36  37
ENDBRANCH  35  36
ENDBRANCH  34  35
ENDBRANCH   1  34
TORSDOF 17
ENDMDL
MODEL 3
REMARK VINA RESULT:     -11.7      5.414     11.633
REMARK SMILES CS(=O)(=O)c1ccc(/C=C(/C(=O)NCCCCCCNC(=O)c2ccc(-c3c4nc(c(-c5c(F)c(F)c(F)c(F)c5F)c5ccc([nH]5)c(-c5c(F)c(F)c(F)c(F)c5F)c5nc(c(-c6c(F)c(F)c(F)c(F)c6F)c6ccc3[nH]6)C=C5)C=C4)cc2)c2ccc(-c3ccc(F)cc3F)cc2)cc1
REMARK SMILES IDX 16 1 15 2 14 3 13 4 11 5 12 6 10 8 9 9 8 10 5 11 6 12 101 13
REMARK SMILES IDX 7 14 100 15 2 16 1 17 3 18 4 19 86 20 87 21 99 22 88 23
REMARK SMILES IDX 98 24 89 25 90 26 91 27 96 28 92 29 95 30 97 31 93 32 94 33
REMARK SMILES IDX 17 34 18 35 19 36 20 37 21 38 22 40 23 41 24 42 85 43 25 44
REMARK SMILES IDX 84 45 26 46 27 47 28 48 78 49 29 50 83 51 77 52 79 53 30 54
REMARK SMILES IDX 82 55 76 56 75 57 31 59 63 60 43 61 62 62 44 63 47 64 61 65
REMARK SMILES IDX 80 66 45 67 46 68 60 70 81 71 48 72 32 73 33 74 41 75 34 76
REMARK SMILES IDX 35 77 39 78 42 79 36 80 37 81 40 82 38 83 64 84 65 85 73 86
REMARK SMILES IDX 66 87 67 88 71 89 74 90 68 91 69 92 72 93 70 94 49 95 50 96
REMARK SMILES IDX 58 97 51 98 52 99 56 100 59 101 53 102 54 103 57 104 55 105
REMARK H PARENT 13 7 20 39 79 58 47 69
REMARK Flexibility Score: inf
ROOT
ATOM      1  C   UNL A   1      37.451  33.107  29.170  1.00  0.00     0.002 C 
ENDROOT
BRANCH   1   2
ATOM      2  C   UNL A   1      38.597  33.957  29.743  1.00  0.00     0.021 C 
BRANCH   2   3
ATOM      3  C   UNL A   1      38.273  34.588  31.101  1.00  0.00     0.116 C 
BRANCH   3   4
ATOM      4  N   UNL A   1      36.922  34.241  31.491  1.00  0.00    -0.352 N 
ATOM      5  C   UNL A   1      36.372  33.634  32.574  1.00  0.00     0.251 C 
ATOM      6  O   UNL A   1      35.161  33.414  32.503  1.00  0.00    -0.269 OA
ATOM      7  H   UNL A   1      36.252  34.503  30.820  1.00  0.00     0.163 HD
BRANCH   5   8
ATOM      8  C   UNL A   1      37.132  33.313  33.840  1.00  0.00     0.047 C 
ATOM      9  C   UNL A   1      37.046  34.062  34.964  1.00  0.00     0.022 C 
BRANCH   9  10
ATOM     10  C   UNL A   1      37.643  33.818  36.299  1.00  0.00    -0.025 A 
ATOM     11  C   UNL A   1      38.813  33.559  38.840  1.00  0.00     0.067 A 
ATOM     12  C   UNL A   1      37.724  32.759  38.492  1.00  0.00     0.021 A 
ATOM     13  C   UNL A   1      39.362  34.447  37.916  1.00  0.00     0.021 A 
ATOM     14  C   UNL A   1      37.156  32.880  37.219  1.00  0.00     0.009 A 
ATOM     15  C   UNL A   1      38.772  34.575  36.653  1.00  0.00     0.009 A 
BRANCH  11  16
ATOM     16  S   UNL A   1      39.529  33.403  40.460  1.00  0.00     0.175 S 
ATOM     17  C   UNL A   1      38.271  34.027  41.545  1.00  0.00     0.163 C 
ATOM     18  O   UNL A   1      40.660  34.302  40.533  1.00  0.00    -0.224 OA
ATOM     19  O   UNL A   1      39.686  31.980  40.716  1.00  0.00    -0.224 OA
ENDBRANCH  11  16
ENDBRANCH   9  10
BRANCH   8  20
ATOM     20  C   UNL A   1      38.159  32.247  33.741  1.00  0.00    -0.013 A 
ATOM     21  C   UNL A   1      39.506  32.623  33.848  1.00  0.00     0.009 A 
ATOM     22  C   UNL A   1      37.844  30.888  33.659  1.00  0.00     0.009 A 
ATOM     23  C   UNL A   1      40.508  31.662  33.958  1.00  0.00     0.009 A 
ATOM     24  C   UNL A   1      38.855  29.924  33.786  1.00  0.00     0.009 A 
ATOM     25  C   UNL A   1      40.198  30.294  33.982  1.00  0.00    -0.015 A 
BRANCH  25  26
ATOM     26  C   UNL A   1      41.250  29.303  34.278  1.00  0.00     0.018 A 
ATOM     27  C   UNL A   1      41.666  28.399  33.275  1.00  0.00     0.015 A 
ATOM     28  C   UNL A   1      41.887  29.216  35.526  1.00  0.00     0.133 A 
ATOM     29  C   UNL A   1      42.660  27.450  33.521  1.00  0.00     0.040 A 
ATOM     30  C   UNL A   1      42.881  28.273  35.779  1.00  0.00     0.079 A 
ATOM     31  F   UNL A   1      41.542  30.048  36.521  1.00  0.00    -0.206 F 
ATOM     32  C   UNL A   1      43.257  27.398  34.772  1.00  0.00     0.126 A 
ATOM     33  F   UNL A   1      44.212  26.489  35.007  1.00  0.00    -0.207 F 
ENDBRANCH  25  26
ENDBRANCH   8  20
ENDBRANCH   5   8
ENDBRANCH   3   4
ENDBRANCH   2   3
ENDBRANCH   1   2
BRANCH   1  34
ATOM     34  C   UNL A   1      36.577  33.809  28.124  1.00  0.00     0.002 C 
BRANCH  34  35
ATOM     35  C   UNL A   1      35.081  33.504  28.222  1.00  0.00     0.021 C 
BRANCH  35  36
ATOM     36  C   UNL A   1      34.727  32.365  29.172  1.00  0.00     0.116 C 
BRANCH  36  37
ATOM     37  N   UNL A   1      34.094  31.255  28.480  1.00  0.00    -0.352 N 
ATOM     38  C   UNL A   1      34.667  30.122  27.959  1.00  0.00     0.251 C 
ATOM     39  H   UNL A   1      33.119  31.324  28.369  1.00  0.00     0.163 HD
ATOM     40  O   UNL A   1      34.018  29.373  27.236  1.00  0.00    -0.269 OA
BRANCH  38  41
ATOM     41  C   UNL A   1      36.082  29.810  28.254  1.00  0.00     0.039 A 
ATOM     42  C   UNL A   1      36.417  29.325  29.521  1.00  0.00     0.014 A 
ATOM     43  C   UNL A   1      37.077  30.015  27.294  1.00  0.00     0.014 A 
ATOM     44  C   UNL A   1      37.743  28.997  29.810  1.00  0.00     0.010 A 
ATOM     45  C   UNL A   1      38.389  29.634  27.562  1.00  0.00     0.010 A 
ATOM     46  C   UNL A   1      38.735  29.128  28.825  1.00  0.00    -0.014 A 
BRANCH  46  47
ATOM     47  C   UNL A   1      40.144  28.754  29.102  1.00  0.00     0.031 A 
ATOM     48  C   UNL A   1      41.051  29.716  29.816  1.00  0.00     0.074 A 
ATOM     49  C   UNL A   1      40.622  27.577  28.656  1.00  0.00     0.049 A 
ATOM     50  N   UNL A   1      42.327  29.606  30.090  1.00  0.00    -0.248 NA
ATOM     51  C   UNL A   1      40.450  30.984  30.260  1.00  0.00     0.031 C 
ATOM     52  C   UNL A   1      39.852  26.580  27.912  1.00  0.00     0.029 A 
ATOM     53  N   UNL A   1      41.875  27.026  28.756  1.00  0.00    -0.354 N 
ATOM     54  C   UNL A   1      42.682  30.791  30.717  1.00  0.00     0.074 A 
ATOM     55  C   UNL A   1      41.502  31.627  30.746  1.00  0.00     0.031 C 
ATOM     56  C   UNL A   1      40.646  25.532  27.634  1.00  0.00     0.029 A 
ATOM     57  C   UNL A   1      41.984  25.796  28.156  1.00  0.00     0.049 A 
ATOM     58  H   UNL A   1      42.625  27.471  29.212  1.00  0.00     0.167 HD
ATOM     59  C   UNL A   1      43.881  31.142  31.241  1.00  0.00     0.037 A 
ATOM     60  C   UNL A   1      43.044  24.976  28.037  1.00  0.00     0.037 A 
ATOM     61  C   UNL A   1      45.045  30.296  31.242  1.00  0.00     0.049 A 
ATOM     62  C   UNL A   1      44.361  25.384  28.641  1.00  0.00     0.074 A 
ATOM     63  C   UNL A   1      46.286  30.535  31.804  1.00  0.00     0.029 A 
ATOM     64  N   UNL A   1      45.108  29.043  30.650  1.00  0.00    -0.354 N 
ATOM     65  N   UNL A   1      44.669  26.480  29.290  1.00  0.00    -0.248 NA
ATOM     66  C   UNL A   1      45.474  24.434  28.504  1.00  0.00     0.031 C 
ATOM     67  C   UNL A   1      47.112  29.441  31.525  1.00  0.00     0.029 A 
ATOM     68  C   UNL A   1      46.372  28.503  30.822  1.00  0.00     0.049 A 
ATOM     69  H   UNL A   1      44.364  28.603  30.180  1.00  0.00     0.167 HD
ATOM     70  C   UNL A   1      45.999  26.344  29.659  1.00  0.00     0.074 A 
ATOM     71  C   UNL A   1      46.438  25.052  29.174  1.00  0.00     0.031 C 
ATOM     72  C   UNL A   1      46.787  27.211  30.340  1.00  0.00     0.037 A 
BRANCH  59  73
ATOM     73  C   UNL A   1      43.992  32.503  31.865  1.00  0.00     0.064 A 
ATOM     74  C   UNL A   1      43.875  32.686  33.251  1.00  0.00     0.173 A 
ATOM     75  C   UNL A   1      44.251  33.630  31.073  1.00  0.00     0.173 A 
ATOM     76  F   UNL A   1      43.614  31.641  34.050  1.00  0.00    -0.203 F 
ATOM     77  C   UNL A   1      43.985  33.953  33.818  1.00  0.00     0.198 A 
ATOM     78  C   UNL A   1      44.388  34.892  31.645  1.00  0.00     0.198 A 
ATOM     79  F   UNL A   1      44.377  33.509  29.742  1.00  0.00    -0.203 F 
ATOM     80  F   UNL A   1      43.824  34.110  35.139  1.00  0.00    -0.200 F 
ATOM     81  C   UNL A   1      44.249  35.053  33.016  1.00  0.00     0.200 A 
ATOM     82  F   UNL A   1      44.654  35.954  30.871  1.00  0.00    -0.200 F 
ATOM     83  F   UNL A   1      44.361  36.271  33.563  1.00  0.00    -0.200 F 
ENDBRANCH  59  73
BRANCH  60  84
ATOM     84  C   UNL A   1      42.898  23.672  27.342  1.00  0.00     0.064 A 
ATOM     85  C   UNL A   1      43.282  23.527  26.002  1.00  0.00     0.173 A 
ATOM     86  C   UNL A   1      42.377  22.549  28.000  1.00  0.00     0.173 A 
ATOM     87  F   UNL A   1      43.767  24.579  25.328  1.00  0.00    -0.203 F 
ATOM     88  C   UNL A   1      43.136  22.310  25.340  1.00  0.00     0.198 A 
ATOM     89  C   UNL A   1      42.254  21.325  27.343  1.00  0.00     0.198 A 
ATOM     90  F   UNL A   1      42.001  22.635  29.284  1.00  0.00    -0.203 F 
ATOM     91  F   UNL A   1      43.475  22.209  24.047  1.00  0.00    -0.200 F 
ATOM     92  C   UNL A   1      42.627  21.209  26.013  1.00  0.00     0.200 A 
ATOM     93  F   UNL A   1      41.774  20.261  27.999  1.00  0.00    -0.200 F 
ATOM     94  F   UNL A   1      42.490  20.038  25.376  1.00  0.00    -0.200 F 
ENDBRANCH  60  84
BRANCH  72  95
ATOM     95  C   UNL A   1      48.194  26.779  30.628  1.00  0.00     0.064 A 
ATOM     96  C   UNL A   1      48.504  25.973  31.732  1.00  0.00     0.173 A 
ATOM     97  C   UNL A   1      49.237  27.143  29.763  1.00  0.00     0.173 A 
ATOM     98  F   UNL A   1      47.542  25.614  32.595  1.00  0.00    -0.203 F 
ATOM     99  C   UNL A   1      49.812  25.563  31.971  1.00  0.00     0.198 A 
ATOM    100  C   UNL A   1      50.540  26.710  29.991  1.00  0.00     0.198 A 
ATOM    101  F   UNL A   1      48.991  27.910  28.690  1.00  0.00    -0.203 F 
ATOM    102  F   UNL A   1      50.093  24.825  33.055  1.00  0.00    -0.200 F 
ATOM    103  C   UNL A   1      50.827  25.924  31.098  1.00  0.00     0.200 A 
ATOM    104  F   UNL A   1      51.518  27.052  29.142  1.00  0.00    -0.200 F 
ATOM    105  F   UNL A   1      52.085  25.523  31.328  1.00  0.00    -0.200 F 
ENDBRANCH  72  95
ENDBRANCH  46  47
ENDBRANCH  38  41
ENDBRANCH  36  37
ENDBRANCH  35  36
ENDBRANCH  34  35
ENDBRANCH   1  34
TORSDOF 17
ENDMDL
