MODEL 1
REMARK VINA RESULT:     -10.0      0.000      0.000
REMARK SMILES CCOCCS(=O)(=O)NCC(=O)NCCCCCCNC(=O)c1ccc(-c2c3nc(c(-c4c(F)c(F)c(F)c(F)c4F)c4ccc([nH]4)c(-c4c(F)c(F)c(F)c(F)c4F)c4nc(c(-c5c(F)c(F)c(F)c(F)c5F)c5ccc2[nH]5)C=C4)C=C3)cc1
REMARK SMILES IDX 14 1 13 2 11 3 12 4 10 6 9 7 6 9 7 10 8 11 5 12 4 13 3 14
REMARK SMILES IDX 2 15 1 16 15 17 16 18 17 19 18 20 19 21 20 22 21 23 22 25
REMARK SMILES IDX 23 26 24 27 85 28 25 29 84 30 26 31 27 32 28 33 78 34 29 35
REMARK SMILES IDX 83 36 77 37 79 38 30 39 82 40 76 41 75 42 31 44 63 45 43 46
REMARK SMILES IDX 62 47 44 48 47 49 61 50 80 51 45 52 46 53 60 55 81 56 48 57
REMARK SMILES IDX 32 58 33 59 41 60 34 61 35 62 39 63 42 64 36 65 37 66 40 67
REMARK SMILES IDX 38 68 64 69 65 70 73 71 66 72 67 73 71 74 74 75 68 76 69 77
REMARK SMILES IDX 72 78 70 79 49 80 50 81 58 82 51 83 52 84 56 85 59 86 53 87
REMARK SMILES IDX 54 88 57 89 55 90
REMARK H PARENT 13 5 9 8 20 24 79 43 47 54
REMARK Flexibility Score: inf
ROOT
ATOM      1  C   UNL A   1      34.264  28.784  26.385  1.00  0.00     0.116 C 
ENDROOT
BRANCH   1   2
ATOM      2  N   UNL A   1      34.113  29.042  24.984  1.00  0.00    -0.355 N 
ATOM      3  C   UNL A   1      33.998  28.195  23.935  1.00  0.00     0.235 C 
ATOM      4  O   UNL A   1      33.960  28.756  22.829  1.00  0.00    -0.274 OA
ATOM      5  H   UNL A   1      34.090  29.996  24.743  1.00  0.00     0.163 HD
BRANCH   3   6
ATOM      6  C   UNL A   1      33.706  26.717  23.992  1.00  0.00     0.198 C 
BRANCH   6   7
ATOM      7  N   UNL A   1      32.653  25.744  23.682  1.00  0.00    -0.206 NA
ATOM      8  H   UNL A   1      33.121  25.053  23.094  1.00  0.00     0.141 HD
BRANCH   7   9
ATOM      9  S   UNL A   1      31.185  25.948  22.965  1.00  0.00     0.214 S 
ATOM     10  O   UNL A   1      30.305  24.849  23.284  1.00  0.00    -0.212 OA
ATOM     11  O   UNL A   1      31.505  26.226  21.583  1.00  0.00    -0.212 OA
BRANCH   9  12
ATOM     12  C   UNL A   1      30.555  27.488  23.643  1.00  0.00     0.182 C 
BRANCH  12  13
ATOM     13  C   UNL A   1      29.273  28.080  23.085  1.00  0.00     0.177 C 
BRANCH  13  14
ATOM     14  O   UNL A   1      29.466  28.997  22.006  1.00  0.00    -0.381 OA
BRANCH  14  15
ATOM     15  C   UNL A   1      29.095  30.355  22.220  1.00  0.00     0.156 C 
ATOM     16  C   UNL A   1      27.945  30.538  23.199  1.00  0.00     0.035 C 
ENDBRANCH  14  15
ENDBRANCH  13  14
ENDBRANCH  12  13
ENDBRANCH   9  12
ENDBRANCH   7   9
ENDBRANCH   6   7
ENDBRANCH   3   6
ENDBRANCH   1   2
BRANCH   1  17
ATOM     17  C   UNL A   1      33.489  29.786  27.234  1.00  0.00     0.021 C 
BRANCH  17  18
ATOM     18  C   UNL A   1      31.990  29.760  26.955  1.00  0.00     0.002 C 
BRANCH  18  19
ATOM     19  C   UNL A   1      31.504  30.899  26.050  1.00  0.00     0.002 C 
BRANCH  19  20
ATOM     20  C   UNL A   1      31.347  32.268  26.724  1.00  0.00     0.021 C 
BRANCH  20  21
ATOM     21  C   UNL A   1      32.651  32.947  27.140  1.00  0.00     0.116 C 
BRANCH  21  22
ATOM     22  N   UNL A   1      32.433  34.294  27.640  1.00  0.00    -0.352 N 
ATOM     23  C   UNL A   1      33.023  34.965  28.676  1.00  0.00     0.251 C 
ATOM     24  H   UNL A   1      31.750  34.808  27.152  1.00  0.00     0.163 HD
ATOM     25  O   UNL A   1      32.567  36.045  29.040  1.00  0.00    -0.269 OA
BRANCH  23  26
ATOM     26  C   UNL A   1      34.190  34.390  29.374  1.00  0.00     0.039 A 
ATOM     27  C   UNL A   1      33.966  33.672  30.551  1.00  0.00     0.014 A 
ATOM     28  C   UNL A   1      35.492  34.581  28.904  1.00  0.00     0.014 A 
ATOM     29  C   UNL A   1      35.042  33.103  31.229  1.00  0.00     0.010 A 
ATOM     30  C   UNL A   1      36.560  33.953  29.544  1.00  0.00     0.010 A 
ATOM     31  C   UNL A   1      36.344  33.211  30.714  1.00  0.00    -0.014 A 
BRANCH  31  32
ATOM     32  C   UNL A   1      37.475  32.530  31.393  1.00  0.00     0.031 A 
ATOM     33  C   UNL A   1      38.198  31.394  30.724  1.00  0.00     0.074 A 
ATOM     34  C   UNL A   1      37.833  32.930  32.628  1.00  0.00     0.049 A 
ATOM     35  N   UNL A   1      39.208  30.686  31.163  1.00  0.00    -0.248 NA
ATOM     36  C   UNL A   1      37.712  30.984  29.397  1.00  0.00     0.031 C 
ATOM     37  C   UNL A   1      37.173  33.985  33.398  1.00  0.00     0.029 A 
ATOM     38  N   UNL A   1      38.841  32.499  33.454  1.00  0.00    -0.354 N 
ATOM     39  C   UNL A   1      39.481  29.757  30.167  1.00  0.00     0.074 A 
ATOM     40  C   UNL A   1      38.492  29.947  29.128  1.00  0.00     0.031 C 
ATOM     41  C   UNL A   1      37.808  34.139  34.570  1.00  0.00     0.029 A 
ATOM     42  C   UNL A   1      38.897  33.171  34.651  1.00  0.00     0.049 A 
ATOM     43  H   UNL A   1      39.465  31.777  33.212  1.00  0.00     0.167 HD
ATOM     44  C   UNL A   1      40.484  28.848  30.113  1.00  0.00     0.037 A 
ATOM     45  C   UNL A   1      39.730  33.020  35.697  1.00  0.00     0.037 A 
ATOM     46  C   UNL A   1      41.470  28.667  31.146  1.00  0.00     0.049 A 
ATOM     47  C   UNL A   1      40.826  31.991  35.612  1.00  0.00     0.074 A 
ATOM     48  C   UNL A   1      42.547  27.797  31.171  1.00  0.00     0.029 A 
ATOM     49  N   UNL A   1      41.501  29.372  32.341  1.00  0.00    -0.354 N 
ATOM     50  N   UNL A   1      41.115  31.167  34.634  1.00  0.00    -0.248 NA
ATOM     51  C   UNL A   1      41.719  31.881  36.772  1.00  0.00     0.031 C 
ATOM     52  C   UNL A   1      43.200  27.942  32.399  1.00  0.00     0.029 A 
ATOM     53  C   UNL A   1      42.565  28.942  33.117  1.00  0.00     0.049 A 
ATOM     54  H   UNL A   1      40.860  30.074  32.599  1.00  0.00     0.167 HD
ATOM     55  C   UNL A   1      42.234  30.459  35.051  1.00  0.00     0.074 A 
ATOM     56  C   UNL A   1      42.590  30.974  36.356  1.00  0.00     0.031 C 
ATOM     57  C   UNL A   1      42.904  29.468  34.415  1.00  0.00     0.037 A 
BRANCH  44  58
ATOM     58  C   UNL A   1      40.580  27.985  28.888  1.00  0.00     0.064 A 
ATOM     59  C   UNL A   1      39.836  26.801  28.768  1.00  0.00     0.173 A 
ATOM     60  C   UNL A   1      41.369  28.375  27.796  1.00  0.00     0.173 A 
ATOM     61  F   UNL A   1      39.072  26.377  29.787  1.00  0.00    -0.203 F 
ATOM     62  C   UNL A   1      39.891  26.032  27.609  1.00  0.00     0.198 A 
ATOM     63  C   UNL A   1      41.401  27.618  26.627  1.00  0.00     0.198 A 
ATOM     64  F   UNL A   1      42.097  29.500  27.856  1.00  0.00    -0.203 F 
ATOM     65  F   UNL A   1      39.199  24.887  27.532  1.00  0.00    -0.200 F 
ATOM     66  C   UNL A   1      40.665  26.446  26.535  1.00  0.00     0.200 A 
ATOM     67  F   UNL A   1      42.138  28.028  25.585  1.00  0.00    -0.200 F 
ATOM     68  F   UNL A   1      40.705  25.714  25.414  1.00  0.00    -0.200 F 
ENDBRANCH  44  58
BRANCH  45  69
ATOM     69  C   UNL A   1      39.571  33.864  36.911  1.00  0.00     0.064 A 
ATOM     70  C   UNL A   1      38.838  33.410  38.017  1.00  0.00     0.173 A 
ATOM     71  C   UNL A   1      40.119  35.153  36.979  1.00  0.00     0.173 A 
ATOM     72  F   UNL A   1      38.278  32.191  37.995  1.00  0.00    -0.203 F 
ATOM     73  C   UNL A   1      38.626  34.228  39.126  1.00  0.00     0.198 A 
ATOM     74  C   UNL A   1      39.937  35.956  38.102  1.00  0.00     0.198 A 
ATOM     75  F   UNL A   1      40.837  35.633  35.952  1.00  0.00    -0.203 F 
ATOM     76  F   UNL A   1      37.865  33.793  40.140  1.00  0.00    -0.200 F 
ATOM     77  C   UNL A   1      39.179  35.499  39.169  1.00  0.00     0.200 A 
ATOM     78  F   UNL A   1      40.489  37.176  38.146  1.00  0.00    -0.200 F 
ATOM     79  F   UNL A   1      38.972  36.287  40.233  1.00  0.00    -0.200 F 
ENDBRANCH  45  69
BRANCH  57  80
ATOM     80  C   UNL A   1      44.104  28.897  35.116  1.00  0.00     0.064 A 
ATOM     81  C   UNL A   1      45.392  29.416  34.912  1.00  0.00     0.173 A 
ATOM     82  C   UNL A   1      43.963  27.825  36.010  1.00  0.00     0.173 A 
ATOM     83  F   UNL A   1      45.583  30.432  34.058  1.00  0.00    -0.203 F 
ATOM     84  C   UNL A   1      46.498  28.857  35.546  1.00  0.00     0.198 A 
ATOM     85  C   UNL A   1      45.067  27.290  36.669  1.00  0.00     0.198 A 
ATOM     86  F   UNL A   1      42.753  27.296  36.248  1.00  0.00    -0.203 F 
ATOM     87  F   UNL A   1      47.725  29.326  35.284  1.00  0.00    -0.200 F 
ATOM     88  C   UNL A   1      46.334  27.798  36.427  1.00  0.00     0.200 A 
ATOM     89  F   UNL A   1      44.904  26.278  37.532  1.00  0.00    -0.200 F 
ATOM     90  F   UNL A   1      47.400  27.260  37.035  1.00  0.00    -0.200 F 
ENDBRANCH  57  80
ENDBRANCH  31  32
ENDBRANCH  23  26
ENDBRANCH  21  22
ENDBRANCH  20  21
ENDBRANCH  19  20
ENDBRANCH  18  19
ENDBRANCH  17  18
ENDBRANCH   1  17
TORSDOF 19
ENDMDL
MODEL 2
REMARK VINA RESULT:      -9.9      5.906     11.265
REMARK SMILES CCOCCS(=O)(=O)NCC(=O)NCCCCCCNC(=O)c1ccc(-c2c3nc(c(-c4c(F)c(F)c(F)c(F)c4F)c4ccc([nH]4)c(-c4c(F)c(F)c(F)c(F)c4F)c4nc(c(-c5c(F)c(F)c(F)c(F)c5F)c5ccc2[nH]5)C=C4)C=C3)cc1
REMARK SMILES IDX 14 1 13 2 11 3 12 4 10 6 9 7 6 9 7 10 8 11 5 12 4 13 3 14
REMARK SMILES IDX 2 15 1 16 15 17 16 18 17 19 18 20 19 21 20 22 21 23 22 25
REMARK SMILES IDX 23 26 24 27 85 28 25 29 84 30 26 31 27 32 28 33 78 34 29 35
REMARK SMILES IDX 83 36 77 37 79 38 30 39 82 40 76 41 75 42 31 44 63 45 43 46
REMARK SMILES IDX 62 47 44 48 47 49 61 50 80 51 45 52 46 53 60 55 81 56 48 57
REMARK SMILES IDX 32 58 33 59 41 60 34 61 35 62 39 63 42 64 36 65 37 66 40 67
REMARK SMILES IDX 38 68 64 69 65 70 73 71 66 72 67 73 71 74 74 75 68 76 69 77
REMARK SMILES IDX 72 78 70 79 49 80 50 81 58 82 51 83 52 84 56 85 59 86 53 87
REMARK SMILES IDX 54 88 57 89 55 90
REMARK H PARENT 13 5 9 8 20 24 79 43 47 54
REMARK Flexibility Score: inf
ROOT
ATOM      1  C   UNL A   1      35.214  23.969  25.159  1.00  0.00     0.116 C 
ENDROOT
BRANCH   1   2
ATOM      2  N   UNL A   1      34.402  24.715  24.244  1.00  0.00    -0.355 N 
ATOM      3  C   UNL A   1      33.199  25.310  24.410  1.00  0.00     0.235 C 
ATOM      4  O   UNL A   1      32.733  25.815  23.375  1.00  0.00    -0.274 OA
ATOM      5  H   UNL A   1      34.785  24.811  23.342  1.00  0.00     0.163 HD
BRANCH   3   6
ATOM      6  C   UNL A   1      32.501  25.597  25.715  1.00  0.00     0.198 C 
BRANCH   6   7
ATOM      7  N   UNL A   1      31.641  24.962  26.719  1.00  0.00    -0.206 NA
ATOM      8  H   UNL A   1      32.101  25.171  27.605  1.00  0.00     0.141 HD
BRANCH   7   9
ATOM      9  S   UNL A   1      31.160  23.396  26.879  1.00  0.00     0.214 S 
ATOM     10  O   UNL A   1      29.799  23.327  27.356  1.00  0.00    -0.212 OA
ATOM     11  O   UNL A   1      32.216  22.781  27.649  1.00  0.00    -0.212 OA
BRANCH   9  12
ATOM     12  C   UNL A   1      31.291  22.706  25.225  1.00  0.00     0.182 C 
BRANCH  12  13
ATOM     13  C   UNL A   1      32.315  21.618  24.949  1.00  0.00     0.177 C 
BRANCH  13  14
ATOM     14  O   UNL A   1      31.793  20.289  25.000  1.00  0.00    -0.381 OA
BRANCH  14  15
ATOM     15  C   UNL A   1      32.726  19.214  24.984  1.00  0.00     0.156 C 
ATOM     16  C   UNL A   1      32.535  18.242  23.830  1.00  0.00     0.035 C 
ENDBRANCH  14  15
ENDBRANCH  13  14
ENDBRANCH  12  13
ENDBRANCH   9  12
ENDBRANCH   7   9
ENDBRANCH   6   7
ENDBRANCH   3   6
ENDBRANCH   1   2
BRANCH   1  17
ATOM     17  C   UNL A   1      36.017  22.883  24.452  1.00  0.00     0.021 C 
BRANCH  17  18
ATOM     18  C   UNL A   1      36.646  21.890  25.424  1.00  0.00     0.002 C 
BRANCH  18  19
ATOM     19  C   UNL A   1      36.496  20.423  25.001  1.00  0.00     0.002 C 
BRANCH  19  20
ATOM     20  C   UNL A   1      37.797  19.615  24.917  1.00  0.00     0.021 C 
BRANCH  20  21
ATOM     21  C   UNL A   1      38.959  20.153  25.751  1.00  0.00     0.116 C 
BRANCH  21  22
ATOM     22  N   UNL A   1      40.022  19.176  25.908  1.00  0.00    -0.352 N 
ATOM     23  C   UNL A   1      41.362  19.345  26.127  1.00  0.00     0.251 C 
ATOM     24  H   UNL A   1      39.730  18.237  25.847  1.00  0.00     0.163 HD
ATOM     25  O   UNL A   1      42.117  18.380  26.057  1.00  0.00    -0.269 OA
BRANCH  23  26
ATOM     26  C   UNL A   1      41.909  20.683  26.426  1.00  0.00     0.039 A 
ATOM     27  C   UNL A   1      42.149  21.550  25.358  1.00  0.00     0.014 A 
ATOM     28  C   UNL A   1      42.218  21.074  27.732  1.00  0.00     0.014 A 
ATOM     29  C   UNL A   1      42.652  22.827  25.602  1.00  0.00     0.010 A 
ATOM     30  C   UNL A   1      42.654  22.375  27.983  1.00  0.00     0.010 A 
ATOM     31  C   UNL A   1      42.878  23.261  26.920  1.00  0.00    -0.014 A 
BRANCH  31  32
ATOM     32  C   UNL A   1      43.331  24.650  27.181  1.00  0.00     0.031 A 
ATOM     33  C   UNL A   1      42.380  25.675  27.735  1.00  0.00     0.074 A 
ATOM     34  C   UNL A   1      44.603  24.989  26.895  1.00  0.00     0.049 A 
ATOM     35  N   UNL A   1      42.600  26.931  28.029  1.00  0.00    -0.248 NA
ATOM     36  C   UNL A   1      40.994  25.238  27.971  1.00  0.00     0.031 C 
ATOM     37  C   UNL A   1      45.602  24.095  26.306  1.00  0.00     0.029 A 
ATOM     38  N   UNL A   1      45.276  26.173  27.061  1.00  0.00    -0.354 N 
ATOM     39  C   UNL A   1      41.388  27.430  28.490  1.00  0.00     0.074 A 
ATOM     40  C   UNL A   1      40.420  26.361  28.378  1.00  0.00     0.031 C 
ATOM     41  C   UNL A   1      46.765  24.752  26.186  1.00  0.00     0.029 A 
ATOM     42  C   UNL A   1      46.587  26.122  26.655  1.00  0.00     0.049 A 
ATOM     43  H   UNL A   1      44.859  26.982  27.437  1.00  0.00     0.167 HD
ATOM     44  C   UNL A   1      41.118  28.660  28.988  1.00  0.00     0.037 A 
ATOM     45  C   UNL A   1      47.537  27.076  26.658  1.00  0.00     0.037 A 
ATOM     46  C   UNL A   1      42.087  29.719  29.105  1.00  0.00     0.049 A 
ATOM     47  C   UNL A   1      47.201  28.437  27.205  1.00  0.00     0.074 A 
ATOM     48  C   UNL A   1      41.919  30.990  29.628  1.00  0.00     0.029 A 
ATOM     49  N   UNL A   1      43.408  29.629  28.691  1.00  0.00    -0.354 N 
ATOM     50  N   UNL A   1      46.069  28.874  27.703  1.00  0.00    -0.248 NA
ATOM     51  C   UNL A   1      48.278  29.434  27.202  1.00  0.00     0.031 C 
ATOM     52  C   UNL A   1      43.126  31.684  29.488  1.00  0.00     0.029 A 
ATOM     53  C   UNL A   1      44.061  30.828  28.929  1.00  0.00     0.049 A 
ATOM     54  H   UNL A   1      43.820  28.831  28.287  1.00  0.00     0.167 HD
ATOM     55  C   UNL A   1      46.305  30.186  28.092  1.00  0.00     0.074 A 
ATOM     56  C   UNL A   1      47.697  30.462  27.803  1.00  0.00     0.031 C 
ATOM     57  C   UNL A   1      45.448  31.084  28.634  1.00  0.00     0.037 A 
BRANCH  44  58
ATOM     58  C   UNL A   1      39.719  28.929  29.464  1.00  0.00     0.064 A 
ATOM     59  C   UNL A   1      39.346  28.713  30.799  1.00  0.00     0.173 A 
ATOM     60  C   UNL A   1      38.758  29.470  28.596  1.00  0.00     0.173 A 
ATOM     61  F   UNL A   1      40.224  28.188  31.668  1.00  0.00    -0.203 F 
ATOM     62  C   UNL A   1      38.061  29.012  31.244  1.00  0.00     0.198 A 
ATOM     63  C   UNL A   1      37.482  29.795  29.051  1.00  0.00     0.198 A 
ATOM     64  F   UNL A   1      39.062  29.701  27.310  1.00  0.00    -0.203 F 
ATOM     65  F   UNL A   1      37.719  28.764  32.516  1.00  0.00    -0.200 F 
ATOM     66  C   UNL A   1      37.134  29.563  30.373  1.00  0.00     0.200 A 
ATOM     67  F   UNL A   1      36.592  30.340  28.211  1.00  0.00    -0.200 F 
ATOM     68  F   UNL A   1      35.903  29.866  30.806  1.00  0.00    -0.200 F 
ENDBRANCH  44  58
BRANCH  45  69
ATOM     69  C   UNL A   1      48.897  26.781  26.134  1.00  0.00     0.064 A 
ATOM     70  C   UNL A   1      49.919  26.332  26.982  1.00  0.00     0.173 A 
ATOM     71  C   UNL A   1      49.214  26.975  24.781  1.00  0.00     0.173 A 
ATOM     72  F   UNL A   1      49.673  26.148  28.288  1.00  0.00    -0.203 F 
ATOM     73  C   UNL A   1      51.213  26.126  26.507  1.00  0.00     0.198 A 
ATOM     74  C   UNL A   1      50.498  26.736  24.299  1.00  0.00     0.198 A 
ATOM     75  F   UNL A   1      48.272  27.397  23.924  1.00  0.00    -0.203 F 
ATOM     76  F   UNL A   1      52.186  25.761  27.353  1.00  0.00    -0.200 F 
ATOM     77  C   UNL A   1      51.501  26.325  25.165  1.00  0.00     0.200 A 
ATOM     78  F   UNL A   1      50.767  26.911  22.998  1.00  0.00    -0.200 F 
ATOM     79  F   UNL A   1      52.745  26.131  24.708  1.00  0.00    -0.200 F 
ENDBRANCH  45  69
BRANCH  57  80
ATOM     80  C   UNL A   1      46.003  32.438  28.972  1.00  0.00     0.064 A 
ATOM     81  C   UNL A   1      45.963  33.499  28.055  1.00  0.00     0.173 A 
ATOM     82  C   UNL A   1      46.573  32.681  30.231  1.00  0.00     0.173 A 
ATOM     83  F   UNL A   1      45.442  33.316  26.833  1.00  0.00    -0.203 F 
ATOM     84  C   UNL A   1      46.510  34.741  28.371  1.00  0.00     0.198 A 
ATOM     85  C   UNL A   1      47.087  33.933  30.557  1.00  0.00     0.198 A 
ATOM     86  F   UNL A   1      46.629  31.703  31.149  1.00  0.00    -0.203 F 
ATOM     87  F   UNL A   1      46.520  35.718  27.455  1.00  0.00    -0.200 F 
ATOM     88  C   UNL A   1      47.066  34.957  29.623  1.00  0.00     0.200 A 
ATOM     89  F   UNL A   1      47.609  34.145  31.772  1.00  0.00    -0.200 F 
ATOM     90  F   UNL A   1      47.593  36.152  29.925  1.00  0.00    -0.200 F 
ENDBRANCH  57  80
ENDBRANCH  31  32
ENDBRANCH  23  26
ENDBRANCH  21  22
ENDBRANCH  20  21
ENDBRANCH  19  20
ENDBRANCH  18  19
ENDBRANCH  17  18
ENDBRANCH   1  17
TORSDOF 19
ENDMDL
MODEL 3
REMARK VINA RESULT:      -9.9      0.880      7.556
REMARK SMILES CCOCCS(=O)(=O)NCC(=O)NCCCCCCNC(=O)c1ccc(-c2c3nc(c(-c4c(F)c(F)c(F)c(F)c4F)c4ccc([nH]4)c(-c4c(F)c(F)c(F)c(F)c4F)c4nc(c(-c5c(F)c(F)c(F)c(F)c5F)c5ccc2[nH]5)C=C4)C=C3)cc1
REMARK SMILES IDX 14 1 13 2 11 3 12 4 10 6 9 7 6 9 7 10 8 11 5 12 4 13 3 14
REMARK SMILES IDX 2 15 1 16 15 17 16 18 17 19 18 20 19 21 20 22 21 23 22 25
REMARK SMILES IDX 23 26 24 27 85 28 25 29 84 30 26 31 27 32 28 33 78 34 29 35
REMARK SMILES IDX 83 36 77 37 79 38 30 39 82 40 76 41 75 42 31 44 63 45 43 46
REMARK SMILES IDX 62 47 44 48 47 49 61 50 80 51 45 52 46 53 60 55 81 56 48 57
REMARK SMILES IDX 32 58 33 59 41 60 34 61 35 62 39 63 42 64 36 65 37 66 40 67
REMARK SMILES IDX 38 68 64 69 65 70 73 71 66 72 67 73 71 74 74 75 68 76 69 77
REMARK SMILES IDX 72 78 70 79 49 80 50 81 58 82 51 83 52 84 56 85 59 86 53 87
REMARK SMILES IDX 54 88 57 89 55 90
REMARK H PARENT 13 5 9 8 20 24 79 43 47 54
REMARK Flexibility Score: inf
ROOT
ATOM      1  C   UNL A   1      34.547  28.879  26.542  1.00  0.00     0.116 C 
ENDROOT
BRANCH   1   2
ATOM      2  N   UNL A   1      34.372  28.941  25.122  1.00  0.00    -0.355 N 
ATOM      3  C   UNL A   1      33.626  28.182  24.287  1.00  0.00     0.235 C 
ATOM      4  O   UNL A   1      33.763  28.460  23.085  1.00  0.00    -0.274 OA
ATOM      5  H   UNL A   1      34.882  29.657  24.677  1.00  0.00     0.163 HD
BRANCH   3   6
ATOM      6  C   UNL A   1      32.530  27.221  24.673  1.00  0.00     0.198 C 
BRANCH   6   7
ATOM      7  N   UNL A   1      31.165  26.831  24.304  1.00  0.00    -0.206 NA
ATOM      8  H   UNL A   1      31.236  25.830  24.121  1.00  0.00     0.141 HD
BRANCH   7   9
ATOM      9  S   UNL A   1      30.181  27.386  23.106  1.00  0.00     0.214 S 
ATOM     10  O   UNL A   1      28.811  27.002  23.353  1.00  0.00    -0.212 OA
ATOM     11  O   UNL A   1      30.832  26.957  21.889  1.00  0.00    -0.212 OA
BRANCH   9  12
ATOM     12  C   UNL A   1      30.361  29.173  23.158  1.00  0.00     0.182 C 
BRANCH  12  13
ATOM     13  C   UNL A   1      29.976  29.998  21.941  1.00  0.00     0.177 C 
BRANCH  13  14
ATOM     14  O   UNL A   1      29.301  31.220  22.245  1.00  0.00    -0.381 OA
BRANCH  14  15
ATOM     15  C   UNL A   1      28.893  31.431  23.592  1.00  0.00     0.156 C 
ATOM     16  C   UNL A   1      27.386  31.398  23.797  1.00  0.00     0.035 C 
ENDBRANCH  14  15
ENDBRANCH  13  14
ENDBRANCH  12  13
ENDBRANCH   9  12
ENDBRANCH   7   9
ENDBRANCH   6   7
ENDBRANCH   3   6
ENDBRANCH   1   2
BRANCH   1  17
ATOM     17  C   UNL A   1      33.826  30.018  27.255  1.00  0.00     0.021 C 
BRANCH  17  18
ATOM     18  C   UNL A   1      32.310  29.854  27.241  1.00  0.00     0.002 C 
BRANCH  18  19
ATOM     19  C   UNL A   1      31.584  30.839  26.315  1.00  0.00     0.002 C 
BRANCH  19  20
ATOM     20  C   UNL A   1      31.397  32.259  26.864  1.00  0.00     0.021 C 
BRANCH  20  21
ATOM     21  C   UNL A   1      32.651  33.131  26.869  1.00  0.00     0.116 C 
BRANCH  21  22
ATOM     22  N   UNL A   1      32.470  34.350  27.638  1.00  0.00    -0.352 N 
ATOM     23  C   UNL A   1      33.080  34.779  28.785  1.00  0.00     0.251 C 
ATOM     24  H   UNL A   1      31.798  34.971  27.273  1.00  0.00     0.163 HD
ATOM     25  O   UNL A   1      32.653  35.771  29.369  1.00  0.00    -0.269 OA
BRANCH  23  26
ATOM     26  C   UNL A   1      34.235  34.044  29.339  1.00  0.00     0.039 A 
ATOM     27  C   UNL A   1      35.517  34.481  29.000  1.00  0.00     0.014 A 
ATOM     28  C   UNL A   1      34.067  32.920  30.151  1.00  0.00     0.014 A 
ATOM     29  C   UNL A   1      36.632  33.822  29.516  1.00  0.00     0.010 A 
ATOM     30  C   UNL A   1      35.180  32.304  30.723  1.00  0.00     0.010 A 
ATOM     31  C   UNL A   1      36.472  32.748  30.408  1.00  0.00    -0.014 A 
BRANCH  31  32
ATOM     32  C   UNL A   1      37.660  32.104  31.022  1.00  0.00     0.031 A 
ATOM     33  C   UNL A   1      38.129  32.510  32.391  1.00  0.00     0.074 A 
ATOM     34  C   UNL A   1      38.327  31.163  30.327  1.00  0.00     0.049 A 
ATOM     35  N   UNL A   1      39.142  32.055  33.086  1.00  0.00    -0.248 NA
ATOM     36  C   UNL A   1      37.376  33.581  33.063  1.00  0.00     0.031 C 
ATOM     37  C   UNL A   1      37.998  30.724  28.969  1.00  0.00     0.029 A 
ATOM     38  N   UNL A   1      39.420  30.404  30.663  1.00  0.00    -0.354 N 
ATOM     39  C   UNL A   1      39.142  32.776  34.273  1.00  0.00     0.074 A 
ATOM     40  C   UNL A   1      38.069  33.743  34.181  1.00  0.00     0.031 C 
ATOM     41  C   UNL A   1      38.850  29.756  28.600  1.00  0.00     0.029 A 
ATOM     42  C   UNL A   1      39.808  29.529  29.677  1.00  0.00     0.049 A 
ATOM     43  H   UNL A   1      39.882  30.478  31.529  1.00  0.00     0.167 HD
ATOM     44  C   UNL A   1      39.946  32.624  35.352  1.00  0.00     0.037 A 
ATOM     45  C   UNL A   1      40.824  28.648  29.645  1.00  0.00     0.037 A 
ATOM     46  C   UNL A   1      41.008  31.656  35.441  1.00  0.00     0.049 A 
ATOM     47  C   UNL A   1      41.710  28.513  30.855  1.00  0.00     0.074 A 
ATOM     48  C   UNL A   1      41.857  31.400  36.505  1.00  0.00     0.029 A 
ATOM     49  N   UNL A   1      41.367  30.781  34.426  1.00  0.00    -0.354 N 
ATOM     50  N   UNL A   1      41.654  29.153  31.998  1.00  0.00    -0.248 NA
ATOM     51  C   UNL A   1      42.791  27.523  30.774  1.00  0.00     0.031 C 
ATOM     52  C   UNL A   1      42.759  30.404  36.116  1.00  0.00     0.029 A 
ATOM     53  C   UNL A   1      42.437  29.999  34.831  1.00  0.00     0.049 A 
ATOM     54  H   UNL A   1      40.926  30.725  33.547  1.00  0.00     0.167 HD
ATOM     55  C   UNL A   1      42.676  28.628  32.778  1.00  0.00     0.074 A 
ATOM     56  C   UNL A   1      43.313  27.595  31.990  1.00  0.00     0.031 C 
ATOM     57  C   UNL A   1      43.057  28.974  34.032  1.00  0.00     0.037 A 
BRANCH  44  58
ATOM     58  C   UNL A   1      39.703  33.515  36.536  1.00  0.00     0.064 A 
ATOM     59  C   UNL A   1      38.843  33.130  37.576  1.00  0.00     0.173 A 
ATOM     60  C   UNL A   1      40.383  34.735  36.668  1.00  0.00     0.173 A 
ATOM     61  F   UNL A   1      38.160  31.978  37.495  1.00  0.00    -0.203 F 
ATOM     62  C   UNL A   1      38.661  33.939  38.695  1.00  0.00     0.198 A 
ATOM     63  C   UNL A   1      40.220  35.528  37.801  1.00  0.00     0.198 A 
ATOM     64  F   UNL A   1      41.220  35.149  35.705  1.00  0.00    -0.203 F 
ATOM     65  F   UNL A   1      37.807  33.565  39.658  1.00  0.00    -0.200 F 
ATOM     66  C   UNL A   1      39.357  35.132  38.811  1.00  0.00     0.200 A 
ATOM     67  F   UNL A   1      40.906  36.674  37.919  1.00  0.00    -0.200 F 
ATOM     68  F   UNL A   1      39.195  35.901  39.896  1.00  0.00    -0.200 F 
ENDBRANCH  44  58
BRANCH  45  69
ATOM     69  C   UNL A   1      41.060  27.818  28.434  1.00  0.00     0.064 A 
ATOM     70  C   UNL A   1      41.903  28.261  27.404  1.00  0.00     0.173 A 
ATOM     71  C   UNL A   1      40.422  26.580  28.264  1.00  0.00     0.173 A 
ATOM     72  F   UNL A   1      42.522  29.446  27.510  1.00  0.00    -0.203 F 
ATOM     73  C   UNL A   1      42.067  27.518  26.236  1.00  0.00     0.198 A 
ATOM     74  C   UNL A   1      40.614  25.822  27.112  1.00  0.00     0.198 A 
ATOM     75  F   UNL A   1      39.611  26.105  29.221  1.00  0.00    -0.203 F 
ATOM     76  F   UNL A   1      42.825  27.998  25.241  1.00  0.00    -0.200 F 
ATOM     77  C   UNL A   1      41.425  26.298  26.093  1.00  0.00     0.200 A 
ATOM     78  F   UNL A   1      40.006  24.634  26.985  1.00  0.00    -0.200 F 
ATOM     79  F   UNL A   1      41.579  25.585  24.969  1.00  0.00    -0.200 F 
ENDBRANCH  45  69
BRANCH  57  80
ATOM     80  C   UNL A   1      44.201  28.206  34.632  1.00  0.00     0.064 A 
ATOM     81  C   UNL A   1      45.527  28.648  34.512  1.00  0.00     0.173 A 
ATOM     82  C   UNL A   1      43.966  27.020  35.344  1.00  0.00     0.173 A 
ATOM     83  F   UNL A   1      45.807  29.768  33.829  1.00  0.00    -0.203 F 
ATOM     84  C   UNL A   1      46.580  27.909  35.047  1.00  0.00     0.198 A 
ATOM     85  C   UNL A   1      45.017  26.302  35.908  1.00  0.00     0.198 A 
ATOM     86  F   UNL A   1      42.716  26.557  35.496  1.00  0.00    -0.203 F 
ATOM     87  F   UNL A   1      47.842  28.316  34.862  1.00  0.00    -0.200 F 
ATOM     88  C   UNL A   1      46.323  26.740  35.748  1.00  0.00     0.200 A 
ATOM     89  F   UNL A   1      44.766  25.182  36.599  1.00  0.00    -0.200 F 
ATOM     90  F   UNL A   1      47.337  26.030  36.262  1.00  0.00    -0.200 F 
ENDBRANCH  57  80
ENDBRANCH  31  32
ENDBRANCH  23  26
ENDBRANCH  21  22
ENDBRANCH  20  21
ENDBRANCH  19  20
ENDBRANCH  18  19
ENDBRANCH  17  18
ENDBRANCH   1  17
TORSDOF 19
ENDMDL
