MODEL 1
REMARK VINA RESULT:     -12.7      0.000      0.000
REMARK SMILES Cc1ccc(/N=N/c2ccc(NC(=O)CCC(=O)NCCCCCCNC(=O)c3ccc(-c4c5nc(c(-c6c(F)c(F)c(F)c(F)c6F)c6ccc([nH]6)c(-c6c(F)c(F)c(F)c(F)c6F)c6nc(c(-c7c(F)c(F)c(F)c(F)c7F)c7ccc4[nH]7)C=C6)C=C5)cc3)cc2)cc1
REMARK SMILES IDX 21 1 20 2 19 3 17 4 18 5 16 7 15 8 13 9 12 10 14 12 11 13
REMARK SMILES IDX 8 14 9 15 93 16 10 17 92 18 7 19 6 20 5 21 1 22 2 23 3 24
REMARK SMILES IDX 95 25 4 26 94 27 22 28 23 29 24 30 25 31 26 32 27 33 28 35
REMARK SMILES IDX 29 36 30 37 91 38 31 39 90 40 32 41 33 42 34 43 84 44 35 45
REMARK SMILES IDX 89 46 83 47 85 48 36 49 88 50 82 51 81 52 37 54 69 55 49 56
REMARK SMILES IDX 68 57 50 58 53 59 67 60 86 61 51 62 52 63 66 65 87 66 54 67
REMARK SMILES IDX 38 68 39 69 47 70 40 71 41 72 45 73 48 74 42 75 43 76 46 77
REMARK SMILES IDX 44 78 70 79 71 80 79 81 72 82 73 83 77 84 80 85 74 86 75 87
REMARK SMILES IDX 78 88 76 89 55 90 56 91 64 92 57 93 58 94 62 95 65 96 59 97
REMARK SMILES IDX 60 98 63 99 61 100
REMARK H PARENT 19 6 12 11 26 34 85 53 53 64
REMARK Flexibility Score: inf
ROOT
ATOM      1  C   UNL A   1      32.012  27.328  26.453  1.00  0.00     0.021 C 
ENDROOT
BRANCH   1   2
ATOM      2  C   UNL A   1      32.514  25.885  26.479  1.00  0.00     0.116 C 
BRANCH   2   3
ATOM      3  N   UNL A   1      31.459  24.918  26.719  1.00  0.00    -0.356 N 
ATOM      4  C   UNL A   1      31.548  23.585  26.981  1.00  0.00     0.220 C 
ATOM      5  O   UNL A   1      30.529  22.972  27.295  1.00  0.00    -0.275 OA
ATOM      6  H   UNL A   1      30.544  25.280  26.688  1.00  0.00     0.163 HD
BRANCH   4   7
ATOM      7  C   UNL A   1      32.878  22.875  26.873  1.00  0.00     0.110 C 
BRANCH   7   8
ATOM      8  C   UNL A   1      32.830  21.591  26.054  1.00  0.00     0.110 C 
BRANCH   8   9
ATOM      9  C   UNL A   1      33.942  21.453  25.034  1.00  0.00     0.224 C 
ATOM     10  N   UNL A   1      34.027  22.220  23.908  1.00  0.00    -0.326 N 
ATOM     11  H   UNL A   1      34.780  21.991  23.317  1.00  0.00     0.169 HD
ATOM     12  O   UNL A   1      34.883  20.682  25.264  1.00  0.00    -0.275 OA
BRANCH  10  13
ATOM     13  C   UNL A   1      33.230  23.274  23.447  1.00  0.00     0.041 A 
ATOM     14  C   UNL A   1      31.750  25.583  22.824  1.00  0.00     0.086 A 
ATOM     15  C   UNL A   1      31.115  24.354  23.017  1.00  0.00     0.032 A 
ATOM     16  C   UNL A   1      33.146  25.632  22.878  1.00  0.00     0.032 A 
ATOM     17  C   UNL A   1      31.848  23.203  23.310  1.00  0.00     0.028 A 
ATOM     18  C   UNL A   1      33.882  24.477  23.149  1.00  0.00     0.028 A 
BRANCH  14  19
ATOM     19  N   UNL A   1      30.940  26.709  22.603  1.00  0.00    -0.151 NA
ATOM     20  N   UNL A   1      30.002  26.771  23.419  1.00  0.00    -0.151 NA
BRANCH  20  21
ATOM     21  C   UNL A   1      29.333  28.014  23.394  1.00  0.00     0.086 A 
ATOM     22  C   UNL A   1      27.627  31.969  23.020  1.00  0.00     0.044 C 
ATOM     23  C   UNL A   1      28.202  30.594  23.185  1.00  0.00    -0.051 A 
ATOM     24  C   UNL A   1      29.561  30.436  23.475  1.00  0.00     0.006 A 
ATOM     25  C   UNL A   1      27.403  29.457  23.031  1.00  0.00     0.006 A 
ATOM     26  C   UNL A   1      30.116  29.158  23.578  1.00  0.00     0.030 A 
ATOM     27  C   UNL A   1      27.964  28.182  23.137  1.00  0.00     0.030 A 
ENDBRANCH  20  21
ENDBRANCH  14  19
ENDBRANCH  10  13
ENDBRANCH   8   9
ENDBRANCH   7   8
ENDBRANCH   4   7
ENDBRANCH   2   3
ENDBRANCH   1   2
BRANCH   1  28
ATOM     28  C   UNL A   1      32.688  28.253  25.436  1.00  0.00     0.002 C 
BRANCH  28  29
ATOM     29  C   UNL A   1      32.982  29.682  25.909  1.00  0.00     0.002 C 
BRANCH  29  30
ATOM     30  C   UNL A   1      33.519  29.819  27.335  1.00  0.00     0.021 C 
BRANCH  30  31
ATOM     31  C   UNL A   1      34.538  30.932  27.512  1.00  0.00     0.116 C 
BRANCH  31  32
ATOM     32  N   UNL A   1      33.985  32.164  28.041  1.00  0.00    -0.352 N 
ATOM     33  C   UNL A   1      34.400  32.934  29.107  1.00  0.00     0.251 C 
ATOM     34  H   UNL A   1      33.191  32.502  27.568  1.00  0.00     0.163 HD
ATOM     35  O   UNL A   1      33.654  33.815  29.530  1.00  0.00    -0.269 OA
BRANCH  33  36
ATOM     36  C   UNL A   1      35.786  32.831  29.636  1.00  0.00     0.039 A 
ATOM     37  C   UNL A   1      36.805  33.432  28.880  1.00  0.00     0.014 A 
ATOM     38  C   UNL A   1      36.124  32.011  30.708  1.00  0.00     0.014 A 
ATOM     39  C   UNL A   1      38.125  33.022  29.042  1.00  0.00     0.010 A 
ATOM     40  C   UNL A   1      37.409  31.524  30.806  1.00  0.00     0.010 A 
ATOM     41  C   UNL A   1      38.392  31.988  29.933  1.00  0.00    -0.014 A 
BRANCH  41  42
ATOM     42  C   UNL A   1      39.665  31.296  30.011  1.00  0.00     0.031 A 
ATOM     43  C   UNL A   1      39.808  29.972  29.383  1.00  0.00     0.074 A 
ATOM     44  C   UNL A   1      40.723  31.931  30.557  1.00  0.00     0.049 A 
ATOM     45  N   UNL A   1      40.681  29.097  29.739  1.00  0.00    -0.248 NA
ATOM     46  C   UNL A   1      38.943  29.519  28.300  1.00  0.00     0.031 C 
ATOM     47  C   UNL A   1      42.124  31.528  30.506  1.00  0.00     0.029 A 
ATOM     48  N   UNL A   1      40.702  33.007  31.459  1.00  0.00    -0.354 N 
ATOM     49  C   UNL A   1      40.690  28.107  28.785  1.00  0.00     0.074 A 
ATOM     50  C   UNL A   1      39.545  28.379  27.946  1.00  0.00     0.031 C 
ATOM     51  C   UNL A   1      42.774  32.098  31.534  1.00  0.00     0.029 A 
ATOM     52  C   UNL A   1      41.776  32.770  32.348  1.00  0.00     0.049 A 
ATOM     53  H   UNL A   1      40.073  33.765  31.471  1.00  0.00     0.167 HD
ATOM     54  C   UNL A   1      41.751  27.253  28.730  1.00  0.00     0.037 A 
ATOM     55  C   UNL A   1      41.549  32.522  33.670  1.00  0.00     0.037 A 
ATOM     56  C   UNL A   1      42.707  27.544  29.793  1.00  0.00     0.049 A 
ATOM     57  C   UNL A   1      42.049  31.171  34.121  1.00  0.00     0.074 A 
ATOM     58  C   UNL A   1      43.871  28.297  29.817  1.00  0.00     0.029 A 
ATOM     59  N   UNL A   1      42.340  27.344  31.120  1.00  0.00    -0.354 N 
ATOM     60  N   UNL A   1      42.254  30.167  33.312  1.00  0.00    -0.248 NA
ATOM     61  C   UNL A   1      42.365  30.843  35.507  1.00  0.00     0.031 C 
ATOM     62  C   UNL A   1      44.175  28.595  31.168  1.00  0.00     0.029 A 
ATOM     63  C   UNL A   1      43.213  28.000  31.966  1.00  0.00     0.049 A 
ATOM     64  H   UNL A   1      41.566  26.812  31.415  1.00  0.00     0.167 HD
ATOM     65  C   UNL A   1      42.737  29.097  34.020  1.00  0.00     0.074 A 
ATOM     66  C   UNL A   1      42.791  29.572  35.390  1.00  0.00     0.031 C 
ATOM     67  C   UNL A   1      43.066  27.918  33.410  1.00  0.00     0.037 A 
BRANCH  54  68
ATOM     68  C   UNL A   1      42.056  26.387  27.531  1.00  0.00     0.064 A 
ATOM     69  C   UNL A   1      41.434  25.130  27.365  1.00  0.00     0.173 A 
ATOM     70  C   UNL A   1      42.994  26.718  26.537  1.00  0.00     0.173 A 
ATOM     71  F   UNL A   1      40.447  24.723  28.173  1.00  0.00    -0.203 F 
ATOM     72  C   UNL A   1      41.809  24.233  26.362  1.00  0.00     0.198 A 
ATOM     73  C   UNL A   1      43.409  25.801  25.565  1.00  0.00     0.198 A 
ATOM     74  F   UNL A   1      43.505  27.954  26.453  1.00  0.00    -0.203 F 
ATOM     75  F   UNL A   1      41.189  23.049  26.264  1.00  0.00    -0.200 F 
ATOM     76  C   UNL A   1      42.824  24.553  25.485  1.00  0.00     0.200 A 
ATOM     77  F   UNL A   1      44.384  26.136  24.707  1.00  0.00    -0.200 F 
ATOM     78  F   UNL A   1      43.220  23.674  24.556  1.00  0.00    -0.200 F 
ENDBRANCH  54  68
BRANCH  55  79
ATOM     79  C   UNL A   1      40.350  33.238  34.187  1.00  0.00     0.064 A 
ATOM     80  C   UNL A   1      39.163  32.492  34.336  1.00  0.00     0.173 A 
ATOM     81  C   UNL A   1      40.458  34.431  34.909  1.00  0.00     0.173 A 
ATOM     82  F   UNL A   1      39.008  31.340  33.664  1.00  0.00    -0.203 F 
ATOM     83  C   UNL A   1      38.195  32.847  35.274  1.00  0.00     0.198 A 
ATOM     84  C   UNL A   1      39.472  34.797  35.833  1.00  0.00     0.198 A 
ATOM     85  F   UNL A   1      41.564  35.183  34.819  1.00  0.00    -0.203 F 
ATOM     86  F   UNL A   1      37.144  32.042  35.487  1.00  0.00    -0.200 F 
ATOM     87  C   UNL A   1      38.367  33.983  36.045  1.00  0.00     0.200 A 
ATOM     88  F   UNL A   1      39.639  35.894  36.584  1.00  0.00    -0.200 F 
ATOM     89  F   UNL A   1      37.489  34.272  37.015  1.00  0.00    -0.200 F 
ENDBRANCH  55  79
BRANCH  67  90
ATOM     90  C   UNL A   1      43.388  26.599  34.080  1.00  0.00     0.064 A 
ATOM     91  C   UNL A   1      42.469  25.844  34.824  1.00  0.00     0.173 A 
ATOM     92  C   UNL A   1      44.640  25.967  33.849  1.00  0.00     0.173 A 
ATOM     93  F   UNL A   1      41.214  26.268  35.022  1.00  0.00    -0.203 F 
ATOM     94  C   UNL A   1      42.790  24.584  35.341  1.00  0.00     0.198 A 
ATOM     95  C   UNL A   1      44.932  24.684  34.308  1.00  0.00     0.198 A 
ATOM     96  F   UNL A   1      45.611  26.561  33.140  1.00  0.00    -0.203 F 
ATOM     97  F   UNL A   1      41.890  23.923  36.080  1.00  0.00    -0.200 F 
ATOM     98  C   UNL A   1      44.013  23.999  35.069  1.00  0.00     0.200 A 
ATOM     99  F   UNL A   1      46.103  24.114  33.988  1.00  0.00    -0.200 F 
ATOM    100  F   UNL A   1      44.294  22.769  35.521  1.00  0.00    -0.200 F 
ENDBRANCH  67  90
ENDBRANCH  41  42
ENDBRANCH  33  36
ENDBRANCH  31  32
ENDBRANCH  30  31
ENDBRANCH  29  30
ENDBRANCH  28  29
ENDBRANCH   1  28
TORSDOF 18
ENDMDL
MODEL 2
REMARK VINA RESULT:     -11.7      1.763      4.191
REMARK SMILES Cc1ccc(/N=N/c2ccc(NC(=O)CCC(=O)NCCCCCCNC(=O)c3ccc(-c4c5nc(c(-c6c(F)c(F)c(F)c(F)c6F)c6ccc([nH]6)c(-c6c(F)c(F)c(F)c(F)c6F)c6nc(c(-c7c(F)c(F)c(F)c(F)c7F)c7ccc4[nH]7)C=C6)C=C5)cc3)cc2)cc1
REMARK SMILES IDX 21 1 20 2 19 3 17 4 18 5 16 7 15 8 13 9 12 10 14 12 11 13
REMARK SMILES IDX 8 14 9 15 93 16 10 17 92 18 7 19 6 20 5 21 1 22 2 23 3 24
REMARK SMILES IDX 95 25 4 26 94 27 22 28 23 29 24 30 25 31 26 32 27 33 28 35
REMARK SMILES IDX 29 36 30 37 91 38 31 39 90 40 32 41 33 42 34 43 84 44 35 45
REMARK SMILES IDX 89 46 83 47 85 48 36 49 88 50 82 51 81 52 37 54 69 55 49 56
REMARK SMILES IDX 68 57 50 58 53 59 67 60 86 61 51 62 52 63 66 65 87 66 54 67
REMARK SMILES IDX 38 68 39 69 47 70 40 71 41 72 45 73 48 74 42 75 43 76 46 77
REMARK SMILES IDX 44 78 70 79 71 80 79 81 72 82 73 83 77 84 80 85 74 86 75 87
REMARK SMILES IDX 78 88 76 89 55 90 56 91 64 92 57 93 58 94 62 95 65 96 59 97
REMARK SMILES IDX 60 98 63 99 61 100
REMARK H PARENT 19 6 12 11 26 34 85 53 53 64
REMARK Flexibility Score: inf
ROOT
ATOM      1  C   UNL A   1      33.972  28.578  26.595  1.00  0.00     0.021 C 
ENDROOT
BRANCH   1   2
ATOM      2  C   UNL A   1      33.270  27.428  25.875  1.00  0.00     0.116 C 
BRANCH   2   3
ATOM      3  N   UNL A   1      33.562  27.381  24.455  1.00  0.00    -0.356 N 
ATOM      4  C   UNL A   1      32.836  27.855  23.404  1.00  0.00     0.220 C 
ATOM      5  O   UNL A   1      33.336  27.836  22.280  1.00  0.00    -0.275 OA
ATOM      6  H   UNL A   1      34.409  26.941  24.216  1.00  0.00     0.163 HD
BRANCH   4   7
ATOM      7  C   UNL A   1      31.436  28.382  23.622  1.00  0.00     0.110 C 
BRANCH   7   8
ATOM      8  C   UNL A   1      30.402  27.810  22.660  1.00  0.00     0.110 C 
BRANCH   8   9
ATOM      9  C   UNL A   1      29.178  27.221  23.330  1.00  0.00     0.224 C 
ATOM     10  N   UNL A   1      29.188  26.032  24.000  1.00  0.00    -0.326 N 
ATOM     11  H   UNL A   1      28.311  25.755  24.349  1.00  0.00     0.169 HD
ATOM     12  O   UNL A   1      28.131  27.881  23.368  1.00  0.00    -0.275 OA
BRANCH  10  13
ATOM     13  C   UNL A   1      30.229  25.137  24.277  1.00  0.00     0.041 A 
ATOM     14  C   UNL A   1      32.494  23.633  24.996  1.00  0.00     0.086 A 
ATOM     15  C   UNL A   1      32.102  23.746  23.660  1.00  0.00     0.032 A 
ATOM     16  C   UNL A   1      31.698  24.225  25.981  1.00  0.00     0.032 A 
ATOM     17  C   UNL A   1      30.969  24.478  23.302  1.00  0.00     0.028 A 
ATOM     18  C   UNL A   1      30.551  24.940  25.625  1.00  0.00     0.028 A 
BRANCH  14  19
ATOM     19  N   UNL A   1      33.684  22.940  25.272  1.00  0.00    -0.151 NA
ATOM     20  N   UNL A   1      34.648  23.407  24.637  1.00  0.00    -0.151 NA
BRANCH  20  21
ATOM     21  C   UNL A   1      35.891  22.912  25.085  1.00  0.00     0.086 A 
ATOM     22  C   UNL A   1      39.765  21.233  26.015  1.00  0.00     0.044 C 
ATOM     23  C   UNL A   1      38.412  21.811  25.731  1.00  0.00    -0.051 A 
ATOM     24  C   UNL A   1      37.451  21.044  25.065  1.00  0.00     0.006 A 
ATOM     25  C   UNL A   1      38.097  23.122  26.101  1.00  0.00     0.006 A 
ATOM     26  C   UNL A   1      36.206  21.591  24.748  1.00  0.00     0.030 A 
ATOM     27  C   UNL A   1      36.849  23.664  25.784  1.00  0.00     0.030 A 
ENDBRANCH  20  21
ENDBRANCH  14  19
ENDBRANCH  10  13
ENDBRANCH   8   9
ENDBRANCH   7   8
ENDBRANCH   4   7
ENDBRANCH   2   3
ENDBRANCH   1   2
BRANCH   1  28
ATOM     28  C   UNL A   1      33.386  29.973  26.357  1.00  0.00     0.002 C 
BRANCH  28  29
ATOM     29  C   UNL A   1      33.430  30.940  27.547  1.00  0.00     0.002 C 
BRANCH  29  30
ATOM     30  C   UNL A   1      34.820  31.414  27.975  1.00  0.00     0.021 C 
BRANCH  30  31
ATOM     31  C   UNL A   1      35.008  32.922  27.919  1.00  0.00     0.116 C 
BRANCH  31  32
ATOM     32  N   UNL A   1      34.304  33.645  28.960  1.00  0.00    -0.352 N 
ATOM     33  C   UNL A   1      34.617  33.805  30.293  1.00  0.00     0.251 C 
ATOM     34  H   UNL A   1      33.475  34.091  28.671  1.00  0.00     0.163 HD
ATOM     35  O   UNL A   1      33.766  34.263  31.053  1.00  0.00    -0.269 OA
BRANCH  33  36
ATOM     36  C   UNL A   1      36.004  33.595  30.788  1.00  0.00     0.039 A 
ATOM     37  C   UNL A   1      37.037  34.229  30.079  1.00  0.00     0.014 A 
ATOM     38  C   UNL A   1      36.321  32.659  31.766  1.00  0.00     0.014 A 
ATOM     39  C   UNL A   1      38.341  33.754  30.179  1.00  0.00     0.010 A 
ATOM     40  C   UNL A   1      37.586  32.115  31.795  1.00  0.00     0.010 A 
ATOM     41  C   UNL A   1      38.577  32.625  30.958  1.00  0.00    -0.014 A 
BRANCH  41  42
ATOM     42  C   UNL A   1      39.821  31.880  30.946  1.00  0.00     0.031 A 
ATOM     43  C   UNL A   1      39.915  30.643  30.153  1.00  0.00     0.074 A 
ATOM     44  C   UNL A   1      40.901  32.398  31.568  1.00  0.00     0.049 A 
ATOM     45  N   UNL A   1      40.753  29.696  30.395  1.00  0.00    -0.248 NA
ATOM     46  C   UNL A   1      39.039  30.365  29.022  1.00  0.00     0.031 C 
ATOM     47  C   UNL A   1      42.286  31.950  31.466  1.00  0.00     0.029 A 
ATOM     48  N   UNL A   1      40.918  33.349  32.601  1.00  0.00    -0.354 N 
ATOM     49  C   UNL A   1      40.727  28.836  29.322  1.00  0.00     0.074 A 
ATOM     50  C   UNL A   1      39.598  29.258  28.525  1.00  0.00     0.031 C 
ATOM     51  C   UNL A   1      42.952  32.358  32.558  1.00  0.00     0.029 A 
ATOM     52  C   UNL A   1      41.977  32.959  33.452  1.00  0.00     0.049 A 
ATOM     53  H   UNL A   1      40.319  34.124  32.710  1.00  0.00     0.167 HD
ATOM     54  C   UNL A   1      41.754  27.955  29.157  1.00  0.00     0.037 A 
ATOM     55  C   UNL A   1      41.734  32.553  34.731  1.00  0.00     0.037 A 
ATOM     56  C   UNL A   1      42.716  28.070  30.249  1.00  0.00     0.049 A 
ATOM     57  C   UNL A   1      42.179  31.137  35.005  1.00  0.00     0.074 A 
ATOM     58  C   UNL A   1      43.908  28.768  30.369  1.00  0.00     0.029 A 
ATOM     59  N   UNL A   1      42.335  27.717  31.539  1.00  0.00    -0.354 N 
ATOM     60  N   UNL A   1      42.349  30.238  34.074  1.00  0.00    -0.248 NA
ATOM     61  C   UNL A   1      42.476  30.622  36.338  1.00  0.00     0.031 C 
ATOM     62  C   UNL A   1      44.217  28.878  31.746  1.00  0.00     0.029 A 
ATOM     63  C   UNL A   1      43.229  28.224  32.462  1.00  0.00     0.049 A 
ATOM     64  H   UNL A   1      41.540  27.182  31.764  1.00  0.00     0.167 HD
ATOM     65  C   UNL A   1      42.787  29.068  34.640  1.00  0.00     0.074 A 
ATOM     66  C   UNL A   1      42.853  29.361  36.059  1.00  0.00     0.031 C 
ATOM     67  C   UNL A   1      43.072  27.964  33.884  1.00  0.00     0.037 A 
BRANCH  54  68
ATOM     68  C   UNL A   1      42.031  27.238  27.858  1.00  0.00     0.064 A 
ATOM     69  C   UNL A   1      41.474  25.967  27.595  1.00  0.00     0.173 A 
ATOM     70  C   UNL A   1      42.881  27.729  26.852  1.00  0.00     0.173 A 
ATOM     71  F   UNL A   1      40.567  25.416  28.412  1.00  0.00    -0.203 F 
ATOM     72  C   UNL A   1      41.835  25.204  26.483  1.00  0.00     0.198 A 
ATOM     73  C   UNL A   1      43.285  26.945  25.764  1.00  0.00     0.198 A 
ATOM     74  F   UNL A   1      43.313  28.998  26.869  1.00  0.00    -0.203 F 
ATOM     75  F   UNL A   1      41.281  23.998  26.296  1.00  0.00    -0.200 F 
ATOM     76  C   UNL A   1      42.771  25.677  25.587  1.00  0.00     0.200 A 
ATOM     77  F   UNL A   1      44.182  27.429  24.892  1.00  0.00    -0.200 F 
ATOM     78  F   UNL A   1      43.156  24.925  24.548  1.00  0.00    -0.200 F 
ENDBRANCH  54  68
BRANCH  55  79
ATOM     79  C   UNL A   1      40.562  33.243  35.336  1.00  0.00     0.064 A 
ATOM     80  C   UNL A   1      39.381  32.492  35.503  1.00  0.00     0.173 A 
ATOM     81  C   UNL A   1      40.705  34.401  36.108  1.00  0.00     0.173 A 
ATOM     82  F   UNL A   1      39.193  31.373  34.784  1.00  0.00    -0.203 F 
ATOM     83  C   UNL A   1      38.458  32.801  36.500  1.00  0.00     0.198 A 
ATOM     84  C   UNL A   1      39.763  34.722  37.092  1.00  0.00     0.198 A 
ATOM     85  F   UNL A   1      41.807  35.156  36.004  1.00  0.00    -0.203 F 
ATOM     86  F   UNL A   1      37.416  31.987  36.722  1.00  0.00    -0.200 F 
ATOM     87  C   UNL A   1      38.667  33.899  37.315  1.00  0.00     0.200 A 
ATOM     88  F   UNL A   1      39.966  35.782  37.887  1.00  0.00    -0.200 F 
ATOM     89  F   UNL A   1      37.835  34.142  38.338  1.00  0.00    -0.200 F 
ENDBRANCH  55  79
BRANCH  67  90
ATOM     90  C   UNL A   1      43.340  26.559  34.380  1.00  0.00     0.064 A 
ATOM     91  C   UNL A   1      42.355  25.698  34.888  1.00  0.00     0.173 A 
ATOM     92  C   UNL A   1      44.622  25.971  34.203  1.00  0.00     0.173 A 
ATOM     93  F   UNL A   1      41.078  26.086  35.000  1.00  0.00    -0.203 F 
ATOM     94  C   UNL A   1      42.639  24.374  35.242  1.00  0.00     0.198 A 
ATOM     95  C   UNL A   1      44.883  24.634  34.495  1.00  0.00     0.198 A 
ATOM     96  F   UNL A   1      45.657  26.667  33.711  1.00  0.00    -0.203 F 
ATOM     97  F   UNL A   1      41.671  23.608  35.762  1.00  0.00    -0.200 F 
ATOM     98  C   UNL A   1      43.896  23.839  35.030  1.00  0.00     0.200 A 
ATOM     99  F   UNL A   1      46.093  24.120  34.230  1.00  0.00    -0.200 F 
ATOM    100  F   UNL A   1      44.145  22.555  35.320  1.00  0.00    -0.200 F 
ENDBRANCH  67  90
ENDBRANCH  41  42
ENDBRANCH  33  36
ENDBRANCH  31  32
ENDBRANCH  30  31
ENDBRANCH  29  30
ENDBRANCH  28  29
ENDBRANCH   1  28
TORSDOF 18
ENDMDL
MODEL 3
REMARK VINA RESULT:     -11.6      6.196     10.324
REMARK SMILES Cc1ccc(/N=N/c2ccc(NC(=O)CCC(=O)NCCCCCCNC(=O)c3ccc(-c4c5nc(c(-c6c(F)c(F)c(F)c(F)c6F)c6ccc([nH]6)c(-c6c(F)c(F)c(F)c(F)c6F)c6nc(c(-c7c(F)c(F)c(F)c(F)c7F)c7ccc4[nH]7)C=C6)C=C5)cc3)cc2)cc1
REMARK SMILES IDX 21 1 20 2 19 3 17 4 18 5 16 7 15 8 13 9 12 10 14 12 11 13
REMARK SMILES IDX 8 14 9 15 93 16 10 17 92 18 7 19 6 20 5 21 1 22 2 23 3 24
REMARK SMILES IDX 95 25 4 26 94 27 22 28 23 29 24 30 25 31 26 32 27 33 28 35
REMARK SMILES IDX 29 36 30 37 91 38 31 39 90 40 32 41 33 42 34 43 84 44 35 45
REMARK SMILES IDX 89 46 83 47 85 48 36 49 88 50 82 51 81 52 37 54 69 55 49 56
REMARK SMILES IDX 68 57 50 58 53 59 67 60 86 61 51 62 52 63 66 65 87 66 54 67
REMARK SMILES IDX 38 68 39 69 47 70 40 71 41 72 45 73 48 74 42 75 43 76 46 77
REMARK SMILES IDX 44 78 70 79 71 80 79 81 72 82 73 83 77 84 80 85 74 86 75 87
REMARK SMILES IDX 78 88 76 89 55 90 56 91 64 92 57 93 58 94 62 95 65 96 59 97
REMARK SMILES IDX 60 98 63 99 61 100
REMARK H PARENT 19 6 12 11 26 34 85 53 53 64
REMARK Flexibility Score: inf
ROOT
ATOM      1  C   UNL A   1      41.413  34.837  30.056  1.00  0.00     0.021 C 
ENDROOT
BRANCH   1   2
ATOM      2  C   UNL A   1      42.727  34.748  29.282  1.00  0.00     0.116 C 
BRANCH   2   3
ATOM      3  N   UNL A   1      42.553  34.862  27.846  1.00  0.00    -0.356 N 
ATOM      4  C   UNL A   1      42.851  35.899  27.016  1.00  0.00     0.220 C 
ATOM      5  O   UNL A   1      42.753  35.734  25.800  1.00  0.00    -0.275 OA
ATOM      6  H   UNL A   1      42.160  34.072  27.408  1.00  0.00     0.163 HD
BRANCH   4   7
ATOM      7  C   UNL A   1      43.283  37.230  27.586  1.00  0.00     0.110 C 
BRANCH   7   8
ATOM      8  C   UNL A   1      42.466  38.414  27.082  1.00  0.00     0.110 C 
BRANCH   8   9
ATOM      9  C   UNL A   1      42.573  39.662  27.935  1.00  0.00     0.224 C 
ATOM     10  N   UNL A   1      42.766  40.910  27.417  1.00  0.00    -0.326 N 
ATOM     11  H   UNL A   1      42.856  41.620  28.093  1.00  0.00     0.169 HD
ATOM     12  O   UNL A   1      42.380  39.580  29.155  1.00  0.00    -0.275 OA
BRANCH  10  13
ATOM     13  C   UNL A   1      42.857  41.357  26.094  1.00  0.00     0.041 A 
ATOM     14  C   UNL A   1      43.076  42.605  23.583  1.00  0.00     0.086 A 
ATOM     15  C   UNL A   1      41.946  41.855  23.916  1.00  0.00     0.032 A 
ATOM     16  C   UNL A   1      44.132  42.667  24.497  1.00  0.00     0.032 A 
ATOM     17  C   UNL A   1      41.841  41.222  25.155  1.00  0.00     0.028 A 
ATOM     18  C   UNL A   1      44.038  42.015  25.728  1.00  0.00     0.028 A 
BRANCH  14  19
ATOM     19  N   UNL A   1      43.078  43.270  22.347  1.00  0.00    -0.151 NA
ATOM     20  N   UNL A   1      42.651  42.544  21.430  1.00  0.00    -0.151 NA
BRANCH  20  21
ATOM     21  C   UNL A   1      42.393  43.257  20.239  1.00  0.00     0.086 A 
ATOM     22  C   UNL A   1      41.895  45.133  16.376  1.00  0.00     0.044 C 
ATOM     23  C   UNL A   1      42.059  44.517  17.733  1.00  0.00    -0.051 A 
ATOM     24  C   UNL A   1      43.339  44.227  18.217  1.00  0.00     0.006 A 
ATOM     25  C   UNL A   1      40.948  44.204  18.520  1.00  0.00     0.006 A 
ATOM     26  C   UNL A   1      43.499  43.605  19.457  1.00  0.00     0.030 A 
ATOM     27  C   UNL A   1      41.115  43.583  19.761  1.00  0.00     0.030 A 
ENDBRANCH  20  21
ENDBRANCH  14  19
ENDBRANCH  10  13
ENDBRANCH   8   9
ENDBRANCH   7   8
ENDBRANCH   4   7
ENDBRANCH   2   3
ENDBRANCH   1   2
BRANCH   1  28
ATOM     28  C   UNL A   1      40.206  34.156  29.404  1.00  0.00     0.002 C 
BRANCH  28  29
ATOM     29  C   UNL A   1      38.887  34.220  30.184  1.00  0.00     0.002 C 
BRANCH  29  30
ATOM     30  C   UNL A   1      37.659  33.647  29.475  1.00  0.00     0.021 C 
BRANCH  30  31
ATOM     31  C   UNL A   1      36.705  32.896  30.390  1.00  0.00     0.116 C 
BRANCH  31  32
ATOM     32  N   UNL A   1      35.503  32.423  29.732  1.00  0.00    -0.352 N 
ATOM     33  C   UNL A   1      35.340  31.418  28.803  1.00  0.00     0.251 C 
ATOM     34  H   UNL A   1      34.675  32.890  29.988  1.00  0.00     0.163 HD
ATOM     35  O   UNL A   1      34.271  31.332  28.200  1.00  0.00    -0.269 OA
BRANCH  33  36
ATOM     36  C   UNL A   1      36.360  30.347  28.642  1.00  0.00     0.039 A 
ATOM     37  C   UNL A   1      36.623  29.542  29.762  1.00  0.00     0.014 A 
ATOM     38  C   UNL A   1      37.182  30.252  27.524  1.00  0.00     0.014 A 
ATOM     39  C   UNL A   1      37.824  28.845  29.849  1.00  0.00     0.010 A 
ATOM     40  C   UNL A   1      38.416  29.650  27.643  1.00  0.00     0.010 A 
ATOM     41  C   UNL A   1      38.756  28.999  28.827  1.00  0.00    -0.014 A 
BRANCH  41  42
ATOM     42  C   UNL A   1      40.130  28.544  28.910  1.00  0.00     0.031 A 
ATOM     43  C   UNL A   1      40.455  27.155  28.548  1.00  0.00     0.074 A 
ATOM     44  C   UNL A   1      41.099  29.436  29.208  1.00  0.00     0.049 A 
ATOM     45  N   UNL A   1      41.488  26.521  28.980  1.00  0.00    -0.248 NA
ATOM     46  C   UNL A   1      39.609  26.352  27.672  1.00  0.00     0.031 C 
ATOM     47  C   UNL A   1      42.542  29.251  29.095  1.00  0.00     0.029 A 
ATOM     48  N   UNL A   1      40.955  30.663  29.874  1.00  0.00    -0.354 N 
ATOM     49  C   UNL A   1      41.602  25.362  28.248  1.00  0.00     0.074 A 
ATOM     50  C   UNL A   1      40.373  25.270  27.493  1.00  0.00     0.031 C 
ATOM     51  C   UNL A   1      43.152  30.121  29.917  1.00  0.00     0.029 A 
ATOM     52  C   UNL A   1      42.112  30.790  30.678  1.00  0.00     0.049 A 
ATOM     53  H   UNL A   1      40.208  31.300  29.799  1.00  0.00     0.167 HD
ATOM     54  C   UNL A   1      42.787  24.690  28.255  1.00  0.00     0.037 A 
ATOM     55  C   UNL A   1      42.021  30.798  32.039  1.00  0.00     0.037 A 
ATOM     56  C   UNL A   1      43.750  25.345  29.135  1.00  0.00     0.049 A 
ATOM     57  C   UNL A   1      42.775  29.668  32.697  1.00  0.00     0.074 A 
ATOM     58  C   UNL A   1      44.765  26.256  28.889  1.00  0.00     0.029 A 
ATOM     59  N   UNL A   1      43.513  25.380  30.506  1.00  0.00    -0.354 N 
ATOM     60  N   UNL A   1      43.094  28.558  32.087  1.00  0.00    -0.248 NA
ATOM     61  C   UNL A   1      43.237  29.696  34.081  1.00  0.00     0.031 C 
ATOM     62  C   UNL A   1      45.106  26.878  30.115  1.00  0.00     0.029 A 
ATOM     63  C   UNL A   1      44.317  26.327  31.110  1.00  0.00     0.049 A 
ATOM     64  H   UNL A   1      42.865  24.810  30.979  1.00  0.00     0.167 HD
ATOM     65  C   UNL A   1      43.801  27.752  32.942  1.00  0.00     0.074 A 
ATOM     66  C   UNL A   1      43.866  28.511  34.176  1.00  0.00     0.031 C 
ATOM     67  C   UNL A   1      44.284  26.534  32.549  1.00  0.00     0.037 A 
BRANCH  54  68
ATOM     68  C   UNL A   1      43.154  23.645  27.229  1.00  0.00     0.064 A 
ATOM     69  C   UNL A   1      42.576  22.357  27.264  1.00  0.00     0.173 A 
ATOM     70  C   UNL A   1      44.110  23.836  26.216  1.00  0.00     0.173 A 
ATOM     71  F   UNL A   1      41.579  22.058  28.106  1.00  0.00    -0.203 F 
ATOM     72  C   UNL A   1      43.008  21.318  26.437  1.00  0.00     0.198 A 
ATOM     73  C   UNL A   1      44.581  22.783  25.424  1.00  0.00     0.198 A 
ATOM     74  F   UNL A   1      44.586  25.057  25.935  1.00  0.00    -0.203 F 
ATOM     75  F   UNL A   1      42.428  20.112  26.527  1.00  0.00    -0.200 F 
ATOM     76  C   UNL A   1      44.038  21.520  25.543  1.00  0.00     0.200 A 
ATOM     77  F   UNL A   1      45.571  23.003  24.545  1.00  0.00    -0.200 F 
ATOM     78  F   UNL A   1      44.489  20.511  24.787  1.00  0.00    -0.200 F 
ENDBRANCH  54  68
BRANCH  55  79
ATOM     79  C   UNL A   1      40.756  31.415  32.523  1.00  0.00     0.064 A 
ATOM     80  C   UNL A   1      39.705  30.546  32.881  1.00  0.00     0.173 A 
ATOM     81  C   UNL A   1      40.717  32.718  33.030  1.00  0.00     0.173 A 
ATOM     82  F   UNL A   1      39.694  29.285  32.420  1.00  0.00    -0.203 F 
ATOM     83  C   UNL A   1      38.744  30.916  33.820  1.00  0.00     0.198 A 
ATOM     84  C   UNL A   1      39.735  33.094  33.955  1.00  0.00     0.198 A 
ATOM     85  F   UNL A   1      41.689  33.592  32.735  1.00  0.00    -0.203 F 
ATOM     86  F   UNL A   1      37.841  30.019  34.241  1.00  0.00    -0.200 F 
ATOM     87  C   UNL A   1      38.780  32.181  34.380  1.00  0.00     0.200 A 
ATOM     88  F   UNL A   1      39.771  34.317  34.503  1.00  0.00    -0.200 F 
ATOM     89  F   UNL A   1      37.919  32.505  35.355  1.00  0.00    -0.200 F 
ENDBRANCH  55  79
BRANCH  67  90
ATOM     90  C   UNL A   1      44.874  25.454  33.432  1.00  0.00     0.064 A 
ATOM     91  C   UNL A   1      44.124  24.649  34.303  1.00  0.00     0.173 A 
ATOM     92  C   UNL A   1      46.241  25.091  33.301  1.00  0.00     0.173 A 
ATOM     93  F   UNL A   1      42.802  24.806  34.437  1.00  0.00    -0.203 F 
ATOM     94  C   UNL A   1      44.704  23.599  35.025  1.00  0.00     0.198 A 
ATOM     95  C   UNL A   1      46.799  24.004  33.971  1.00  0.00     0.198 A 
ATOM     96  F   UNL A   1      47.076  25.760  32.492  1.00  0.00    -0.203 F 
ATOM     97  F   UNL A   1      43.952  22.887  35.874  1.00  0.00    -0.200 F 
ATOM     98  C   UNL A   1      46.034  23.268  34.846  1.00  0.00     0.200 A 
ATOM     99  F   UNL A   1      48.077  23.666  33.742  1.00  0.00    -0.200 F 
ATOM    100  F   UNL A   1      46.569  22.228  35.499  1.00  0.00    -0.200 F 
ENDBRANCH  67  90
ENDBRANCH  41  42
ENDBRANCH  33  36
ENDBRANCH  31  32
ENDBRANCH  30  31
ENDBRANCH  29  30
ENDBRANCH  28  29
ENDBRANCH   1  28
TORSDOF 18
ENDMDL
