MODEL 1
REMARK VINA RESULT:     -14.6      0.000      0.000
REMARK SMILES Cc1c(C(=O)NCCCCCCNC(=O)c2ccc(-c3c4nc(c(-c5c(F)c(F)c(F)c(F)c5F)c5ccc([nH]5)c(-c5c(F)c(F)c(F)c(F)c5F)c5nc(c(-c6c(F)c(F)c(F)c(F)c6F)c6ccc3[nH]6)C=C5)C=C4)cc2)cccc1-n1c(C)cc(/C=C2/C(=O)NC(=S)N=C2O)c1C
REMARK SMILES IDX 9 1 8 2 7 3 6 4 4 5 5 6 3 8 1 9 2 10 82 11 79 12 81 13 80 14
REMARK SMILES IDX 83 15 84 16 98 17 85 18 86 19 87 20 99 21 88 22 89 23 90 24
REMARK SMILES IDX 96 25 91 26 92 27 95 28 93 29 94 31 97 32 10 34 11 35 12 36
REMARK SMILES IDX 13 37 14 38 15 40 16 41 17 42 78 43 18 44 77 45 19 46 20 47
REMARK SMILES IDX 21 48 71 49 22 50 76 51 70 52 72 53 23 54 75 55 69 56 68 57
REMARK SMILES IDX 24 59 56 60 36 61 55 62 37 63 40 64 54 65 73 66 38 67 39 68
REMARK SMILES IDX 53 70 74 71 41 72 25 73 26 74 34 75 27 76 28 77 32 78 35 79
REMARK SMILES IDX 29 80 30 81 33 82 31 83 57 84 58 85 66 86 59 87 60 88 64 89
REMARK SMILES IDX 67 90 61 91 62 92 65 93 63 94 42 95 43 96 51 97 44 98 45 99
REMARK SMILES IDX 49 100 52 101 46 102 47 103 50 104 48 105
REMARK H PARENT 6 7 92 30 97 33 13 39 72 58 40 69
REMARK Flexibility Score: inf
ROOT
ATOM      1  C   UNL A   1      31.595  30.784  25.744  1.00  0.00     0.002 C 
ENDROOT
BRANCH   1   2
ATOM      2  C   UNL A   1      30.431  30.626  24.757  1.00  0.00     0.021 C 
BRANCH   2   3
ATOM      3  C   UNL A   1      30.491  29.382  23.852  1.00  0.00     0.116 C 
BRANCH   3   4
ATOM      4  N   UNL A   1      31.734  29.365  23.108  1.00  0.00    -0.352 N 
ATOM      5  C   UNL A   1      32.855  28.588  23.060  1.00  0.00     0.251 C 
ATOM      6  O   UNL A   1      33.692  28.948  22.223  1.00  0.00    -0.269 OA
ATOM      7  H   UNL A   1      31.784  30.112  22.469  1.00  0.00     0.163 HD
BRANCH   5   8
ATOM      8  C   UNL A   1      33.155  27.347  23.849  1.00  0.00     0.044 A 
ATOM      9  C   UNL A   1      31.770  25.641  22.526  1.00  0.00     0.047 C 
ATOM     10  C   UNL A   1      32.666  26.036  23.660  1.00  0.00    -0.014 A 
ATOM     11  C   UNL A   1      33.009  25.056  24.633  1.00  0.00     0.049 A 
ATOM     12  C   UNL A   1      33.896  27.621  25.030  1.00  0.00     0.014 A 
ATOM     13  C   UNL A   1      33.737  25.353  25.789  1.00  0.00     0.027 A 
ATOM     14  C   UNL A   1      34.173  26.649  25.992  1.00  0.00     0.003 A 
BRANCH  11  15
ATOM     15  N   UNL A   1      32.504  23.737  24.541  1.00  0.00    -0.318 N 
ATOM     16  C   UNL A   1      31.382  23.265  25.194  1.00  0.00     0.020 A 
ATOM     17  C   UNL A   1      33.110  22.699  23.840  1.00  0.00     0.027 A 
ATOM     18  C   UNL A   1      30.587  24.076  26.155  1.00  0.00     0.065 C 
ATOM     19  C   UNL A   1      31.198  21.958  24.792  1.00  0.00     0.031 A 
ATOM     20  C   UNL A   1      32.269  21.600  23.927  1.00  0.00    -0.003 A 
ATOM     21  C   UNL A   1      34.451  22.888  23.205  1.00  0.00     0.065 C 
BRANCH  20  22
ATOM     22  C   UNL A   1      32.454  20.269  23.441  1.00  0.00     0.029 C 
ATOM     23  C   UNL A   1      32.711  19.101  24.058  1.00  0.00     0.102 C 
ATOM     24  C   UNL A   1      32.653  17.890  23.199  1.00  0.00     0.262 C 
ATOM     25  C   UNL A   1      32.954  18.802  25.469  1.00  0.00     0.226 C 
ATOM     26  O   UNL A   1      32.680  17.907  21.973  1.00  0.00    -0.269 OA
ATOM     27  N   UNL A   1      32.506  16.721  23.898  1.00  0.00    -0.297 N 
ATOM     28  N   UNL A   1      32.853  17.656  26.039  1.00  0.00    -0.184 NA
ATOM     29  C   UNL A   1      32.516  16.580  25.262  1.00  0.00     0.203 C 
ATOM     30  H   UNL A   1      32.380  15.901  23.367  1.00  0.00     0.172 HD
ATOM     31  S   UNL A   1      32.166  15.065  25.889  1.00  0.00    -0.038 S 
BRANCH  25  32
ATOM     32  O   UNL A   1      33.394  19.810  26.223  1.00  0.00    -0.493 OA
ATOM     33  H   UNL A   1      34.234  19.755  26.635  1.00  0.00     0.295 HD
ENDBRANCH  25  32
ENDBRANCH  20  22
ENDBRANCH  11  15
ENDBRANCH   5   8
ENDBRANCH   3   4
ENDBRANCH   2   3
ENDBRANCH   1   2
BRANCH   1  34
ATOM     34  C   UNL A   1      31.698  29.715  26.841  1.00  0.00     0.002 C 
BRANCH  34  35
ATOM     35  C   UNL A   1      33.000  29.719  27.643  1.00  0.00     0.021 C 
BRANCH  35  36
ATOM     36  C   UNL A   1      34.009  30.757  27.166  1.00  0.00     0.116 C 
BRANCH  36  37
ATOM     37  N   UNL A   1      34.552  31.564  28.254  1.00  0.00    -0.352 N 
ATOM     38  C   UNL A   1      35.580  31.289  29.141  1.00  0.00     0.251 C 
ATOM     39  H   UNL A   1      34.121  32.441  28.376  1.00  0.00     0.163 HD
ATOM     40  O   UNL A   1      35.865  32.071  30.023  1.00  0.00    -0.269 OA
BRANCH  38  41
ATOM     41  C   UNL A   1      36.426  30.096  28.896  1.00  0.00     0.039 A 
ATOM     42  C   UNL A   1      36.684  29.262  29.991  1.00  0.00     0.014 A 
ATOM     43  C   UNL A   1      37.140  29.957  27.712  1.00  0.00     0.014 A 
ATOM     44  C   UNL A   1      37.837  28.487  29.993  1.00  0.00     0.010 A 
ATOM     45  C   UNL A   1      38.332  29.265  27.745  1.00  0.00     0.010 A 
ATOM     46  C   UNL A   1      38.716  28.604  28.919  1.00  0.00    -0.014 A 
BRANCH  46  47
ATOM     47  C   UNL A   1      40.108  28.185  28.983  1.00  0.00     0.031 A 
ATOM     48  C   UNL A   1      40.494  26.825  28.567  1.00  0.00     0.074 A 
ATOM     49  C   UNL A   1      41.045  29.101  29.315  1.00  0.00     0.049 A 
ATOM     50  N   UNL A   1      41.613  26.259  28.866  1.00  0.00    -0.248 NA
ATOM     51  C   UNL A   1      39.593  25.956  27.825  1.00  0.00     0.031 C 
ATOM     52  C   UNL A   1      42.490  28.999  29.135  1.00  0.00     0.029 A 
ATOM     53  N   UNL A   1      40.869  30.265  30.086  1.00  0.00    -0.354 N 
ATOM     54  C   UNL A   1      41.706  25.093  28.139  1.00  0.00     0.074 A 
ATOM     55  C   UNL A   1      40.383  24.903  27.598  1.00  0.00     0.031 C 
ATOM     56  C   UNL A   1      43.092  29.845  29.986  1.00  0.00     0.029 A 
ATOM     57  C   UNL A   1      42.056  30.393  30.845  1.00  0.00     0.049 A 
ATOM     58  H   UNL A   1      40.086  30.862  30.097  1.00  0.00     0.167 HD
ATOM     59  C   UNL A   1      42.937  24.523  27.980  1.00  0.00     0.037 A 
ATOM     60  C   UNL A   1      42.045  30.291  32.205  1.00  0.00     0.037 A 
ATOM     61  C   UNL A   1      43.918  25.170  28.859  1.00  0.00     0.049 A 
ATOM     62  C   UNL A   1      42.909  29.175  32.744  1.00  0.00     0.074 A 
ATOM     63  C   UNL A   1      44.901  26.122  28.642  1.00  0.00     0.029 A 
ATOM     64  N   UNL A   1      43.757  25.082  30.240  1.00  0.00    -0.354 N 
ATOM     65  N   UNL A   1      43.304  28.155  32.033  1.00  0.00    -0.248 NA
ATOM     66  C   UNL A   1      43.371  29.104  34.126  1.00  0.00     0.031 C 
ATOM     67  C   UNL A   1      45.280  26.658  29.901  1.00  0.00     0.029 A 
ATOM     68  C   UNL A   1      44.549  26.013  30.884  1.00  0.00     0.049 A 
ATOM     69  H   UNL A   1      43.161  24.445  30.695  1.00  0.00     0.167 HD
ATOM     70  C   UNL A   1      44.033  27.303  32.820  1.00  0.00     0.074 A 
ATOM     71  C   UNL A   1      44.062  27.951  34.118  1.00  0.00     0.031 C 
ATOM     72  C   UNL A   1      44.539  26.131  32.334  1.00  0.00     0.037 A 
BRANCH  59  73
ATOM     73  C   UNL A   1      43.332  23.599  26.833  1.00  0.00     0.064 A 
ATOM     74  C   UNL A   1      42.981  22.228  26.869  1.00  0.00     0.173 A 
ATOM     75  C   UNL A   1      44.134  23.950  25.729  1.00  0.00     0.173 A 
ATOM     76  F   UNL A   1      42.138  21.744  27.789  1.00  0.00    -0.203 F 
ATOM     77  C   UNL A   1      43.485  21.289  25.959  1.00  0.00     0.198 A 
ATOM     78  C   UNL A   1      44.664  23.010  24.838  1.00  0.00     0.198 A 
ATOM     79  F   UNL A   1      44.404  25.218  25.423  1.00  0.00    -0.203 F 
ATOM     80  F   UNL A   1      43.134  20.000  26.069  1.00  0.00    -0.200 F 
ATOM     81  C   UNL A   1      44.353  21.675  24.961  1.00  0.00     0.200 A 
ATOM     82  F   UNL A   1      45.480  23.419  23.855  1.00  0.00    -0.200 F 
ATOM     83  F   UNL A   1      44.866  20.777  24.110  1.00  0.00    -0.200 F 
ENDBRANCH  59  73
BRANCH  60  84
ATOM     84  C   UNL A   1      40.776  30.763  32.819  1.00  0.00     0.064 A 
ATOM     85  C   UNL A   1      40.527  32.149  32.849  1.00  0.00     0.173 A 
ATOM     86  C   UNL A   1      39.685  29.906  33.002  1.00  0.00     0.173 A 
ATOM     87  F   UNL A   1      41.539  33.014  32.676  1.00  0.00    -0.203 F 
ATOM     88  C   UNL A   1      39.231  32.652  32.939  1.00  0.00     0.198 A 
ATOM     89  C   UNL A   1      38.387  30.415  33.104  1.00  0.00     0.198 A 
ATOM     90  F   UNL A   1      39.852  28.576  32.962  1.00  0.00    -0.203 F 
ATOM     91  F   UNL A   1      39.020  33.973  32.851  1.00  0.00    -0.200 F 
ATOM     92  C   UNL A   1      38.159  31.781  33.038  1.00  0.00     0.200 A 
ATOM     93  F   UNL A   1      37.345  29.573  33.170  1.00  0.00    -0.200 F 
ATOM     94  F   UNL A   1      36.906  32.257  33.027  1.00  0.00    -0.200 F 
ENDBRANCH  60  84
BRANCH  72  95
ATOM     95  C   UNL A   1      45.148  25.021  33.158  1.00  0.00     0.064 A 
ATOM     96  C   UNL A   1      44.494  23.812  33.451  1.00  0.00     0.173 A 
ATOM     97  C   UNL A   1      46.507  25.089  33.555  1.00  0.00     0.173 A 
ATOM     98  F   UNL A   1      43.246  23.574  33.029  1.00  0.00    -0.203 F 
ATOM     99  C   UNL A   1      45.131  22.776  34.141  1.00  0.00     0.198 A 
ATOM    100  C   UNL A   1      47.155  24.030  34.189  1.00  0.00     0.198 A 
ATOM    101  F   UNL A   1      47.252  26.177  33.313  1.00  0.00    -0.203 F 
ATOM    102  F   UNL A   1      44.451  21.658  34.431  1.00  0.00    -0.200 F 
ATOM    103  C   UNL A   1      46.463  22.879  34.497  1.00  0.00     0.200 A 
ATOM    104  F   UNL A   1      48.460  24.127  34.478  1.00  0.00    -0.200 F 
ATOM    105  F   UNL A   1      47.082  21.863  35.113  1.00  0.00    -0.200 F 
ENDBRANCH  72  95
ENDBRANCH  46  47
ENDBRANCH  38  41
ENDBRANCH  36  37
ENDBRANCH  35  36
ENDBRANCH  34  35
ENDBRANCH   1  34
TORSDOF 16
ENDMDL
MODEL 2
REMARK VINA RESULT:     -13.8      2.014      3.041
REMARK SMILES Cc1c(C(=O)NCCCCCCNC(=O)c2ccc(-c3c4nc(c(-c5c(F)c(F)c(F)c(F)c5F)c5ccc([nH]5)c(-c5c(F)c(F)c(F)c(F)c5F)c5nc(c(-c6c(F)c(F)c(F)c(F)c6F)c6ccc3[nH]6)C=C5)C=C4)cc2)cccc1-n1c(C)cc(/C=C2/C(=O)NC(=S)N=C2O)c1C
REMARK SMILES IDX 9 1 8 2 7 3 6 4 4 5 5 6 3 8 1 9 2 10 82 11 79 12 81 13 80 14
REMARK SMILES IDX 83 15 84 16 98 17 85 18 86 19 87 20 99 21 88 22 89 23 90 24
REMARK SMILES IDX 96 25 91 26 92 27 95 28 93 29 94 31 97 32 10 34 11 35 12 36
REMARK SMILES IDX 13 37 14 38 15 40 16 41 17 42 78 43 18 44 77 45 19 46 20 47
REMARK SMILES IDX 21 48 71 49 22 50 76 51 70 52 72 53 23 54 75 55 69 56 68 57
REMARK SMILES IDX 24 59 56 60 36 61 55 62 37 63 40 64 54 65 73 66 38 67 39 68
REMARK SMILES IDX 53 70 74 71 41 72 25 73 26 74 34 75 27 76 28 77 32 78 35 79
REMARK SMILES IDX 29 80 30 81 33 82 31 83 57 84 58 85 66 86 59 87 60 88 64 89
REMARK SMILES IDX 67 90 61 91 62 92 65 93 63 94 42 95 43 96 51 97 44 98 45 99
REMARK SMILES IDX 49 100 52 101 46 102 47 103 50 104 48 105
REMARK H PARENT 6 7 92 30 97 33 13 39 72 58 40 69
REMARK Flexibility Score: inf
ROOT
ATOM      1  C   UNL A   1      32.584  30.481  25.805  1.00  0.00     0.002 C 
ENDROOT
BRANCH   1   2
ATOM      2  C   UNL A   1      31.114  30.532  25.368  1.00  0.00     0.021 C 
BRANCH   2   3
ATOM      3  C   UNL A   1      30.699  29.491  24.312  1.00  0.00     0.116 C 
BRANCH   3   4
ATOM      4  N   UNL A   1      31.754  29.327  23.333  1.00  0.00    -0.352 N 
ATOM      5  C   UNL A   1      32.764  28.438  23.097  1.00  0.00     0.251 C 
ATOM      6  O   UNL A   1      33.439  28.686  22.090  1.00  0.00    -0.269 OA
ATOM      7  H   UNL A   1      31.739  30.045  22.660  1.00  0.00     0.163 HD
BRANCH   5   8
ATOM      8  C   UNL A   1      33.103  27.198  23.869  1.00  0.00     0.044 A 
ATOM      9  C   UNL A   1      31.714  25.477  22.570  1.00  0.00     0.047 C 
ATOM     10  C   UNL A   1      32.632  25.881  23.684  1.00  0.00    -0.014 A 
ATOM     11  C   UNL A   1      33.015  24.900  24.642  1.00  0.00     0.049 A 
ATOM     12  C   UNL A   1      33.869  27.478  25.033  1.00  0.00     0.014 A 
ATOM     13  C   UNL A   1      33.767  25.203  25.782  1.00  0.00     0.027 A 
ATOM     14  C   UNL A   1      34.187  26.505  25.982  1.00  0.00     0.003 A 
BRANCH  11  15
ATOM     15  N   UNL A   1      32.531  23.573  24.554  1.00  0.00    -0.318 N 
ATOM     16  C   UNL A   1      31.409  23.090  25.199  1.00  0.00     0.020 A 
ATOM     17  C   UNL A   1      33.158  22.540  23.866  1.00  0.00     0.027 A 
ATOM     18  C   UNL A   1      30.594  23.896  26.148  1.00  0.00     0.065 C 
ATOM     19  C   UNL A   1      31.248  21.778  24.805  1.00  0.00     0.031 A 
ATOM     20  C   UNL A   1      32.332  21.429  23.952  1.00  0.00    -0.003 A 
ATOM     21  C   UNL A   1      34.502  22.744  23.242  1.00  0.00     0.065 C 
BRANCH  20  22
ATOM     22  C   UNL A   1      32.541  20.098  23.477  1.00  0.00     0.029 C 
ATOM     23  C   UNL A   1      32.770  18.931  24.106  1.00  0.00     0.102 C 
ATOM     24  C   UNL A   1      32.753  17.719  23.247  1.00  0.00     0.262 C 
ATOM     25  C   UNL A   1      32.948  18.634  25.527  1.00  0.00     0.226 C 
ATOM     26  O   UNL A   1      32.837  17.735  22.024  1.00  0.00    -0.269 OA
ATOM     27  N   UNL A   1      32.575  16.551  23.939  1.00  0.00    -0.297 N 
ATOM     28  N   UNL A   1      32.823  17.489  26.093  1.00  0.00    -0.184 NA
ATOM     29  C   UNL A   1      32.523  16.411  25.303  1.00  0.00     0.203 C 
ATOM     30  H   UNL A   1      32.476  15.730  23.405  1.00  0.00     0.172 HD
ATOM     31  S   UNL A   1      32.147  14.897  25.915  1.00  0.00    -0.038 S 
BRANCH  25  32
ATOM     32  O   UNL A   1      33.353  19.643  26.299  1.00  0.00    -0.493 OA
ATOM     33  H   UNL A   1      34.072  20.180  26.031  1.00  0.00     0.295 HD
ENDBRANCH  25  32
ENDBRANCH  20  22
ENDBRANCH  11  15
ENDBRANCH   5   8
ENDBRANCH   3   4
ENDBRANCH   2   3
ENDBRANCH   1   2
BRANCH   1  34
ATOM     34  C   UNL A   1      32.839  30.128  27.277  1.00  0.00     0.002 C 
BRANCH  34  35
ATOM     35  C   UNL A   1      34.296  29.840  27.642  1.00  0.00     0.021 C 
BRANCH  35  36
ATOM     36  C   UNL A   1      35.107  31.093  27.948  1.00  0.00     0.116 C 
BRANCH  36  37
ATOM     37  N   UNL A   1      34.285  32.201  28.422  1.00  0.00    -0.352 N 
ATOM     38  C   UNL A   1      34.540  33.144  29.405  1.00  0.00     0.251 C 
ATOM     39  H   UNL A   1      33.414  32.294  27.973  1.00  0.00     0.163 HD
ATOM     40  O   UNL A   1      33.707  33.974  29.701  1.00  0.00    -0.269 OA
BRANCH  38  41
ATOM     41  C   UNL A   1      35.905  33.216  29.979  1.00  0.00     0.039 A 
ATOM     42  C   UNL A   1      36.913  33.744  29.163  1.00  0.00     0.014 A 
ATOM     43  C   UNL A   1      36.219  32.553  31.160  1.00  0.00     0.014 A 
ATOM     44  C   UNL A   1      38.231  33.365  29.387  1.00  0.00     0.010 A 
ATOM     45  C   UNL A   1      37.509  32.098  31.330  1.00  0.00     0.010 A 
ATOM     46  C   UNL A   1      38.492  32.435  30.391  1.00  0.00    -0.014 A 
BRANCH  46  47
ATOM     47  C   UNL A   1      39.722  31.661  30.457  1.00  0.00     0.031 A 
ATOM     48  C   UNL A   1      39.792  30.324  29.841  1.00  0.00     0.074 A 
ATOM     49  C   UNL A   1      40.824  32.239  30.986  1.00  0.00     0.049 A 
ATOM     50  N   UNL A   1      40.700  29.446  30.100  1.00  0.00    -0.248 NA
ATOM     51  C   UNL A   1      38.775  29.842  28.918  1.00  0.00     0.031 C 
ATOM     52  C   UNL A   1      42.207  31.790  30.868  1.00  0.00     0.029 A 
ATOM     53  N   UNL A   1      40.874  33.281  31.931  1.00  0.00    -0.354 N 
ATOM     54  C   UNL A   1      40.565  28.418  29.193  1.00  0.00     0.074 A 
ATOM     55  C   UNL A   1      39.293  28.664  28.560  1.00  0.00     0.031 C 
ATOM     56  C   UNL A   1      42.920  32.313  31.878  1.00  0.00     0.029 A 
ATOM     57  C   UNL A   1      41.979  32.980  32.761  1.00  0.00     0.049 A 
ATOM     58  H   UNL A   1      40.269  34.055  32.000  1.00  0.00     0.167 HD
ATOM     59  C   UNL A   1      41.624  27.575  29.006  1.00  0.00     0.037 A 
ATOM     60  C   UNL A   1      41.815  32.684  34.082  1.00  0.00     0.037 A 
ATOM     61  C   UNL A   1      42.649  27.804  30.031  1.00  0.00     0.049 A 
ATOM     62  C   UNL A   1      42.317  31.314  34.472  1.00  0.00     0.074 A 
ATOM     63  C   UNL A   1      43.854  28.486  30.028  1.00  0.00     0.029 A 
ATOM     64  N   UNL A   1      42.342  27.559  31.367  1.00  0.00    -0.354 N 
ATOM     65  N   UNL A   1      42.508  30.343  33.622  1.00  0.00    -0.248 NA
ATOM     66  C   UNL A   1      42.615  30.921  35.845  1.00  0.00     0.031 C 
ATOM     67  C   UNL A   1      44.236  28.712  31.376  1.00  0.00     0.029 A 
ATOM     68  C   UNL A   1      43.279  28.143  32.198  1.00  0.00     0.049 A 
ATOM     69  H   UNL A   1      41.565  27.040  31.678  1.00  0.00     0.167 HD
ATOM     70  C   UNL A   1      42.924  29.223  34.293  1.00  0.00     0.074 A 
ATOM     71  C   UNL A   1      42.992  29.640  35.681  1.00  0.00     0.031 C 
ATOM     72  C   UNL A   1      43.163  28.044  33.646  1.00  0.00     0.037 A 
BRANCH  59  73
ATOM     73  C   UNL A   1      41.880  26.759  27.744  1.00  0.00     0.064 A 
ATOM     74  C   UNL A   1      41.178  25.550  27.520  1.00  0.00     0.173 A 
ATOM     75  C   UNL A   1      42.858  27.035  26.768  1.00  0.00     0.173 A 
ATOM     76  F   UNL A   1      40.144  25.188  28.290  1.00  0.00    -0.203 F 
ATOM     77  C   UNL A   1      41.509  24.655  26.495  1.00  0.00     0.198 A 
ATOM     78  C   UNL A   1      43.212  26.129  25.761  1.00  0.00     0.198 A 
ATOM     79  F   UNL A   1      43.484  28.209  26.701  1.00  0.00    -0.203 F 
ATOM     80  F   UNL A   1      40.821  23.513  26.359  1.00  0.00    -0.200 F 
ATOM     81  C   UNL A   1      42.549  24.930  25.633  1.00  0.00     0.200 A 
ATOM     82  F   UNL A   1      44.206  26.437  24.916  1.00  0.00    -0.200 F 
ATOM     83  F   UNL A   1      42.894  24.062  24.673  1.00  0.00    -0.200 F 
ENDBRANCH  59  73
BRANCH  60  84
ATOM     84  C   UNL A   1      40.653  33.377  34.699  1.00  0.00     0.064 A 
ATOM     85  C   UNL A   1      39.449  32.659  34.840  1.00  0.00     0.173 A 
ATOM     86  C   UNL A   1      40.812  34.530  35.475  1.00  0.00     0.173 A 
ATOM     87  F   UNL A   1      39.248  31.543  34.120  1.00  0.00    -0.203 F 
ATOM     88  C   UNL A   1      38.501  33.012  35.797  1.00  0.00     0.198 A 
ATOM     89  C   UNL A   1      39.852  34.888  36.426  1.00  0.00     0.198 A 
ATOM     90  F   UNL A   1      41.944  35.246  35.403  1.00  0.00    -0.203 F 
ATOM     91  F   UNL A   1      37.419  32.242  35.982  1.00  0.00    -0.200 F 
ATOM     92  C   UNL A   1      38.718  34.111  36.610  1.00  0.00     0.200 A 
ATOM     93  F   UNL A   1      40.074  35.936  37.234  1.00  0.00    -0.200 F 
ATOM     94  F   UNL A   1      37.856  34.398  37.596  1.00  0.00    -0.200 F 
ENDBRANCH  60  84
BRANCH  72  95
ATOM     95  C   UNL A   1      43.393  26.704  34.303  1.00  0.00     0.064 A 
ATOM     96  C   UNL A   1      42.366  25.895  34.818  1.00  0.00     0.173 A 
ATOM     97  C   UNL A   1      44.683  26.115  34.290  1.00  0.00     0.173 A 
ATOM     98  F   UNL A   1      41.086  26.285  34.781  1.00  0.00    -0.203 F 
ATOM     99  C   UNL A   1      42.619  24.621  35.337  1.00  0.00     0.198 A 
ATOM    100  C   UNL A   1      44.919  24.821  34.753  1.00  0.00     0.198 A 
ATOM    101  F   UNL A   1      45.746  26.770  33.802  1.00  0.00    -0.203 F 
ATOM    102  F   UNL A   1      41.610  23.905  35.853  1.00  0.00    -0.200 F 
ATOM    103  C   UNL A   1      43.890  24.079  35.291  1.00  0.00     0.200 A 
ATOM    104  F   UNL A   1      46.147  24.292  34.652  1.00  0.00    -0.200 F 
ATOM    105  F   UNL A   1      44.116  22.839  35.743  1.00  0.00    -0.200 F 
ENDBRANCH  72  95
ENDBRANCH  46  47
ENDBRANCH  38  41
ENDBRANCH  36  37
ENDBRANCH  35  36
ENDBRANCH  34  35
ENDBRANCH   1  34
TORSDOF 16
ENDMDL
MODEL 3
REMARK VINA RESULT:     -13.4      2.718      4.251
REMARK SMILES Cc1c(C(=O)NCCCCCCNC(=O)c2ccc(-c3c4nc(c(-c5c(F)c(F)c(F)c(F)c5F)c5ccc([nH]5)c(-c5c(F)c(F)c(F)c(F)c5F)c5nc(c(-c6c(F)c(F)c(F)c(F)c6F)c6ccc3[nH]6)C=C5)C=C4)cc2)cccc1-n1c(C)cc(/C=C2/C(=O)NC(=S)N=C2O)c1C
REMARK SMILES IDX 9 1 8 2 7 3 6 4 4 5 5 6 3 8 1 9 2 10 82 11 79 12 81 13 80 14
REMARK SMILES IDX 83 15 84 16 98 17 85 18 86 19 87 20 99 21 88 22 89 23 90 24
REMARK SMILES IDX 96 25 91 26 92 27 95 28 93 29 94 31 97 32 10 34 11 35 12 36
REMARK SMILES IDX 13 37 14 38 15 40 16 41 17 42 78 43 18 44 77 45 19 46 20 47
REMARK SMILES IDX 21 48 71 49 22 50 76 51 70 52 72 53 23 54 75 55 69 56 68 57
REMARK SMILES IDX 24 59 56 60 36 61 55 62 37 63 40 64 54 65 73 66 38 67 39 68
REMARK SMILES IDX 53 70 74 71 41 72 25 73 26 74 34 75 27 76 28 77 32 78 35 79
REMARK SMILES IDX 29 80 30 81 33 82 31 83 57 84 58 85 66 86 59 87 60 88 64 89
REMARK SMILES IDX 67 90 61 91 62 92 65 93 63 94 42 95 43 96 51 97 44 98 45 99
REMARK SMILES IDX 49 100 52 101 46 102 47 103 50 104 48 105
REMARK H PARENT 6 7 92 30 97 33 13 39 72 58 40 69
REMARK Flexibility Score: inf
ROOT
ATOM      1  C   UNL A   1      31.505  28.935  25.417  1.00  0.00     0.002 C 
ENDROOT
BRANCH   1   2
ATOM      2  C   UNL A   1      31.419  27.407  25.328  1.00  0.00     0.021 C 
BRANCH   2   3
ATOM      3  C   UNL A   1      32.035  26.636  26.511  1.00  0.00     0.116 C 
BRANCH   3   4
ATOM      4  N   UNL A   1      31.376  25.356  26.669  1.00  0.00    -0.352 N 
ATOM      5  C   UNL A   1      31.568  24.076  26.234  1.00  0.00     0.251 C 
ATOM      6  O   UNL A   1      30.735  23.263  26.652  1.00  0.00    -0.269 OA
ATOM      7  H   UNL A   1      30.578  25.428  27.241  1.00  0.00     0.163 HD
BRANCH   5   8
ATOM      8  C   UNL A   1      32.678  23.550  25.372  1.00  0.00     0.044 A 
ATOM      9  C   UNL A   1      34.156  22.473  27.170  1.00  0.00     0.047 C 
ATOM     10  C   UNL A   1      33.851  22.866  25.757  1.00  0.00    -0.014 A 
ATOM     11  C   UNL A   1      34.814  22.584  24.747  1.00  0.00     0.049 A 
ATOM     12  C   UNL A   1      32.563  23.974  24.021  1.00  0.00     0.014 A 
ATOM     13  C   UNL A   1      34.678  23.017  23.424  1.00  0.00     0.027 A 
ATOM     14  C   UNL A   1      33.547  23.727  23.064  1.00  0.00     0.003 A 
BRANCH  11  15
ATOM     15  N   UNL A   1      36.040  21.957  25.070  1.00  0.00    -0.318 N 
ATOM     16  C   UNL A   1      36.278  20.597  25.021  1.00  0.00     0.020 A 
ATOM     17  C   UNL A   1      37.166  22.612  25.559  1.00  0.00     0.027 A 
ATOM     18  C   UNL A   1      35.232  19.591  24.691  1.00  0.00     0.065 C 
ATOM     19  C   UNL A   1      37.604  20.404  25.348  1.00  0.00     0.031 A 
ATOM     20  C   UNL A   1      38.175  21.667  25.668  1.00  0.00    -0.003 A 
ATOM     21  C   UNL A   1      37.115  24.068  25.897  1.00  0.00     0.065 C 
BRANCH  20  22
ATOM     22  C   UNL A   1      39.501  21.805  26.182  1.00  0.00     0.029 C 
ATOM     23  C   UNL A   1      40.543  20.956  26.256  1.00  0.00     0.102 C 
ATOM     24  C   UNL A   1      41.829  21.550  26.705  1.00  0.00     0.262 C 
ATOM     25  C   UNL A   1      40.652  19.547  25.880  1.00  0.00     0.226 C 
ATOM     26  O   UNL A   1      41.934  22.633  27.269  1.00  0.00    -0.269 OA
ATOM     27  N   UNL A   1      42.928  20.798  26.383  1.00  0.00    -0.297 N 
ATOM     28  N   UNL A   1      41.735  18.895  25.654  1.00  0.00    -0.184 NA
ATOM     29  C   UNL A   1      42.925  19.554  25.804  1.00  0.00     0.203 C 
ATOM     30  H   UNL A   1      43.808  21.190  26.588  1.00  0.00     0.172 HD
ATOM     31  S   UNL A   1      44.404  18.897  25.368  1.00  0.00    -0.038 S 
BRANCH  25  32
ATOM     32  O   UNL A   1      39.514  18.853  25.839  1.00  0.00    -0.493 OA
ATOM     33  H   UNL A   1      38.802  19.151  25.308  1.00  0.00     0.295 HD
ENDBRANCH  25  32
ENDBRANCH  20  22
ENDBRANCH  11  15
ENDBRANCH   5   8
ENDBRANCH   3   4
ENDBRANCH   2   3
ENDBRANCH   1   2
BRANCH   1  34
ATOM     34  C   UNL A   1      31.759  29.517  26.814  1.00  0.00     0.002 C 
BRANCH  34  35
ATOM     35  C   UNL A   1      32.588  30.802  26.852  1.00  0.00     0.021 C 
BRANCH  35  36
ATOM     36  C   UNL A   1      34.014  30.593  27.346  1.00  0.00     0.116 C 
BRANCH  36  37
ATOM     37  N   UNL A   1      34.355  31.449  28.478  1.00  0.00    -0.352 N 
ATOM     38  C   UNL A   1      35.433  31.391  29.347  1.00  0.00     0.251 C 
ATOM     39  H   UNL A   1      33.721  32.182  28.651  1.00  0.00     0.163 HD
ATOM     40  O   UNL A   1      35.527  32.168  30.273  1.00  0.00    -0.269 OA
BRANCH  38  41
ATOM     41  C   UNL A   1      36.545  30.462  29.035  1.00  0.00     0.039 A 
ATOM     42  C   UNL A   1      36.686  29.336  29.855  1.00  0.00     0.014 A 
ATOM     43  C   UNL A   1      37.552  30.826  28.147  1.00  0.00     0.014 A 
ATOM     44  C   UNL A   1      37.937  28.746  29.984  1.00  0.00     0.010 A 
ATOM     45  C   UNL A   1      38.814  30.307  28.342  1.00  0.00     0.010 A 
ATOM     46  C   UNL A   1      39.016  29.329  29.323  1.00  0.00    -0.014 A 
BRANCH  46  47
ATOM     47  C   UNL A   1      40.402  29.077  29.690  1.00  0.00     0.031 A 
ATOM     48  C   UNL A   1      41.092  27.870  29.200  1.00  0.00     0.074 A 
ATOM     49  C   UNL A   1      41.071  30.025  30.383  1.00  0.00     0.049 A 
ATOM     50  N   UNL A   1      42.183  27.399  29.699  1.00  0.00    -0.248 NA
ATOM     51  C   UNL A   1      40.547  27.045  28.132  1.00  0.00     0.031 C 
ATOM     52  C   UNL A   1      42.513  30.133  30.576  1.00  0.00     0.029 A 
ATOM     53  N   UNL A   1      40.529  31.002  31.239  1.00  0.00    -0.354 N 
ATOM     54  C   UNL A   1      42.635  26.402  28.863  1.00  0.00     0.074 A 
ATOM     55  C   UNL A   1      41.528  26.153  27.973  1.00  0.00     0.031 C 
ATOM     56  C   UNL A   1      42.749  30.880  31.666  1.00  0.00     0.029 A 
ATOM     57  C   UNL A   1      41.464  31.136  32.292  1.00  0.00     0.049 A 
ATOM     58  H   UNL A   1      39.680  31.489  31.128  1.00  0.00     0.167 HD
ATOM     59  C   UNL A   1      43.945  26.023  28.952  1.00  0.00     0.037 A 
ATOM     60  C   UNL A   1      41.144  30.791  33.573  1.00  0.00     0.037 A 
ATOM     61  C   UNL A   1      44.568  26.616  30.141  1.00  0.00     0.049 A 
ATOM     62  C   UNL A   1      42.025  29.709  34.155  1.00  0.00     0.074 A 
ATOM     63  C   UNL A   1      45.406  27.703  30.328  1.00  0.00     0.029 A 
ATOM     64  N   UNL A   1      44.099  26.264  31.404  1.00  0.00    -0.354 N 
ATOM     65  N   UNL A   1      42.738  28.888  33.434  1.00  0.00    -0.248 NA
ATOM     66  C   UNL A   1      42.148  29.449  35.585  1.00  0.00     0.031 C 
ATOM     67  C   UNL A   1      45.382  28.047  31.704  1.00  0.00     0.029 A 
ATOM     68  C   UNL A   1      44.552  27.153  32.359  1.00  0.00     0.049 A 
ATOM     69  H   UNL A   1      43.523  25.488  31.592  1.00  0.00     0.167 HD
ATOM     70  C   UNL A   1      43.387  28.004  34.256  1.00  0.00     0.074 A 
ATOM     71  C   UNL A   1      42.999  28.407  35.595  1.00  0.00     0.031 C 
ATOM     72  C   UNL A   1      44.178  27.008  33.758  1.00  0.00     0.037 A 
BRANCH  59  73
ATOM     73  C   UNL A   1      44.746  25.373  27.830  1.00  0.00     0.064 A 
ATOM     74  C   UNL A   1      45.155  26.136  26.710  1.00  0.00     0.173 A 
ATOM     75  C   UNL A   1      45.061  24.004  27.728  1.00  0.00     0.173 A 
ATOM     76  F   UNL A   1      45.030  27.469  26.687  1.00  0.00    -0.203 F 
ATOM     77  C   UNL A   1      45.709  25.562  25.559  1.00  0.00     0.198 A 
ATOM     78  C   UNL A   1      45.586  23.423  26.568  1.00  0.00     0.198 A 
ATOM     79  F   UNL A   1      44.930  23.166  28.756  1.00  0.00    -0.203 F 
ATOM     80  F   UNL A   1      46.046  26.342  24.521  1.00  0.00    -0.200 F 
ATOM     81  C   UNL A   1      45.895  24.199  25.475  1.00  0.00     0.200 A 
ATOM     82  F   UNL A   1      45.788  22.098  26.526  1.00  0.00    -0.200 F 
ATOM     83  F   UNL A   1      46.391  23.640  24.363  1.00  0.00    -0.200 F 
ENDBRANCH  59  73
BRANCH  60  84
ATOM     84  C   UNL A   1      39.706  30.988  33.893  1.00  0.00     0.064 A 
ATOM     85  C   UNL A   1      39.291  32.262  34.327  1.00  0.00     0.173 A 
ATOM     86  C   UNL A   1      38.722  30.112  33.423  1.00  0.00     0.173 A 
ATOM     87  F   UNL A   1      40.197  33.141  34.785  1.00  0.00    -0.203 F 
ATOM     88  C   UNL A   1      37.970  32.681  34.186  1.00  0.00     0.198 A 
ATOM     89  C   UNL A   1      37.395  30.533  33.295  1.00  0.00     0.198 A 
ATOM     90  F   UNL A   1      39.056  28.893  32.976  1.00  0.00    -0.203 F 
ATOM     91  F   UNL A   1      37.631  33.939  34.504  1.00  0.00    -0.200 F 
ATOM     92  C   UNL A   1      37.028  31.824  33.642  1.00  0.00     0.200 A 
ATOM     93  F   UNL A   1      36.488  29.714  32.741  1.00  0.00    -0.200 F 
ATOM     94  F   UNL A   1      35.780  32.256  33.415  1.00  0.00    -0.200 F 
ENDBRANCH  60  84
BRANCH  72  95
ATOM     95  C   UNL A   1      44.743  25.850  34.545  1.00  0.00     0.064 A 
ATOM     96  C   UNL A   1      44.092  24.615  34.705  1.00  0.00     0.173 A 
ATOM     97  C   UNL A   1      46.068  25.908  35.046  1.00  0.00     0.173 A 
ATOM     98  F   UNL A   1      42.883  24.392  34.175  1.00  0.00    -0.203 F 
ATOM     99  C   UNL A   1      44.695  23.541  35.367  1.00  0.00     0.198 A 
ATOM    100  C   UNL A   1      46.687  24.815  35.652  1.00  0.00     0.198 A 
ATOM    101  F   UNL A   1      46.810  27.018  34.936  1.00  0.00    -0.203 F 
ATOM    102  F   UNL A   1      44.015  22.397  35.527  1.00  0.00    -0.200 F 
ATOM    103  C   UNL A   1      45.995  23.636  35.827  1.00  0.00     0.200 A 
ATOM    104  F   UNL A   1      47.966  24.907  36.043  1.00  0.00    -0.200 F 
ATOM    105  F   UNL A   1      46.585  22.587  36.415  1.00  0.00    -0.200 F 
ENDBRANCH  72  95
ENDBRANCH  46  47
ENDBRANCH  38  41
ENDBRANCH  36  37
ENDBRANCH  35  36
ENDBRANCH  34  35
ENDBRANCH   1  34
TORSDOF 16
ENDMDL
