MODEL 1
REMARK VINA RESULT:     -12.8      0.000      0.000
REMARK SMILES Cc1cc(Cl)ccc1-c1ccc(C(=O)NCCCCCCNC(=O)c2ccc(-c3c4nc(c(-c5c(F)c(F)c(F)c(F)c5F)c5ccc([nH]5)c(-c5c(F)c(F)c(F)c(F)c5F)c5nc(c(-c6c(F)c(F)c(F)c(F)c6F)c6ccc3[nH]6)C=C5)C=C4)cc2)c(Cl)c1
REMARK SMILES IDX 19 1 18 2 17 3 16 4 15 5 13 6 14 7 12 9 9 10 10 11 90 12
REMARK SMILES IDX 11 13 88 14 89 15 8 16 1 17 2 18 3 19 4 20 7 21 5 22 6 23
REMARK SMILES IDX 20 24 21 25 22 26 23 27 24 29 25 30 26 31 87 32 27 33 86 34
REMARK SMILES IDX 28 35 29 36 30 37 80 38 31 39 85 40 79 41 81 42 32 43 84 44
REMARK SMILES IDX 78 45 77 46 33 48 65 49 45 50 64 51 46 52 49 53 63 54 82 55
REMARK SMILES IDX 47 56 48 57 62 59 83 60 50 61 34 62 35 63 43 64 36 65 37 66
REMARK SMILES IDX 41 67 44 68 38 69 39 70 42 71 40 72 66 73 67 74 75 75 68 76
REMARK SMILES IDX 69 77 73 78 76 79 70 80 71 81 74 82 72 83 51 84 52 85 60 86
REMARK SMILES IDX 53 87 54 88 58 89 61 90 55 91 56 92 59 93 57 94
REMARK H PARENT 15 8 22 28 81 47 49 58
REMARK Flexibility Score: inf
ROOT
ATOM      1  C   UNL A   1      31.403  30.853  26.051  1.00  0.00     0.002 C 
ENDROOT
BRANCH   1   2
ATOM      2  C   UNL A   1      32.479  30.016  26.747  1.00  0.00     0.002 C 
BRANCH   2   3
ATOM      3  C   UNL A   1      31.995  28.655  27.254  1.00  0.00     0.021 C 
BRANCH   3   4
ATOM      4  C   UNL A   1      32.241  27.490  26.285  1.00  0.00     0.116 C 
BRANCH   4   5
ATOM      5  N   UNL A   1      31.005  27.170  25.601  1.00  0.00    -0.352 N 
ATOM      6  C   UNL A   1      30.607  26.140  24.793  1.00  0.00     0.252 C 
ATOM      7  O   UNL A   1      29.486  26.254  24.287  1.00  0.00    -0.269 OA
ATOM      8  H   UNL A   1      30.297  27.837  25.751  1.00  0.00     0.163 HD
BRANCH   6   9
ATOM      9  C   UNL A   1      31.344  24.866  24.563  1.00  0.00     0.058 A 
ATOM     10  C   UNL A   1      32.408  22.228  24.351  1.00  0.00    -0.017 A 
ATOM     11  C   UNL A   1      31.537  22.551  25.389  1.00  0.00     0.009 A 
ATOM     12  C   UNL A   1      32.746  23.232  23.435  1.00  0.00     0.030 A 
ATOM     13  C   UNL A   1      31.032  23.852  25.500  1.00  0.00     0.016 A 
ATOM     14  C   UNL A   1      32.179  24.515  23.497  1.00  0.00     0.054 A 
ATOM     15  Cl  UNL A   1      32.443  25.452  22.078  1.00  0.00    -0.083 Cl
BRANCH  10  16
ATOM     16  C   UNL A   1      32.894  20.863  24.122  1.00  0.00    -0.015 A 
ATOM     17  C   UNL A   1      34.886  21.172  25.716  1.00  0.00     0.045 C 
ATOM     18  C   UNL A   1      34.019  20.343  24.803  1.00  0.00    -0.042 A 
ATOM     19  C   UNL A   1      34.368  18.991  24.628  1.00  0.00     0.024 A 
ATOM     20  C   UNL A   1      33.608  18.162  23.808  1.00  0.00     0.041 A 
ATOM     21  C   UNL A   1      32.155  20.010  23.280  1.00  0.00     0.010 A 
ATOM     22  Cl  UNL A   1      34.023  16.500  23.650  1.00  0.00    -0.084 Cl
ATOM     23  C   UNL A   1      32.506  18.667  23.127  1.00  0.00     0.021 A 
ENDBRANCH  10  16
ENDBRANCH   6   9
ENDBRANCH   4   5
ENDBRANCH   3   4
ENDBRANCH   2   3
ENDBRANCH   1   2
BRANCH   1  24
ATOM     24  C   UNL A   1      31.325  32.316  26.502  1.00  0.00     0.021 C 
BRANCH  24  25
ATOM     25  C   UNL A   1      32.556  32.814  27.252  1.00  0.00     0.116 C 
BRANCH  25  26
ATOM     26  N   UNL A   1      32.424  34.214  27.626  1.00  0.00    -0.352 N 
ATOM     27  C   UNL A   1      33.007  34.895  28.662  1.00  0.00     0.251 C 
ATOM     28  H   UNL A   1      31.829  34.750  27.053  1.00  0.00     0.163 HD
ATOM     29  O   UNL A   1      32.586  36.004  28.989  1.00  0.00    -0.269 OA
BRANCH  27  30
ATOM     30  C   UNL A   1      34.143  34.298  29.390  1.00  0.00     0.039 A 
ATOM     31  C   UNL A   1      33.899  33.592  30.571  1.00  0.00     0.014 A 
ATOM     32  C   UNL A   1      35.451  34.464  28.925  1.00  0.00     0.014 A 
ATOM     33  C   UNL A   1      34.964  33.014  31.263  1.00  0.00     0.010 A 
ATOM     34  C   UNL A   1      36.503  33.827  29.574  1.00  0.00     0.010 A 
ATOM     35  C   UNL A   1      36.271  33.108  30.756  1.00  0.00    -0.014 A 
BRANCH  35  36
ATOM     36  C   UNL A   1      37.412  32.473  31.458  1.00  0.00     0.031 A 
ATOM     37  C   UNL A   1      38.149  31.329  30.820  1.00  0.00     0.074 A 
ATOM     38  C   UNL A   1      37.747  32.890  32.693  1.00  0.00     0.049 A 
ATOM     39  N   UNL A   1      39.142  30.617  31.289  1.00  0.00    -0.248 NA
ATOM     40  C   UNL A   1      37.686  30.912  29.488  1.00  0.00     0.031 C 
ATOM     41  C   UNL A   1      37.082  33.964  33.430  1.00  0.00     0.029 A 
ATOM     42  N   UNL A   1      38.730  32.459  33.546  1.00  0.00    -0.354 N 
ATOM     43  C   UNL A   1      39.413  29.664  30.317  1.00  0.00     0.074 A 
ATOM     44  C   UNL A   1      38.440  29.848  29.261  1.00  0.00     0.031 C 
ATOM     45  C   UNL A   1      37.699  34.133  34.611  1.00  0.00     0.029 A 
ATOM     46  C   UNL A   1      38.778  33.157  34.727  1.00  0.00     0.049 A 
ATOM     47  H   UNL A   1      39.344  31.719  33.332  1.00  0.00     0.167 HD
ATOM     48  C   UNL A   1      40.400  28.735  30.294  1.00  0.00     0.037 A 
ATOM     49  C   UNL A   1      39.603  33.024  35.782  1.00  0.00     0.037 A 
ATOM     50  C   UNL A   1      41.373  28.567  31.342  1.00  0.00     0.049 A 
ATOM     51  C   UNL A   1      40.673  31.969  35.746  1.00  0.00     0.074 A 
ATOM     52  C   UNL A   1      42.447  27.697  31.395  1.00  0.00     0.029 A 
ATOM     53  N   UNL A   1      41.382  29.284  32.530  1.00  0.00    -0.354 N 
ATOM     54  N   UNL A   1      40.967  31.117  34.794  1.00  0.00    -0.248 NA
ATOM     55  C   UNL A   1      41.530  31.861  36.935  1.00  0.00     0.031 C 
ATOM     56  C   UNL A   1      43.077  27.854  32.634  1.00  0.00     0.029 A 
ATOM     57  C   UNL A   1      42.427  28.858  33.335  1.00  0.00     0.049 A 
ATOM     58  H   UNL A   1      40.740  29.993  32.767  1.00  0.00     0.167 HD
ATOM     59  C   UNL A   1      42.058  30.392  35.252  1.00  0.00     0.074 A 
ATOM     60  C   UNL A   1      42.381  30.914  36.566  1.00  0.00     0.031 C 
ATOM     61  C   UNL A   1      42.734  29.389  34.639  1.00  0.00     0.037 A 
BRANCH  48  62
ATOM     62  C   UNL A   1      40.461  27.830  29.096  1.00  0.00     0.064 A 
ATOM     63  C   UNL A   1      41.274  28.124  27.990  1.00  0.00     0.173 A 
ATOM     64  C   UNL A   1      39.692  26.657  29.049  1.00  0.00     0.173 A 
ATOM     65  F   UNL A   1      42.020  29.238  27.978  1.00  0.00    -0.203 F 
ATOM     66  C   UNL A   1      41.276  27.305  26.862  1.00  0.00     0.198 A 
ATOM     67  C   UNL A   1      39.723  25.823  27.934  1.00  0.00     0.198 A 
ATOM     68  F   UNL A   1      38.903  26.322  30.080  1.00  0.00    -0.203 F 
ATOM     69  F   UNL A   1      42.005  27.647  25.791  1.00  0.00    -0.200 F 
ATOM     70  C   UNL A   1      40.504  26.154  26.837  1.00  0.00     0.200 A 
ATOM     71  F   UNL A   1      38.986  24.703  27.915  1.00  0.00    -0.200 F 
ATOM     72  F   UNL A   1      40.502  25.371  25.749  1.00  0.00    -0.200 F 
ENDBRANCH  48  62
BRANCH  49  73
ATOM     73  C   UNL A   1      39.480  33.952  36.934  1.00  0.00     0.064 A 
ATOM     74  C   UNL A   1      38.718  33.595  38.056  1.00  0.00     0.173 A 
ATOM     75  C   UNL A   1      40.133  35.193  36.954  1.00  0.00     0.173 A 
ATOM     76  F   UNL A   1      38.061  32.426  38.074  1.00  0.00    -0.203 F 
ATOM     77  C   UNL A   1      38.606  34.450  39.151  1.00  0.00     0.198 A 
ATOM     78  C   UNL A   1      40.039  36.035  38.060  1.00  0.00     0.198 A 
ATOM     79  F   UNL A   1      40.878  35.577  35.908  1.00  0.00    -0.203 F 
ATOM     80  F   UNL A   1      37.846  34.098  40.197  1.00  0.00    -0.200 F 
ATOM     81  C   UNL A   1      39.273  35.665  39.155  1.00  0.00     0.200 A 
ATOM     82  F   UNL A   1      40.697  37.203  38.067  1.00  0.00    -0.200 F 
ATOM     83  F   UNL A   1      39.174  36.483  40.212  1.00  0.00    -0.200 F 
ENDBRANCH  49  73
BRANCH  61  84
ATOM     84  C   UNL A   1      43.912  28.812  35.370  1.00  0.00     0.064 A 
ATOM     85  C   UNL A   1      45.210  29.310  35.189  1.00  0.00     0.173 A 
ATOM     86  C   UNL A   1      43.732  27.764  36.286  1.00  0.00     0.173 A 
ATOM     87  F   UNL A   1      45.437  30.299  34.312  1.00  0.00    -0.203 F 
ATOM     88  C   UNL A   1      46.289  28.763  35.878  1.00  0.00     0.198 A 
ATOM     89  C   UNL A   1      44.808  27.240  36.996  1.00  0.00     0.198 A 
ATOM     90  F   UNL A   1      42.510  27.254  36.500  1.00  0.00    -0.203 F 
ATOM     91  F   UNL A   1      47.528  29.221  35.652  1.00  0.00    -0.200 F 
ATOM     92  C   UNL A   1      46.087  27.735  36.786  1.00  0.00     0.200 A 
ATOM     93  F   UNL A   1      44.609  26.255  37.883  1.00  0.00    -0.200 F 
ATOM     94  F   UNL A   1      47.126  27.213  37.453  1.00  0.00    -0.200 F 
ENDBRANCH  61  84
ENDBRANCH  35  36
ENDBRANCH  27  30
ENDBRANCH  25  26
ENDBRANCH  24  25
ENDBRANCH   1  24
TORSDOF 14
ENDMDL
MODEL 2
REMARK VINA RESULT:     -12.8      5.678     11.263
REMARK SMILES Cc1cc(Cl)ccc1-c1ccc(C(=O)NCCCCCCNC(=O)c2ccc(-c3c4nc(c(-c5c(F)c(F)c(F)c(F)c5F)c5ccc([nH]5)c(-c5c(F)c(F)c(F)c(F)c5F)c5nc(c(-c6c(F)c(F)c(F)c(F)c6F)c6ccc3[nH]6)C=C5)C=C4)cc2)c(Cl)c1
REMARK SMILES IDX 19 1 18 2 17 3 16 4 15 5 13 6 14 7 12 9 9 10 10 11 90 12
REMARK SMILES IDX 11 13 88 14 89 15 8 16 1 17 2 18 3 19 4 20 7 21 5 22 6 23
REMARK SMILES IDX 20 24 21 25 22 26 23 27 24 29 25 30 26 31 87 32 27 33 86 34
REMARK SMILES IDX 28 35 29 36 30 37 80 38 31 39 85 40 79 41 81 42 32 43 84 44
REMARK SMILES IDX 78 45 77 46 33 48 65 49 45 50 64 51 46 52 49 53 63 54 82 55
REMARK SMILES IDX 47 56 48 57 62 59 83 60 50 61 34 62 35 63 43 64 36 65 37 66
REMARK SMILES IDX 41 67 44 68 38 69 39 70 42 71 40 72 66 73 67 74 75 75 68 76
REMARK SMILES IDX 69 77 73 78 76 79 70 80 71 81 74 82 72 83 51 84 52 85 60 86
REMARK SMILES IDX 53 87 54 88 58 89 61 90 55 91 56 92 59 93 57 94
REMARK H PARENT 15 8 22 28 81 47 49 58
REMARK Flexibility Score: inf
ROOT
ATOM      1  C   UNL A   1      36.623  20.355  24.998  1.00  0.00     0.002 C 
ENDROOT
BRANCH   1   2
ATOM      2  C   UNL A   1      36.741  21.834  24.619  1.00  0.00     0.002 C 
BRANCH   2   3
ATOM      3  C   UNL A   1      35.407  22.518  24.310  1.00  0.00     0.021 C 
BRANCH   3   4
ATOM      4  C   UNL A   1      35.053  23.676  25.254  1.00  0.00     0.116 C 
BRANCH   4   5
ATOM      5  N   UNL A   1      34.048  23.232  26.197  1.00  0.00    -0.352 N 
ATOM      6  C   UNL A   1      32.772  23.634  26.483  1.00  0.00     0.252 C 
ATOM      7  O   UNL A   1      32.236  23.082  27.449  1.00  0.00    -0.269 OA
ATOM      8  H   UNL A   1      34.346  22.476  26.752  1.00  0.00     0.163 HD
BRANCH   6   9
ATOM      9  C   UNL A   1      31.945  24.578  25.678  1.00  0.00     0.058 A 
ATOM     10  C   UNL A   1      30.577  26.715  24.377  1.00  0.00    -0.017 A 
ATOM     11  C   UNL A   1      31.099  26.893  25.657  1.00  0.00     0.009 A 
ATOM     12  C   UNL A   1      30.737  25.466  23.766  1.00  0.00     0.030 A 
ATOM     13  C   UNL A   1      31.754  25.835  26.299  1.00  0.00     0.016 A 
ATOM     14  C   UNL A   1      31.462  24.429  24.374  1.00  0.00     0.054 A 
ATOM     15  Cl  UNL A   1      31.844  23.138  23.303  1.00  0.00    -0.083 Cl
BRANCH  10  16
ATOM     16  C   UNL A   1      29.969  27.809  23.613  1.00  0.00    -0.015 A 
ATOM     17  C   UNL A   1      32.252  28.736  22.883  1.00  0.00     0.045 C 
ATOM     18  C   UNL A   1      30.745  28.723  22.862  1.00  0.00    -0.042 A 
ATOM     19  C   UNL A   1      30.099  29.680  22.058  1.00  0.00     0.024 A 
ATOM     20  C   UNL A   1      28.710  29.722  21.981  1.00  0.00     0.041 A 
ATOM     21  C   UNL A   1      28.565  27.887  23.536  1.00  0.00     0.010 A 
ATOM     22  Cl  UNL A   1      27.944  30.867  20.950  1.00  0.00    -0.084 Cl
ATOM     23  C   UNL A   1      27.938  28.834  22.722  1.00  0.00     0.021 A 
ENDBRANCH  10  16
ENDBRANCH   6   9
ENDBRANCH   4   5
ENDBRANCH   3   4
ENDBRANCH   2   3
ENDBRANCH   1   2
BRANCH   1  24
ATOM     24  C   UNL A   1      37.926  19.555  24.911  1.00  0.00     0.021 C 
BRANCH  24  25
ATOM     25  C   UNL A   1      39.088  20.147  25.704  1.00  0.00     0.116 C 
BRANCH  25  26
ATOM     26  N   UNL A   1      40.145  19.169  25.914  1.00  0.00    -0.352 N 
ATOM     27  C   UNL A   1      41.489  19.368  26.083  1.00  0.00     0.251 C 
ATOM     28  H   UNL A   1      39.853  18.229  25.937  1.00  0.00     0.163 HD
ATOM     29  O   UNL A   1      42.273  18.423  25.987  1.00  0.00    -0.269 OA
BRANCH  27  30
ATOM     30  C   UNL A   1      42.004  20.718  26.382  1.00  0.00     0.039 A 
ATOM     31  C   UNL A   1      42.195  21.621  25.332  1.00  0.00     0.014 A 
ATOM     32  C   UNL A   1      42.328  21.082  27.692  1.00  0.00     0.014 A 
ATOM     33  C   UNL A   1      42.671  22.904  25.602  1.00  0.00     0.010 A 
ATOM     34  C   UNL A   1      42.733  22.384  27.969  1.00  0.00     0.010 A 
ATOM     35  C   UNL A   1      42.920  23.302  26.926  1.00  0.00    -0.014 A 
BRANCH  35  36
ATOM     36  C   UNL A   1      43.395  24.672  27.239  1.00  0.00     0.031 A 
ATOM     37  C   UNL A   1      42.448  25.685  27.817  1.00  0.00     0.074 A 
ATOM     38  C   UNL A   1      44.663  25.017  26.947  1.00  0.00     0.049 A 
ATOM     39  N   UNL A   1      42.659  26.940  28.118  1.00  0.00    -0.248 NA
ATOM     40  C   UNL A   1      41.070  25.231  28.061  1.00  0.00     0.031 C 
ATOM     41  C   UNL A   1      45.662  24.133  26.349  1.00  0.00     0.029 A 
ATOM     42  N   UNL A   1      45.325  26.206  27.115  1.00  0.00    -0.354 N 
ATOM     43  C   UNL A   1      41.442  27.428  28.575  1.00  0.00     0.074 A 
ATOM     44  C   UNL A   1      40.483  26.351  28.452  1.00  0.00     0.031 C 
ATOM     45  C   UNL A   1      46.823  24.799  26.233  1.00  0.00     0.029 A 
ATOM     46  C   UNL A   1      46.638  26.164  26.715  1.00  0.00     0.049 A 
ATOM     47  H   UNL A   1      44.901  27.013  27.488  1.00  0.00     0.167 HD
ATOM     48  C   UNL A   1      41.155  28.654  29.076  1.00  0.00     0.037 A 
ATOM     49  C   UNL A   1      47.584  27.121  26.739  1.00  0.00     0.037 A 
ATOM     50  C   UNL A   1      42.118  29.716  29.209  1.00  0.00     0.049 A 
ATOM     51  C   UNL A   1      47.237  28.482  27.274  1.00  0.00     0.074 A 
ATOM     52  C   UNL A   1      41.949  30.976  29.753  1.00  0.00     0.029 A 
ATOM     53  N   UNL A   1      43.436  29.641  28.779  1.00  0.00    -0.354 N 
ATOM     54  N   UNL A   1      46.102  28.914  27.768  1.00  0.00    -0.248 NA
ATOM     55  C   UNL A   1      48.306  29.488  27.256  1.00  0.00     0.031 C 
ATOM     56  C   UNL A   1      43.150  31.680  29.611  1.00  0.00     0.029 A 
ATOM     57  C   UNL A   1      44.084  30.842  29.024  1.00  0.00     0.049 A 
ATOM     58  H   UNL A   1      43.851  28.850  28.364  1.00  0.00     0.167 HD
ATOM     59  C   UNL A   1      46.326  30.230  28.148  1.00  0.00     0.074 A 
ATOM     60  C   UNL A   1      47.712  30.522  27.836  1.00  0.00     0.031 C 
ATOM     61  C   UNL A   1      45.464  31.114  28.708  1.00  0.00     0.037 A 
BRANCH  48  62
ATOM     62  C   UNL A   1      39.738  28.903  29.507  1.00  0.00     0.064 A 
ATOM     63  C   UNL A   1      39.304  28.625  30.813  1.00  0.00     0.173 A 
ATOM     64  C   UNL A   1      38.797  29.420  28.602  1.00  0.00     0.173 A 
ATOM     65  F   UNL A   1      40.159  28.120  31.715  1.00  0.00    -0.203 F 
ATOM     66  C   UNL A   1      37.972  28.806  31.183  1.00  0.00     0.198 A 
ATOM     67  C   UNL A   1      37.475  29.632  28.985  1.00  0.00     0.198 A 
ATOM     68  F   UNL A   1      39.157  29.710  27.344  1.00  0.00    -0.203 F 
ATOM     69  F   UNL A   1      37.569  28.465  32.414  1.00  0.00    -0.200 F 
ATOM     70  C   UNL A   1      37.061  29.313  30.270  1.00  0.00     0.200 A 
ATOM     71  F   UNL A   1      36.597  30.134  28.105  1.00  0.00    -0.200 F 
ATOM     72  F   UNL A   1      35.779  29.481  30.624  1.00  0.00    -0.200 F 
ENDBRANCH  48  62
BRANCH  49  73
ATOM     73  C   UNL A   1      48.964  26.803  26.291  1.00  0.00     0.064 A 
ATOM     74  C   UNL A   1      49.898  26.273  27.192  1.00  0.00     0.173 A 
ATOM     75  C   UNL A   1      49.370  26.994  24.963  1.00  0.00     0.173 A 
ATOM     76  F   UNL A   1      49.560  26.089  28.477  1.00  0.00    -0.203 F 
ATOM     77  C   UNL A   1      51.192  25.955  26.783  1.00  0.00     0.198 A 
ATOM     78  C   UNL A   1      50.657  26.653  24.550  1.00  0.00     0.198 A 
ATOM     79  F   UNL A   1      48.512  27.492  24.062  1.00  0.00    -0.203 F 
ATOM     80  F   UNL A   1      52.075  25.480  27.672  1.00  0.00    -0.200 F 
ATOM     81  C   UNL A   1      51.568  26.138  25.461  1.00  0.00     0.200 A 
ATOM     82  F   UNL A   1      51.012  26.817  23.269  1.00  0.00    -0.200 F 
ATOM     83  F   UNL A   1      52.808  25.823  25.066  1.00  0.00    -0.200 F 
ENDBRANCH  49  73
BRANCH  61  84
ATOM     84  C   UNL A   1      46.005  32.473  29.050  1.00  0.00     0.064 A 
ATOM     85  C   UNL A   1      46.619  32.733  30.283  1.00  0.00     0.173 A 
ATOM     86  C   UNL A   1      45.933  33.519  28.117  1.00  0.00     0.173 A 
ATOM     87  F   UNL A   1      46.698  31.772  31.215  1.00  0.00    -0.203 F 
ATOM     88  C   UNL A   1      47.117  34.000  30.580  1.00  0.00     0.198 A 
ATOM     89  C   UNL A   1      46.460  34.774  28.407  1.00  0.00     0.198 A 
ATOM     90  F   UNL A   1      45.360  33.320  26.921  1.00  0.00    -0.203 F 
ATOM     91  F   UNL A   1      47.655  34.240  31.785  1.00  0.00    -0.200 F 
ATOM     92  C   UNL A   1      47.044  35.016  29.640  1.00  0.00     0.200 A 
ATOM     93  F   UNL A   1      46.399  35.751  27.491  1.00  0.00    -0.200 F 
ATOM     94  F   UNL A   1      47.529  36.232  29.926  1.00  0.00    -0.200 F 
ENDBRANCH  61  84
ENDBRANCH  35  36
ENDBRANCH  27  30
ENDBRANCH  25  26
ENDBRANCH  24  25
ENDBRANCH   1  24
TORSDOF 14
ENDMDL
MODEL 3
REMARK VINA RESULT:     -12.7      5.711     11.261
REMARK SMILES Cc1cc(Cl)ccc1-c1ccc(C(=O)NCCCCCCNC(=O)c2ccc(-c3c4nc(c(-c5c(F)c(F)c(F)c(F)c5F)c5ccc([nH]5)c(-c5c(F)c(F)c(F)c(F)c5F)c5nc(c(-c6c(F)c(F)c(F)c(F)c6F)c6ccc3[nH]6)C=C5)C=C4)cc2)c(Cl)c1
REMARK SMILES IDX 19 1 18 2 17 3 16 4 15 5 13 6 14 7 12 9 9 10 10 11 90 12
REMARK SMILES IDX 11 13 88 14 89 15 8 16 1 17 2 18 3 19 4 20 7 21 5 22 6 23
REMARK SMILES IDX 20 24 21 25 22 26 23 27 24 29 25 30 26 31 87 32 27 33 86 34
REMARK SMILES IDX 28 35 29 36 30 37 80 38 31 39 85 40 79 41 81 42 32 43 84 44
REMARK SMILES IDX 78 45 77 46 33 48 65 49 45 50 64 51 46 52 49 53 63 54 82 55
REMARK SMILES IDX 47 56 48 57 62 59 83 60 50 61 34 62 35 63 43 64 36 65 37 66
REMARK SMILES IDX 41 67 44 68 38 69 39 70 42 71 40 72 66 73 67 74 75 75 68 76
REMARK SMILES IDX 69 77 73 78 76 79 70 80 71 81 74 82 72 83 51 84 52 85 60 86
REMARK SMILES IDX 53 87 54 88 58 89 61 90 55 91 56 92 59 93 57 94
REMARK H PARENT 15 8 22 28 81 47 49 58
REMARK Flexibility Score: inf
ROOT
ATOM      1  C   UNL A   1      37.226  21.039  24.617  1.00  0.00     0.002 C 
ENDROOT
BRANCH   1   2
ATOM      2  C   UNL A   1      35.898  21.053  25.379  1.00  0.00     0.002 C 
BRANCH   2   3
ATOM      3  C   UNL A   1      34.667  21.301  24.503  1.00  0.00     0.021 C 
BRANCH   3   4
ATOM      4  C   UNL A   1      33.338  20.860  25.135  1.00  0.00     0.116 C 
BRANCH   4   5
ATOM      5  N   UNL A   1      33.343  21.202  26.542  1.00  0.00    -0.352 N 
ATOM      6  C   UNL A   1      33.048  22.338  27.244  1.00  0.00     0.252 C 
ATOM      7  O   UNL A   1      33.274  22.298  28.457  1.00  0.00    -0.269 OA
ATOM      8  H   UNL A   1      33.616  20.453  27.120  1.00  0.00     0.163 HD
BRANCH   6   9
ATOM      9  C   UNL A   1      32.384  23.559  26.703  1.00  0.00     0.058 A 
ATOM     10  C   UNL A   1      31.474  25.916  25.382  1.00  0.00    -0.017 A 
ATOM     11  C   UNL A   1      32.831  25.603  25.400  1.00  0.00     0.009 A 
ATOM     12  C   UNL A   1      30.587  25.051  26.033  1.00  0.00     0.030 A 
ATOM     13  C   UNL A   1      33.276  24.455  26.066  1.00  0.00     0.016 A 
ATOM     14  C   UNL A   1      31.020  23.857  26.632  1.00  0.00     0.054 A 
ATOM     15  Cl  UNL A   1      29.735  22.786  27.034  1.00  0.00    -0.083 Cl
BRANCH  10  16
ATOM     16  C   UNL A   1      30.934  27.049  24.621  1.00  0.00    -0.015 A 
ATOM     17  C   UNL A   1      31.797  28.767  26.326  1.00  0.00     0.045 C 
ATOM     18  C   UNL A   1      31.134  28.389  25.027  1.00  0.00    -0.042 A 
ATOM     19  C   UNL A   1      30.692  29.435  24.196  1.00  0.00     0.024 A 
ATOM     20  C   UNL A   1      30.079  29.162  22.976  1.00  0.00     0.041 A 
ATOM     21  C   UNL A   1      30.292  26.799  23.394  1.00  0.00     0.010 A 
ATOM     22  Cl  UNL A   1      29.594  30.458  21.954  1.00  0.00    -0.084 Cl
ATOM     23  C   UNL A   1      29.870  27.848  22.573  1.00  0.00     0.021 A 
ENDBRANCH  10  16
ENDBRANCH   6   9
ENDBRANCH   4   5
ENDBRANCH   3   4
ENDBRANCH   2   3
ENDBRANCH   1   2
BRANCH   1  24
ATOM     24  C   UNL A   1      38.145  19.854  24.931  1.00  0.00     0.021 C 
BRANCH  24  25
ATOM     25  C   UNL A   1      39.132  20.102  26.067  1.00  0.00     0.116 C 
BRANCH  25  26
ATOM     26  N   UNL A   1      40.234  19.152  26.035  1.00  0.00    -0.352 N 
ATOM     27  C   UNL A   1      41.582  19.388  26.005  1.00  0.00     0.251 C 
ATOM     28  H   UNL A   1      39.972  18.203  26.033  1.00  0.00     0.163 HD
ATOM     29  O   UNL A   1      42.364  18.481  25.718  1.00  0.00    -0.269 OA
BRANCH  27  30
ATOM     30  C   UNL A   1      42.103  20.732  26.320  1.00  0.00     0.039 A 
ATOM     31  C   UNL A   1      42.407  21.606  25.272  1.00  0.00     0.014 A 
ATOM     32  C   UNL A   1      42.324  21.117  27.645  1.00  0.00     0.014 A 
ATOM     33  C   UNL A   1      42.890  22.884  25.556  1.00  0.00     0.010 A 
ATOM     34  C   UNL A   1      42.736  22.415  27.930  1.00  0.00     0.010 A 
ATOM     35  C   UNL A   1      43.035  23.305  26.888  1.00  0.00    -0.014 A 
BRANCH  35  36
ATOM     36  C   UNL A   1      43.516  24.670  27.213  1.00  0.00     0.031 A 
ATOM     37  C   UNL A   1      42.572  25.684  27.794  1.00  0.00     0.074 A 
ATOM     38  C   UNL A   1      44.787  25.011  26.929  1.00  0.00     0.049 A 
ATOM     39  N   UNL A   1      42.788  26.936  28.105  1.00  0.00    -0.248 NA
ATOM     40  C   UNL A   1      41.191  25.236  28.030  1.00  0.00     0.031 C 
ATOM     41  C   UNL A   1      45.784  24.125  26.329  1.00  0.00     0.029 A 
ATOM     42  N   UNL A   1      45.455  26.195  27.108  1.00  0.00    -0.354 N 
ATOM     43  C   UNL A   1      41.572  27.427  28.560  1.00  0.00     0.074 A 
ATOM     44  C   UNL A   1      40.608  26.356  28.425  1.00  0.00     0.031 C 
ATOM     45  C   UNL A   1      46.949  24.785  26.223  1.00  0.00     0.029 A 
ATOM     46  C   UNL A   1      46.769  26.148  26.713  1.00  0.00     0.049 A 
ATOM     47  H   UNL A   1      45.034  27.001  27.485  1.00  0.00     0.167 HD
ATOM     48  C   UNL A   1      41.289  28.652  29.068  1.00  0.00     0.037 A 
ATOM     49  C   UNL A   1      47.720  27.099  26.748  1.00  0.00     0.037 A 
ATOM     50  C   UNL A   1      42.258  29.707  29.213  1.00  0.00     0.049 A 
ATOM     51  C   UNL A   1      47.378  28.459  27.292  1.00  0.00     0.074 A 
ATOM     52  C   UNL A   1      42.093  30.963  29.766  1.00  0.00     0.029 A 
ATOM     53  N   UNL A   1      43.577  29.628  28.789  1.00  0.00    -0.354 N 
ATOM     54  N   UNL A   1      46.243  28.893  27.784  1.00  0.00    -0.248 NA
ATOM     55  C   UNL A   1      48.453  29.460  27.286  1.00  0.00     0.031 C 
ATOM     56  C   UNL A   1      43.298  31.662  29.634  1.00  0.00     0.029 A 
ATOM     57  C   UNL A   1      44.231  30.823  29.045  1.00  0.00     0.049 A 
ATOM     58  H   UNL A   1      43.990  28.837  28.370  1.00  0.00     0.167 HD
ATOM     59  C   UNL A   1      46.473  30.205  28.174  1.00  0.00     0.074 A 
ATOM     60  C   UNL A   1      47.861  30.492  27.870  1.00  0.00     0.031 C 
ATOM     61  C   UNL A   1      45.614  31.091  28.737  1.00  0.00     0.037 A 
BRANCH  48  62
ATOM     62  C   UNL A   1      39.871  28.905  29.495  1.00  0.00     0.064 A 
ATOM     63  C   UNL A   1      39.442  28.664  30.810  1.00  0.00     0.173 A 
ATOM     64  C   UNL A   1      38.926  29.389  28.578  1.00  0.00     0.173 A 
ATOM     65  F   UNL A   1      40.302  28.191  31.725  1.00  0.00    -0.203 F 
ATOM     66  C   UNL A   1      38.110  28.848  31.177  1.00  0.00     0.198 A 
ATOM     67  C   UNL A   1      37.604  29.605  28.957  1.00  0.00     0.198 A 
ATOM     68  F   UNL A   1      39.281  29.644  27.310  1.00  0.00    -0.203 F 
ATOM     69  F   UNL A   1      37.712  28.542  32.419  1.00  0.00    -0.200 F 
ATOM     70  C   UNL A   1      37.194  29.322  30.252  1.00  0.00     0.200 A 
ATOM     71  F   UNL A   1      36.720  30.075  28.065  1.00  0.00    -0.200 F 
ATOM     72  F   UNL A   1      35.912  29.493  30.604  1.00  0.00    -0.200 F 
ENDBRANCH  48  62
BRANCH  49  73
ATOM     73  C   UNL A   1      49.100  26.777  26.304  1.00  0.00     0.064 A 
ATOM     74  C   UNL A   1      49.493  27.011  24.979  1.00  0.00     0.173 A 
ATOM     75  C   UNL A   1      50.056  26.258  27.189  1.00  0.00     0.173 A 
ATOM     76  F   UNL A   1      48.607  27.489  24.093  1.00  0.00    -0.203 F 
ATOM     77  C   UNL A   1      50.788  26.727  24.552  1.00  0.00     0.198 A 
ATOM     78  C   UNL A   1      51.359  25.999  26.766  1.00  0.00     0.198 A 
ATOM     79  F   UNL A   1      49.731  26.023  28.468  1.00  0.00    -0.203 F 
ATOM     80  F   UNL A   1      51.128  26.930  23.272  1.00  0.00    -0.200 F 
ATOM     81  C   UNL A   1      51.722  26.229  25.447  1.00  0.00     0.200 A 
ATOM     82  F   UNL A   1      52.263  25.530  27.637  1.00  0.00    -0.200 F 
ATOM     83  F   UNL A   1      52.971  25.966  25.039  1.00  0.00    -0.200 F 
ENDBRANCH  49  73
BRANCH  61  84
ATOM     84  C   UNL A   1      46.160  32.444  29.090  1.00  0.00     0.064 A 
ATOM     85  C   UNL A   1      46.096  33.522  28.196  1.00  0.00     0.173 A 
ATOM     86  C   UNL A   1      46.729  32.671  30.353  1.00  0.00     0.173 A 
ATOM     87  F   UNL A   1      45.578  33.352  26.970  1.00  0.00    -0.203 F 
ATOM     88  C   UNL A   1      46.606  34.770  28.543  1.00  0.00     0.198 A 
ATOM     89  C   UNL A   1      47.209  33.927  30.708  1.00  0.00     0.198 A 
ATOM     90  F   UNL A   1      46.809  31.674  31.248  1.00  0.00    -0.203 F 
ATOM     91  F   UNL A   1      46.580  35.773  27.654  1.00  0.00    -0.200 F 
ATOM     92  C   UNL A   1      47.154  34.974  29.800  1.00  0.00     0.200 A 
ATOM     93  F   UNL A   1      47.726  34.125  31.928  1.00  0.00    -0.200 F 
ATOM     94  F   UNL A   1      47.639  36.178  30.135  1.00  0.00    -0.200 F 
ENDBRANCH  61  84
ENDBRANCH  35  36
ENDBRANCH  27  30
ENDBRANCH  25  26
ENDBRANCH  24  25
ENDBRANCH   1  24
TORSDOF 14
ENDMDL
