MODEL 1
REMARK VINA RESULT:     -12.8      0.000      0.000
REMARK SMILES Cc1c(Br)c(C)c2c(c1Br)O[C@H](C(F)(F)F)C(C(=O)NCCCCCCNC(=O)c1ccc(-c3c4nc(c(-c5c(F)c(F)c(F)c(F)c5F)c5ccc([nH]5)c(-c5c(F)c(F)c(F)c(F)c5F)c5nc(c(-c6c(F)c(F)c(F)c(F)c6F)c6ccc3[nH]6)C=C5)C=C4)cc1)=C2
REMARK SMILES IDX 24 1 23 2 22 3 21 4 20 5 18 6 19 7 17 9 1 10 2 11 3 12 9 13
REMARK SMILES IDX 4 14 5 15 8 16 10 17 6 18 7 19 11 20 93 21 12 22 13 23 14 24
REMARK SMILES IDX 15 25 16 26 25 27 26 28 27 29 28 30 29 32 30 33 31 34 92 35
REMARK SMILES IDX 32 36 91 37 33 38 34 39 35 40 85 41 36 42 90 43 84 44 86 45
REMARK SMILES IDX 37 46 89 47 83 48 82 49 38 51 70 52 50 53 69 54 51 55 54 56
REMARK SMILES IDX 68 57 87 58 52 59 53 60 67 62 88 63 55 64 39 65 40 66 48 67
REMARK SMILES IDX 41 68 42 69 46 70 49 71 43 72 44 73 47 74 45 75 71 76 72 77
REMARK SMILES IDX 80 78 73 79 74 80 78 81 81 82 75 83 76 84 79 85 77 86 56 87
REMARK SMILES IDX 57 88 65 89 58 90 59 91 63 92 66 93 60 94 61 95 64 96 62 97
REMARK H PARENT 20 8 27 31 86 50 54 61
REMARK Flexibility Score: inf
ROOT
ATOM      1  C   UNL A   1      31.611  30.483  25.702  1.00  0.00     0.002 C 
ENDROOT
BRANCH   1   2
ATOM      2  C   UNL A   1      32.882  29.645  25.896  1.00  0.00     0.002 C 
BRANCH   2   3
ATOM      3  C   UNL A   1      33.440  28.986  24.630  1.00  0.00     0.021 C 
BRANCH   3   4
ATOM      4  C   UNL A   1      33.304  27.466  24.604  1.00  0.00     0.116 C 
BRANCH   4   5
ATOM      5  N   UNL A   1      32.293  27.002  25.538  1.00  0.00    -0.352 N 
ATOM      6  C   UNL A   1      31.882  25.820  26.049  1.00  0.00     0.251 C 
ATOM      7  O   UNL A   1      30.953  25.900  26.860  1.00  0.00    -0.270 OA
ATOM      8  H   UNL A   1      31.766  27.751  25.896  1.00  0.00     0.163 HD
BRANCH   6   9
ATOM      9  C   UNL A   1      32.454  24.480  25.718  1.00  0.00     0.067 C 
ATOM     10  C   UNL A   1      36.220  19.191  24.749  1.00  0.00     0.047 C 
ATOM     11  C   UNL A   1      35.630  20.542  25.082  1.00  0.00    -0.019 A 
ATOM     12  C   UNL A   1      36.430  21.656  25.442  1.00  0.00     0.025 A 
ATOM     13  C   UNL A   1      34.237  20.732  24.987  1.00  0.00     0.064 A 
ATOM     14  Br  UNL A   1      38.339  21.455  25.485  1.00  0.00    -0.050 Br
ATOM     15  C   UNL A   1      35.852  22.917  25.751  1.00  0.00    -0.026 A 
ATOM     16  C   UNL A   1      33.657  21.976  25.281  1.00  0.00     0.142 A 
ATOM     17  Br  UNL A   1      33.082  19.312  24.413  1.00  0.00    -0.046 Br
ATOM     18  C   UNL A   1      36.683  24.114  26.164  1.00  0.00     0.046 C 
ATOM     19  C   UNL A   1      34.445  23.061  25.674  1.00  0.00     0.022 A 
ATOM     20  O   UNL A   1      32.291  22.058  25.224  1.00  0.00    -0.474 OA
ATOM     21  C   UNL A   1      33.758  24.317  26.012  1.00  0.00     0.026 C 
ATOM     22  C   UNL A   1      31.697  23.368  25.065  1.00  0.00     0.314 C 
BRANCH  22  23
ATOM     23  C   UNL A   1      31.407  23.625  23.577  1.00  0.00     0.429 C 
ATOM     24  F   UNL A   1      30.175  24.172  23.419  1.00  0.00    -0.167 F 
ATOM     25  F   UNL A   1      32.281  24.496  23.021  1.00  0.00    -0.167 F 
ATOM     26  F   UNL A   1      31.448  22.495  22.837  1.00  0.00    -0.167 F 
ENDBRANCH  22  23
ENDBRANCH   6   9
ENDBRANCH   4   5
ENDBRANCH   3   4
ENDBRANCH   2   3
ENDBRANCH   1   2
BRANCH   1  27
ATOM     27  C   UNL A   1      31.423  31.639  26.688  1.00  0.00     0.021 C 
BRANCH  27  28
ATOM     28  C   UNL A   1      32.702  32.384  27.054  1.00  0.00     0.116 C 
BRANCH  28  29
ATOM     29  N   UNL A   1      32.449  33.761  27.438  1.00  0.00    -0.352 N 
ATOM     30  C   UNL A   1      33.061  34.513  28.410  1.00  0.00     0.251 C 
ATOM     31  H   UNL A   1      31.740  34.220  26.932  1.00  0.00     0.163 HD
ATOM     32  O   UNL A   1      32.620  35.615  28.719  1.00  0.00    -0.269 OA
BRANCH  30  33
ATOM     33  C   UNL A   1      34.246  33.971  29.106  1.00  0.00     0.039 A 
ATOM     34  C   UNL A   1      34.061  32.998  30.089  1.00  0.00     0.014 A 
ATOM     35  C   UNL A   1      35.531  34.409  28.773  1.00  0.00     0.014 A 
ATOM     36  C   UNL A   1      35.175  32.417  30.696  1.00  0.00     0.010 A 
ATOM     37  C   UNL A   1      36.641  33.783  29.332  1.00  0.00     0.010 A 
ATOM     38  C   UNL A   1      36.472  32.781  30.299  1.00  0.00    -0.014 A 
BRANCH  38  39
ATOM     39  C   UNL A   1      37.657  32.115  30.891  1.00  0.00     0.031 A 
ATOM     40  C   UNL A   1      38.120  32.483  32.272  1.00  0.00     0.074 A 
ATOM     41  C   UNL A   1      38.331  31.198  30.171  1.00  0.00     0.049 A 
ATOM     42  N   UNL A   1      39.121  31.999  32.961  1.00  0.00    -0.248 NA
ATOM     43  C   UNL A   1      37.373  33.545  32.963  1.00  0.00     0.031 C 
ATOM     44  C   UNL A   1      38.004  30.796  28.802  1.00  0.00     0.029 A 
ATOM     45  N   UNL A   1      39.425  30.433  30.490  1.00  0.00    -0.354 N 
ATOM     46  C   UNL A   1      39.121  32.693  34.163  1.00  0.00     0.074 A 
ATOM     47  C   UNL A   1      38.061  33.675  34.087  1.00  0.00     0.031 C 
ATOM     48  C   UNL A   1      38.850  29.829  28.414  1.00  0.00     0.029 A 
ATOM     49  C   UNL A   1      39.794  29.560  29.495  1.00  0.00     0.049 A 
ATOM     50  H   UNL A   1      39.898  30.502  31.350  1.00  0.00     0.167 HD
ATOM     51  C   UNL A   1      39.912  32.505  35.244  1.00  0.00     0.037 A 
ATOM     52  C   UNL A   1      40.775  28.637  29.467  1.00  0.00     0.037 A 
ATOM     53  C   UNL A   1      40.948  31.511  35.326  1.00  0.00     0.049 A 
ATOM     54  C   UNL A   1      41.649  28.458  30.677  1.00  0.00     0.074 A 
ATOM     55  C   UNL A   1      41.773  31.211  36.394  1.00  0.00     0.029 A 
ATOM     56  N   UNL A   1      41.298  30.652  34.294  1.00  0.00    -0.354 N 
ATOM     57  N   UNL A   1      41.596  29.076  31.831  1.00  0.00    -0.248 NA
ATOM     58  C   UNL A   1      42.716  27.449  30.584  1.00  0.00     0.031 C 
ATOM     59  C   UNL A   1      42.645  30.194  36.000  1.00  0.00     0.029 A 
ATOM     60  C   UNL A   1      42.338  29.833  34.697  1.00  0.00     0.049 A 
ATOM     61  H   UNL A   1      40.869  30.628  33.407  1.00  0.00     0.167 HD
ATOM     62  C   UNL A   1      42.601  28.517  32.609  1.00  0.00     0.074 A 
ATOM     63  C   UNL A   1      43.245  27.504  31.799  1.00  0.00     0.031 C 
ATOM     64  C   UNL A   1      42.955  28.819  33.882  1.00  0.00     0.037 A 
BRANCH  51  65
ATOM     65  C   UNL A   1      39.671  33.373  36.443  1.00  0.00     0.064 A 
ATOM     66  C   UNL A   1      40.292  34.625  36.569  1.00  0.00     0.173 A 
ATOM     67  C   UNL A   1      38.772  32.980  37.444  1.00  0.00     0.173 A 
ATOM     68  F   UNL A   1      41.168  35.040  35.642  1.00  0.00    -0.203 F 
ATOM     69  C   UNL A   1      40.031  35.446  37.662  1.00  0.00     0.198 A 
ATOM     70  C   UNL A   1      38.495  33.815  38.524  1.00  0.00     0.198 A 
ATOM     71  F   UNL A   1      38.149  31.794  37.367  1.00  0.00    -0.203 F 
ATOM     72  F   UNL A   1      40.662  36.623  37.779  1.00  0.00    -0.200 F 
ATOM     73  C   UNL A   1      39.128  35.044  38.634  1.00  0.00     0.200 A 
ATOM     74  F   UNL A   1      37.612  33.431  39.457  1.00  0.00    -0.200 F 
ATOM     75  F   UNL A   1      38.870  35.841  39.680  1.00  0.00    -0.200 F 
ENDBRANCH  51  65
BRANCH  52  76
ATOM     76  C   UNL A   1      40.937  27.773  28.270  1.00  0.00     0.064 A 
ATOM     77  C   UNL A   1      41.727  28.192  27.190  1.00  0.00     0.173 A 
ATOM     78  C   UNL A   1      40.335  26.510  28.189  1.00  0.00     0.173 A 
ATOM     79  F   UNL A   1      42.308  29.400  27.216  1.00  0.00    -0.203 F 
ATOM     80  C   UNL A   1      41.901  27.383  26.070  1.00  0.00     0.198 A 
ATOM     81  C   UNL A   1      40.528  25.691  27.077  1.00  0.00     0.198 A 
ATOM     82  F   UNL A   1      39.573  26.062  29.198  1.00  0.00    -0.203 F 
ATOM     83  F   UNL A   1      42.640  27.818  25.040  1.00  0.00    -0.200 F 
ATOM     84  C   UNL A   1      41.308  26.130  26.017  1.00  0.00     0.200 A 
ATOM     85  F   UNL A   1      39.964  24.477  27.035  1.00  0.00    -0.200 F 
ATOM     86  F   UNL A   1      41.485  25.348  24.944  1.00  0.00    -0.200 F 
ENDBRANCH  52  76
BRANCH  64  87
ATOM     87  C   UNL A   1      44.074  28.038  34.500  1.00  0.00     0.064 A 
ATOM     88  C   UNL A   1      45.386  28.531  34.510  1.00  0.00     0.173 A 
ATOM     89  C   UNL A   1      43.811  26.840  35.181  1.00  0.00     0.173 A 
ATOM     90  F   UNL A   1      45.686  29.667  33.863  1.00  0.00    -0.203 F 
ATOM     91  C   UNL A   1      46.397  27.851  35.184  1.00  0.00     0.198 A 
ATOM     92  C   UNL A   1      44.820  26.175  35.871  1.00  0.00     0.198 A 
ATOM     93  F   UNL A   1      42.569  26.334  35.204  1.00  0.00    -0.203 F 
ATOM     94  F   UNL A   1      47.648  28.331  35.171  1.00  0.00    -0.200 F 
ATOM     95  C   UNL A   1      46.111  26.681  35.873  1.00  0.00     0.200 A 
ATOM     96  F   UNL A   1      44.539  25.053  36.549  1.00  0.00    -0.200 F 
ATOM     97  F   UNL A   1      47.080  26.043  36.542  1.00  0.00    -0.200 F 
ENDBRANCH  64  87
ENDBRANCH  38  39
ENDBRANCH  30  33
ENDBRANCH  28  29
ENDBRANCH  27  28
ENDBRANCH   1  27
TORSDOF 14
ENDMDL
MODEL 2
REMARK VINA RESULT:     -12.5      5.214     10.645
REMARK SMILES Cc1c(Br)c(C)c2c(c1Br)O[C@H](C(F)(F)F)C(C(=O)NCCCCCCNC(=O)c1ccc(-c3c4nc(c(-c5c(F)c(F)c(F)c(F)c5F)c5ccc([nH]5)c(-c5c(F)c(F)c(F)c(F)c5F)c5nc(c(-c6c(F)c(F)c(F)c(F)c6F)c6ccc3[nH]6)C=C5)C=C4)cc1)=C2
REMARK SMILES IDX 24 1 23 2 22 3 21 4 20 5 18 6 19 7 17 9 1 10 2 11 3 12 9 13
REMARK SMILES IDX 4 14 5 15 8 16 10 17 6 18 7 19 11 20 93 21 12 22 13 23 14 24
REMARK SMILES IDX 15 25 16 26 25 27 26 28 27 29 28 30 29 32 30 33 31 34 92 35
REMARK SMILES IDX 32 36 91 37 33 38 34 39 35 40 85 41 36 42 90 43 84 44 86 45
REMARK SMILES IDX 37 46 89 47 83 48 82 49 38 51 70 52 50 53 69 54 51 55 54 56
REMARK SMILES IDX 68 57 87 58 52 59 53 60 67 62 88 63 55 64 39 65 40 66 48 67
REMARK SMILES IDX 41 68 42 69 46 70 49 71 43 72 44 73 47 74 45 75 71 76 72 77
REMARK SMILES IDX 80 78 73 79 74 80 78 81 81 82 75 83 76 84 79 85 77 86 56 87
REMARK SMILES IDX 57 88 65 89 58 90 59 91 63 92 66 93 60 94 61 95 64 96 62 97
REMARK H PARENT 20 8 27 31 86 50 54 61
REMARK Flexibility Score: inf
ROOT
ATOM      1  C   UNL A   1      36.485  20.370  25.001  1.00  0.00     0.002 C 
ENDROOT
BRANCH   1   2
ATOM      2  C   UNL A   1      36.304  21.828  25.446  1.00  0.00     0.002 C 
BRANCH   2   3
ATOM      3  C   UNL A   1      35.089  22.100  26.339  1.00  0.00     0.021 C 
BRANCH   3   4
ATOM      4  C   UNL A   1      34.005  22.947  25.679  1.00  0.00     0.116 C 
BRANCH   4   5
ATOM      5  N   UNL A   1      34.238  23.103  24.254  1.00  0.00    -0.352 N 
ATOM      6  C   UNL A   1      33.923  23.993  23.287  1.00  0.00     0.251 C 
ATOM      7  O   UNL A   1      34.364  23.719  22.165  1.00  0.00    -0.270 OA
ATOM      8  H   UNL A   1      34.772  22.358  23.896  1.00  0.00     0.163 HD
BRANCH   6   9
ATOM      9  C   UNL A   1      33.116  25.236  23.476  1.00  0.00     0.067 C 
ATOM     10  C   UNL A   1      30.654  31.062  25.233  1.00  0.00     0.047 C 
ATOM     11  C   UNL A   1      31.462  29.802  25.032  1.00  0.00    -0.019 A 
ATOM     12  C   UNL A   1      32.586  29.481  25.835  1.00  0.00     0.025 A 
ATOM     13  C   UNL A   1      31.068  28.875  24.047  1.00  0.00     0.064 A 
ATOM     14  Br  UNL A   1      33.090  30.676  27.251  1.00  0.00    -0.050 Br
ATOM     15  C   UNL A   1      33.332  28.289  25.627  1.00  0.00    -0.026 A 
ATOM     16  C   UNL A   1      31.792  27.691  23.840  1.00  0.00     0.142 A 
ATOM     17  Br  UNL A   1      29.503  29.174  22.978  1.00  0.00    -0.046 Br
ATOM     18  C   UNL A   1      34.551  27.937  26.454  1.00  0.00     0.046 C 
ATOM     19  C   UNL A   1      32.923  27.396  24.606  1.00  0.00     0.022 A 
ATOM     20  O   UNL A   1      31.377  26.875  22.821  1.00  0.00    -0.474 OA
ATOM     21  C   UNL A   1      33.655  26.159  24.296  1.00  0.00     0.026 C 
ATOM     22  C   UNL A   1      31.775  25.484  22.862  1.00  0.00     0.314 C 
BRANCH  22  23
ATOM     23  C   UNL A   1      30.654  24.645  23.497  1.00  0.00     0.429 C 
ATOM     24  F   UNL A   1      30.942  24.367  24.793  1.00  0.00    -0.167 F 
ATOM     25  F   UNL A   1      29.465  25.291  23.504  1.00  0.00    -0.167 F 
ATOM     26  F   UNL A   1      30.462  23.468  22.862  1.00  0.00    -0.167 F 
ENDBRANCH  22  23
ENDBRANCH   6   9
ENDBRANCH   4   5
ENDBRANCH   3   4
ENDBRANCH   2   3
ENDBRANCH   1   2
BRANCH   1  27
ATOM     27  C   UNL A   1      37.921  19.952  24.671  1.00  0.00     0.021 C 
BRANCH  27  28
ATOM     28  C   UNL A   1      38.939  20.236  25.769  1.00  0.00     0.116 C 
BRANCH  28  29
ATOM     29  N   UNL A   1      39.957  19.203  25.859  1.00  0.00    -0.352 N 
ATOM     30  C   UNL A   1      41.306  19.337  26.073  1.00  0.00     0.251 C 
ATOM     31  H   UNL A   1      39.635  18.280  25.753  1.00  0.00     0.163 HD
ATOM     32  O   UNL A   1      42.056  18.374  25.962  1.00  0.00    -0.269 OA
BRANCH  30  33
ATOM     33  C   UNL A   1      41.857  20.665  26.412  1.00  0.00     0.039 A 
ATOM     34  C   UNL A   1      42.143  21.559  25.379  1.00  0.00     0.014 A 
ATOM     35  C   UNL A   1      42.071  21.030  27.745  1.00  0.00     0.014 A 
ATOM     36  C   UNL A   1      42.585  22.846  25.687  1.00  0.00     0.010 A 
ATOM     37  C   UNL A   1      42.449  22.333  28.052  1.00  0.00     0.010 A 
ATOM     38  C   UNL A   1      42.710  23.252  27.025  1.00  0.00    -0.014 A 
BRANCH  38  39
ATOM     39  C   UNL A   1      43.111  24.641  27.358  1.00  0.00     0.031 A 
ATOM     40  C   UNL A   1      44.516  25.104  27.099  1.00  0.00     0.074 A 
ATOM     41  C   UNL A   1      42.213  25.474  27.918  1.00  0.00     0.049 A 
ATOM     42  N   UNL A   1      45.046  26.282  27.307  1.00  0.00    -0.248 NA
ATOM     43  C   UNL A   1      45.453  24.111  26.553  1.00  0.00     0.031 C 
ATOM     44  C   UNL A   1      40.835  25.120  28.260  1.00  0.00     0.029 A 
ATOM     45  N   UNL A   1      42.322  26.790  28.292  1.00  0.00    -0.354 N 
ATOM     46  C   UNL A   1      46.373  26.172  26.915  1.00  0.00     0.074 A 
ATOM     47  C   UNL A   1      46.586  24.798  26.516  1.00  0.00     0.031 C 
ATOM     48  C   UNL A   1      40.213  26.203  28.753  1.00  0.00     0.029 A 
ATOM     49  C   UNL A   1      41.154  27.319  28.786  1.00  0.00     0.049 A 
ATOM     50  H   UNL A   1      43.156  27.306  28.212  1.00  0.00     0.167 HD
ATOM     51  C   UNL A   1      47.318  27.138  26.861  1.00  0.00     0.037 A 
ATOM     52  C   UNL A   1      40.872  28.569  29.203  1.00  0.00     0.037 A 
ATOM     53  C   UNL A   1      47.096  28.509  27.235  1.00  0.00     0.049 A 
ATOM     54  C   UNL A   1      41.945  29.621  29.146  1.00  0.00     0.074 A 
ATOM     55  C   UNL A   1      47.977  29.573  27.173  1.00  0.00     0.029 A 
ATOM     56  N   UNL A   1      45.903  29.004  27.739  1.00  0.00    -0.354 N 
ATOM     57  N   UNL A   1      43.177  29.520  28.711  1.00  0.00    -0.248 NA
ATOM     58  C   UNL A   1      41.588  30.963  29.632  1.00  0.00     0.031 C 
ATOM     59  C   UNL A   1      47.329  30.706  27.670  1.00  0.00     0.029 A 
ATOM     60  C   UNL A   1      46.030  30.356  28.007  1.00  0.00     0.049 A 
ATOM     61  H   UNL A   1      45.086  28.473  27.884  1.00  0.00     0.167 HD
ATOM     62  C   UNL A   1      43.734  30.783  28.846  1.00  0.00     0.074 A 
ATOM     63  C   UNL A   1      42.704  31.640  29.397  1.00  0.00     0.031 C 
ATOM     64  C   UNL A   1      44.988  31.195  28.539  1.00  0.00     0.037 A 
BRANCH  51  65
ATOM     65  C   UNL A   1      48.676  26.757  26.353  1.00  0.00     0.064 A 
ATOM     66  C   UNL A   1      49.015  26.913  25.000  1.00  0.00     0.173 A 
ATOM     67  C   UNL A   1      49.665  26.287  27.229  1.00  0.00     0.173 A 
ATOM     68  F   UNL A   1      48.100  27.349  24.121  1.00  0.00    -0.203 F 
ATOM     69  C   UNL A   1      50.291  26.599  24.541  1.00  0.00     0.198 A 
ATOM     70  C   UNL A   1      50.947  25.997  26.770  1.00  0.00     0.198 A 
ATOM     71  F   UNL A   1      49.392  26.124  28.532  1.00  0.00    -0.203 F 
ATOM     72  F   UNL A   1      50.581  26.724  23.238  1.00  0.00    -0.200 F 
ATOM     73  C   UNL A   1      51.257  26.149  25.427  1.00  0.00     0.200 A 
ATOM     74  F   UNL A   1      51.885  25.573  27.629  1.00  0.00    -0.200 F 
ATOM     75  F   UNL A   1      52.489  25.857  24.985  1.00  0.00    -0.200 F 
ENDBRANCH  51  65
BRANCH  52  76
ATOM     76  C   UNL A   1      39.496  28.902  29.652  1.00  0.00     0.064 A 
ATOM     77  C   UNL A   1      38.553  29.405  28.745  1.00  0.00     0.173 A 
ATOM     78  C   UNL A   1      39.088  28.702  30.977  1.00  0.00     0.173 A 
ATOM     79  F   UNL A   1      38.904  29.629  27.470  1.00  0.00    -0.203 F 
ATOM     80  C   UNL A   1      37.254  29.704  29.150  1.00  0.00     0.198 A 
ATOM     81  C   UNL A   1      37.781  28.981  31.377  1.00  0.00     0.198 A 
ATOM     82  F   UNL A   1      39.952  28.218  31.882  1.00  0.00    -0.203 F 
ATOM     83  F   UNL A   1      36.380  30.209  28.269  1.00  0.00    -0.200 F 
ATOM     84  C   UNL A   1      36.867  29.485  30.463  1.00  0.00     0.200 A 
ATOM     85  F   UNL A   1      37.407  28.756  32.643  1.00  0.00    -0.200 F 
ATOM     86  F   UNL A   1      35.614  29.762  30.850  1.00  0.00    -0.200 F 
ENDBRANCH  52  76
BRANCH  64  87
ATOM     87  C   UNL A   1      45.325  32.637  28.765  1.00  0.00     0.064 A 
ATOM     88  C   UNL A   1      45.039  33.611  27.799  1.00  0.00     0.173 A 
ATOM     89  C   UNL A   1      45.837  33.060  30.001  1.00  0.00     0.173 A 
ATOM     90  F   UNL A   1      44.558  33.251  26.599  1.00  0.00    -0.203 F 
ATOM     91  C   UNL A   1      45.253  34.961  28.063  1.00  0.00     0.198 A 
ATOM     92  C   UNL A   1      46.029  34.412  30.269  1.00  0.00     0.198 A 
ATOM     93  F   UNL A   1      46.119  32.164  30.959  1.00  0.00    -0.203 F 
ATOM     94  F   UNL A   1      44.986  35.876  27.122  1.00  0.00    -0.200 F 
ATOM     95  C   UNL A   1      45.736  35.361  29.301  1.00  0.00     0.200 A 
ATOM     96  F   UNL A   1      46.481  34.798  31.470  1.00  0.00    -0.200 F 
ATOM     97  F   UNL A   1      45.916  36.662  29.561  1.00  0.00    -0.200 F 
ENDBRANCH  64  87
ENDBRANCH  38  39
ENDBRANCH  30  33
ENDBRANCH  28  29
ENDBRANCH  27  28
ENDBRANCH   1  27
TORSDOF 14
ENDMDL
MODEL 3
REMARK VINA RESULT:     -12.4      1.448      7.428
REMARK SMILES Cc1c(Br)c(C)c2c(c1Br)O[C@H](C(F)(F)F)C(C(=O)NCCCCCCNC(=O)c1ccc(-c3c4nc(c(-c5c(F)c(F)c(F)c(F)c5F)c5ccc([nH]5)c(-c5c(F)c(F)c(F)c(F)c5F)c5nc(c(-c6c(F)c(F)c(F)c(F)c6F)c6ccc3[nH]6)C=C5)C=C4)cc1)=C2
REMARK SMILES IDX 24 1 23 2 22 3 21 4 20 5 18 6 19 7 17 9 1 10 2 11 3 12 9 13
REMARK SMILES IDX 4 14 5 15 8 16 10 17 6 18 7 19 11 20 93 21 12 22 13 23 14 24
REMARK SMILES IDX 15 25 16 26 25 27 26 28 27 29 28 30 29 32 30 33 31 34 92 35
REMARK SMILES IDX 32 36 91 37 33 38 34 39 35 40 85 41 36 42 90 43 84 44 86 45
REMARK SMILES IDX 37 46 89 47 83 48 82 49 38 51 70 52 50 53 69 54 51 55 54 56
REMARK SMILES IDX 68 57 87 58 52 59 53 60 67 62 88 63 55 64 39 65 40 66 48 67
REMARK SMILES IDX 41 68 42 69 46 70 49 71 43 72 44 73 47 74 45 75 71 76 72 77
REMARK SMILES IDX 80 78 73 79 74 80 78 81 81 82 75 83 76 84 79 85 77 86 56 87
REMARK SMILES IDX 57 88 65 89 58 90 59 91 63 92 66 93 60 94 61 95 64 96 62 97
REMARK H PARENT 20 8 27 31 86 50 54 61
REMARK Flexibility Score: inf
ROOT
ATOM      1  C   UNL A   1      31.481  30.782  26.600  1.00  0.00     0.002 C 
ENDROOT
BRANCH   1   2
ATOM      2  C   UNL A   1      32.850  30.134  26.848  1.00  0.00     0.002 C 
BRANCH   2   3
ATOM      3  C   UNL A   1      33.495  29.465  25.630  1.00  0.00     0.021 C 
BRANCH   3   4
ATOM      4  C   UNL A   1      32.645  29.518  24.364  1.00  0.00     0.116 C 
BRANCH   4   5
ATOM      5  N   UNL A   1      33.320  28.899  23.238  1.00  0.00    -0.352 N 
ATOM      6  C   UNL A   1      33.619  27.647  22.825  1.00  0.00     0.251 C 
ATOM      7  O   UNL A   1      34.221  27.585  21.747  1.00  0.00    -0.270 OA
ATOM      8  H   UNL A   1      33.648  29.574  22.602  1.00  0.00     0.163 HD
BRANCH   6   9
ATOM      9  C   UNL A   1      33.280  26.385  23.550  1.00  0.00     0.067 C 
ATOM     10  C   UNL A   1      33.188  20.493  26.443  1.00  0.00     0.047 C 
ATOM     11  C   UNL A   1      33.520  21.774  25.714  1.00  0.00    -0.019 A 
ATOM     12  C   UNL A   1      34.737  21.957  25.010  1.00  0.00     0.025 A 
ATOM     13  C   UNL A   1      32.574  22.818  25.679  1.00  0.00     0.064 A 
ATOM     14  Br  UNL A   1      36.006  20.517  24.956  1.00  0.00    -0.050 Br
ATOM     15  C   UNL A   1      35.028  23.172  24.332  1.00  0.00    -0.026 A 
ATOM     16  C   UNL A   1      32.847  24.018  25.005  1.00  0.00     0.142 A 
ATOM     17  Br  UNL A   1      30.859  22.625  26.518  1.00  0.00    -0.046 Br
ATOM     18  C   UNL A   1      36.332  23.401  23.596  1.00  0.00     0.046 C 
ATOM     19  C   UNL A   1      34.065  24.210  24.346  1.00  0.00     0.022 A 
ATOM     20  O   UNL A   1      31.899  25.003  25.072  1.00  0.00    -0.474 OA
ATOM     21  C   UNL A   1      34.294  25.513  23.703  1.00  0.00     0.026 C 
ATOM     22  C   UNL A   1      31.918  26.033  24.056  1.00  0.00     0.314 C 
BRANCH  22  23
ATOM     23  C   UNL A   1      30.929  25.670  22.936  1.00  0.00     0.429 C 
ATOM     24  F   UNL A   1      30.362  26.789  22.420  1.00  0.00    -0.167 F 
ATOM     25  F   UNL A   1      31.530  25.039  21.900  1.00  0.00    -0.167 F 
ATOM     26  F   UNL A   1      29.930  24.868  23.364  1.00  0.00    -0.167 F 
ENDBRANCH  22  23
ENDBRANCH   6   9
ENDBRANCH   4   5
ENDBRANCH   3   4
ENDBRANCH   2   3
ENDBRANCH   1   2
BRANCH   1  27
ATOM     27  C   UNL A   1      31.447  32.311  26.680  1.00  0.00     0.021 C 
BRANCH  27  28
ATOM     28  C   UNL A   1      32.653  32.943  27.365  1.00  0.00     0.116 C 
BRANCH  28  29
ATOM     29  N   UNL A   1      32.434  34.342  27.689  1.00  0.00    -0.352 N 
ATOM     30  C   UNL A   1      33.030  35.107  28.661  1.00  0.00     0.251 C 
ATOM     31  H   UNL A   1      31.766  34.806  27.137  1.00  0.00     0.163 HD
ATOM     32  O   UNL A   1      32.617  36.234  28.913  1.00  0.00    -0.269 OA
BRANCH  30  33
ATOM     33  C   UNL A   1      34.163  34.549  29.428  1.00  0.00     0.039 A 
ATOM     34  C   UNL A   1      33.911  33.958  30.667  1.00  0.00     0.014 A 
ATOM     35  C   UNL A   1      35.463  34.593  28.914  1.00  0.00     0.014 A 
ATOM     36  C   UNL A   1      34.957  33.353  31.365  1.00  0.00     0.010 A 
ATOM     37  C   UNL A   1      36.491  33.934  29.580  1.00  0.00     0.010 A 
ATOM     38  C   UNL A   1      36.247  33.308  30.812  1.00  0.00    -0.014 A 
BRANCH  38  39
ATOM     39  C   UNL A   1      37.346  32.605  31.516  1.00  0.00     0.031 A 
ATOM     40  C   UNL A   1      38.059  31.461  30.854  1.00  0.00     0.074 A 
ATOM     41  C   UNL A   1      37.681  32.982  32.765  1.00  0.00     0.049 A 
ATOM     42  N   UNL A   1      39.053  30.738  31.304  1.00  0.00    -0.248 NA
ATOM     43  C   UNL A   1      37.584  31.065  29.520  1.00  0.00     0.031 C 
ATOM     44  C   UNL A   1      37.027  34.047  33.527  1.00  0.00     0.029 A 
ATOM     45  N   UNL A   1      38.659  32.521  33.610  1.00  0.00    -0.354 N 
ATOM     46  C   UNL A   1      39.321  29.808  30.310  1.00  0.00     0.074 A 
ATOM     47  C   UNL A   1      38.348  30.014  29.259  1.00  0.00     0.031 C 
ATOM     48  C   UNL A   1      37.648  34.186  34.710  1.00  0.00     0.029 A 
ATOM     49  C   UNL A   1      38.726  33.206  34.799  1.00  0.00     0.049 A 
ATOM     50  H   UNL A   1      39.256  31.771  33.385  1.00  0.00     0.167 HD
ATOM     51  C   UNL A   1      40.312  28.887  30.263  1.00  0.00     0.037 A 
ATOM     52  C   UNL A   1      39.573  33.067  35.837  1.00  0.00     0.037 A 
ATOM     53  C   UNL A   1      41.293  28.702  31.298  1.00  0.00     0.049 A 
ATOM     54  C   UNL A   1      40.657  32.026  35.767  1.00  0.00     0.074 A 
ATOM     55  C   UNL A   1      42.363  27.827  31.324  1.00  0.00     0.029 A 
ATOM     56  N   UNL A   1      41.322  29.409  32.491  1.00  0.00    -0.354 N 
ATOM     57  N   UNL A   1      40.941  31.197  34.793  1.00  0.00    -0.248 NA
ATOM     58  C   UNL A   1      41.541  31.905  36.936  1.00  0.00     0.031 C 
ATOM     59  C   UNL A   1      43.022  27.980  32.547  1.00  0.00     0.029 A 
ATOM     60  C   UNL A   1      42.384  28.977  33.267  1.00  0.00     0.049 A 
ATOM     61  H   UNL A   1      40.683  30.113  32.748  1.00  0.00     0.167 HD
ATOM     62  C   UNL A   1      42.047  30.475  35.217  1.00  0.00     0.074 A 
ATOM     63  C   UNL A   1      42.390  30.968  36.536  1.00  0.00     0.031 C 
ATOM     64  C   UNL A   1      42.718  29.492  34.570  1.00  0.00     0.037 A 
BRANCH  51  65
ATOM     65  C   UNL A   1      40.405  28.026  29.040  1.00  0.00     0.064 A 
ATOM     66  C   UNL A   1      39.697  26.818  28.948  1.00  0.00     0.173 A 
ATOM     67  C   UNL A   1      41.158  28.434  27.930  1.00  0.00     0.173 A 
ATOM     68  F   UNL A   1      38.972  26.379  29.987  1.00  0.00    -0.203 F 
ATOM     69  C   UNL A   1      39.752  26.042  27.793  1.00  0.00     0.198 A 
ATOM     70  C   UNL A   1      41.191  27.669  26.768  1.00  0.00     0.198 A 
ATOM     71  F   UNL A   1      41.849  29.584  27.967  1.00  0.00    -0.203 F 
ATOM     72  F   UNL A   1      39.096  24.875  27.740  1.00  0.00    -0.200 F 
ATOM     73  C   UNL A   1      40.492  26.472  26.702  1.00  0.00     0.200 A 
ATOM     74  F   UNL A   1      41.896  28.090  25.709  1.00  0.00    -0.200 F 
ATOM     75  F   UNL A   1      40.535  25.730  25.587  1.00  0.00    -0.200 F 
ENDBRANCH  51  65
BRANCH  52  76
ATOM     76  C   UNL A   1      39.464  33.980  37.003  1.00  0.00     0.064 A 
ATOM     77  C   UNL A   1      38.729  33.604  38.137  1.00  0.00     0.173 A 
ATOM     78  C   UNL A   1      40.105  35.226  37.023  1.00  0.00     0.173 A 
ATOM     79  F   UNL A   1      38.084  32.428  38.156  1.00  0.00    -0.203 F 
ATOM     80  C   UNL A   1      38.634  34.444  39.244  1.00  0.00     0.198 A 
ATOM     81  C   UNL A   1      40.027  36.057  38.141  1.00  0.00     0.198 A 
ATOM     82  F   UNL A   1      40.824  35.630  35.965  1.00  0.00    -0.203 F 
ATOM     83  F   UNL A   1      37.904  34.071  40.304  1.00  0.00    -0.200 F 
ATOM     84  C   UNL A   1      39.289  35.667  39.248  1.00  0.00     0.200 A 
ATOM     85  F   UNL A   1      40.672  37.231  38.146  1.00  0.00    -0.200 F 
ATOM     86  F   UNL A   1      39.206  36.469  40.317  1.00  0.00    -0.200 F 
ENDBRANCH  52  76
BRANCH  64  87
ATOM     87  C   UNL A   1      43.906  28.889  35.254  1.00  0.00     0.064 A 
ATOM     88  C   UNL A   1      45.189  29.433  35.099  1.00  0.00     0.173 A 
ATOM     89  C   UNL A   1      43.742  27.828  36.157  1.00  0.00     0.173 A 
ATOM     90  F   UNL A   1      45.396  30.441  34.239  1.00  0.00    -0.203 F 
ATOM     91  C   UNL A   1      46.266  28.935  35.827  1.00  0.00     0.198 A 
ATOM     92  C   UNL A   1      44.817  27.348  36.899  1.00  0.00     0.198 A 
ATOM     93  F   UNL A   1      42.531  27.281  36.344  1.00  0.00    -0.203 F 
ATOM     94  F   UNL A   1      47.488  29.459  35.655  1.00  0.00    -0.200 F 
ATOM     95  C   UNL A   1      46.077  27.902  36.733  1.00  0.00     0.200 A 
ATOM     96  F   UNL A   1      44.630  26.360  37.785  1.00  0.00    -0.200 F 
ATOM     97  F   UNL A   1      47.111  27.442  37.451  1.00  0.00    -0.200 F 
ENDBRANCH  64  87
ENDBRANCH  38  39
ENDBRANCH  30  33
ENDBRANCH  28  29
ENDBRANCH  27  28
ENDBRANCH   1  27
TORSDOF 14
ENDMDL
