MODEL 1
REMARK VINA RESULT:     -12.3      0.000      0.000
REMARK SMILES COc1ccc(OC)c(-c2cc(C(=O)NCCCCCCNC(=O)c3ccc(-c4c5nc(c(-c6c(F)c(F)c(F)c(F)c6F)c6ccc([nH]6)c(-c6c(F)c(F)c(F)c(F)c6F)c6nc(c(-c7c(F)c(F)c(F)c(F)c7F)c7ccc4[nH]7)C=C6)C=C5)cc3)ccn2)c1
REMARK SMILES IDX 18 1 17 2 16 3 15 4 13 5 14 6 12 8 10 9 11 10 90 11 89 12
REMARK SMILES IDX 88 13 9 14 3 15 4 16 91 17 5 18 6 19 2 20 1 21 7 22 8 23
REMARK SMILES IDX 19 24 20 25 21 26 22 27 23 28 24 30 25 31 26 32 87 33 27 34
REMARK SMILES IDX 86 35 28 36 29 37 30 38 80 39 31 40 85 41 79 42 81 43 32 44
REMARK SMILES IDX 84 45 78 46 77 47 33 49 65 50 45 51 64 52 46 53 49 54 63 55
REMARK SMILES IDX 82 56 47 57 48 58 62 60 83 61 50 62 34 63 35 64 43 65 36 66
REMARK SMILES IDX 37 67 41 68 44 69 38 70 39 71 42 72 40 73 66 74 67 75 75 76
REMARK SMILES IDX 68 77 69 78 73 79 76 80 70 81 71 82 74 83 72 84 51 85 52 86
REMARK SMILES IDX 60 87 53 88 54 89 58 90 61 91 55 92 56 93 59 94 57 95
REMARK H PARENT 15 7 22 29 81 48 49 59
REMARK Flexibility Score: inf
ROOT
ATOM      1  C   UNL A   1      32.508  29.935  27.039  1.00  0.00     0.002 C 
ENDROOT
BRANCH   1   2
ATOM      2  C   UNL A   1      31.875  28.619  27.512  1.00  0.00     0.021 C 
BRANCH   2   3
ATOM      3  C   UNL A   1      31.734  27.592  26.386  1.00  0.00     0.116 C 
BRANCH   3   4
ATOM      4  N   UNL A   1      30.708  26.626  26.732  1.00  0.00    -0.352 N 
ATOM      5  C   UNL A   1      30.338  25.422  26.192  1.00  0.00     0.251 C 
ATOM      6  O   UNL A   1      29.392  24.825  26.704  1.00  0.00    -0.269 OA
ATOM      7  H   UNL A   1      30.169  26.887  27.513  1.00  0.00     0.163 HD
BRANCH   5   8
ATOM      8  C   UNL A   1      31.076  24.771  25.081  1.00  0.00     0.043 A 
ATOM      9  C   UNL A   1      32.441  23.056  24.118  1.00  0.00     0.075 A 
ATOM     10  C   UNL A   1      31.959  23.711  25.247  1.00  0.00     0.043 A 
ATOM     11  N   UNL A   1      32.174  23.480  22.860  1.00  0.00    -0.256 NA
ATOM     12  C   UNL A   1      31.422  24.592  22.727  1.00  0.00     0.112 A 
ATOM     13  C   UNL A   1      30.842  25.254  23.793  1.00  0.00     0.034 A 
BRANCH   9  14
ATOM     14  C   UNL A   1      33.154  21.783  24.251  1.00  0.00     0.046 A 
ATOM     15  C   UNL A   1      32.879  19.341  24.419  1.00  0.00     0.119 A 
ATOM     16  C   UNL A   1      34.217  19.227  24.771  1.00  0.00     0.050 A 
ATOM     17  C   UNL A   1      32.359  20.606  24.153  1.00  0.00     0.060 A 
ATOM     18  C   UNL A   1      35.025  20.362  24.837  1.00  0.00     0.051 A 
ATOM     19  C   UNL A   1      34.512  21.645  24.586  1.00  0.00     0.128 A 
BRANCH  15  20
ATOM     20  O   UNL A   1      32.167  18.175  24.447  1.00  0.00    -0.497 OA
ATOM     21  C   UNL A   1      32.481  17.267  25.496  1.00  0.00     0.278 C 
ENDBRANCH  15  20
BRANCH  19  22
ATOM     22  O   UNL A   1      35.452  22.616  24.800  1.00  0.00    -0.496 OA
ATOM     23  C   UNL A   1      35.624  23.146  26.105  1.00  0.00     0.278 C 
ENDBRANCH  19  22
ENDBRANCH   9  14
ENDBRANCH   5   8
ENDBRANCH   3   4
ENDBRANCH   2   3
ENDBRANCH   1   2
BRANCH   1  24
ATOM     24  C   UNL A   1      31.600  30.794  26.149  1.00  0.00     0.002 C 
BRANCH  24  25
ATOM     25  C   UNL A   1      31.424  32.241  26.618  1.00  0.00     0.021 C 
BRANCH  25  26
ATOM     26  C   UNL A   1      32.681  32.854  27.225  1.00  0.00     0.116 C 
BRANCH  26  27
ATOM     27  N   UNL A   1      32.461  34.236  27.626  1.00  0.00    -0.352 N 
ATOM     28  C   UNL A   1      33.022  34.940  28.660  1.00  0.00     0.251 C 
ATOM     29  H   UNL A   1      31.816  34.736  27.075  1.00  0.00     0.163 HD
ATOM     30  O   UNL A   1      32.547  36.016  29.007  1.00  0.00    -0.269 OA
BRANCH  28  31
ATOM     31  C   UNL A   1      34.199  34.392  29.365  1.00  0.00     0.039 A 
ATOM     32  C   UNL A   1      34.015  33.746  30.589  1.00  0.00     0.014 A 
ATOM     33  C   UNL A   1      35.481  34.532  28.825  1.00  0.00     0.014 A 
ATOM     34  C   UNL A   1      35.114  33.195  31.250  1.00  0.00     0.010 A 
ATOM     35  C   UNL A   1      36.563  33.920  29.448  1.00  0.00     0.010 A 
ATOM     36  C   UNL A   1      36.392  33.251  30.670  1.00  0.00    -0.014 A 
BRANCH  36  37
ATOM     37  C   UNL A   1      37.563  32.624  31.330  1.00  0.00     0.031 A 
ATOM     38  C   UNL A   1      38.294  31.496  30.657  1.00  0.00     0.074 A 
ATOM     39  C   UNL A   1      37.929  33.031  32.561  1.00  0.00     0.049 A 
ATOM     40  N   UNL A   1      39.291  30.772  31.101  1.00  0.00    -0.248 NA
ATOM     41  C   UNL A   1      37.826  31.112  29.316  1.00  0.00     0.031 C 
ATOM     42  C   UNL A   1      37.269  34.083  33.335  1.00  0.00     0.029 A 
ATOM     43  N   UNL A   1      38.939  32.598  33.384  1.00  0.00    -0.354 N 
ATOM     44  C   UNL A   1      39.560  29.847  30.102  1.00  0.00     0.074 A 
ATOM     45  C   UNL A   1      38.587  30.060  29.053  1.00  0.00     0.031 C 
ATOM     46  C   UNL A   1      37.900  34.227  34.511  1.00  0.00     0.029 A 
ATOM     47  C   UNL A   1      38.983  33.251  34.591  1.00  0.00     0.049 A 
ATOM     48  H   UNL A   1      39.572  31.886  33.133  1.00  0.00     0.167 HD
ATOM     49  C   UNL A   1      40.547  28.920  30.054  1.00  0.00     0.037 A 
ATOM     50  C   UNL A   1      39.799  33.074  35.649  1.00  0.00     0.037 A 
ATOM     51  C   UNL A   1      41.525  28.725  31.092  1.00  0.00     0.049 A 
ATOM     52  C   UNL A   1      40.879  32.028  35.573  1.00  0.00     0.074 A 
ATOM     53  C   UNL A   1      42.593  27.846  31.117  1.00  0.00     0.029 A 
ATOM     54  N   UNL A   1      41.550  29.421  32.291  1.00  0.00    -0.354 N 
ATOM     55  N   UNL A   1      41.165  31.203  34.594  1.00  0.00    -0.248 NA
ATOM     56  C   UNL A   1      41.754  31.893  36.745  1.00  0.00     0.031 C 
ATOM     57  C   UNL A   1      43.238  27.977  32.352  1.00  0.00     0.029 A 
ATOM     58  C   UNL A   1      42.605  28.976  33.072  1.00  0.00     0.049 A 
ATOM     59  H   UNL A   1      40.914  30.127  32.550  1.00  0.00     0.167 HD
ATOM     60  C   UNL A   1      42.269  30.475  35.019  1.00  0.00     0.074 A 
ATOM     61  C   UNL A   1      42.611  30.968  36.338  1.00  0.00     0.031 C 
ATOM     62  C   UNL A   1      42.938  29.488  34.377  1.00  0.00     0.037 A 
BRANCH  49  63
ATOM     63  C   UNL A   1      40.626  28.049  28.833  1.00  0.00     0.064 A 
ATOM     64  C   UNL A   1      39.898  26.852  28.735  1.00  0.00     0.173 A 
ATOM     65  C   UNL A   1      41.400  28.437  27.728  1.00  0.00     0.173 A 
ATOM     66  F   UNL A   1      39.152  26.431  29.767  1.00  0.00    -0.203 F 
ATOM     67  C   UNL A   1      39.962  26.066  27.589  1.00  0.00     0.198 A 
ATOM     68  C   UNL A   1      41.436  27.663  26.571  1.00  0.00     0.198 A 
ATOM     69  F   UNL A   1      42.111  29.574  27.765  1.00  0.00    -0.203 F 
ATOM     70  F   UNL A   1      39.294  24.905  27.536  1.00  0.00    -0.200 F 
ATOM     71  C   UNL A   1      40.723  26.475  26.504  1.00  0.00     0.200 A 
ATOM     72  F   UNL A   1      42.161  28.067  25.518  1.00  0.00    -0.200 F 
ATOM     73  F   UNL A   1      40.774  25.723  25.397  1.00  0.00    -0.200 F 
ENDBRANCH  49  63
BRANCH  50  74
ATOM     74  C   UNL A   1      39.636  33.914  36.865  1.00  0.00     0.064 A 
ATOM     75  C   UNL A   1      38.843  33.484  37.939  1.00  0.00     0.173 A 
ATOM     76  C   UNL A   1      40.253  35.168  36.974  1.00  0.00     0.173 A 
ATOM     77  F   UNL A   1      38.216  32.300  37.875  1.00  0.00    -0.203 F 
ATOM     78  C   UNL A   1      38.651  34.288  39.059  1.00  0.00     0.198 A 
ATOM     79  C   UNL A   1      40.086  35.958  38.109  1.00  0.00     0.198 A 
ATOM     80  F   UNL A   1      41.029  35.624  35.978  1.00  0.00    -0.203 F 
ATOM     81  F   UNL A   1      37.842  33.875  40.046  1.00  0.00    -0.200 F 
ATOM     82  C   UNL A   1      39.276  35.522  39.146  1.00  0.00     0.200 A 
ATOM     83  F   UNL A   1      40.706  37.143  38.196  1.00  0.00    -0.200 F 
ATOM     84  F   UNL A   1      39.091  36.295  40.225  1.00  0.00    -0.200 F 
ENDBRANCH  50  74
BRANCH  62  85
ATOM     85  C   UNL A   1      44.133  28.901  35.072  1.00  0.00     0.064 A 
ATOM     86  C   UNL A   1      44.026  27.775  35.902  1.00  0.00     0.173 A 
ATOM     87  C   UNL A   1      45.409  29.452  34.874  1.00  0.00     0.173 A 
ATOM     88  F   UNL A   1      42.827  27.221  36.136  1.00  0.00    -0.203 F 
ATOM     89  C   UNL A   1      45.148  27.239  36.527  1.00  0.00     0.198 A 
ATOM     90  C   UNL A   1      46.532  28.893  35.475  1.00  0.00     0.198 A 
ATOM     91  F   UNL A   1      45.567  30.525  34.084  1.00  0.00    -0.203 F 
ATOM     92  F   UNL A   1      45.015  26.194  37.355  1.00  0.00    -0.200 F 
ATOM     93  C   UNL A   1      46.400  27.793  36.308  1.00  0.00     0.200 A 
ATOM     94  F   UNL A   1      47.743  29.420  35.249  1.00  0.00    -0.200 F 
ATOM     95  F   UNL A   1      47.480  27.270  36.905  1.00  0.00    -0.200 F 
ENDBRANCH  62  85
ENDBRANCH  36  37
ENDBRANCH  28  31
ENDBRANCH  26  27
ENDBRANCH  25  26
ENDBRANCH  24  25
ENDBRANCH   1  24
TORSDOF 16
ENDMDL
MODEL 2
REMARK VINA RESULT:     -12.2      0.799      1.809
REMARK SMILES COc1ccc(OC)c(-c2cc(C(=O)NCCCCCCNC(=O)c3ccc(-c4c5nc(c(-c6c(F)c(F)c(F)c(F)c6F)c6ccc([nH]6)c(-c6c(F)c(F)c(F)c(F)c6F)c6nc(c(-c7c(F)c(F)c(F)c(F)c7F)c7ccc4[nH]7)C=C6)C=C5)cc3)ccn2)c1
REMARK SMILES IDX 18 1 17 2 16 3 15 4 13 5 14 6 12 8 10 9 11 10 90 11 89 12
REMARK SMILES IDX 88 13 9 14 3 15 4 16 91 17 5 18 6 19 2 20 1 21 7 22 8 23
REMARK SMILES IDX 19 24 20 25 21 26 22 27 23 28 24 30 25 31 26 32 87 33 27 34
REMARK SMILES IDX 86 35 28 36 29 37 30 38 80 39 31 40 85 41 79 42 81 43 32 44
REMARK SMILES IDX 84 45 78 46 77 47 33 49 65 50 45 51 64 52 46 53 49 54 63 55
REMARK SMILES IDX 82 56 47 57 48 58 62 60 83 61 50 62 34 63 35 64 43 65 36 66
REMARK SMILES IDX 37 67 41 68 44 69 38 70 39 71 42 72 40 73 66 74 67 75 75 76
REMARK SMILES IDX 68 77 69 78 73 79 76 80 70 81 71 82 74 83 72 84 51 85 52 86
REMARK SMILES IDX 60 87 53 88 54 89 58 90 61 91 55 92 56 93 59 94 57 95
REMARK H PARENT 15 7 22 29 81 48 49 59
REMARK Flexibility Score: inf
ROOT
ATOM      1  C   UNL A   1      31.774  29.722  26.936  1.00  0.00     0.002 C 
ENDROOT
BRANCH   1   2
ATOM      2  C   UNL A   1      32.609  28.592  26.317  1.00  0.00     0.021 C 
BRANCH   2   3
ATOM      3  C   UNL A   1      32.377  28.444  24.811  1.00  0.00     0.116 C 
BRANCH   3   4
ATOM      4  N   UNL A   1      31.103  27.789  24.575  1.00  0.00    -0.352 N 
ATOM      5  C   UNL A   1      30.739  26.689  23.843  1.00  0.00     0.251 C 
ATOM      6  O   UNL A   1      29.548  26.382  23.817  1.00  0.00    -0.269 OA
ATOM      7  H   UNL A   1      30.347  28.222  25.035  1.00  0.00     0.163 HD
BRANCH   5   8
ATOM      8  C   UNL A   1      31.719  25.811  23.158  1.00  0.00     0.043 A 
ATOM      9  C   UNL A   1      33.147  23.896  22.994  1.00  0.00     0.075 A 
ATOM     10  C   UNL A   1      32.405  24.774  23.778  1.00  0.00     0.043 A 
ATOM     11  N   UNL A   1      33.323  24.079  21.664  1.00  0.00    -0.256 NA
ATOM     12  C   UNL A   1      32.756  25.169  21.107  1.00  0.00     0.112 A 
ATOM     13  C   UNL A   1      31.941  26.044  21.800  1.00  0.00     0.034 A 
BRANCH   9  14
ATOM     14  C   UNL A   1      33.661  22.650  23.567  1.00  0.00     0.046 A 
ATOM     15  C   UNL A   1      33.025  20.449  24.471  1.00  0.00     0.119 A 
ATOM     16  C   UNL A   1      34.324  20.275  24.930  1.00  0.00     0.050 A 
ATOM     17  C   UNL A   1      32.703  21.620  23.788  1.00  0.00     0.060 A 
ATOM     18  C   UNL A   1      35.289  21.254  24.692  1.00  0.00     0.051 A 
ATOM     19  C   UNL A   1      34.976  22.446  24.018  1.00  0.00     0.128 A 
BRANCH  15  20
ATOM     20  O   UNL A   1      32.148  19.459  24.816  1.00  0.00    -0.497 OA
ATOM     21  C   UNL A   1      32.442  18.155  24.330  1.00  0.00     0.278 C 
ENDBRANCH  15  20
BRANCH  19  22
ATOM     22  O   UNL A   1      36.045  23.300  23.979  1.00  0.00    -0.496 OA
ATOM     23  C   UNL A   1      36.619  23.754  25.195  1.00  0.00     0.278 C 
ENDBRANCH  19  22
ENDBRANCH   9  14
ENDBRANCH   5   8
ENDBRANCH   3   4
ENDBRANCH   2   3
ENDBRANCH   1   2
BRANCH   1  24
ATOM     24  C   UNL A   1      31.530  30.916  26.005  1.00  0.00     0.002 C 
BRANCH  24  25
ATOM     25  C   UNL A   1      31.329  32.256  26.718  1.00  0.00     0.021 C 
BRANCH  25  26
ATOM     26  C   UNL A   1      32.614  32.866  27.267  1.00  0.00     0.116 C 
BRANCH  26  27
ATOM     27  N   UNL A   1      32.430  34.265  27.626  1.00  0.00    -0.352 N 
ATOM     28  C   UNL A   1      33.008  34.984  28.639  1.00  0.00     0.251 C 
ATOM     29  H   UNL A   1      31.800  34.766  27.058  1.00  0.00     0.163 HD
ATOM     30  O   UNL A   1      32.562  36.082  28.953  1.00  0.00    -0.269 OA
BRANCH  28  31
ATOM     31  C   UNL A   1      34.169  34.427  29.363  1.00  0.00     0.039 A 
ATOM     32  C   UNL A   1      33.954  33.739  30.559  1.00  0.00     0.014 A 
ATOM     33  C   UNL A   1      35.465  34.599  28.869  1.00  0.00     0.014 A 
ATOM     34  C   UNL A   1      35.039  33.179  31.236  1.00  0.00     0.010 A 
ATOM     35  C   UNL A   1      36.535  33.979  29.506  1.00  0.00     0.010 A 
ATOM     36  C   UNL A   1      36.334  33.269  30.699  1.00  0.00    -0.014 A 
BRANCH  36  37
ATOM     37  C   UNL A   1      37.491  32.633  31.376  1.00  0.00     0.031 A 
ATOM     38  C   UNL A   1      38.211  31.486  30.722  1.00  0.00     0.074 A 
ATOM     39  C   UNL A   1      37.855  33.050  32.604  1.00  0.00     0.049 A 
ATOM     40  N   UNL A   1      39.194  30.753  31.182  1.00  0.00    -0.248 NA
ATOM     41  C   UNL A   1      37.746  31.092  29.383  1.00  0.00     0.031 C 
ATOM     42  C   UNL A   1      37.204  34.121  33.360  1.00  0.00     0.029 A 
ATOM     43  N   UNL A   1      38.852  32.613  33.439  1.00  0.00    -0.354 N 
ATOM     44  C   UNL A   1      39.457  29.812  30.197  1.00  0.00     0.074 A 
ATOM     45  C   UNL A   1      38.494  30.026  29.138  1.00  0.00     0.031 C 
ATOM     46  C   UNL A   1      37.829  34.271  34.538  1.00  0.00     0.029 A 
ATOM     47  C   UNL A   1      38.897  33.281  34.639  1.00  0.00     0.049 A 
ATOM     48  H   UNL A   1      39.476  31.889  33.202  1.00  0.00     0.167 HD
ATOM     49  C   UNL A   1      40.430  28.871  30.167  1.00  0.00     0.037 A 
ATOM     50  C   UNL A   1      39.703  33.105  35.704  1.00  0.00     0.037 A 
ATOM     51  C   UNL A   1      41.398  28.675  31.214  1.00  0.00     0.049 A 
ATOM     52  C   UNL A   1      40.768  32.043  35.649  1.00  0.00     0.074 A 
ATOM     53  C   UNL A   1      42.453  27.782  31.258  1.00  0.00     0.029 A 
ATOM     54  N   UNL A   1      41.425  29.386  32.405  1.00  0.00    -0.354 N 
ATOM     55  N   UNL A   1      41.050  31.202  34.683  1.00  0.00    -0.248 NA
ATOM     56  C   UNL A   1      41.633  31.911  36.829  1.00  0.00     0.031 C 
ATOM     57  C   UNL A   1      43.091  27.918  32.496  1.00  0.00     0.029 A 
ATOM     58  C   UNL A   1      42.468  28.936  33.199  1.00  0.00     0.049 A 
ATOM     59  H   UNL A   1      40.798  30.103  32.650  1.00  0.00     0.167 HD
ATOM     60  C   UNL A   1      42.140  30.464  35.125  1.00  0.00     0.074 A 
ATOM     61  C   UNL A   1      42.480  30.969  36.439  1.00  0.00     0.031 C 
ATOM     62  C   UNL A   1      42.800  29.459  34.500  1.00  0.00     0.037 A 
BRANCH  49  63
ATOM     63  C   UNL A   1      40.505  27.984  28.958  1.00  0.00     0.064 A 
ATOM     64  C   UNL A   1      39.771  26.789  28.876  1.00  0.00     0.173 A 
ATOM     65  C   UNL A   1      41.281  28.353  27.847  1.00  0.00     0.173 A 
ATOM     66  F   UNL A   1      39.023  26.385  29.912  1.00  0.00    -0.203 F 
ATOM     67  C   UNL A   1      39.832  25.987  27.740  1.00  0.00     0.198 A 
ATOM     68  C   UNL A   1      41.313  27.564  26.701  1.00  0.00     0.198 A 
ATOM     69  F   UNL A   1      41.997  29.487  27.870  1.00  0.00    -0.203 F 
ATOM     70  F   UNL A   1      39.158  24.829  27.702  1.00  0.00    -0.200 F 
ATOM     71  C   UNL A   1      40.595  26.379  26.650  1.00  0.00     0.200 A 
ATOM     72  F   UNL A   1      42.040  27.951  25.643  1.00  0.00    -0.200 F 
ATOM     73  F   UNL A   1      40.642  25.611  25.552  1.00  0.00    -0.200 F 
ENDBRANCH  49  63
BRANCH  50  74
ATOM     74  C   UNL A   1      39.544  33.963  36.908  1.00  0.00     0.064 A 
ATOM     75  C   UNL A   1      40.169  35.216  36.990  1.00  0.00     0.173 A 
ATOM     76  C   UNL A   1      38.782  33.544  38.008  1.00  0.00     0.173 A 
ATOM     77  F   UNL A   1      40.926  35.653  35.972  1.00  0.00    -0.203 F 
ATOM     78  C   UNL A   1      40.062  36.001  38.135  1.00  0.00     0.198 A 
ATOM     79  C   UNL A   1      38.648  34.345  39.140  1.00  0.00     0.198 A 
ATOM     80  F   UNL A   1      38.157  32.357  37.979  1.00  0.00    -0.203 F 
ATOM     81  F   UNL A   1      40.716  37.169  38.206  1.00  0.00    -0.200 F 
ATOM     82  C   UNL A   1      39.298  35.568  39.207  1.00  0.00     0.200 A 
ATOM     83  F   UNL A   1      37.895  33.929  40.167  1.00  0.00    -0.200 F 
ATOM     84  F   UNL A   1      39.194  36.324  40.308  1.00  0.00    -0.200 F 
ENDBRANCH  50  74
BRANCH  62  85
ATOM     85  C   UNL A   1      43.981  28.864  35.211  1.00  0.00     0.064 A 
ATOM     86  C   UNL A   1      45.279  29.369  35.037  1.00  0.00     0.173 A 
ATOM     87  C   UNL A   1      43.805  27.799  36.107  1.00  0.00     0.173 A 
ATOM     88  F   UNL A   1      45.502  30.376  34.180  1.00  0.00    -0.203 F 
ATOM     89  C   UNL A   1      46.359  28.811  35.715  1.00  0.00     0.198 A 
ATOM     90  C   UNL A   1      44.883  27.266  36.807  1.00  0.00     0.198 A 
ATOM     91  F   UNL A   1      42.584  27.285  36.315  1.00  0.00    -0.203 F 
ATOM     92  F   UNL A   1      47.596  29.277  35.495  1.00  0.00    -0.200 F 
ATOM     93  C   UNL A   1      46.160  27.767  36.604  1.00  0.00     0.200 A 
ATOM     94  F   UNL A   1      44.687  26.267  37.678  1.00  0.00    -0.200 F 
ATOM     95  F   UNL A   1      47.201  27.237  37.262  1.00  0.00    -0.200 F 
ENDBRANCH  62  85
ENDBRANCH  36  37
ENDBRANCH  28  31
ENDBRANCH  26  27
ENDBRANCH  25  26
ENDBRANCH  24  25
ENDBRANCH   1  24
TORSDOF 16
ENDMDL
MODEL 3
REMARK VINA RESULT:     -12.2      0.541      7.255
REMARK SMILES COc1ccc(OC)c(-c2cc(C(=O)NCCCCCCNC(=O)c3ccc(-c4c5nc(c(-c6c(F)c(F)c(F)c(F)c6F)c6ccc([nH]6)c(-c6c(F)c(F)c(F)c(F)c6F)c6nc(c(-c7c(F)c(F)c(F)c(F)c7F)c7ccc4[nH]7)C=C6)C=C5)cc3)ccn2)c1
REMARK SMILES IDX 18 1 17 2 16 3 15 4 13 5 14 6 12 8 10 9 11 10 90 11 89 12
REMARK SMILES IDX 88 13 9 14 3 15 4 16 91 17 5 18 6 19 2 20 1 21 7 22 8 23
REMARK SMILES IDX 19 24 20 25 21 26 22 27 23 28 24 30 25 31 26 32 87 33 27 34
REMARK SMILES IDX 86 35 28 36 29 37 30 38 80 39 31 40 85 41 79 42 81 43 32 44
REMARK SMILES IDX 84 45 78 46 77 47 33 49 65 50 45 51 64 52 46 53 49 54 63 55
REMARK SMILES IDX 82 56 47 57 48 58 62 60 83 61 50 62 34 63 35 64 43 65 36 66
REMARK SMILES IDX 37 67 41 68 44 69 38 70 39 71 42 72 40 73 66 74 67 75 75 76
REMARK SMILES IDX 68 77 69 78 73 79 76 80 70 81 71 82 74 83 72 84 51 85 52 86
REMARK SMILES IDX 60 87 53 88 54 89 58 90 61 91 55 92 56 93 59 94 57 95
REMARK H PARENT 15 7 22 29 81 48 49 59
REMARK Flexibility Score: inf
ROOT
ATOM      1  C   UNL A   1      32.449  30.169  26.577  1.00  0.00     0.002 C 
ENDROOT
BRANCH   1   2
ATOM      2  C   UNL A   1      31.966  28.957  27.386  1.00  0.00     0.021 C 
BRANCH   2   3
ATOM      3  C   UNL A   1      32.182  27.632  26.651  1.00  0.00     0.116 C 
BRANCH   3   4
ATOM      4  N   UNL A   1      31.010  26.790  26.807  1.00  0.00    -0.352 N 
ATOM      5  C   UNL A   1      30.564  25.676  26.144  1.00  0.00     0.251 C 
ATOM      6  O   UNL A   1      29.496  25.181  26.501  1.00  0.00    -0.269 OA
ATOM      7  H   UNL A   1      30.415  27.075  27.538  1.00  0.00     0.163 HD
BRANCH   5   8
ATOM      8  C   UNL A   1      31.347  24.998  25.082  1.00  0.00     0.043 A 
ATOM      9  C   UNL A   1      32.666  23.210  24.190  1.00  0.00     0.075 A 
ATOM     10  C   UNL A   1      32.136  23.874  25.292  1.00  0.00     0.043 A 
ATOM     11  N   UNL A   1      32.538  23.679  22.927  1.00  0.00    -0.256 NA
ATOM     12  C   UNL A   1      31.879  24.844  22.762  1.00  0.00     0.112 A 
ATOM     13  C   UNL A   1      31.258  25.523  23.792  1.00  0.00     0.034 A 
BRANCH   9  14
ATOM     14  C   UNL A   1      33.274  21.886  24.349  1.00  0.00     0.046 A 
ATOM     15  C   UNL A   1      32.807  19.503  24.757  1.00  0.00     0.119 A 
ATOM     16  C   UNL A   1      34.163  19.284  24.959  1.00  0.00     0.050 A 
ATOM     17  C   UNL A   1      32.372  20.790  24.446  1.00  0.00     0.060 A 
ATOM     18  C   UNL A   1      35.070  20.336  24.832  1.00  0.00     0.051 A 
ATOM     19  C   UNL A   1      34.646  21.641  24.533  1.00  0.00     0.128 A 
BRANCH  15  20
ATOM     20  O   UNL A   1      32.004  18.418  24.969  1.00  0.00    -0.497 OA
ATOM     21  C   UNL A   1      32.652  17.154  25.037  1.00  0.00     0.278 C 
ENDBRANCH  15  20
BRANCH  19  22
ATOM     22  O   UNL A   1      35.688  22.528  24.551  1.00  0.00    -0.496 OA
ATOM     23  C   UNL A   1      36.293  22.916  23.327  1.00  0.00     0.278 C 
ENDBRANCH  19  22
ENDBRANCH   9  14
ENDBRANCH   5   8
ENDBRANCH   3   4
ENDBRANCH   2   3
ENDBRANCH   1   2
BRANCH   1  24
ATOM     24  C   UNL A   1      31.324  31.012  25.963  1.00  0.00     0.002 C 
BRANCH  24  25
ATOM     25  C   UNL A   1      31.252  32.455  26.470  1.00  0.00     0.021 C 
BRANCH  25  26
ATOM     26  C   UNL A   1      32.488  32.904  27.242  1.00  0.00     0.116 C 
BRANCH  26  27
ATOM     27  N   UNL A   1      32.376  34.291  27.669  1.00  0.00    -0.352 N 
ATOM     28  C   UNL A   1      33.013  34.936  28.697  1.00  0.00     0.251 C 
ATOM     29  H   UNL A   1      31.753  34.844  27.144  1.00  0.00     0.163 HD
ATOM     30  O   UNL A   1      32.625  36.037  29.074  1.00  0.00    -0.269 OA
BRANCH  28  31
ATOM     31  C   UNL A   1      34.168  34.297  29.359  1.00  0.00     0.039 A 
ATOM     32  C   UNL A   1      33.943  33.458  30.452  1.00  0.00     0.014 A 
ATOM     33  C   UNL A   1      35.470  34.539  28.911  1.00  0.00     0.014 A 
ATOM     34  C   UNL A   1      35.022  32.821  31.068  1.00  0.00     0.010 A 
ATOM     35  C   UNL A   1      36.535  33.847  29.478  1.00  0.00     0.010 A 
ATOM     36  C   UNL A   1      36.324  32.987  30.566  1.00  0.00    -0.014 A 
BRANCH  36  37
ATOM     37  C   UNL A   1      37.476  32.276  31.172  1.00  0.00     0.031 A 
ATOM     38  C   UNL A   1      37.982  32.677  32.529  1.00  0.00     0.074 A 
ATOM     39  C   UNL A   1      38.103  31.311  30.472  1.00  0.00     0.049 A 
ATOM     40  N   UNL A   1      39.017  32.229  33.195  1.00  0.00    -0.248 NA
ATOM     41  C   UNL A   1      37.242  33.744  33.222  1.00  0.00     0.031 C 
ATOM     42  C   UNL A   1      37.735  30.866  29.127  1.00  0.00     0.029 A 
ATOM     43  N   UNL A   1      39.192  30.539  30.790  1.00  0.00    -0.354 N 
ATOM     44  C   UNL A   1      39.055  32.962  34.373  1.00  0.00     0.074 A 
ATOM     45  C   UNL A   1      37.976  33.924  34.309  1.00  0.00     0.031 C 
ATOM     46  C   UNL A   1      38.570  29.888  28.743  1.00  0.00     0.029 A 
ATOM     47  C   UNL A   1      39.557  29.665  29.795  1.00  0.00     0.049 A 
ATOM     48  H   UNL A   1      39.667  30.604  31.650  1.00  0.00     0.167 HD
ATOM     49  C   UNL A   1      39.898  32.827  35.424  1.00  0.00     0.037 A 
ATOM     50  C   UNL A   1      40.580  28.791  29.735  1.00  0.00     0.037 A 
ATOM     51  C   UNL A   1      40.958  31.855  35.491  1.00  0.00     0.049 A 
ATOM     52  C   UNL A   1      41.510  28.670  30.912  1.00  0.00     0.074 A 
ATOM     53  C   UNL A   1      41.836  31.605  36.530  1.00  0.00     0.029 A 
ATOM     54  N   UNL A   1      41.283  30.972  34.471  1.00  0.00    -0.354 N 
ATOM     55  N   UNL A   1      41.495  29.322  32.049  1.00  0.00    -0.248 NA
ATOM     56  C   UNL A   1      42.594  27.684  30.801  1.00  0.00     0.031 C 
ATOM     57  C   UNL A   1      42.723  30.603  36.122  1.00  0.00     0.029 A 
ATOM     58  C   UNL A   1      42.362  30.190  34.850  1.00  0.00     0.049 A 
ATOM     59  H   UNL A   1      40.817  30.909  33.606  1.00  0.00     0.167 HD
ATOM     60  C   UNL A   1      42.545  28.808  32.799  1.00  0.00     0.074 A 
ATOM     61  C   UNL A   1      43.164  27.775  31.994  1.00  0.00     0.031 C 
ATOM     62  C   UNL A   1      42.958  29.158  34.041  1.00  0.00     0.037 A 
BRANCH  49  63
ATOM     63  C   UNL A   1      39.705  33.746  36.595  1.00  0.00     0.064 A 
ATOM     64  C   UNL A   1      38.886  33.393  37.680  1.00  0.00     0.173 A 
ATOM     65  C   UNL A   1      40.383  34.974  36.658  1.00  0.00     0.173 A 
ATOM     66  F   UNL A   1      38.209  32.236  37.664  1.00  0.00    -0.203 F 
ATOM     67  C   UNL A   1      38.734  34.245  38.770  1.00  0.00     0.198 A 
ATOM     68  C   UNL A   1      40.252  35.809  37.765  1.00  0.00     0.198 A 
ATOM     69  F   UNL A   1      41.182  35.359  35.652  1.00  0.00    -0.203 F 
ATOM     70  F   UNL A   1      37.912  33.907  39.773  1.00  0.00    -0.200 F 
ATOM     71  C   UNL A   1      39.423  35.448  38.817  1.00  0.00     0.200 A 
ATOM     72  F   UNL A   1      40.930  36.964  37.815  1.00  0.00    -0.200 F 
ATOM     73  F   UNL A   1      39.285  36.261  39.873  1.00  0.00    -0.200 F 
ENDBRANCH  49  63
BRANCH  50  74
ATOM     74  C   UNL A   1      40.772  27.950  28.523  1.00  0.00     0.064 A 
ATOM     75  C   UNL A   1      41.562  28.396  27.454  1.00  0.00     0.173 A 
ATOM     76  C   UNL A   1      40.158  26.696  28.399  1.00  0.00     0.173 A 
ATOM     77  F   UNL A   1      42.155  29.598  27.515  1.00  0.00    -0.203 F 
ATOM     78  C   UNL A   1      41.707  27.633  26.298  1.00  0.00     0.198 A 
ATOM     79  C   UNL A   1      40.330  25.919  27.256  1.00  0.00     0.198 A 
ATOM     80  F   UNL A   1      39.398  26.219  29.396  1.00  0.00    -0.203 F 
ATOM     81  F   UNL A   1      42.423  28.109  25.269  1.00  0.00    -0.200 F 
ATOM     82  C   UNL A   1      41.094  26.393  26.201  1.00  0.00     0.200 A 
ATOM     83  F   UNL A   1      39.750  24.714  27.174  1.00  0.00    -0.200 F 
ATOM     84  F   UNL A   1      41.235  25.658  25.090  1.00  0.00    -0.200 F 
ENDBRANCH  50  74
BRANCH  62  85
ATOM     85  C   UNL A   1      44.111  28.392  34.624  1.00  0.00     0.064 A 
ATOM     86  C   UNL A   1      43.920  27.201  35.339  1.00  0.00     0.173 A 
ATOM     87  C   UNL A   1      45.427  28.838  34.429  1.00  0.00     0.173 A 
ATOM     88  F   UNL A   1      42.681  26.740  35.565  1.00  0.00    -0.203 F 
ATOM     89  C   UNL A   1      45.003  26.500  35.861  1.00  0.00     0.198 A 
ATOM     90  C   UNL A   1      46.509  28.116  34.925  1.00  0.00     0.198 A 
ATOM     91  F   UNL A   1      45.665  29.967  33.746  1.00  0.00    -0.203 F 
ATOM     92  F   UNL A   1      44.794  25.391  36.585  1.00  0.00    -0.200 F 
ATOM     93  C   UNL A   1      46.296  26.953  35.648  1.00  0.00     0.200 A 
ATOM     94  F   UNL A   1      47.758  28.548  34.704  1.00  0.00    -0.200 F 
ATOM     95  F   UNL A   1      47.338  26.272  36.145  1.00  0.00    -0.200 F 
ENDBRANCH  62  85
ENDBRANCH  36  37
ENDBRANCH  28  31
ENDBRANCH  26  27
ENDBRANCH  25  26
ENDBRANCH  24  25
ENDBRANCH   1  24
TORSDOF 16
ENDMDL
