MODEL 1
REMARK VINA RESULT:     -12.9      0.000      0.000
REMARK SMILES O=C(NCCCCCCNC(=O)C1CCN(C2=[NH+]C(Cl)=[NH+]C3=[NH+]C=N[C@@H]32)CC1)c1ccc(-c2c3nc(c(-c4c(F)c(F)c(F)c(F)c4F)c4ccc([nH]4)c(-c4c(F)c(F)c(F)c(F)c4F)c4nc(c(-c5c(F)c(F)c(F)c(F)c5F)c5ccc2[nH]5)C=C4)C=C3)cc1
REMARK SMILES IDX 5 1 4 2 3 3 1 4 2 5 29 7 30 8 91 9 31 10 90 11 32 12 33 13
REMARK SMILES IDX 34 14 84 15 35 16 89 17 83 18 85 19 36 20 88 21 82 22 81 23
REMARK SMILES IDX 37 25 69 26 49 27 68 28 50 29 53 30 67 31 86 32 51 33 52 34
REMARK SMILES IDX 66 36 87 37 54 38 38 39 39 40 47 41 40 42 41 43 45 44 48 45
REMARK SMILES IDX 42 46 43 47 46 48 44 49 70 50 71 51 79 52 72 53 73 54 77 55
REMARK SMILES IDX 80 56 74 57 75 58 78 59 76 60 55 61 56 62 64 63 57 64 58 65
REMARK SMILES IDX 62 66 65 67 59 68 60 69 63 70 61 71 6 72 7 73 8 74 9 75
REMARK SMILES IDX 10 76 11 77 12 79 13 80 14 81 28 82 15 83 27 84 16 85 17 86
REMARK SMILES IDX 18 87 26 88 19 89 22 91 25 92 20 93 21 94 23 95 24 96
REMARK H PARENT 3 6 85 24 53 35 10 78 18 90 21 97 23 98
REMARK Flexibility Score: inf
ROOT
ATOM      1  C   UNL A   1      39.689  21.987  26.086  1.00  0.00     0.021 C 
ENDROOT
BRANCH   1   2
ATOM      2  C   UNL A   1      41.119  21.505  26.319  1.00  0.00     0.116 C 
BRANCH   2   3
ATOM      3  N   UNL A   1      42.098  22.112  25.438  1.00  0.00    -0.352 N 
ATOM      4  O   UNL A   1      43.423  23.526  24.372  1.00  0.00    -0.269 OA
ATOM      5  C   UNL A   1      42.605  23.372  25.285  1.00  0.00     0.251 C 
ATOM      6  H   UNL A   1      42.486  21.467  24.803  1.00  0.00     0.163 HD
BRANCH   5   7
ATOM      7  C   UNL A   1      42.240  24.554  26.114  1.00  0.00     0.039 A 
ATOM      8  C   UNL A   1      42.587  24.734  27.453  1.00  0.00     0.014 A 
ATOM      9  C   UNL A   1      41.566  25.600  25.456  1.00  0.00     0.014 A 
ATOM     10  C   UNL A   1      42.258  25.917  28.118  1.00  0.00     0.010 A 
ATOM     11  C   UNL A   1      41.259  26.796  26.110  1.00  0.00     0.010 A 
ATOM     12  C   UNL A   1      41.608  26.961  27.449  1.00  0.00    -0.014 A 
BRANCH  12  13
ATOM     13  C   UNL A   1      41.473  28.241  28.158  1.00  0.00     0.031 A 
ATOM     14  C   UNL A   1      42.572  29.238  27.963  1.00  0.00     0.074 A 
ATOM     15  C   UNL A   1      40.381  28.669  28.823  1.00  0.00     0.049 A 
ATOM     16  N   UNL A   1      43.280  29.847  28.864  1.00  0.00    -0.248 NA
ATOM     17  C   UNL A   1      42.908  29.617  26.582  1.00  0.00     0.031 C 
ATOM     18  C   UNL A   1      39.051  28.066  28.860  1.00  0.00     0.029 A 
ATOM     19  N   UNL A   1      40.229  29.825  29.545  1.00  0.00    -0.354 N 
ATOM     20  C   UNL A   1      44.056  30.784  28.183  1.00  0.00     0.074 A 
ATOM     21  C   UNL A   1      43.829  30.561  26.777  1.00  0.00     0.031 C 
ATOM     22  C   UNL A   1      38.183  28.949  29.401  1.00  0.00     0.029 A 
ATOM     23  C   UNL A   1      38.916  30.121  29.861  1.00  0.00     0.049 A 
ATOM     24  H   UNL A   1      40.986  30.394  29.813  1.00  0.00     0.167 HD
ATOM     25  C   UNL A   1      44.728  31.783  28.819  1.00  0.00     0.037 A 
ATOM     26  C   UNL A   1      38.443  31.261  30.418  1.00  0.00     0.037 A 
ATOM     27  C   UNL A   1      44.908  31.521  30.220  1.00  0.00     0.049 A 
ATOM     28  C   UNL A   1      39.561  31.979  31.072  1.00  0.00     0.074 A 
ATOM     29  C   UNL A   1      45.522  30.533  30.963  1.00  0.00     0.029 A 
ATOM     30  N   UNL A   1      44.206  32.274  31.122  1.00  0.00    -0.354 N 
ATOM     31  N   UNL A   1      40.129  31.624  32.190  1.00  0.00    -0.248 NA
ATOM     32  C   UNL A   1      40.236  33.043  30.341  1.00  0.00     0.031 C 
ATOM     33  C   UNL A   1      44.801  30.476  32.192  1.00  0.00     0.029 A 
ATOM     34  C   UNL A   1      43.781  31.421  32.107  1.00  0.00     0.049 A 
ATOM     35  H   UNL A   1      44.038  33.243  31.075  1.00  0.00     0.167 HD
ATOM     36  C   UNL A   1      41.415  32.123  32.102  1.00  0.00     0.074 A 
ATOM     37  C   UNL A   1      41.367  33.116  31.042  1.00  0.00     0.031 C 
ATOM     38  C   UNL A   1      42.460  31.470  32.687  1.00  0.00     0.037 A 
BRANCH  25  39
ATOM     39  C   UNL A   1      45.015  33.141  28.227  1.00  0.00     0.064 A 
ATOM     40  C   UNL A   1      46.349  33.561  28.047  1.00  0.00     0.173 A 
ATOM     41  C   UNL A   1      44.035  34.147  28.104  1.00  0.00     0.173 A 
ATOM     42  F   UNL A   1      47.363  32.695  28.183  1.00  0.00    -0.203 F 
ATOM     43  C   UNL A   1      46.678  34.900  27.814  1.00  0.00     0.198 A 
ATOM     44  C   UNL A   1      44.364  35.473  27.818  1.00  0.00     0.198 A 
ATOM     45  F   UNL A   1      42.742  33.902  28.358  1.00  0.00    -0.203 F 
ATOM     46  F   UNL A   1      47.966  35.270  27.766  1.00  0.00    -0.200 F 
ATOM     47  C   UNL A   1      45.685  35.855  27.700  1.00  0.00     0.200 A 
ATOM     48  F   UNL A   1      43.391  36.393  27.733  1.00  0.00    -0.200 F 
ATOM     49  F   UNL A   1      46.001  37.145  27.527  1.00  0.00    -0.200 F 
ENDBRANCH  25  39
BRANCH  26  50
ATOM     50  C   UNL A   1      37.094  31.860  30.324  1.00  0.00     0.064 A 
ATOM     51  C   UNL A   1      36.200  31.818  31.407  1.00  0.00     0.173 A 
ATOM     52  C   UNL A   1      36.738  32.699  29.251  1.00  0.00     0.173 A 
ATOM     53  F   UNL A   1      36.486  31.086  32.493  1.00  0.00    -0.203 F 
ATOM     54  C   UNL A   1      35.026  32.575  31.418  1.00  0.00     0.198 A 
ATOM     55  C   UNL A   1      35.559  33.441  29.255  1.00  0.00     0.198 A 
ATOM     56  F   UNL A   1      37.572  32.878  28.215  1.00  0.00    -0.203 F 
ATOM     57  F   UNL A   1      34.227  32.551  32.494  1.00  0.00    -0.200 F 
ATOM     58  C   UNL A   1      34.707  33.388  30.344  1.00  0.00     0.200 A 
ATOM     59  F   UNL A   1      35.278  34.250  28.224  1.00  0.00    -0.200 F 
ATOM     60  F   UNL A   1      33.604  34.148  30.374  1.00  0.00    -0.200 F 
ENDBRANCH  26  50
BRANCH  38  61
ATOM     61  C   UNL A   1      42.153  30.494  33.780  1.00  0.00     0.064 A 
ATOM     62  C   UNL A   1      41.732  29.173  33.553  1.00  0.00     0.173 A 
ATOM     63  C   UNL A   1      42.405  30.879  35.105  1.00  0.00     0.173 A 
ATOM     64  F   UNL A   1      41.583  28.701  32.308  1.00  0.00    -0.203 F 
ATOM     65  C   UNL A   1      41.511  28.300  34.615  1.00  0.00     0.198 A 
ATOM     66  C   UNL A   1      42.220  29.991  36.161  1.00  0.00     0.198 A 
ATOM     67  F   UNL A   1      42.871  32.110  35.372  1.00  0.00    -0.203 F 
ATOM     68  F   UNL A   1      41.086  27.050  34.379  1.00  0.00    -0.200 F 
ATOM     69  C   UNL A   1      41.759  28.707  35.917  1.00  0.00     0.200 A 
ATOM     70  F   UNL A   1      42.512  30.372  37.412  1.00  0.00    -0.200 F 
ATOM     71  F   UNL A   1      41.580  27.854  36.934  1.00  0.00    -0.200 F 
ENDBRANCH  38  61
ENDBRANCH  12  13
ENDBRANCH   5   7
ENDBRANCH   2   3
ENDBRANCH   1   2
BRANCH   1  72
ATOM     72  C   UNL A   1      39.270  23.197  26.931  1.00  0.00     0.002 C 
BRANCH  72  73
ATOM     73  C   UNL A   1      38.184  24.099  26.330  1.00  0.00     0.002 C 
BRANCH  73  74
ATOM     74  C   UNL A   1      37.131  23.386  25.477  1.00  0.00     0.021 C 
BRANCH  74  75
ATOM     75  C   UNL A   1      35.845  23.035  26.225  1.00  0.00     0.116 C 
BRANCH  75  76
ATOM     76  N   UNL A   1      35.225  21.833  25.718  1.00  0.00    -0.356 N 
ATOM     77  C   UNL A   1      34.174  21.607  24.898  1.00  0.00     0.223 C 
ATOM     78  H   UNL A   1      35.657  21.008  26.036  1.00  0.00     0.163 HD
ATOM     79  O   UNL A   1      33.959  20.419  24.624  1.00  0.00    -0.275 OA
BRANCH  77  80
ATOM     80  C   UNL A   1      33.253  22.679  24.309  1.00  0.00     0.087 C 
ATOM     81  C   UNL A   1      33.833  23.562  23.214  1.00  0.00     0.068 C 
ATOM     82  C   UNL A   1      32.397  23.439  25.310  1.00  0.00     0.068 C 
ATOM     83  C   UNL A   1      34.310  24.943  23.633  1.00  0.00     0.277 C 
ATOM     84  C   UNL A   1      32.975  24.760  25.775  1.00  0.00     0.277 C 
ATOM     85  N   UNL A   1      33.503  25.571  24.680  1.00  0.00    -0.230 N 
ATOM     86  C   UNL A   1      33.635  26.941  24.895  1.00  0.00     0.383 C 
ATOM     87  N   UNL A   1      33.922  27.416  26.079  1.00  0.00    -0.155 N 
ATOM     88  C   UNL A   1      33.458  27.908  23.740  1.00  0.00     0.523 C 
ATOM     89  C   UNL A   1      34.049  28.773  26.233  1.00  0.00     0.414 C 
ATOM     90  H   UNL A   1      34.044  26.811  26.845  1.00  0.00     0.367 HD
ATOM     91  C   UNL A   1      32.960  29.149  24.368  1.00  0.00     0.389 C 
ATOM     92  N   UNL A   1      32.334  27.561  22.845  1.00  0.00     0.003 NA
ATOM     93  Cl  UNL A   1      34.908  29.281  27.622  1.00  0.00     0.028 Cl
ATOM     94  N   UNL A   1      33.586  29.682  25.426  1.00  0.00    -0.155 N 
ATOM     95  N   UNL A   1      31.831  29.556  23.874  1.00  0.00    -0.169 N 
ATOM     96  C   UNL A   1      31.514  28.564  22.983  1.00  0.00     0.532 C 
ATOM     97  H   UNL A   1      33.685  30.650  25.575  1.00  0.00     0.367 HD
ATOM     98  H   UNL A   1      31.327  30.375  24.086  1.00  0.00     0.365 HD
ENDBRANCH  77  80
ENDBRANCH  75  76
ENDBRANCH  74  75
ENDBRANCH  73  74
ENDBRANCH  72  73
ENDBRANCH   1  72
TORSDOF 13
ENDMDL
MODEL 2
REMARK VINA RESULT:     -12.9      0.345      1.164
REMARK SMILES O=C(NCCCCCCNC(=O)C1CCN(C2=[NH+]C(Cl)=[NH+]C3=[NH+]C=N[C@@H]32)CC1)c1ccc(-c2c3nc(c(-c4c(F)c(F)c(F)c(F)c4F)c4ccc([nH]4)c(-c4c(F)c(F)c(F)c(F)c4F)c4nc(c(-c5c(F)c(F)c(F)c(F)c5F)c5ccc2[nH]5)C=C4)C=C3)cc1
REMARK SMILES IDX 5 1 4 2 3 3 1 4 2 5 29 7 30 8 91 9 31 10 90 11 32 12 33 13
REMARK SMILES IDX 34 14 84 15 35 16 89 17 83 18 85 19 36 20 88 21 82 22 81 23
REMARK SMILES IDX 37 25 69 26 49 27 68 28 50 29 53 30 67 31 86 32 51 33 52 34
REMARK SMILES IDX 66 36 87 37 54 38 38 39 39 40 47 41 40 42 41 43 45 44 48 45
REMARK SMILES IDX 42 46 43 47 46 48 44 49 70 50 71 51 79 52 72 53 73 54 77 55
REMARK SMILES IDX 80 56 74 57 75 58 78 59 76 60 55 61 56 62 64 63 57 64 58 65
REMARK SMILES IDX 62 66 65 67 59 68 60 69 63 70 61 71 6 72 7 73 8 74 9 75
REMARK SMILES IDX 10 76 11 77 12 79 13 80 14 81 28 82 15 83 27 84 16 85 17 86
REMARK SMILES IDX 18 87 26 88 19 89 22 91 25 92 20 93 21 94 23 95 24 96
REMARK H PARENT 3 6 85 24 53 35 10 78 18 90 21 97 23 98
REMARK Flexibility Score: inf
ROOT
ATOM      1  C   UNL A   1      40.016  21.905  26.125  1.00  0.00     0.021 C 
ENDROOT
BRANCH   1   2
ATOM      2  C   UNL A   1      41.472  21.478  26.300  1.00  0.00     0.116 C 
BRANCH   2   3
ATOM      3  N   UNL A   1      42.392  22.131  25.390  1.00  0.00    -0.352 N 
ATOM      4  O   UNL A   1      43.620  23.607  24.291  1.00  0.00    -0.269 OA
ATOM      5  C   UNL A   1      42.843  23.412  25.232  1.00  0.00     0.251 C 
ATOM      6  H   UNL A   1      42.782  21.508  24.735  1.00  0.00     0.163 HD
BRANCH   5   7
ATOM      7  C   UNL A   1      42.461  24.571  26.086  1.00  0.00     0.039 A 
ATOM      8  C   UNL A   1      42.866  24.762  27.407  1.00  0.00     0.014 A 
ATOM      9  C   UNL A   1      41.704  25.585  25.469  1.00  0.00     0.014 A 
ATOM     10  C   UNL A   1      42.512  25.924  28.096  1.00  0.00     0.010 A 
ATOM     11  C   UNL A   1      41.373  26.762  26.146  1.00  0.00     0.010 A 
ATOM     12  C   UNL A   1      41.779  26.938  27.467  1.00  0.00    -0.014 A 
BRANCH  12  13
ATOM     13  C   UNL A   1      41.617  28.206  28.190  1.00  0.00     0.031 A 
ATOM     14  C   UNL A   1      42.705  29.221  28.024  1.00  0.00     0.074 A 
ATOM     15  C   UNL A   1      40.510  28.611  28.845  1.00  0.00     0.049 A 
ATOM     16  N   UNL A   1      43.391  29.826  28.944  1.00  0.00    -0.248 NA
ATOM     17  C   UNL A   1      43.056  29.622  26.653  1.00  0.00     0.031 C 
ATOM     18  C   UNL A   1      39.187  27.990  28.854  1.00  0.00     0.029 A 
ATOM     19  N   UNL A   1      40.331  29.755  29.580  1.00  0.00    -0.354 N 
ATOM     20  C   UNL A   1      44.164  30.783  28.286  1.00  0.00     0.074 A 
ATOM     21  C   UNL A   1      43.961  30.576  26.874  1.00  0.00     0.031 C 
ATOM     22  C   UNL A   1      38.300  28.854  29.395  1.00  0.00     0.029 A 
ATOM     23  C   UNL A   1      39.010  30.030  29.880  1.00  0.00     0.049 A 
ATOM     24  H   UNL A   1      41.077  30.331  29.867  1.00  0.00     0.167 HD
ATOM     25  C   UNL A   1      44.814  31.782  28.945  1.00  0.00     0.037 A 
ATOM     26  C   UNL A   1      38.514  31.155  30.445  1.00  0.00     0.037 A 
ATOM     27  C   UNL A   1      44.977  31.504  30.345  1.00  0.00     0.049 A 
ATOM     28  C   UNL A   1      39.612  31.880  31.125  1.00  0.00     0.074 A 
ATOM     29  C   UNL A   1      45.593  30.515  31.085  1.00  0.00     0.029 A 
ATOM     30  N   UNL A   1      44.252  32.236  31.247  1.00  0.00    -0.354 N 
ATOM     31  N   UNL A   1      40.169  31.518  32.246  1.00  0.00    -0.248 NA
ATOM     32  C   UNL A   1      40.284  32.962  30.417  1.00  0.00     0.031 C 
ATOM     33  C   UNL A   1      44.856  30.431  32.301  1.00  0.00     0.029 A 
ATOM     34  C   UNL A   1      43.824  31.364  32.214  1.00  0.00     0.049 A 
ATOM     35  H   UNL A   1      44.071  33.203  31.209  1.00  0.00     0.167 HD
ATOM     36  C   UNL A   1      41.450  32.035  32.183  1.00  0.00     0.074 A 
ATOM     37  C   UNL A   1      41.404  33.041  31.136  1.00  0.00     0.031 C 
ATOM     38  C   UNL A   1      42.495  31.388  32.775  1.00  0.00     0.037 A 
BRANCH  25  39
ATOM     39  C   UNL A   1      45.091  33.151  28.375  1.00  0.00     0.064 A 
ATOM     40  C   UNL A   1      44.017  34.005  28.047  1.00  0.00     0.173 A 
ATOM     41  C   UNL A   1      46.352  33.535  27.875  1.00  0.00     0.173 A 
ATOM     42  F   UNL A   1      42.767  33.714  28.437  1.00  0.00    -0.203 F 
ATOM     43  C   UNL A   1      44.187  35.129  27.233  1.00  0.00     0.198 A 
ATOM     44  C   UNL A   1      46.527  34.688  27.107  1.00  0.00     0.198 A 
ATOM     45  F   UNL A   1      47.431  32.755  28.023  1.00  0.00    -0.203 F 
ATOM     46  F   UNL A   1      43.119  35.844  26.853  1.00  0.00    -0.200 F 
ATOM     47  C   UNL A   1      45.442  35.470  26.764  1.00  0.00     0.200 A 
ATOM     48  F   UNL A   1      47.746  34.992  26.640  1.00  0.00    -0.200 F 
ATOM     49  F   UNL A   1      45.599  36.517  25.944  1.00  0.00    -0.200 F 
ENDBRANCH  25  39
BRANCH  26  50
ATOM     50  C   UNL A   1      37.159  31.738  30.339  1.00  0.00     0.064 A 
ATOM     51  C   UNL A   1      36.302  31.798  31.450  1.00  0.00     0.173 A 
ATOM     52  C   UNL A   1      36.762  32.468  29.203  1.00  0.00     0.173 A 
ATOM     53  F   UNL A   1      36.628  31.175  32.592  1.00  0.00    -0.203 F 
ATOM     54  C   UNL A   1      35.123  32.548  31.428  1.00  0.00     0.198 A 
ATOM     55  C   UNL A   1      35.578  33.203  29.175  1.00  0.00     0.198 A 
ATOM     56  F   UNL A   1      37.559  32.549  28.127  1.00  0.00    -0.203 F 
ATOM     57  F   UNL A   1      34.361  32.625  32.528  1.00  0.00    -0.200 F 
ATOM     58  C   UNL A   1      34.764  33.252  30.292  1.00  0.00     0.200 A 
ATOM     59  F   UNL A   1      35.258  33.908  28.081  1.00  0.00    -0.200 F 
ATOM     60  F   UNL A   1      33.657  34.008  30.285  1.00  0.00    -0.200 F 
ENDBRANCH  26  50
BRANCH  38  61
ATOM     61  C   UNL A   1      42.185  30.394  33.851  1.00  0.00     0.064 A 
ATOM     62  C   UNL A   1      41.778  29.073  33.601  1.00  0.00     0.173 A 
ATOM     63  C   UNL A   1      42.420  30.761  35.183  1.00  0.00     0.173 A 
ATOM     64  F   UNL A   1      41.645  28.617  32.347  1.00  0.00    -0.203 F 
ATOM     65  C   UNL A   1      41.554  28.182  34.648  1.00  0.00     0.198 A 
ATOM     66  C   UNL A   1      42.232  29.857  36.224  1.00  0.00     0.198 A 
ATOM     67  F   UNL A   1      42.872  31.993  35.474  1.00  0.00    -0.203 F 
ATOM     68  F   UNL A   1      41.142  26.932  34.389  1.00  0.00    -0.200 F 
ATOM     69  C   UNL A   1      41.785  28.573  35.958  1.00  0.00     0.200 A 
ATOM     70  F   UNL A   1      42.507  30.222  37.484  1.00  0.00    -0.200 F 
ATOM     71  F   UNL A   1      41.603  27.703  36.961  1.00  0.00    -0.200 F 
ENDBRANCH  38  61
ENDBRANCH  12  13
ENDBRANCH   5   7
ENDBRANCH   2   3
ENDBRANCH   1   2
BRANCH   1  72
ATOM     72  C   UNL A   1      39.552  23.018  27.075  1.00  0.00     0.002 C 
BRANCH  72  73
ATOM     73  C   UNL A   1      38.511  23.995  26.514  1.00  0.00     0.002 C 
BRANCH  73  74
ATOM     74  C   UNL A   1      37.493  23.390  25.542  1.00  0.00     0.021 C 
BRANCH  74  75
ATOM     75  C   UNL A   1      36.103  23.172  26.140  1.00  0.00     0.116 C 
BRANCH  75  76
ATOM     76  N   UNL A   1      35.491  21.949  25.678  1.00  0.00    -0.356 N 
ATOM     77  C   UNL A   1      34.406  21.686  24.914  1.00  0.00     0.223 C 
ATOM     78  H   UNL A   1      35.960  21.139  25.982  1.00  0.00     0.163 HD
ATOM     79  O   UNL A   1      34.210  20.489  24.664  1.00  0.00    -0.275 OA
BRANCH  77  80
ATOM     80  C   UNL A   1      33.428  22.725  24.362  1.00  0.00     0.087 C 
ATOM     81  C   UNL A   1      33.941  23.637  23.256  1.00  0.00     0.068 C 
ATOM     82  C   UNL A   1      32.575  23.447  25.393  1.00  0.00     0.068 C 
ATOM     83  C   UNL A   1      34.379  25.032  23.671  1.00  0.00     0.277 C 
ATOM     84  C   UNL A   1      33.118  24.785  25.851  1.00  0.00     0.277 C 
ATOM     85  N   UNL A   1      33.581  25.623  24.747  1.00  0.00    -0.230 N 
ATOM     86  C   UNL A   1      33.668  26.995  24.968  1.00  0.00     0.383 C 
ATOM     87  N   UNL A   1      33.973  27.473  26.146  1.00  0.00    -0.155 N 
ATOM     88  C   UNL A   1      33.419  27.962  23.826  1.00  0.00     0.523 C 
ATOM     89  C   UNL A   1      34.054  28.833  26.307  1.00  0.00     0.414 C 
ATOM     90  H   UNL A   1      34.141  26.868  26.903  1.00  0.00     0.367 HD
ATOM     91  C   UNL A   1      32.895  29.180  24.478  1.00  0.00     0.389 C 
ATOM     92  N   UNL A   1      32.283  27.579  22.963  1.00  0.00     0.003 NA
ATOM     93  Cl  UNL A   1      34.935  29.364  27.672  1.00  0.00     0.028 Cl
ATOM     94  N   UNL A   1      33.533  29.729  25.521  1.00  0.00    -0.155 N 
ATOM     95  N   UNL A   1      31.737  29.547  24.022  1.00  0.00    -0.169 N 
ATOM     96  C   UNL A   1      31.430  28.549  23.133  1.00  0.00     0.532 C 
ATOM     97  H   UNL A   1      33.600  30.700  25.674  1.00  0.00     0.367 HD
ATOM     98  H   UNL A   1      31.210  30.345  24.255  1.00  0.00     0.365 HD
ENDBRANCH  77  80
ENDBRANCH  75  76
ENDBRANCH  74  75
ENDBRANCH  73  74
ENDBRANCH  72  73
ENDBRANCH   1  72
TORSDOF 13
ENDMDL
MODEL 3
REMARK VINA RESULT:     -12.8      3.730      9.061
REMARK SMILES O=C(NCCCCCCNC(=O)C1CCN(C2=[NH+]C(Cl)=[NH+]C3=[NH+]C=N[C@@H]32)CC1)c1ccc(-c2c3nc(c(-c4c(F)c(F)c(F)c(F)c4F)c4ccc([nH]4)c(-c4c(F)c(F)c(F)c(F)c4F)c4nc(c(-c5c(F)c(F)c(F)c(F)c5F)c5ccc2[nH]5)C=C4)C=C3)cc1
REMARK SMILES IDX 5 1 4 2 3 3 1 4 2 5 29 7 30 8 91 9 31 10 90 11 32 12 33 13
REMARK SMILES IDX 34 14 84 15 35 16 89 17 83 18 85 19 36 20 88 21 82 22 81 23
REMARK SMILES IDX 37 25 69 26 49 27 68 28 50 29 53 30 67 31 86 32 51 33 52 34
REMARK SMILES IDX 66 36 87 37 54 38 38 39 39 40 47 41 40 42 41 43 45 44 48 45
REMARK SMILES IDX 42 46 43 47 46 48 44 49 70 50 71 51 79 52 72 53 73 54 77 55
REMARK SMILES IDX 80 56 74 57 75 58 78 59 76 60 55 61 56 62 64 63 57 64 58 65
REMARK SMILES IDX 62 66 65 67 59 68 60 69 63 70 61 71 6 72 7 73 8 74 9 75
REMARK SMILES IDX 10 76 11 77 12 79 13 80 14 81 28 82 15 83 27 84 16 85 17 86
REMARK SMILES IDX 18 87 26 88 19 89 22 91 25 92 20 93 21 94 23 95 24 96
REMARK H PARENT 3 6 85 24 53 35 10 78 18 90 21 97 23 98
REMARK Flexibility Score: inf
ROOT
ATOM      1  C   UNL A   1      33.675  30.475  27.612  1.00  0.00     0.021 C 
ENDROOT
BRANCH   1   2
ATOM      2  C   UNL A   1      34.261  31.861  27.877  1.00  0.00     0.116 C 
BRANCH   2   3
ATOM      3  N   UNL A   1      34.364  32.199  29.283  1.00  0.00    -0.352 N 
ATOM      4  O   UNL A   1      34.989  32.361  31.400  1.00  0.00    -0.269 OA
ATOM      5  C   UNL A   1      35.259  31.919  30.278  1.00  0.00     0.251 C 
ATOM      6  H   UNL A   1      33.616  32.759  29.593  1.00  0.00     0.163 HD
BRANCH   5   7
ATOM      7  C   UNL A   1      36.507  31.123  30.113  1.00  0.00     0.039 A 
ATOM      8  C   UNL A   1      37.790  31.657  29.991  1.00  0.00     0.014 A 
ATOM      9  C   UNL A   1      36.374  29.723  30.175  1.00  0.00     0.014 A 
ATOM     10  C   UNL A   1      38.904  30.818  29.917  1.00  0.00     0.010 A 
ATOM     11  C   UNL A   1      37.488  28.881  30.130  1.00  0.00     0.010 A 
ATOM     12  C   UNL A   1      38.764  29.428  30.003  1.00  0.00    -0.014 A 
BRANCH  12  13
ATOM     13  C   UNL A   1      39.990  28.627  30.116  1.00  0.00     0.031 A 
ATOM     14  C   UNL A   1      40.557  28.452  31.490  1.00  0.00     0.074 A 
ATOM     15  C   UNL A   1      40.554  27.896  29.133  1.00  0.00     0.049 A 
ATOM     16  N   UNL A   1      41.760  28.704  31.905  1.00  0.00    -0.248 NA
ATOM     17  C   UNL A   1      39.667  27.909  32.527  1.00  0.00     0.031 C 
ATOM     18  C   UNL A   1      40.015  27.591  27.810  1.00  0.00     0.029 A 
ATOM     19  N   UNL A   1      41.725  27.182  29.174  1.00  0.00    -0.354 N 
ATOM     20  C   UNL A   1      41.828  28.227  33.214  1.00  0.00     0.074 A 
ATOM     21  C   UNL A   1      40.497  27.800  33.565  1.00  0.00     0.031 C 
ATOM     22  C   UNL A   1      40.755  26.608  27.250  1.00  0.00     0.029 A 
ATOM     23  C   UNL A   1      41.887  26.307  28.116  1.00  0.00     0.049 A 
ATOM     24  H   UNL A   1      42.390  27.284  29.893  1.00  0.00     0.167 HD
ATOM     25  C   UNL A   1      43.006  28.079  33.882  1.00  0.00     0.037 A 
ATOM     26  C   UNL A   1      42.849  25.367  27.970  1.00  0.00     0.037 A 
ATOM     27  C   UNL A   1      44.072  28.840  33.293  1.00  0.00     0.049 A 
ATOM     28  C   UNL A   1      43.983  25.691  28.866  1.00  0.00     0.074 A 
ATOM     29  C   UNL A   1      44.300  30.178  33.038  1.00  0.00     0.029 A 
ATOM     30  N   UNL A   1      45.078  28.170  32.650  1.00  0.00    -0.354 N 
ATOM     31  N   UNL A   1      44.841  26.653  28.672  1.00  0.00    -0.248 NA
ATOM     32  C   UNL A   1      44.055  25.046  30.170  1.00  0.00     0.031 C 
ATOM     33  C   UNL A   1      45.154  30.209  31.897  1.00  0.00     0.029 A 
ATOM     34  C   UNL A   1      45.375  28.886  31.520  1.00  0.00     0.049 A 
ATOM     35  H   UNL A   1      45.508  27.333  32.943  1.00  0.00     0.167 HD
ATOM     36  C   UNL A   1      45.275  26.994  29.940  1.00  0.00     0.074 A 
ATOM     37  C   UNL A   1      44.897  25.876  30.786  1.00  0.00     0.031 C 
ATOM     38  C   UNL A   1      45.628  28.278  30.236  1.00  0.00     0.037 A 
BRANCH  25  39
ATOM     39  C   UNL A   1      43.271  27.035  34.938  1.00  0.00     0.064 A 
ATOM     40  C   UNL A   1      43.582  27.432  36.256  1.00  0.00     0.173 A 
ATOM     41  C   UNL A   1      43.514  25.680  34.635  1.00  0.00     0.173 A 
ATOM     42  F   UNL A   1      43.427  28.708  36.640  1.00  0.00    -0.203 F 
ATOM     43  C   UNL A   1      44.144  26.549  37.181  1.00  0.00     0.198 A 
ATOM     44  C   UNL A   1      44.026  24.788  35.579  1.00  0.00     0.198 A 
ATOM     45  F   UNL A   1      43.365  25.202  33.392  1.00  0.00    -0.203 F 
ATOM     46  F   UNL A   1      44.530  27.001  38.384  1.00  0.00    -0.200 F 
ATOM     47  C   UNL A   1      44.366  25.227  36.843  1.00  0.00     0.200 A 
ATOM     48  F   UNL A   1      44.257  23.515  35.228  1.00  0.00    -0.200 F 
ATOM     49  F   UNL A   1      44.950  24.393  37.712  1.00  0.00    -0.200 F 
ENDBRANCH  25  39
BRANCH  26  50
ATOM     50  C   UNL A   1      42.819  24.109  27.192  1.00  0.00     0.064 A 
ATOM     51  C   UNL A   1      43.393  24.029  25.912  1.00  0.00     0.173 A 
ATOM     52  C   UNL A   1      42.440  22.890  27.785  1.00  0.00     0.173 A 
ATOM     53  F   UNL A   1      43.831  25.137  25.296  1.00  0.00    -0.203 F 
ATOM     54  C   UNL A   1      43.581  22.804  25.268  1.00  0.00     0.198 A 
ATOM     55  C   UNL A   1      42.613  21.669  27.135  1.00  0.00     0.198 A 
ATOM     56  F   UNL A   1      41.972  22.855  29.041  1.00  0.00    -0.203 F 
ATOM     57  F   UNL A   1      44.183  22.766  24.071  1.00  0.00    -0.200 F 
ATOM     58  C   UNL A   1      43.194  21.625  25.880  1.00  0.00     0.200 A 
ATOM     59  F   UNL A   1      42.265  20.532  27.753  1.00  0.00    -0.200 F 
ATOM     60  F   UNL A   1      43.415  20.446  25.282  1.00  0.00    -0.200 F 
ENDBRANCH  26  50
BRANCH  38  61
ATOM     61  C   UNL A   1      45.974  29.190  29.100  1.00  0.00     0.064 A 
ATOM     62  C   UNL A   1      45.020  29.866  28.321  1.00  0.00     0.173 A 
ATOM     63  C   UNL A   1      47.326  29.477  28.867  1.00  0.00     0.173 A 
ATOM     64  F   UNL A   1      43.709  29.730  28.565  1.00  0.00    -0.203 F 
ATOM     65  C   UNL A   1      45.410  30.740  27.310  1.00  0.00     0.198 A 
ATOM     66  C   UNL A   1      47.712  30.380  27.881  1.00  0.00     0.198 A 
ATOM     67  F   UNL A   1      48.277  28.907  29.626  1.00  0.00    -0.203 F 
ATOM     68  F   UNL A   1      44.484  31.358  26.562  1.00  0.00    -0.200 F 
ATOM     69  C   UNL A   1      46.755  31.000  27.093  1.00  0.00     0.200 A 
ATOM     70  F   UNL A   1      49.009  30.669  27.710  1.00  0.00    -0.200 F 
ATOM     71  F   UNL A   1      47.127  31.869  26.144  1.00  0.00    -0.200 F 
ENDBRANCH  38  61
ENDBRANCH  12  13
ENDBRANCH   5   7
ENDBRANCH   2   3
ENDBRANCH   1   2
BRANCH   1  72
ATOM     72  C   UNL A   1      34.681  29.439  27.095  1.00  0.00     0.002 C 
BRANCH  72  73
ATOM     73  C   UNL A   1      34.086  28.140  26.534  1.00  0.00     0.002 C 
BRANCH  73  74
ATOM     74  C   UNL A   1      32.936  28.317  25.538  1.00  0.00     0.021 C 
BRANCH  74  75
ATOM     75  C   UNL A   1      33.307  28.014  24.086  1.00  0.00     0.116 C 
BRANCH  75  76
ATOM     76  N   UNL A   1      32.176  28.128  23.195  1.00  0.00    -0.356 N 
ATOM     77  C   UNL A   1      31.366  27.220  22.605  1.00  0.00     0.223 C 
ATOM     78  H   UNL A   1      31.948  29.058  22.971  1.00  0.00     0.163 HD
ATOM     79  O   UNL A   1      30.437  27.692  21.936  1.00  0.00    -0.275 OA
BRANCH  77  80
ATOM     80  C   UNL A   1      31.514  25.699  22.692  1.00  0.00     0.087 C 
ATOM     81  C   UNL A   1      31.130  25.042  24.011  1.00  0.00     0.068 C 
ATOM     82  C   UNL A   1      32.776  25.119  22.073  1.00  0.00     0.068 C 
ATOM     83  C   UNL A   1      32.268  24.686  24.952  1.00  0.00     0.277 C 
ATOM     84  C   UNL A   1      33.916  24.886  23.042  1.00  0.00     0.277 C 
ATOM     85  N   UNL A   1      33.492  24.240  24.282  1.00  0.00    -0.230 N 
ATOM     86  C   UNL A   1      34.460  23.576  25.031  1.00  0.00     0.383 C 
ATOM     87  N   UNL A   1      35.698  23.995  25.061  1.00  0.00    -0.155 N 
ATOM     88  C   UNL A   1      34.081  22.350  25.839  1.00  0.00     0.523 C 
ATOM     89  C   UNL A   1      36.610  23.309  25.821  1.00  0.00     0.414 C 
ATOM     90  H   UNL A   1      35.970  24.789  24.548  1.00  0.00     0.367 HD
ATOM     91  C   UNL A   1      35.316  21.540  25.887  1.00  0.00     0.389 C 
ATOM     92  N   UNL A   1      33.158  21.437  25.133  1.00  0.00     0.003 NA
ATOM     93  Cl  UNL A   1      38.029  24.170  26.229  1.00  0.00     0.028 Cl
ATOM     94  N   UNL A   1      36.483  22.088  26.253  1.00  0.00    -0.155 N 
ATOM     95  N   UNL A   1      35.157  20.337  25.427  1.00  0.00    -0.169 N 
ATOM     96  C   UNL A   1      33.858  20.347  24.990  1.00  0.00     0.532 C 
ATOM     97  H   UNL A   1      37.165  21.621  26.787  1.00  0.00     0.367 HD
ATOM     98  H   UNL A   1      35.808  19.598  25.400  1.00  0.00     0.365 HD
ENDBRANCH  77  80
ENDBRANCH  75  76
ENDBRANCH  74  75
ENDBRANCH  73  74
ENDBRANCH  72  73
ENDBRANCH   1  72
TORSDOF 13
ENDMDL
