MODEL 1
REMARK VINA RESULT:     -12.4      0.000      0.000
REMARK SMILES Cc1ccc(O)c(C(=O)[C@@H]2[C@@H](C(=O)NCCCCCCNC(=O)c3ccc(-c4c5nc(c(-c6c(F)c(F)c(F)c(F)c6F)c6ccc([nH]6)c(-c6c(F)c(F)c(F)c(F)c6F)c6nc(c(-c7c(F)c(F)c(F)c(F)c7F)c7ccc4[nH]7)C=C6)C=C5)cc3)[C@H]3C=C[C@@H]2C3)c1
REMARK SMILES IDX 17 1 16 2 15 3 14 4 12 5 13 6 11 8 10 9 90 10 87 11 89 12
REMARK SMILES IDX 91 13 88 14 8 15 9 16 7 17 1 18 2 19 3 20 92 21 4 22 5 23
REMARK SMILES IDX 6 24 18 26 19 27 20 28 21 29 22 30 23 32 24 33 25 34 86 35
REMARK SMILES IDX 26 36 85 37 27 38 28 39 29 40 79 41 30 42 84 43 78 44 80 45
REMARK SMILES IDX 31 46 83 47 77 48 76 49 32 51 64 52 44 53 63 54 45 55 48 56
REMARK SMILES IDX 62 57 81 58 46 59 47 60 61 62 82 63 49 64 33 65 34 66 42 67
REMARK SMILES IDX 35 68 36 69 40 70 43 71 37 72 38 73 41 74 39 75 65 76 66 77
REMARK SMILES IDX 74 78 67 79 68 80 72 81 75 82 69 83 70 84 73 85 71 86 50 87
REMARK SMILES IDX 51 88 59 89 52 90 53 91 57 92 60 93 54 94 55 95 58 96 56 97
REMARK H PARENT 14 7 6 25 21 31 80 50 48 61
REMARK Flexibility Score: inf
ROOT
ATOM      1  C   UNL A   1      32.924  30.262  27.263  1.00  0.00     0.002 C 
ENDROOT
BRANCH   1   2
ATOM      2  C   UNL A   1      33.014  28.735  27.288  1.00  0.00     0.021 C 
BRANCH   2   3
ATOM      3  C   UNL A   1      34.197  28.159  26.513  1.00  0.00     0.116 C 
BRANCH   3   4
ATOM      4  N   UNL A   1      34.287  28.702  25.174  1.00  0.00    -0.356 N 
ATOM      5  C   UNL A   1      33.610  28.480  24.025  1.00  0.00     0.224 C 
ATOM      6  O   UNL A   1      33.983  29.148  23.050  1.00  0.00    -0.275 OA
ATOM      7  H   UNL A   1      34.995  29.381  25.080  1.00  0.00     0.163 HD
BRANCH   5   8
ATOM      8  C   UNL A   1      32.496  27.461  23.809  1.00  0.00     0.097 C 
ATOM      9  C   UNL A   1      32.150  26.968  22.384  1.00  0.00     0.081 C 
ATOM     10  C   UNL A   1      30.590  26.990  22.401  1.00  0.00     0.024 C 
ATOM     11  C   UNL A   1      31.117  27.889  24.390  1.00  0.00     0.025 C 
ATOM     12  C   UNL A   1      30.163  28.451  22.377  1.00  0.00    -0.027 C 
ATOM     13  C   UNL A   1      30.215  26.763  23.873  1.00  0.00     0.017 C 
ATOM     14  C   UNL A   1      30.484  28.982  23.570  1.00  0.00    -0.027 C 
BRANCH   9  15
ATOM     15  C   UNL A   1      32.876  25.690  21.942  1.00  0.00     0.171 C 
ATOM     16  O   UNL A   1      33.074  25.479  20.740  1.00  0.00    -0.294 OA
BRANCH  15  17
ATOM     17  C   UNL A   1      33.281  24.605  22.869  1.00  0.00     0.060 A 
ATOM     18  C   UNL A   1      36.173  23.722  25.162  1.00  0.00     0.044 C 
ATOM     19  C   UNL A   1      34.858  23.639  24.443  1.00  0.00    -0.050 A 
ATOM     20  C   UNL A   1      33.917  22.663  24.782  1.00  0.00     0.007 A 
ATOM     21  C   UNL A   1      34.557  24.549  23.422  1.00  0.00     0.019 A 
ATOM     22  C   UNL A   1      32.684  22.621  24.131  1.00  0.00     0.047 A 
ATOM     23  C   UNL A   1      32.367  23.591  23.184  1.00  0.00     0.126 A 
BRANCH  23  24
ATOM     24  O   UNL A   1      31.140  23.489  22.584  1.00  0.00    -0.507 OA
ATOM     25  H   UNL A   1      30.673  22.676  22.609  1.00  0.00     0.293 HD
ENDBRANCH  23  24
ENDBRANCH  15  17
ENDBRANCH   9  15
ENDBRANCH   5   8
ENDBRANCH   3   4
ENDBRANCH   2   3
ENDBRANCH   1   2
BRANCH   1  26
ATOM     26  C   UNL A   1      31.612  30.840  26.718  1.00  0.00     0.002 C 
BRANCH  26  27
ATOM     27  C   UNL A   1      31.437  32.354  26.860  1.00  0.00     0.021 C 
BRANCH  27  28
ATOM     28  C   UNL A   1      32.720  33.133  27.139  1.00  0.00     0.116 C 
BRANCH  28  29
ATOM     29  N   UNL A   1      32.455  34.442  27.711  1.00  0.00    -0.352 N 
ATOM     30  C   UNL A   1      32.999  35.045  28.816  1.00  0.00     0.251 C 
ATOM     31  H   UNL A   1      31.781  34.977  27.232  1.00  0.00     0.163 HD
ATOM     32  O   UNL A   1      32.511  36.082  29.253  1.00  0.00    -0.269 OA
BRANCH  30  33
ATOM     33  C   UNL A   1      34.169  34.446  29.491  1.00  0.00     0.039 A 
ATOM     34  C   UNL A   1      33.968  33.736  30.679  1.00  0.00     0.014 A 
ATOM     35  C   UNL A   1      35.460  34.615  28.983  1.00  0.00     0.014 A 
ATOM     36  C   UNL A   1      35.056  33.156  31.333  1.00  0.00     0.010 A 
ATOM     37  C   UNL A   1      36.536  33.985  29.603  1.00  0.00     0.010 A 
ATOM     38  C   UNL A   1      36.345  33.256  30.787  1.00  0.00    -0.014 A 
BRANCH  38  39
ATOM     39  C   UNL A   1      37.509  32.615  31.448  1.00  0.00     0.031 A 
ATOM     40  C   UNL A   1      38.214  31.468  30.781  1.00  0.00     0.074 A 
ATOM     41  C   UNL A   1      37.891  33.027  32.671  1.00  0.00     0.049 A 
ATOM     42  N   UNL A   1      39.199  30.729  31.228  1.00  0.00    -0.248 NA
ATOM     43  C   UNL A   1      37.733  31.082  29.446  1.00  0.00     0.031 C 
ATOM     44  C   UNL A   1      37.258  34.103  33.434  1.00  0.00     0.029 A 
ATOM     45  N   UNL A   1      38.895  32.580  33.492  1.00  0.00    -0.354 N 
ATOM     46  C   UNL A   1      39.441  29.786  30.239  1.00  0.00     0.074 A 
ATOM     47  C   UNL A   1      38.474  30.014  29.189  1.00  0.00     0.031 C 
ATOM     48  C   UNL A   1      37.899  34.244  34.607  1.00  0.00     0.029 A 
ATOM     49  C   UNL A   1      38.962  33.248  34.690  1.00  0.00     0.049 A 
ATOM     50  H   UNL A   1      39.507  31.850  33.247  1.00  0.00     0.167 HD
ATOM     51  C   UNL A   1      40.399  28.828  30.203  1.00  0.00     0.037 A 
ATOM     52  C   UNL A   1      39.788  33.072  35.739  1.00  0.00     0.037 A 
ATOM     53  C   UNL A   1      41.379  28.623  31.237  1.00  0.00     0.049 A 
ATOM     54  C   UNL A   1      40.846  32.005  35.671  1.00  0.00     0.074 A 
ATOM     55  C   UNL A   1      42.427  27.718  31.266  1.00  0.00     0.029 A 
ATOM     56  N   UNL A   1      41.432  29.336  32.425  1.00  0.00    -0.354 N 
ATOM     57  N   UNL A   1      41.104  31.158  34.705  1.00  0.00    -0.248 NA
ATOM     58  C   UNL A   1      41.731  31.875  36.836  1.00  0.00     0.031 C 
ATOM     59  C   UNL A   1      43.092  27.860  32.489  1.00  0.00     0.029 A 
ATOM     60  C   UNL A   1      42.485  28.881  33.202  1.00  0.00     0.049 A 
ATOM     61  H   UNL A   1      40.814  30.059  32.678  1.00  0.00     0.167 HD
ATOM     62  C   UNL A   1      42.194  30.412  35.133  1.00  0.00     0.074 A 
ATOM     63  C   UNL A   1      42.558  30.917  36.440  1.00  0.00     0.031 C 
ATOM     64  C   UNL A   1      42.836  29.401  34.499  1.00  0.00     0.037 A 
BRANCH  51  65
ATOM     65  C   UNL A   1      40.436  27.930  29.001  1.00  0.00     0.064 A 
ATOM     66  C   UNL A   1      41.213  28.240  27.875  1.00  0.00     0.173 A 
ATOM     67  C   UNL A   1      39.711  26.728  28.988  1.00  0.00     0.173 A 
ATOM     68  F   UNL A   1      41.913  29.383  27.834  1.00  0.00    -0.203 F 
ATOM     69  C   UNL A   1      41.243  27.394  26.771  1.00  0.00     0.198 A 
ATOM     70  C   UNL A   1      39.767  25.870  27.892  1.00  0.00     0.198 A 
ATOM     71  F   UNL A   1      38.957  26.380  30.041  1.00  0.00    -0.203 F 
ATOM     72  F   UNL A   1      41.957  27.734  25.688  1.00  0.00    -0.200 F 
ATOM     73  C   UNL A   1      40.526  26.208  26.782  1.00  0.00     0.200 A 
ATOM     74  F   UNL A   1      39.082  24.718  27.909  1.00  0.00    -0.200 F 
ATOM     75  F   UNL A   1      40.561  25.392  25.719  1.00  0.00    -0.200 F 
ENDBRANCH  51  65
BRANCH  52  76
ATOM     76  C   UNL A   1      39.664  33.946  36.934  1.00  0.00     0.064 A 
ATOM     77  C   UNL A   1      38.893  33.550  38.035  1.00  0.00     0.173 A 
ATOM     78  C   UNL A   1      40.311  35.188  37.000  1.00  0.00     0.173 A 
ATOM     79  F   UNL A   1      38.239  32.380  38.008  1.00  0.00    -0.203 F 
ATOM     80  C   UNL A   1      38.760  34.373  39.152  1.00  0.00     0.198 A 
ATOM     81  C   UNL A   1      40.198  35.998  38.128  1.00  0.00     0.198 A 
ATOM     82  F   UNL A   1      41.064  35.609  35.974  1.00  0.00    -0.203 F 
ATOM     83  F   UNL A   1      37.984  33.988  40.175  1.00  0.00    -0.200 F 
ATOM     84  C   UNL A   1      39.416  35.593  39.201  1.00  0.00     0.200 A 
ATOM     85  F   UNL A   1      40.844  37.170  38.176  1.00  0.00    -0.200 F 
ATOM     86  F   UNL A   1      39.291  36.381  40.277  1.00  0.00    -0.200 F 
ENDBRANCH  52  76
BRANCH  64  87
ATOM     87  C   UNL A   1      44.017  28.795  35.197  1.00  0.00     0.064 A 
ATOM     88  C   UNL A   1      45.316  29.287  35.002  1.00  0.00     0.173 A 
ATOM     89  C   UNL A   1      43.841  27.736  36.101  1.00  0.00     0.173 A 
ATOM     90  F   UNL A   1      45.535  30.286  34.136  1.00  0.00    -0.203 F 
ATOM     91  C   UNL A   1      46.399  28.726  35.674  1.00  0.00     0.198 A 
ATOM     92  C   UNL A   1      44.923  27.196  36.790  1.00  0.00     0.198 A 
ATOM     93  F   UNL A   1      42.617  27.234  36.324  1.00  0.00    -0.203 F 
ATOM     94  F   UNL A   1      47.637  29.183  35.442  1.00  0.00    -0.200 F 
ATOM     95  C   UNL A   1      46.202  27.687  36.570  1.00  0.00     0.200 A 
ATOM     96  F   UNL A   1      44.728  26.199  37.664  1.00  0.00    -0.200 F 
ATOM     97  F   UNL A   1      47.245  27.153  37.220  1.00  0.00    -0.200 F 
ENDBRANCH  64  87
ENDBRANCH  38  39
ENDBRANCH  30  33
ENDBRANCH  28  29
ENDBRANCH  27  28
ENDBRANCH  26  27
ENDBRANCH   1  26
TORSDOF 16
ENDMDL
MODEL 2
REMARK VINA RESULT:     -12.3      0.132      1.116
REMARK SMILES Cc1ccc(O)c(C(=O)[C@@H]2[C@@H](C(=O)NCCCCCCNC(=O)c3ccc(-c4c5nc(c(-c6c(F)c(F)c(F)c(F)c6F)c6ccc([nH]6)c(-c6c(F)c(F)c(F)c(F)c6F)c6nc(c(-c7c(F)c(F)c(F)c(F)c7F)c7ccc4[nH]7)C=C6)C=C5)cc3)[C@H]3C=C[C@@H]2C3)c1
REMARK SMILES IDX 17 1 16 2 15 3 14 4 12 5 13 6 11 8 10 9 90 10 87 11 89 12
REMARK SMILES IDX 91 13 88 14 8 15 9 16 7 17 1 18 2 19 3 20 92 21 4 22 5 23
REMARK SMILES IDX 6 24 18 26 19 27 20 28 21 29 22 30 23 32 24 33 25 34 86 35
REMARK SMILES IDX 26 36 85 37 27 38 28 39 29 40 79 41 30 42 84 43 78 44 80 45
REMARK SMILES IDX 31 46 83 47 77 48 76 49 32 51 64 52 44 53 63 54 45 55 48 56
REMARK SMILES IDX 62 57 81 58 46 59 47 60 61 62 82 63 49 64 33 65 34 66 42 67
REMARK SMILES IDX 35 68 36 69 40 70 43 71 37 72 38 73 41 74 39 75 65 76 66 77
REMARK SMILES IDX 74 78 67 79 68 80 72 81 75 82 69 83 70 84 73 85 71 86 50 87
REMARK SMILES IDX 51 88 59 89 52 90 53 91 57 92 60 93 54 94 55 95 58 96 56 97
REMARK H PARENT 14 7 6 25 21 31 80 50 48 61
REMARK Flexibility Score: inf
ROOT
ATOM      1  C   UNL A   1      32.890  30.240  27.251  1.00  0.00     0.002 C 
ENDROOT
BRANCH   1   2
ATOM      2  C   UNL A   1      32.973  28.713  27.283  1.00  0.00     0.021 C 
BRANCH   2   3
ATOM      3  C   UNL A   1      34.146  28.126  26.501  1.00  0.00     0.116 C 
BRANCH   3   4
ATOM      4  N   UNL A   1      34.241  28.680  25.167  1.00  0.00    -0.356 N 
ATOM      5  C   UNL A   1      33.544  28.496  24.023  1.00  0.00     0.224 C 
ATOM      6  O   UNL A   1      33.931  29.159  23.051  1.00  0.00    -0.275 OA
ATOM      7  H   UNL A   1      34.973  29.333  25.071  1.00  0.00     0.163 HD
BRANCH   5   8
ATOM      8  C   UNL A   1      32.390  27.522  23.810  1.00  0.00     0.097 C 
ATOM      9  C   UNL A   1      32.024  27.038  22.387  1.00  0.00     0.081 C 
ATOM     10  C   UNL A   1      30.467  27.123  22.403  1.00  0.00     0.024 C 
ATOM     11  C   UNL A   1      31.029  28.006  24.390  1.00  0.00     0.025 C 
ATOM     12  C   UNL A   1      30.098  28.601  22.374  1.00  0.00    -0.027 C 
ATOM     13  C   UNL A   1      30.083  26.916  23.875  1.00  0.00     0.017 C 
ATOM     14  C   UNL A   1      30.441  29.122  23.566  1.00  0.00    -0.027 C 
BRANCH   9  15
ATOM     15  C   UNL A   1      32.698  25.731  21.948  1.00  0.00     0.171 C 
ATOM     16  O   UNL A   1      32.851  25.490  20.745  1.00  0.00    -0.294 OA
BRANCH  15  17
ATOM     17  C   UNL A   1      33.102  24.653  22.884  1.00  0.00     0.060 A 
ATOM     18  C   UNL A   1      36.072  23.693  25.043  1.00  0.00     0.044 C 
ATOM     19  C   UNL A   1      34.717  23.655  24.399  1.00  0.00    -0.050 A 
ATOM     20  C   UNL A   1      33.751  22.737  24.819  1.00  0.00     0.007 A 
ATOM     21  C   UNL A   1      34.403  24.550  23.369  1.00  0.00     0.019 A 
ATOM     22  C   UNL A   1      32.482  22.738  24.237  1.00  0.00     0.047 A 
ATOM     23  C   UNL A   1      32.160  23.696  23.280  1.00  0.00     0.126 A 
BRANCH  23  24
ATOM     24  O   UNL A   1      30.897  23.638  22.751  1.00  0.00    -0.507 OA
ATOM     25  H   UNL A   1      30.394  22.850  22.825  1.00  0.00     0.293 HD
ENDBRANCH  23  24
ENDBRANCH  15  17
ENDBRANCH   9  15
ENDBRANCH   5   8
ENDBRANCH   3   4
ENDBRANCH   2   3
ENDBRANCH   1   2
BRANCH   1  26
ATOM     26  C   UNL A   1      31.573  30.821  26.724  1.00  0.00     0.002 C 
BRANCH  26  27
ATOM     27  C   UNL A   1      31.407  32.338  26.861  1.00  0.00     0.021 C 
BRANCH  27  28
ATOM     28  C   UNL A   1      32.699  33.112  27.103  1.00  0.00     0.116 C 
BRANCH  28  29
ATOM     29  N   UNL A   1      32.453  34.434  27.653  1.00  0.00    -0.352 N 
ATOM     30  C   UNL A   1      33.001  35.045  28.751  1.00  0.00     0.251 C 
ATOM     31  H   UNL A   1      31.791  34.973  27.163  1.00  0.00     0.163 HD
ATOM     32  O   UNL A   1      32.528  36.096  29.170  1.00  0.00    -0.269 OA
BRANCH  30  33
ATOM     33  C   UNL A   1      34.158  34.438  29.441  1.00  0.00     0.039 A 
ATOM     34  C   UNL A   1      33.941  33.752  30.640  1.00  0.00     0.014 A 
ATOM     35  C   UNL A   1      35.454  34.577  28.936  1.00  0.00     0.014 A 
ATOM     36  C   UNL A   1      35.016  33.164  31.308  1.00  0.00     0.010 A 
ATOM     37  C   UNL A   1      36.517  33.939  29.571  1.00  0.00     0.010 A 
ATOM     38  C   UNL A   1      36.309  33.233  30.766  1.00  0.00    -0.014 A 
BRANCH  38  39
ATOM     39  C   UNL A   1      37.459  32.584  31.442  1.00  0.00     0.031 A 
ATOM     40  C   UNL A   1      38.166  31.432  30.785  1.00  0.00     0.074 A 
ATOM     41  C   UNL A   1      37.826  32.993  32.671  1.00  0.00     0.049 A 
ATOM     42  N   UNL A   1      39.139  30.686  31.244  1.00  0.00    -0.248 NA
ATOM     43  C   UNL A   1      37.700  31.051  29.443  1.00  0.00     0.031 C 
ATOM     44  C   UNL A   1      37.190  34.072  33.427  1.00  0.00     0.029 A 
ATOM     45  N   UNL A   1      38.816  32.538  33.506  1.00  0.00    -0.354 N 
ATOM     46  C   UNL A   1      39.389  29.743  30.258  1.00  0.00     0.074 A 
ATOM     47  C   UNL A   1      38.437  29.978  29.195  1.00  0.00     0.031 C 
ATOM     48  C   UNL A   1      37.816  34.208  34.608  1.00  0.00     0.029 A 
ATOM     49  C   UNL A   1      38.871  33.205  34.705  1.00  0.00     0.049 A 
ATOM     50  H   UNL A   1      39.427  31.804  33.269  1.00  0.00     0.167 HD
ATOM     51  C   UNL A   1      40.340  28.778  30.235  1.00  0.00     0.037 A 
ATOM     52  C   UNL A   1      39.681  33.022  35.766  1.00  0.00     0.037 A 
ATOM     53  C   UNL A   1      41.305  28.565  31.282  1.00  0.00     0.049 A 
ATOM     54  C   UNL A   1      40.733  31.948  35.711  1.00  0.00     0.074 A 
ATOM     55  C   UNL A   1      42.345  27.654  31.325  1.00  0.00     0.029 A 
ATOM     56  N   UNL A   1      41.346  29.277  32.471  1.00  0.00    -0.354 N 
ATOM     57  N   UNL A   1      40.998  31.099  34.748  1.00  0.00    -0.248 NA
ATOM     58  C   UNL A   1      41.600  31.811  36.889  1.00  0.00     0.031 C 
ATOM     59  C   UNL A   1      42.994  27.790  32.557  1.00  0.00     0.029 A 
ATOM     60  C   UNL A   1      42.384  28.814  33.263  1.00  0.00     0.049 A 
ATOM     61  H   UNL A   1      40.729  30.004  32.716  1.00  0.00     0.167 HD
ATOM     62  C   UNL A   1      42.077  30.346  35.190  1.00  0.00     0.074 A 
ATOM     63  C   UNL A   1      42.426  30.847  36.503  1.00  0.00     0.031 C 
ATOM     64  C   UNL A   1      42.721  29.331  34.565  1.00  0.00     0.037 A 
BRANCH  51  65
ATOM     65  C   UNL A   1      40.387  27.881  29.033  1.00  0.00     0.064 A 
ATOM     66  C   UNL A   1      41.173  28.193  27.913  1.00  0.00     0.173 A 
ATOM     67  C   UNL A   1      39.665  26.678  29.013  1.00  0.00     0.173 A 
ATOM     68  F   UNL A   1      41.872  29.337  27.878  1.00  0.00    -0.203 F 
ATOM     69  C   UNL A   1      41.213  27.348  26.808  1.00  0.00     0.198 A 
ATOM     70  C   UNL A   1      39.730  25.821  27.917  1.00  0.00     0.198 A 
ATOM     71  F   UNL A   1      38.903  26.328  30.060  1.00  0.00    -0.203 F 
ATOM     72  F   UNL A   1      41.934  27.689  25.731  1.00  0.00    -0.200 F 
ATOM     73  C   UNL A   1      40.498  26.160  26.813  1.00  0.00     0.200 A 
ATOM     74  F   UNL A   1      39.047  24.667  27.928  1.00  0.00    -0.200 F 
ATOM     75  F   UNL A   1      40.543  25.345  25.750  1.00  0.00    -0.200 F 
ENDBRANCH  51  65
BRANCH  52  76
ATOM     76  C   UNL A   1      39.546  33.896  36.959  1.00  0.00     0.064 A 
ATOM     77  C   UNL A   1      38.780  33.492  38.061  1.00  0.00     0.173 A 
ATOM     78  C   UNL A   1      40.178  35.145  37.025  1.00  0.00     0.173 A 
ATOM     79  F   UNL A   1      38.140  32.314  38.035  1.00  0.00    -0.203 F 
ATOM     80  C   UNL A   1      38.636  34.314  39.177  1.00  0.00     0.198 A 
ATOM     81  C   UNL A   1      40.055  35.955  38.151  1.00  0.00     0.198 A 
ATOM     82  F   UNL A   1      40.926  35.574  35.997  1.00  0.00    -0.203 F 
ATOM     83  F   UNL A   1      37.865  33.921  40.200  1.00  0.00    -0.200 F 
ATOM     84  C   UNL A   1      39.278  35.542  39.224  1.00  0.00     0.200 A 
ATOM     85  F   UNL A   1      40.687  37.135  38.198  1.00  0.00    -0.200 F 
ATOM     86  F   UNL A   1      39.143  36.330  40.299  1.00  0.00    -0.200 F 
ENDBRANCH  52  76
BRANCH  64  87
ATOM     87  C   UNL A   1      43.888  28.716  35.278  1.00  0.00     0.064 A 
ATOM     88  C   UNL A   1      43.724  27.633  36.154  1.00  0.00     0.173 A 
ATOM     89  C   UNL A   1      45.189  29.190  35.051  1.00  0.00     0.173 A 
ATOM     90  F   UNL A   1      42.499  27.156  36.415  1.00  0.00    -0.203 F 
ATOM     91  C   UNL A   1      44.821  27.060  36.793  1.00  0.00     0.198 A 
ATOM     92  C   UNL A   1      46.285  28.598  35.671  1.00  0.00     0.198 A 
ATOM     93  F   UNL A   1      45.397  30.221  34.218  1.00  0.00    -0.203 F 
ATOM     94  F   UNL A   1      44.639  26.054  37.658  1.00  0.00    -0.200 F 
ATOM     95  C   UNL A   1      46.099  27.538  36.546  1.00  0.00     0.200 A 
ATOM     96  F   UNL A   1      47.521  29.054  35.423  1.00  0.00    -0.200 F 
ATOM     97  F   UNL A   1      47.153  26.981  37.158  1.00  0.00    -0.200 F 
ENDBRANCH  64  87
ENDBRANCH  38  39
ENDBRANCH  30  33
ENDBRANCH  28  29
ENDBRANCH  27  28
ENDBRANCH  26  27
ENDBRANCH   1  26
TORSDOF 16
ENDMDL
MODEL 3
REMARK VINA RESULT:     -12.2      1.144      3.315
REMARK SMILES Cc1ccc(O)c(C(=O)[C@@H]2[C@@H](C(=O)NCCCCCCNC(=O)c3ccc(-c4c5nc(c(-c6c(F)c(F)c(F)c(F)c6F)c6ccc([nH]6)c(-c6c(F)c(F)c(F)c(F)c6F)c6nc(c(-c7c(F)c(F)c(F)c(F)c7F)c7ccc4[nH]7)C=C6)C=C5)cc3)[C@H]3C=C[C@@H]2C3)c1
REMARK SMILES IDX 17 1 16 2 15 3 14 4 12 5 13 6 11 8 10 9 90 10 87 11 89 12
REMARK SMILES IDX 91 13 88 14 8 15 9 16 7 17 1 18 2 19 3 20 92 21 4 22 5 23
REMARK SMILES IDX 6 24 18 26 19 27 20 28 21 29 22 30 23 32 24 33 25 34 86 35
REMARK SMILES IDX 26 36 85 37 27 38 28 39 29 40 79 41 30 42 84 43 78 44 80 45
REMARK SMILES IDX 31 46 83 47 77 48 76 49 32 51 64 52 44 53 63 54 45 55 48 56
REMARK SMILES IDX 62 57 81 58 46 59 47 60 61 62 82 63 49 64 33 65 34 66 42 67
REMARK SMILES IDX 35 68 36 69 40 70 43 71 37 72 38 73 41 74 39 75 65 76 66 77
REMARK SMILES IDX 74 78 67 79 68 80 72 81 75 82 69 83 70 84 73 85 71 86 50 87
REMARK SMILES IDX 51 88 59 89 52 90 53 91 57 92 60 93 54 94 55 95 58 96 56 97
REMARK H PARENT 14 7 6 25 21 31 80 50 48 61
REMARK Flexibility Score: inf
ROOT
ATOM      1  C   UNL A   1      31.946  29.373  26.755  1.00  0.00     0.002 C 
ENDROOT
BRANCH   1   2
ATOM      2  C   UNL A   1      31.271  28.021  26.515  1.00  0.00     0.021 C 
BRANCH   2   3
ATOM      3  C   UNL A   1      32.236  26.840  26.425  1.00  0.00     0.116 C 
BRANCH   3   4
ATOM      4  N   UNL A   1      31.644  25.616  26.925  1.00  0.00    -0.356 N 
ATOM      5  C   UNL A   1      31.920  24.304  26.755  1.00  0.00     0.224 C 
ATOM      6  O   UNL A   1      31.169  23.520  27.354  1.00  0.00    -0.275 OA
ATOM      7  H   UNL A   1      30.872  25.775  27.516  1.00  0.00     0.163 HD
BRANCH   5   8
ATOM      8  C   UNL A   1      33.008  23.711  25.866  1.00  0.00     0.097 C 
ATOM      9  C   UNL A   1      32.655  22.655  24.793  1.00  0.00     0.081 C 
ATOM     10  C   UNL A   1      33.805  21.615  24.968  1.00  0.00     0.024 C 
ATOM     11  C   UNL A   1      34.186  23.059  26.646  1.00  0.00     0.025 C 
ATOM     12  C   UNL A   1      33.550  20.881  26.278  1.00  0.00    -0.027 C 
ATOM     13  C   UNL A   1      34.990  22.434  25.500  1.00  0.00     0.017 C 
ATOM     14  C   UNL A   1      33.778  21.752  27.276  1.00  0.00    -0.027 C 
BRANCH   9  15
ATOM     15  C   UNL A   1      32.360  23.216  23.396  1.00  0.00     0.171 C 
ATOM     16  O   UNL A   1      32.666  22.563  22.392  1.00  0.00    -0.294 OA
BRANCH  15  17
ATOM     17  C   UNL A   1      31.809  24.571  23.148  1.00  0.00     0.060 A 
ATOM     18  C   UNL A   1      28.704  26.598  23.956  1.00  0.00     0.044 C 
ATOM     19  C   UNL A   1      30.056  26.230  23.418  1.00  0.00    -0.050 A 
ATOM     20  C   UNL A   1      30.894  27.202  22.864  1.00  0.00     0.007 A 
ATOM     21  C   UNL A   1      30.497  24.903  23.472  1.00  0.00     0.019 A 
ATOM     22  C   UNL A   1      32.164  26.852  22.402  1.00  0.00     0.047 A 
ATOM     23  C   UNL A   1      32.619  25.545  22.550  1.00  0.00     0.126 A 
BRANCH  23  24
ATOM     24  O   UNL A   1      33.875  25.273  22.074  1.00  0.00    -0.507 OA
ATOM     25  H   UNL A   1      34.194  25.717  21.312  1.00  0.00     0.293 HD
ENDBRANCH  23  24
ENDBRANCH  15  17
ENDBRANCH   9  15
ENDBRANCH   5   8
ENDBRANCH   3   4
ENDBRANCH   2   3
ENDBRANCH   1   2
BRANCH   1  26
ATOM     26  C   UNL A   1      31.516  30.504  25.812  1.00  0.00     0.002 C 
BRANCH  26  27
ATOM     27  C   UNL A   1      31.336  31.880  26.458  1.00  0.00     0.021 C 
BRANCH  27  28
ATOM     28  C   UNL A   1      32.595  32.477  27.079  1.00  0.00     0.116 C 
BRANCH  28  29
ATOM     29  N   UNL A   1      32.410  33.862  27.477  1.00  0.00    -0.352 N 
ATOM     30  C   UNL A   1      33.035  34.585  28.459  1.00  0.00     0.251 C 
ATOM     31  H   UNL A   1      31.730  34.356  26.963  1.00  0.00     0.163 HD
ATOM     32  O   UNL A   1      32.609  35.692  28.774  1.00  0.00    -0.269 OA
BRANCH  30  33
ATOM     33  C   UNL A   1      34.219  34.034  29.151  1.00  0.00     0.039 A 
ATOM     34  C   UNL A   1      34.025  33.111  30.183  1.00  0.00     0.014 A 
ATOM     35  C   UNL A   1      35.510  34.452  28.816  1.00  0.00     0.014 A 
ATOM     36  C   UNL A   1      35.126  32.571  30.848  1.00  0.00     0.010 A 
ATOM     37  C   UNL A   1      36.611  33.868  29.438  1.00  0.00     0.010 A 
ATOM     38  C   UNL A   1      36.429  32.928  30.465  1.00  0.00    -0.014 A 
BRANCH  38  39
ATOM     39  C   UNL A   1      37.613  32.337  31.134  1.00  0.00     0.031 A 
ATOM     40  C   UNL A   1      38.404  31.257  30.450  1.00  0.00     0.074 A 
ATOM     41  C   UNL A   1      37.939  32.731  32.380  1.00  0.00     0.049 A 
ATOM     42  N   UNL A   1      39.421  30.566  30.899  1.00  0.00    -0.248 NA
ATOM     43  C   UNL A   1      37.979  30.888  29.092  1.00  0.00     0.031 C 
ATOM     44  C   UNL A   1      37.223  33.740  33.160  1.00  0.00     0.029 A 
ATOM     45  N   UNL A   1      38.949  32.318  33.212  1.00  0.00    -0.354 N 
ATOM     46  C   UNL A   1      39.745  29.673  29.887  1.00  0.00     0.074 A 
ATOM     47  C   UNL A   1      38.791  29.876  28.820  1.00  0.00     0.031 C 
ATOM     48  C   UNL A   1      37.826  33.881  34.353  1.00  0.00     0.029 A 
ATOM     49  C   UNL A   1      38.947  32.949  34.432  1.00  0.00     0.049 A 
ATOM     50  H   UNL A   1      39.612  31.635  32.960  1.00  0.00     0.167 HD
ATOM     51  C   UNL A   1      40.761  28.776  29.846  1.00  0.00     0.037 A 
ATOM     52  C   UNL A   1      39.756  32.789  35.496  1.00  0.00     0.037 A 
ATOM     53  C   UNL A   1      41.727  28.597  30.897  1.00  0.00     0.049 A 
ATOM     54  C   UNL A   1      40.880  31.791  35.421  1.00  0.00     0.074 A 
ATOM     55  C   UNL A   1      42.827  27.757  30.925  1.00  0.00     0.029 A 
ATOM     56  N   UNL A   1      41.707  29.272  32.109  1.00  0.00    -0.354 N 
ATOM     57  N   UNL A   1      41.212  30.993  34.436  1.00  0.00    -0.248 NA
ATOM     58  C   UNL A   1      41.743  31.676  36.605  1.00  0.00     0.031 C 
ATOM     59  C   UNL A   1      43.453  27.899  32.168  1.00  0.00     0.029 A 
ATOM     60  C   UNL A   1      42.767  28.856  32.898  1.00  0.00     0.049 A 
ATOM     61  H   UNL A   1      41.039  29.947  32.368  1.00  0.00     0.167 HD
ATOM     62  C   UNL A   1      42.335  30.302  34.868  1.00  0.00     0.074 A 
ATOM     63  C   UNL A   1      42.636  30.784  36.200  1.00  0.00     0.031 C 
ATOM     64  C   UNL A   1      43.054  29.353  34.220  1.00  0.00     0.037 A 
BRANCH  51  65
ATOM     65  C   UNL A   1      40.882  27.923  28.617  1.00  0.00     0.064 A 
ATOM     66  C   UNL A   1      40.196  26.704  28.499  1.00  0.00     0.173 A 
ATOM     67  C   UNL A   1      41.665  28.344  27.531  1.00  0.00     0.173 A 
ATOM     68  F   UNL A   1      39.445  26.252  29.513  1.00  0.00    -0.203 F 
ATOM     69  C   UNL A   1      40.311  25.926  27.351  1.00  0.00     0.198 A 
ATOM     70  C   UNL A   1      41.755  27.576  26.373  1.00  0.00     0.198 A 
ATOM     71  F   UNL A   1      42.336  29.503  27.590  1.00  0.00    -0.203 F 
ATOM     72  F   UNL A   1      39.684  24.744  27.279  1.00  0.00    -0.200 F 
ATOM     73  C   UNL A   1      41.085  26.365  26.287  1.00  0.00     0.200 A 
ATOM     74  F   UNL A   1      42.494  28.007  25.341  1.00  0.00    -0.200 F 
ATOM     75  F   UNL A   1      41.189  25.616  25.179  1.00  0.00    -0.200 F 
ENDBRANCH  51  65
BRANCH  52  76
ATOM     76  C   UNL A   1      39.550  33.613  36.714  1.00  0.00     0.064 A 
ATOM     77  C   UNL A   1      40.129  34.884  36.827  1.00  0.00     0.173 A 
ATOM     78  C   UNL A   1      38.772  33.151  37.785  1.00  0.00     0.173 A 
ATOM     79  F   UNL A   1      40.898  35.358  35.836  1.00  0.00    -0.203 F 
ATOM     80  C   UNL A   1      39.953  35.656  37.973  1.00  0.00     0.198 A 
ATOM     81  C   UNL A   1      38.575  33.934  38.921  1.00  0.00     0.198 A 
ATOM     82  F   UNL A   1      38.192  31.943  37.723  1.00  0.00    -0.203 F 
ATOM     83  F   UNL A   1      40.551  36.850  38.072  1.00  0.00    -0.200 F 
ATOM     84  C   UNL A   1      39.172  35.183  39.017  1.00  0.00     0.200 A 
ATOM     85  F   UNL A   1      37.809  33.479  39.921  1.00  0.00    -0.200 F 
ATOM     86  F   UNL A   1      38.999  35.928  40.118  1.00  0.00    -0.200 F 
ENDBRANCH  52  76
BRANCH  64  87
ATOM     87  C   UNL A   1      44.253  28.797  34.928  1.00  0.00     0.064 A 
ATOM     88  C   UNL A   1      44.165  27.648  35.727  1.00  0.00     0.173 A 
ATOM     89  C   UNL A   1      45.511  29.397  34.772  1.00  0.00     0.173 A 
ATOM     90  F   UNL A   1      42.981  27.049  35.919  1.00  0.00    -0.203 F 
ATOM     91  C   UNL A   1      45.292  27.132  36.362  1.00  0.00     0.198 A 
ATOM     92  C   UNL A   1      46.640  28.863  35.386  1.00  0.00     0.198 A 
ATOM     93  F   UNL A   1      45.647  30.495  34.013  1.00  0.00    -0.203 F 
ATOM     94  F   UNL A   1      45.179  26.059  37.155  1.00  0.00    -0.200 F 
ATOM     95  C   UNL A   1      46.528  27.736  36.186  1.00  0.00     0.200 A 
ATOM     96  F   UNL A   1      47.836  29.442  35.206  1.00  0.00    -0.200 F 
ATOM     97  F   UNL A   1      47.613  27.234  36.793  1.00  0.00    -0.200 F 
ENDBRANCH  64  87
ENDBRANCH  38  39
ENDBRANCH  30  33
ENDBRANCH  28  29
ENDBRANCH  27  28
ENDBRANCH  26  27
ENDBRANCH   1  26
TORSDOF 16
ENDMDL
