MODEL 1
REMARK VINA RESULT:     -11.1      0.000      0.000
REMARK SMILES CC(C)C[N@@H+](Cc1ccc(C(=O)NCCCCCCNC(=O)c2ccc(-c3c4nc(c(-c5c(F)c(F)c(F)c(F)c5F)c5ccc([nH]5)c(-c5c(F)c(F)c(F)c(F)c5F)c5nc(c(-c6c(F)c(F)c(F)c(F)c6F)c6ccc3[nH]6)C=C5)C=C4)cc2)cn1)C1CC1
REMARK SMILES IDX 15 1 14 2 13 3 11 4 12 5 10 7 7 8 8 9 87 10 9 11 86 12 6 13
REMARK SMILES IDX 5 14 4 16 2 17 1 18 3 19 88 20 89 21 90 22 16 23 17 24 18 25
REMARK SMILES IDX 19 26 20 27 21 28 22 30 23 31 24 32 85 33 25 34 84 35 26 36
REMARK SMILES IDX 27 37 28 38 78 39 29 40 83 41 77 42 79 43 30 44 82 45 76 46
REMARK SMILES IDX 75 47 31 49 63 50 43 51 62 52 44 53 47 54 61 55 80 56 45 57
REMARK SMILES IDX 46 58 60 60 81 61 48 62 32 63 33 64 41 65 34 66 35 67 39 68
REMARK SMILES IDX 42 69 36 70 37 71 40 72 38 73 64 74 65 75 73 76 66 77 67 78
REMARK SMILES IDX 71 79 74 80 68 81 69 82 72 83 70 84 49 85 50 86 58 87 51 88
REMARK SMILES IDX 52 89 56 90 59 91 53 92 54 93 57 94 55 95
REMARK H PARENT 13 6 5 15 20 29 79 48 47 59
REMARK Flexibility Score: inf
ROOT
ATOM      1  C   UNL A   1      35.504  22.006  26.123  1.00  0.00     0.021 C 
ENDROOT
BRANCH   1   2
ATOM      2  C   UNL A   1      34.371  21.503  27.020  1.00  0.00     0.116 C 
BRANCH   2   3
ATOM      3  N   UNL A   1      33.499  20.627  26.267  1.00  0.00    -0.352 N 
ATOM      4  C   UNL A   1      32.345  20.852  25.569  1.00  0.00     0.252 C 
ATOM      5  O   UNL A   1      31.825  19.891  25.002  1.00  0.00    -0.269 OA
ATOM      6  H   UNL A   1      33.794  19.688  26.255  1.00  0.00     0.163 HD
BRANCH   4   7
ATOM      7  C   UNL A   1      31.712  22.182  25.447  1.00  0.00     0.058 A 
ATOM      8  C   UNL A   1      30.593  24.710  25.593  1.00  0.00     0.095 A 
ATOM      9  C   UNL A   1      31.307  24.338  24.453  1.00  0.00     0.030 A 
ATOM     10  N   UNL A   1      30.341  23.832  26.593  1.00  0.00    -0.255 NA
ATOM     11  C   UNL A   1      31.917  23.088  24.410  1.00  0.00     0.017 A 
ATOM     12  C   UNL A   1      30.908  22.602  26.500  1.00  0.00     0.125 A 
BRANCH   8  13
ATOM     13  C   UNL A   1      30.272  26.184  25.822  1.00  0.00     0.319 C 
BRANCH  13  14
ATOM     14  N   UNL A   1      31.018  27.149  24.968  1.00  0.00    -0.327 N 
ATOM     15  H   UNL A   1      31.735  26.569  24.531  1.00  0.00     0.348 HD
BRANCH  14  16
ATOM     16  C   UNL A   1      31.743  28.162  25.755  1.00  0.00     0.265 C 
BRANCH  16  17
ATOM     17  C   UNL A   1      33.290  28.170  25.750  1.00  0.00     0.038 C 
ATOM     18  C   UNL A   1      33.897  28.667  27.065  1.00  0.00     0.013 C 
ATOM     19  C   UNL A   1      33.785  26.733  25.514  1.00  0.00     0.013 C 
ENDBRANCH  16  17
ENDBRANCH  14  16
BRANCH  14  20
ATOM     20  C   UNL A   1      30.357  27.637  23.748  1.00  0.00     0.184 C 
ATOM     21  C   UNL A   1      30.772  28.846  22.955  1.00  0.00     0.071 C 
ATOM     22  C   UNL A   1      30.975  27.474  22.385  1.00  0.00     0.071 C 
ENDBRANCH  14  20
ENDBRANCH  13  14
ENDBRANCH   8  13
ENDBRANCH   4   7
ENDBRANCH   2   3
ENDBRANCH   1   2
BRANCH   1  23
ATOM     23  C   UNL A   1      35.917  20.980  25.058  1.00  0.00     0.002 C 
BRANCH  23  24
ATOM     24  C   UNL A   1      37.387  21.070  24.626  1.00  0.00     0.002 C 
BRANCH  24  25
ATOM     25  C   UNL A   1      38.233  19.851  24.999  1.00  0.00     0.021 C 
BRANCH  25  26
ATOM     26  C   UNL A   1      39.284  20.139  26.064  1.00  0.00     0.116 C 
BRANCH  26  27
ATOM     27  N   UNL A   1      40.346  19.145  26.042  1.00  0.00    -0.352 N 
ATOM     28  C   UNL A   1      41.704  19.336  26.071  1.00  0.00     0.251 C 
ATOM     29  H   UNL A   1      40.050  18.208  25.999  1.00  0.00     0.163 HD
ATOM     30  O   UNL A   1      42.469  18.424  25.784  1.00  0.00    -0.269 OA
BRANCH  28  31
ATOM     31  C   UNL A   1      42.236  20.659  26.453  1.00  0.00     0.039 A 
ATOM     32  C   UNL A   1      42.663  21.535  25.453  1.00  0.00     0.014 A 
ATOM     33  C   UNL A   1      42.317  21.023  27.799  1.00  0.00     0.014 A 
ATOM     34  C   UNL A   1      43.131  22.803  25.804  1.00  0.00     0.010 A 
ATOM     35  C   UNL A   1      42.710  22.310  28.142  1.00  0.00     0.010 A 
ATOM     36  C   UNL A   1      43.132  23.208  27.149  1.00  0.00    -0.014 A 
BRANCH  36  37
ATOM     37  C   UNL A   1      43.596  24.557  27.551  1.00  0.00     0.031 A 
ATOM     38  C   UNL A   1      42.593  25.609  27.931  1.00  0.00     0.074 A 
ATOM     39  C   UNL A   1      44.909  24.855  27.500  1.00  0.00     0.049 A 
ATOM     40  N   UNL A   1      42.779  26.875  28.203  1.00  0.00    -0.248 NA
ATOM     41  C   UNL A   1      41.184  25.186  27.980  1.00  0.00     0.031 C 
ATOM     42  C   UNL A   1      45.972  23.928  27.114  1.00  0.00     0.029 A 
ATOM     43  N   UNL A   1      45.569  26.030  27.760  1.00  0.00    -0.354 N 
ATOM     44  C   UNL A   1      41.515  27.400  28.437  1.00  0.00     0.074 A 
ATOM     45  C   UNL A   1      40.565  26.332  28.219  1.00  0.00     0.031 C 
ATOM     46  C   UNL A   1      47.154  24.563  27.178  1.00  0.00     0.029 A 
ATOM     47  C   UNL A   1      46.926  25.952  27.565  1.00  0.00     0.049 A 
ATOM     48  H   UNL A   1      45.113  26.850  28.058  1.00  0.00     0.167 HD
ATOM     49  C   UNL A   1      41.181  28.655  28.822  1.00  0.00     0.037 A 
ATOM     50  C   UNL A   1      47.876  26.901  27.672  1.00  0.00     0.037 A 
ATOM     51  C   UNL A   1      42.135  29.705  29.057  1.00  0.00     0.049 A 
ATOM     52  C   UNL A   1      47.475  28.293  28.081  1.00  0.00     0.074 A 
ATOM     53  C   UNL A   1      41.907  30.997  29.499  1.00  0.00     0.029 A 
ATOM     54  N   UNL A   1      43.505  29.585  28.866  1.00  0.00    -0.354 N 
ATOM     55  N   UNL A   1      46.283  28.766  28.356  1.00  0.00    -0.248 NA
ATOM     56  C   UNL A   1      48.554  29.284  28.199  1.00  0.00     0.031 C 
ATOM     57  C   UNL A   1      43.130  31.673  29.522  1.00  0.00     0.029 A 
ATOM     58  C   UNL A   1      44.130  30.786  29.158  1.00  0.00     0.049 A 
ATOM     59  H   UNL A   1      43.964  28.767  28.567  1.00  0.00     0.167 HD
ATOM     60  C   UNL A   1      46.473  30.094  28.714  1.00  0.00     0.074 A 
ATOM     61  C   UNL A   1      47.895  30.350  28.631  1.00  0.00     0.031 C 
ATOM     62  C   UNL A   1      45.551  31.019  29.082  1.00  0.00     0.037 A 
BRANCH  49  63
ATOM     63  C   UNL A   1      39.721  28.959  29.007  1.00  0.00     0.064 A 
ATOM     64  C   UNL A   1      38.908  29.357  27.935  1.00  0.00     0.173 A 
ATOM     65  C   UNL A   1      39.121  28.824  30.268  1.00  0.00     0.173 A 
ATOM     66  F   UNL A   1      39.432  29.514  26.711  1.00  0.00    -0.203 F 
ATOM     67  C   UNL A   1      37.558  29.642  28.126  1.00  0.00     0.198 A 
ATOM     68  C   UNL A   1      37.764  29.075  30.448  1.00  0.00     0.198 A 
ATOM     69  F   UNL A   1      39.850  28.441  31.328  1.00  0.00    -0.203 F 
ATOM     70  F   UNL A   1      36.815  30.077  27.099  1.00  0.00    -0.200 F 
ATOM     71  C   UNL A   1      36.985  29.493  29.380  1.00  0.00     0.200 A 
ATOM     72  F   UNL A   1      37.209  28.917  31.658  1.00  0.00    -0.200 F 
ATOM     73  F   UNL A   1      35.685  29.762  29.561  1.00  0.00    -0.200 F 
ENDBRANCH  49  63
BRANCH  50  74
ATOM     74  C   UNL A   1      49.298  26.561  27.407  1.00  0.00     0.064 A 
ATOM     75  C   UNL A   1      50.200  26.367  28.463  1.00  0.00     0.173 A 
ATOM     76  C   UNL A   1      49.788  26.430  26.099  1.00  0.00     0.173 A 
ATOM     77  F   UNL A   1      49.783  26.499  29.731  1.00  0.00    -0.203 F 
ATOM     78  C   UNL A   1      51.541  26.076  28.221  1.00  0.00     0.198 A 
ATOM     79  C   UNL A   1      51.122  26.108  25.860  1.00  0.00     0.198 A 
ATOM     80  F   UNL A   1      48.967  26.599  25.053  1.00  0.00    -0.203 F 
ATOM     81  F   UNL A   1      52.391  25.943  29.249  1.00  0.00    -0.200 F 
ATOM     82  C   UNL A   1      52.000  25.942  26.920  1.00  0.00     0.200 A 
ATOM     83  F   UNL A   1      51.558  25.962  24.600  1.00  0.00    -0.200 F 
ATOM     84  F   UNL A   1      53.288  25.659  26.688  1.00  0.00    -0.200 F 
ENDBRANCH  50  74
BRANCH  62  85
ATOM     85  C   UNL A   1      46.054  32.379  29.473  1.00  0.00     0.064 A 
ATOM     86  C   UNL A   1      46.444  32.676  30.786  1.00  0.00     0.173 A 
ATOM     87  C   UNL A   1      46.187  33.386  28.504  1.00  0.00     0.173 A 
ATOM     88  F   UNL A   1      46.322  31.753  31.752  1.00  0.00    -0.203 F 
ATOM     89  C   UNL A   1      46.927  33.938  31.120  1.00  0.00     0.198 A 
ATOM     90  C   UNL A   1      46.702  34.636  28.835  1.00  0.00     0.198 A 
ATOM     91  F   UNL A   1      45.835  33.151  27.230  1.00  0.00    -0.203 F 
ATOM     92  F   UNL A   1      47.248  34.215  32.392  1.00  0.00    -0.200 F 
ATOM     93  C   UNL A   1      47.064  34.913  30.143  1.00  0.00     0.200 A 
ATOM     94  F   UNL A   1      46.850  35.570  27.886  1.00  0.00    -0.200 F 
ATOM     95  F   UNL A   1      47.539  36.125  30.465  1.00  0.00    -0.200 F 
ENDBRANCH  62  85
ENDBRANCH  36  37
ENDBRANCH  28  31
ENDBRANCH  26  27
ENDBRANCH  25  26
ENDBRANCH  24  25
ENDBRANCH  23  24
ENDBRANCH   1  23
TORSDOF 18
ENDMDL
MODEL 2
REMARK VINA RESULT:     -10.9      0.907      2.378
REMARK SMILES CC(C)C[N@@H+](Cc1ccc(C(=O)NCCCCCCNC(=O)c2ccc(-c3c4nc(c(-c5c(F)c(F)c(F)c(F)c5F)c5ccc([nH]5)c(-c5c(F)c(F)c(F)c(F)c5F)c5nc(c(-c6c(F)c(F)c(F)c(F)c6F)c6ccc3[nH]6)C=C5)C=C4)cc2)cn1)C1CC1
REMARK SMILES IDX 15 1 14 2 13 3 11 4 12 5 10 7 7 8 8 9 87 10 9 11 86 12 6 13
REMARK SMILES IDX 5 14 4 16 2 17 1 18 3 19 88 20 89 21 90 22 16 23 17 24 18 25
REMARK SMILES IDX 19 26 20 27 21 28 22 30 23 31 24 32 85 33 25 34 84 35 26 36
REMARK SMILES IDX 27 37 28 38 78 39 29 40 83 41 77 42 79 43 30 44 82 45 76 46
REMARK SMILES IDX 75 47 31 49 63 50 43 51 62 52 44 53 47 54 61 55 80 56 45 57
REMARK SMILES IDX 46 58 60 60 81 61 48 62 32 63 33 64 41 65 34 66 35 67 39 68
REMARK SMILES IDX 42 69 36 70 37 71 40 72 38 73 64 74 65 75 73 76 66 77 67 78
REMARK SMILES IDX 71 79 74 80 68 81 69 82 72 83 70 84 49 85 50 86 58 87 51 88
REMARK SMILES IDX 52 89 56 90 59 91 53 92 54 93 57 94 55 95
REMARK H PARENT 13 6 5 15 20 29 79 48 47 59
REMARK Flexibility Score: inf
ROOT
ATOM      1  C   UNL A   1      35.575  21.907  26.123  1.00  0.00     0.021 C 
ENDROOT
BRANCH   1   2
ATOM      2  C   UNL A   1      34.359  21.569  26.988  1.00  0.00     0.116 C 
BRANCH   2   3
ATOM      3  N   UNL A   1      33.477  20.675  26.268  1.00  0.00    -0.352 N 
ATOM      4  C   UNL A   1      32.347  20.892  25.528  1.00  0.00     0.252 C 
ATOM      5  O   UNL A   1      31.809  19.915  25.008  1.00  0.00    -0.269 OA
ATOM      6  H   UNL A   1      33.742  19.729  26.321  1.00  0.00     0.163 HD
BRANCH   4   7
ATOM      7  C   UNL A   1      31.760  22.232  25.309  1.00  0.00     0.058 A 
ATOM      8  C   UNL A   1      30.865  24.849  25.205  1.00  0.00     0.095 A 
ATOM      9  C   UNL A   1      31.090  24.151  24.018  1.00  0.00     0.030 A 
ATOM     10  N   UNL A   1      30.974  24.250  26.414  1.00  0.00    -0.255 NA
ATOM     11  C   UNL A   1      31.596  22.855  24.076  1.00  0.00     0.017 A 
ATOM     12  C   UNL A   1      31.422  22.969  26.438  1.00  0.00     0.125 A 
BRANCH   8  13
ATOM     13  C   UNL A   1      30.705  26.366  25.157  1.00  0.00     0.319 C 
BRANCH  13  14
ATOM     14  N   UNL A   1      31.934  27.156  25.443  1.00  0.00    -0.327 N 
ATOM     15  H   UNL A   1      31.744  28.053  24.996  1.00  0.00     0.348 HD
BRANCH  14  16
ATOM     16  C   UNL A   1      33.127  26.614  24.769  1.00  0.00     0.265 C 
BRANCH  16  17
ATOM     17  C   UNL A   1      33.657  27.296  23.486  1.00  0.00     0.038 C 
ATOM     18  C   UNL A   1      33.075  26.702  22.199  1.00  0.00     0.013 C 
ATOM     19  C   UNL A   1      33.275  28.786  23.532  1.00  0.00     0.013 C 
ENDBRANCH  16  17
ENDBRANCH  14  16
BRANCH  14  20
ATOM     20  C   UNL A   1      32.136  27.634  26.819  1.00  0.00     0.184 C 
ATOM     21  C   UNL A   1      33.217  28.580  27.264  1.00  0.00     0.071 C 
ATOM     22  C   UNL A   1      31.790  29.039  27.235  1.00  0.00     0.071 C 
ENDBRANCH  14  20
ENDBRANCH  13  14
ENDBRANCH   8  13
ENDBRANCH   4   7
ENDBRANCH   2   3
ENDBRANCH   1   2
BRANCH   1  23
ATOM     23  C   UNL A   1      35.963  20.766  25.173  1.00  0.00     0.002 C 
BRANCH  23  24
ATOM     24  C   UNL A   1      37.402  20.842  24.644  1.00  0.00     0.002 C 
BRANCH  24  25
ATOM     25  C   UNL A   1      38.281  19.649  25.024  1.00  0.00     0.021 C 
BRANCH  25  26
ATOM     26  C   UNL A   1      39.349  19.982  26.058  1.00  0.00     0.116 C 
BRANCH  26  27
ATOM     27  N   UNL A   1      40.415  18.991  26.055  1.00  0.00    -0.352 N 
ATOM     28  C   UNL A   1      41.772  19.188  26.026  1.00  0.00     0.251 C 
ATOM     29  H   UNL A   1      40.122  18.052  26.074  1.00  0.00     0.163 HD
ATOM     30  O   UNL A   1      42.532  18.263  25.764  1.00  0.00    -0.269 OA
BRANCH  28  31
ATOM     31  C   UNL A   1      42.311  20.531  26.314  1.00  0.00     0.039 A 
ATOM     32  C   UNL A   1      42.833  21.294  25.268  1.00  0.00     0.014 A 
ATOM     33  C   UNL A   1      42.303  21.027  27.620  1.00  0.00     0.014 A 
ATOM     34  C   UNL A   1      43.308  22.581  25.527  1.00  0.00     0.010 A 
ATOM     35  C   UNL A   1      42.705  22.334  27.863  1.00  0.00     0.010 A 
ATOM     36  C   UNL A   1      43.222  23.119  26.821  1.00  0.00    -0.014 A 
BRANCH  36  37
ATOM     37  C   UNL A   1      43.692  24.493  27.123  1.00  0.00     0.031 A 
ATOM     38  C   UNL A   1      42.721  25.517  27.639  1.00  0.00     0.074 A 
ATOM     39  C   UNL A   1      44.967  24.836  26.859  1.00  0.00     0.049 A 
ATOM     40  N   UNL A   1      42.899  26.794  27.857  1.00  0.00    -0.248 NA
ATOM     41  C   UNL A   1      41.355  25.045  27.918  1.00  0.00     0.031 C 
ATOM     42  C   UNL A   1      45.991  23.938  26.324  1.00  0.00     0.029 A 
ATOM     43  N   UNL A   1      45.614  26.039  26.991  1.00  0.00    -0.354 N 
ATOM     44  C   UNL A   1      41.669  27.280  28.280  1.00  0.00     0.074 A 
ATOM     45  C   UNL A   1      40.738  26.174  28.233  1.00  0.00     0.031 C 
ATOM     46  C   UNL A   1      47.142  24.616  26.189  1.00  0.00     0.029 A 
ATOM     47  C   UNL A   1      46.925  26.005  26.584  1.00  0.00     0.049 A 
ATOM     48  H   UNL A   1      45.180  26.849  27.343  1.00  0.00     0.167 HD
ATOM     49  C   UNL A   1      41.351  28.530  28.692  1.00  0.00     0.037 A 
ATOM     50  C   UNL A   1      47.843  26.988  26.524  1.00  0.00     0.037 A 
ATOM     51  C   UNL A   1      42.290  29.619  28.755  1.00  0.00     0.049 A 
ATOM     52  C   UNL A   1      47.459  28.375  26.968  1.00  0.00     0.074 A 
ATOM     53  C   UNL A   1      42.085  30.911  29.206  1.00  0.00     0.029 A 
ATOM     54  N   UNL A   1      43.616  29.543  28.351  1.00  0.00    -0.354 N 
ATOM     55  N   UNL A   1      46.308  28.811  27.421  1.00  0.00    -0.248 NA
ATOM     56  C   UNL A   1      48.504  29.405  26.897  1.00  0.00     0.031 C 
ATOM     57  C   UNL A   1      43.269  31.630  29.024  1.00  0.00     0.029 A 
ATOM     58  C   UNL A   1      44.233  30.771  28.520  1.00  0.00     0.049 A 
ATOM     59  H   UNL A   1      44.053  28.735  27.997  1.00  0.00     0.167 HD
ATOM     60  C   UNL A   1      46.501  30.153  27.722  1.00  0.00     0.074 A 
ATOM     61  C   UNL A   1      47.881  30.456  27.410  1.00  0.00     0.031 C 
ATOM     62  C   UNL A   1      45.614  31.052  28.216  1.00  0.00     0.037 A 
BRANCH  49  63
ATOM     63  C   UNL A   1      39.929  28.787  29.102  1.00  0.00     0.064 A 
ATOM     64  C   UNL A   1      39.498  28.606  30.425  1.00  0.00     0.173 A 
ATOM     65  C   UNL A   1      38.991  29.246  28.166  1.00  0.00     0.173 A 
ATOM     66  F   UNL A   1      40.350  28.157  31.359  1.00  0.00    -0.203 F 
ATOM     67  C   UNL A   1      38.174  28.842  30.787  1.00  0.00     0.198 A 
ATOM     68  C   UNL A   1      37.676  29.515  28.538  1.00  0.00     0.198 A 
ATOM     69  F   UNL A   1      39.349  29.441  26.887  1.00  0.00    -0.203 F 
ATOM     70  F   UNL A   1      37.773  28.607  32.044  1.00  0.00    -0.200 F 
ATOM     71  C   UNL A   1      37.267  29.304  29.846  1.00  0.00     0.200 A 
ATOM     72  F   UNL A   1      36.805  29.975  27.631  1.00  0.00    -0.200 F 
ATOM     73  F   UNL A   1      35.994  29.537  30.197  1.00  0.00    -0.200 F 
ENDBRANCH  49  63
BRANCH  50  74
ATOM     74  C   UNL A   1      49.218  26.693  26.041  1.00  0.00     0.064 A 
ATOM     75  C   UNL A   1      49.584  26.952  24.712  1.00  0.00     0.173 A 
ATOM     76  C   UNL A   1      50.190  26.144  26.890  1.00  0.00     0.173 A 
ATOM     77  F   UNL A   1      48.684  27.460  23.857  1.00  0.00    -0.203 F 
ATOM     78  C   UNL A   1      50.862  26.652  24.246  1.00  0.00     0.198 A 
ATOM     79  C   UNL A   1      51.477  25.874  26.430  1.00  0.00     0.198 A 
ATOM     80  F   UNL A   1      49.894  25.884  28.172  1.00  0.00    -0.203 F 
ATOM     81  F   UNL A   1      51.170  26.864  22.959  1.00  0.00    -0.200 F 
ATOM     82  C   UNL A   1      51.809  26.119  25.106  1.00  0.00     0.200 A 
ATOM     83  F   UNL A   1      52.394  25.374  27.270  1.00  0.00    -0.200 F 
ATOM     84  F   UNL A   1      53.039  25.833  24.659  1.00  0.00    -0.200 F 
ENDBRANCH  50  74
BRANCH  62  85
ATOM     85  C   UNL A   1      46.119  32.438  28.499  1.00  0.00     0.064 A 
ATOM     86  C   UNL A   1      46.045  33.463  27.545  1.00  0.00     0.173 A 
ATOM     87  C   UNL A   1      46.645  32.753  29.762  1.00  0.00     0.173 A 
ATOM     88  F   UNL A   1      45.565  33.210  26.318  1.00  0.00    -0.203 F 
ATOM     89  C   UNL A   1      46.501  34.745  27.837  1.00  0.00     0.198 A 
ATOM     90  C   UNL A   1      47.068  34.045  30.061  1.00  0.00     0.198 A 
ATOM     91  F   UNL A   1      46.731  31.811  30.713  1.00  0.00    -0.203 F 
ATOM     92  F   UNL A   1      46.466  35.697  26.893  1.00  0.00    -0.200 F 
ATOM     93  C   UNL A   1      47.002  35.037  29.096  1.00  0.00     0.200 A 
ATOM     94  F   UNL A   1      47.536  34.328  31.284  1.00  0.00    -0.200 F 
ATOM     95  F   UNL A   1      47.431  36.276  29.378  1.00  0.00    -0.200 F 
ENDBRANCH  62  85
ENDBRANCH  36  37
ENDBRANCH  28  31
ENDBRANCH  26  27
ENDBRANCH  25  26
ENDBRANCH  24  25
ENDBRANCH  23  24
ENDBRANCH   1  23
TORSDOF 18
ENDMDL
MODEL 3
REMARK VINA RESULT:     -10.7      6.422     11.046
REMARK SMILES CC(C)C[N@@H+](Cc1ccc(C(=O)NCCCCCCNC(=O)c2ccc(-c3c4nc(c(-c5c(F)c(F)c(F)c(F)c5F)c5ccc([nH]5)c(-c5c(F)c(F)c(F)c(F)c5F)c5nc(c(-c6c(F)c(F)c(F)c(F)c6F)c6ccc3[nH]6)C=C5)C=C4)cc2)cn1)C1CC1
REMARK SMILES IDX 15 1 14 2 13 3 11 4 12 5 10 7 7 8 8 9 87 10 9 11 86 12 6 13
REMARK SMILES IDX 5 14 4 16 2 17 1 18 3 19 88 20 89 21 90 22 16 23 17 24 18 25
REMARK SMILES IDX 19 26 20 27 21 28 22 30 23 31 24 32 85 33 25 34 84 35 26 36
REMARK SMILES IDX 27 37 28 38 78 39 29 40 83 41 77 42 79 43 30 44 82 45 76 46
REMARK SMILES IDX 75 47 31 49 63 50 43 51 62 52 44 53 47 54 61 55 80 56 45 57
REMARK SMILES IDX 46 58 60 60 81 61 48 62 32 63 33 64 41 65 34 66 35 67 39 68
REMARK SMILES IDX 42 69 36 70 37 71 40 72 38 73 64 74 65 75 73 76 66 77 67 78
REMARK SMILES IDX 71 79 74 80 68 81 69 82 72 83 70 84 49 85 50 86 58 87 51 88
REMARK SMILES IDX 52 89 56 90 59 91 53 92 54 93 57 94 55 95
REMARK H PARENT 13 6 5 15 20 29 79 48 47 59
REMARK Flexibility Score: inf
ROOT
ATOM      1  C   UNL A   1      35.282  31.709  28.117  1.00  0.00     0.021 C 
ENDROOT
BRANCH   1   2
ATOM      2  C   UNL A   1      34.547  30.458  27.630  1.00  0.00     0.116 C 
BRANCH   2   3
ATOM      3  N   UNL A   1      33.321  30.838  26.961  1.00  0.00    -0.352 N 
ATOM      4  C   UNL A   1      32.392  30.119  26.259  1.00  0.00     0.252 C 
ATOM      5  O   UNL A   1      31.421  30.727  25.810  1.00  0.00    -0.269 OA
ATOM      6  H   UNL A   1      33.116  31.798  27.022  1.00  0.00     0.163 HD
BRANCH   4   7
ATOM      7  C   UNL A   1      32.489  28.661  26.035  1.00  0.00     0.058 A 
ATOM      8  C   UNL A   1      32.307  25.914  25.745  1.00  0.00     0.095 A 
ATOM      9  C   UNL A   1      33.041  26.657  24.819  1.00  0.00     0.030 A 
ATOM     10  N   UNL A   1      31.763  26.485  26.845  1.00  0.00    -0.255 NA
ATOM     11  C   UNL A   1      33.079  28.044  24.937  1.00  0.00     0.017 A 
ATOM     12  C   UNL A   1      31.859  27.835  26.960  1.00  0.00     0.125 A 
BRANCH   8  13
ATOM     13  C   UNL A   1      31.925  24.475  25.408  1.00  0.00     0.319 C 
BRANCH  13  14
ATOM     14  N   UNL A   1      32.977  23.451  25.660  1.00  0.00    -0.327 N 
ATOM     15  H   UNL A   1      33.755  24.000  26.027  1.00  0.00     0.348 HD
BRANCH  14  16
ATOM     16  C   UNL A   1      33.473  22.830  24.419  1.00  0.00     0.265 C 
BRANCH  16  17
ATOM     17  C   UNL A   1      32.576  22.816  23.159  1.00  0.00     0.038 C 
ATOM     18  C   UNL A   1      33.279  23.352  21.909  1.00  0.00     0.013 C 
ATOM     19  C   UNL A   1      32.153  21.364  22.877  1.00  0.00     0.013 C 
ENDBRANCH  16  17
ENDBRANCH  14  16
BRANCH  14  20
ATOM     20  C   UNL A   1      32.789  22.543  26.802  1.00  0.00     0.184 C 
ATOM     21  C   UNL A   1      33.653  21.354  27.122  1.00  0.00     0.071 C 
ATOM     22  C   UNL A   1      33.700  22.569  28.001  1.00  0.00     0.071 C 
ENDBRANCH  14  20
ENDBRANCH  13  14
ENDBRANCH   8  13
ENDBRANCH   4   7
ENDBRANCH   2   3
ENDBRANCH   1   2
BRANCH   1  23
ATOM     23  C   UNL A   1      34.410  32.599  29.014  1.00  0.00     0.002 C 
BRANCH  23  24
ATOM     24  C   UNL A   1      34.609  34.105  28.800  1.00  0.00     0.002 C 
BRANCH  24  25
ATOM     25  C   UNL A   1      33.321  34.930  28.855  1.00  0.00     0.021 C 
BRANCH  25  26
ATOM     26  C   UNL A   1      33.488  36.279  29.541  1.00  0.00     0.116 C 
BRANCH  26  27
ATOM     27  N   UNL A   1      32.531  36.444  30.624  1.00  0.00    -0.352 N 
ATOM     28  C   UNL A   1      32.485  35.806  31.836  1.00  0.00     0.251 C 
ATOM     29  H   UNL A   1      31.818  37.104  30.464  1.00  0.00     0.163 HD
ATOM     30  O   UNL A   1      31.478  35.858  32.532  1.00  0.00    -0.269 OA
BRANCH  28  31
ATOM     31  C   UNL A   1      33.665  35.049  32.296  1.00  0.00     0.039 A 
ATOM     32  C   UNL A   1      33.542  33.681  32.549  1.00  0.00     0.014 A 
ATOM     33  C   UNL A   1      34.889  35.698  32.481  1.00  0.00     0.014 A 
ATOM     34  C   UNL A   1      34.664  32.952  32.946  1.00  0.00     0.010 A 
ATOM     35  C   UNL A   1      36.019  34.958  32.802  1.00  0.00     0.010 A 
ATOM     36  C   UNL A   1      35.916  33.580  33.049  1.00  0.00    -0.014 A 
BRANCH  36  37
ATOM     37  C   UNL A   1      37.132  32.827  33.441  1.00  0.00     0.031 A 
ATOM     38  C   UNL A   1      37.824  33.149  34.734  1.00  0.00     0.074 A 
ATOM     39  C   UNL A   1      37.651  31.914  32.599  1.00  0.00     0.049 A 
ATOM     40  N   UNL A   1      38.954  32.691  35.208  1.00  0.00    -0.248 NA
ATOM     41  C   UNL A   1      37.171  34.145  35.600  1.00  0.00     0.031 C 
ATOM     42  C   UNL A   1      37.087  31.542  31.301  1.00  0.00     0.029 A 
ATOM     43  N   UNL A   1      38.782  31.143  32.704  1.00  0.00    -0.354 N 
ATOM     44  C   UNL A   1      39.155  33.354  36.411  1.00  0.00     0.074 A 
ATOM     45  C   UNL A   1      38.061  34.287  36.569  1.00  0.00     0.031 C 
ATOM     46  C   UNL A   1      37.864  30.603  30.738  1.00  0.00     0.029 A 
ATOM     47  C   UNL A   1      39.003  30.340  31.612  1.00  0.00     0.049 A 
ATOM     48  H   UNL A   1      39.378  31.165  33.488  1.00  0.00     0.167 HD
ATOM     49  C   UNL A   1      40.151  33.183  37.313  1.00  0.00     0.037 A 
ATOM     50  C   UNL A   1      40.020  29.499  31.343  1.00  0.00     0.037 A 
ATOM     51  C   UNL A   1      41.224  32.237  37.157  1.00  0.00     0.049 A 
ATOM     52  C   UNL A   1      41.125  29.341  32.353  1.00  0.00     0.074 A 
ATOM     53  C   UNL A   1      42.254  31.947  38.033  1.00  0.00     0.029 A 
ATOM     54  N   UNL A   1      41.406  31.427  36.044  1.00  0.00    -0.354 N 
ATOM     55  N   UNL A   1      41.277  29.930  33.515  1.00  0.00    -0.248 NA
ATOM     56  C   UNL A   1      42.200  28.398  32.016  1.00  0.00     0.031 C 
ATOM     57  C   UNL A   1      43.090  31.003  37.429  1.00  0.00     0.029 A 
ATOM     58  C   UNL A   1      42.546  30.655  36.203  1.00  0.00     0.049 A 
ATOM     59  H   UNL A   1      40.814  31.403  35.258  1.00  0.00     0.167 HD
ATOM     60  C   UNL A   1      42.440  29.403  34.061  1.00  0.00     0.074 A 
ATOM     61  C   UNL A   1      42.948  28.440  33.108  1.00  0.00     0.031 C 
ATOM     62  C   UNL A   1      43.031  29.689  35.248  1.00  0.00     0.037 A 
BRANCH  49  63
ATOM     63  C   UNL A   1      40.127  34.040  38.546  1.00  0.00     0.064 A 
ATOM     64  C   UNL A   1      40.784  35.279  38.597  1.00  0.00     0.173 A 
ATOM     65  C   UNL A   1      39.415  33.631  39.683  1.00  0.00     0.173 A 
ATOM     66  F   UNL A   1      41.490  35.714  37.543  1.00  0.00    -0.203 F 
ATOM     67  C   UNL A   1      40.758  36.058  39.751  1.00  0.00     0.198 A 
ATOM     68  C   UNL A   1      39.361  34.428  40.823  1.00  0.00     0.198 A 
ATOM     69  F   UNL A   1      38.763  32.457  39.689  1.00  0.00    -0.203 F 
ATOM     70  F   UNL A   1      41.441  37.210  39.795  1.00  0.00    -0.200 F 
ATOM     71  C   UNL A   1      40.040  35.636  40.860  1.00  0.00     0.200 A 
ATOM     72  F   UNL A   1      38.655  34.026  41.888  1.00  0.00    -0.200 F 
ATOM     73  F   UNL A   1      40.010  36.391  41.967  1.00  0.00    -0.200 F 
ENDBRANCH  49  63
BRANCH  50  74
ATOM     74  C   UNL A   1      40.029  28.728  30.073  1.00  0.00     0.064 A 
ATOM     75  C   UNL A   1      40.641  29.246  28.922  1.00  0.00     0.173 A 
ATOM     76  C   UNL A   1      39.427  27.465  29.977  1.00  0.00     0.173 A 
ATOM     77  F   UNL A   1      41.215  30.458  28.958  1.00  0.00    -0.203 F 
ATOM     78  C   UNL A   1      40.629  28.541  27.720  1.00  0.00     0.198 A 
ATOM     79  C   UNL A   1      39.443  26.748  28.783  1.00  0.00     0.198 A 
ATOM     80  F   UNL A   1      38.834  26.920  31.050  1.00  0.00    -0.203 F 
ATOM     81  F   UNL A   1      41.178  29.083  26.624  1.00  0.00    -0.200 F 
ATOM     82  C   UNL A   1      40.035  27.291  27.653  1.00  0.00     0.200 A 
ATOM     83  F   UNL A   1      38.883  25.531  28.727  1.00  0.00    -0.200 F 
ATOM     84  F   UNL A   1      40.027  26.612  26.498  1.00  0.00    -0.200 F 
ENDBRANCH  50  74
BRANCH  62  85
ATOM     85  C   UNL A   1      44.267  28.917  35.608  1.00  0.00     0.064 A 
ATOM     86  C   UNL A   1      45.545  29.340  35.217  1.00  0.00     0.173 A 
ATOM     87  C   UNL A   1      44.171  27.759  36.396  1.00  0.00     0.173 A 
ATOM     88  F   UNL A   1      45.690  30.433  34.451  1.00  0.00    -0.203 F 
ATOM     89  C   UNL A   1      46.679  28.619  35.581  1.00  0.00     0.198 A 
ATOM     90  C   UNL A   1      45.310  27.060  36.786  1.00  0.00     0.198 A 
ATOM     91  F   UNL A   1      42.972  27.315  36.803  1.00  0.00    -0.203 F 
ATOM     92  F   UNL A   1      47.887  29.015  35.154  1.00  0.00    -0.200 F 
ATOM     93  C   UNL A   1      46.561  27.486  36.372  1.00  0.00     0.200 A 
ATOM     94  F   UNL A   1      45.194  25.976  37.564  1.00  0.00    -0.200 F 
ATOM     95  F   UNL A   1      47.656  26.800  36.729  1.00  0.00    -0.200 F 
ENDBRANCH  62  85
ENDBRANCH  36  37
ENDBRANCH  28  31
ENDBRANCH  26  27
ENDBRANCH  25  26
ENDBRANCH  24  25
ENDBRANCH  23  24
ENDBRANCH   1  23
TORSDOF 18
ENDMDL
