MODEL 1
REMARK VINA RESULT:     -13.4      0.000      0.000
REMARK SMILES Cc1cc(NC(=O)N2CCO[C@@H](CC(=O)NCCCCCCNC(=O)c3ccc(-c4c5nc(c(-c6c(F)c(F)c(F)c(F)c6F)c6ccc([nH]6)c(-c6c(F)c(F)c(F)c(F)c6F)c6nc(c(-c7c(F)c(F)c(F)c(F)c7F)c7ccc4[nH]7)C=C6)C=C5)cc3)C2)ccc1F
REMARK SMILES IDX 19 1 18 2 17 3 16 4 14 5 15 6 13 8 12 9 8 10 9 11 89 12
REMARK SMILES IDX 10 13 11 14 6 15 5 16 7 18 4 19 1 20 2 21 3 22 92 23 91 24
REMARK SMILES IDX 93 25 90 26 20 27 21 28 22 29 23 30 24 31 25 33 26 34 27 35
REMARK SMILES IDX 88 36 28 37 87 38 29 39 30 40 31 41 81 42 32 43 86 44 80 45
REMARK SMILES IDX 82 46 33 47 85 48 79 49 78 50 34 52 66 53 46 54 65 55 47 56
REMARK SMILES IDX 50 57 64 58 83 59 48 60 49 61 63 63 84 64 51 65 35 66 36 67
REMARK SMILES IDX 44 68 37 69 38 70 42 71 45 72 39 73 40 74 43 75 41 76 67 77
REMARK SMILES IDX 68 78 76 79 69 80 70 81 74 82 77 83 71 84 72 85 75 86 73 87
REMARK SMILES IDX 52 88 53 89 61 90 54 91 55 92 59 93 62 94 56 95 57 96 60 97
REMARK SMILES IDX 58 98
REMARK H PARENT 16 7 5 17 23 32 82 51 50 62
REMARK Flexibility Score: inf
ROOT
ATOM      1  C   UNL A   1      31.607  29.861  25.165  1.00  0.00     0.002 C 
ENDROOT
BRANCH   1   2
ATOM      2  C   UNL A   1      30.674  29.452  24.029  1.00  0.00     0.021 C 
BRANCH   2   3
ATOM      3  C   UNL A   1      30.894  28.018  23.538  1.00  0.00     0.116 C 
BRANCH   3   4
ATOM      4  N   UNL A   1      31.920  27.993  22.515  1.00  0.00    -0.356 N 
ATOM      5  C   UNL A   1      33.228  27.621  22.598  1.00  0.00     0.222 C 
ATOM      6  O   UNL A   1      33.968  27.856  21.643  1.00  0.00    -0.275 OA
ATOM      7  H   UNL A   1      31.628  28.289  21.622  1.00  0.00     0.163 HD
BRANCH   5   8
ATOM      8  C   UNL A   1      33.747  26.933  23.839  1.00  0.00     0.133 C 
BRANCH   8   9
ATOM      9  C   UNL A   1      33.357  25.458  23.932  1.00  0.00     0.147 C 
ATOM     10  N   UNL A   1      32.222  23.771  25.374  1.00  0.00    -0.320 N 
ATOM     11  C   UNL A   1      31.284  23.494  24.283  1.00  0.00     0.150 C 
ATOM     12  C   UNL A   1      32.811  25.092  25.320  1.00  0.00     0.154 C 
ATOM     13  C   UNL A   1      31.903  23.859  22.931  1.00  0.00     0.182 C 
ATOM     14  O   UNL A   1      32.347  25.225  22.924  1.00  0.00    -0.374 OA
BRANCH  10  15
ATOM     15  C   UNL A   1      32.128  23.160  26.603  1.00  0.00     0.322 C 
ATOM     16  N   UNL A   1      32.774  21.977  26.802  1.00  0.00    -0.308 N 
ATOM     17  H   UNL A   1      32.406  21.419  27.525  1.00  0.00     0.171 HD
ATOM     18  O   UNL A   1      31.473  23.647  27.527  1.00  0.00    -0.248 OA
BRANCH  16  19
ATOM     19  C   UNL A   1      33.884  21.428  26.136  1.00  0.00     0.043 A 
ATOM     20  C   UNL A   1      37.584  22.259  25.784  1.00  0.00     0.047 C 
ATOM     21  C   UNL A   1      36.266  21.559  25.673  1.00  0.00    -0.013 A 
ATOM     22  C   UNL A   1      35.102  22.109  26.230  1.00  0.00     0.032 A 
ATOM     23  C   UNL A   1      36.190  20.316  25.041  1.00  0.00     0.126 A 
ATOM     24  C   UNL A   1      34.975  19.671  24.871  1.00  0.00     0.041 A 
ATOM     25  F   UNL A   1      37.303  19.733  24.574  1.00  0.00    -0.207 F 
ATOM     26  C   UNL A   1      33.818  20.252  25.383  1.00  0.00     0.029 A 
ENDBRANCH  16  19
ENDBRANCH  10  15
ENDBRANCH   8   9
ENDBRANCH   5   8
ENDBRANCH   3   4
ENDBRANCH   2   3
ENDBRANCH   1   2
BRANCH   1  27
ATOM     27  C   UNL A   1      31.887  28.752  26.185  1.00  0.00     0.002 C 
BRANCH  27  28
ATOM     28  C   UNL A   1      32.840  29.136  27.328  1.00  0.00     0.021 C 
BRANCH  28  29
ATOM     29  C   UNL A   1      34.268  29.330  26.854  1.00  0.00     0.116 C 
BRANCH  29  30
ATOM     30  N   UNL A   1      34.781  30.628  27.275  1.00  0.00    -0.352 N 
ATOM     31  C   UNL A   1      35.839  30.923  28.094  1.00  0.00     0.251 C 
ATOM     32  H   UNL A   1      34.296  31.407  26.919  1.00  0.00     0.163 HD
ATOM     33  O   UNL A   1      35.933  32.031  28.607  1.00  0.00    -0.269 OA
BRANCH  31  34
ATOM     34  C   UNL A   1      36.895  29.920  28.306  1.00  0.00     0.039 A 
ATOM     35  C   UNL A   1      36.960  29.204  29.512  1.00  0.00     0.014 A 
ATOM     36  C   UNL A   1      37.906  29.805  27.358  1.00  0.00     0.014 A 
ATOM     37  C   UNL A   1      38.067  28.398  29.773  1.00  0.00     0.010 A 
ATOM     38  C   UNL A   1      38.924  28.922  27.551  1.00  0.00     0.010 A 
ATOM     39  C   UNL A   1      39.048  28.297  28.791  1.00  0.00    -0.014 A 
BRANCH  39  40
ATOM     40  C   UNL A   1      40.340  27.666  28.947  1.00  0.00     0.031 A 
ATOM     41  C   UNL A   1      40.525  26.258  28.598  1.00  0.00     0.074 A 
ATOM     42  C   UNL A   1      41.370  28.530  29.074  1.00  0.00     0.049 A 
ATOM     43  N   UNL A   1      41.582  25.590  28.892  1.00  0.00    -0.248 NA
ATOM     44  C   UNL A   1      39.529  25.482  27.869  1.00  0.00     0.031 C 
ATOM     45  C   UNL A   1      42.777  28.336  28.764  1.00  0.00     0.029 A 
ATOM     46  N   UNL A   1      41.312  29.833  29.597  1.00  0.00    -0.354 N 
ATOM     47  C   UNL A   1      41.551  24.426  28.161  1.00  0.00     0.074 A 
ATOM     48  C   UNL A   1      40.211  24.356  27.624  1.00  0.00     0.031 C 
ATOM     49  C   UNL A   1      43.482  29.317  29.354  1.00  0.00     0.029 A 
ATOM     50  C   UNL A   1      42.563  30.058  30.205  1.00  0.00     0.049 A 
ATOM     51  H   UNL A   1      40.554  30.459  29.547  1.00  0.00     0.167 HD
ATOM     52  C   UNL A   1      42.719  23.743  27.986  1.00  0.00     0.037 A 
ATOM     53  C   UNL A   1      42.609  30.100  31.574  1.00  0.00     0.037 A 
ATOM     54  C   UNL A   1      43.824  24.440  28.648  1.00  0.00     0.049 A 
ATOM     55  C   UNL A   1      43.316  28.913  32.193  1.00  0.00     0.074 A 
ATOM     56  C   UNL A   1      44.799  25.328  28.220  1.00  0.00     0.029 A 
ATOM     57  N   UNL A   1      43.804  24.538  30.023  1.00  0.00    -0.354 N 
ATOM     58  N   UNL A   1      43.749  27.889  31.512  1.00  0.00    -0.248 NA
ATOM     59  C   UNL A   1      43.543  28.754  33.628  1.00  0.00     0.031 C 
ATOM     60  C   UNL A   1      45.337  25.981  29.370  1.00  0.00     0.029 A 
ATOM     61  C   UNL A   1      44.696  25.481  30.490  1.00  0.00     0.049 A 
ATOM     62  H   UNL A   1      43.220  23.998  30.605  1.00  0.00     0.167 HD
ATOM     63  C   UNL A   1      44.258  26.949  32.357  1.00  0.00     0.074 A 
ATOM     64  C   UNL A   1      44.114  27.536  33.677  1.00  0.00     0.031 C 
ATOM     65  C   UNL A   1      44.732  25.748  31.918  1.00  0.00     0.037 A 
BRANCH  52  66
ATOM     66  C   UNL A   1      42.929  22.576  27.053  1.00  0.00     0.064 A 
ATOM     67  C   UNL A   1      42.225  21.368  27.257  1.00  0.00     0.173 A 
ATOM     68  C   UNL A   1      43.790  22.576  25.940  1.00  0.00     0.173 A 
ATOM     69  F   UNL A   1      41.309  21.244  28.227  1.00  0.00    -0.203 F 
ATOM     70  C   UNL A   1      42.431  20.234  26.469  1.00  0.00     0.198 A 
ATOM     71  C   UNL A   1      44.030  21.427  25.179  1.00  0.00     0.198 A 
ATOM     72  F   UNL A   1      44.381  23.696  25.512  1.00  0.00    -0.203 F 
ATOM     73  F   UNL A   1      41.728  19.120  26.715  1.00  0.00    -0.200 F 
ATOM     74  C   UNL A   1      43.354  20.254  25.447  1.00  0.00     0.200 A 
ATOM     75  F   UNL A   1      44.917  21.469  24.173  1.00  0.00    -0.200 F 
ATOM     76  F   UNL A   1      43.571  19.158  24.708  1.00  0.00    -0.200 F 
ENDBRANCH  52  66
BRANCH  53  77
ATOM     77  C   UNL A   1      41.407  30.801  32.128  1.00  0.00     0.064 A 
ATOM     78  C   UNL A   1      41.260  32.165  31.804  1.00  0.00     0.173 A 
ATOM     79  C   UNL A   1      40.245  30.089  32.464  1.00  0.00     0.173 A 
ATOM     80  F   UNL A   1      42.341  32.895  31.485  1.00  0.00    -0.203 F 
ATOM     81  C   UNL A   1      40.000  32.742  31.652  1.00  0.00     0.198 A 
ATOM     82  C   UNL A   1      38.984  30.678  32.326  1.00  0.00     0.198 A 
ATOM     83  F   UNL A   1      40.317  28.790  32.787  1.00  0.00    -0.203 F 
ATOM     84  F   UNL A   1      39.892  34.000  31.200  1.00  0.00    -0.200 F 
ATOM     85  C   UNL A   1      38.863  31.986  31.875  1.00  0.00     0.200 A 
ATOM     86  F   UNL A   1      37.880  29.949  32.550  1.00  0.00    -0.200 F 
ATOM     87  F   UNL A   1      37.654  32.506  31.622  1.00  0.00    -0.200 F 
ENDBRANCH  53  77
BRANCH  65  88
ATOM     88  C   UNL A   1      45.277  24.704  32.839  1.00  0.00     0.064 A 
ATOM     89  C   UNL A   1      44.495  23.628  33.277  1.00  0.00     0.173 A 
ATOM     90  C   UNL A   1      46.559  24.830  33.414  1.00  0.00     0.173 A 
ATOM     91  F   UNL A   1      43.248  23.456  32.813  1.00  0.00    -0.203 F 
ATOM     92  C   UNL A   1      44.980  22.717  34.214  1.00  0.00     0.198 A 
ATOM     93  C   UNL A   1      47.014  23.959  34.396  1.00  0.00     0.198 A 
ATOM     94  F   UNL A   1      47.413  25.786  33.020  1.00  0.00    -0.203 F 
ATOM     95  F   UNL A   1      44.227  21.666  34.569  1.00  0.00    -0.200 F 
ATOM     96  C   UNL A   1      46.230  22.892  34.786  1.00  0.00     0.200 A 
ATOM     97  F   UNL A   1      48.216  24.158  34.955  1.00  0.00    -0.200 F 
ATOM     98  F   UNL A   1      46.682  22.030  35.706  1.00  0.00    -0.200 F 
ENDBRANCH  65  88
ENDBRANCH  39  40
ENDBRANCH  31  34
ENDBRANCH  29  30
ENDBRANCH  28  29
ENDBRANCH  27  28
ENDBRANCH   1  27
TORSDOF 16
ENDMDL
MODEL 2
REMARK VINA RESULT:     -13.2      1.012      1.560
REMARK SMILES Cc1cc(NC(=O)N2CCO[C@@H](CC(=O)NCCCCCCNC(=O)c3ccc(-c4c5nc(c(-c6c(F)c(F)c(F)c(F)c6F)c6ccc([nH]6)c(-c6c(F)c(F)c(F)c(F)c6F)c6nc(c(-c7c(F)c(F)c(F)c(F)c7F)c7ccc4[nH]7)C=C6)C=C5)cc3)C2)ccc1F
REMARK SMILES IDX 19 1 18 2 17 3 16 4 14 5 15 6 13 8 12 9 8 10 9 11 89 12
REMARK SMILES IDX 10 13 11 14 6 15 5 16 7 18 4 19 1 20 2 21 3 22 92 23 91 24
REMARK SMILES IDX 93 25 90 26 20 27 21 28 22 29 23 30 24 31 25 33 26 34 27 35
REMARK SMILES IDX 88 36 28 37 87 38 29 39 30 40 31 41 81 42 32 43 86 44 80 45
REMARK SMILES IDX 82 46 33 47 85 48 79 49 78 50 34 52 66 53 46 54 65 55 47 56
REMARK SMILES IDX 50 57 64 58 83 59 48 60 49 61 63 63 84 64 51 65 35 66 36 67
REMARK SMILES IDX 44 68 37 69 38 70 42 71 45 72 39 73 40 74 43 75 41 76 67 77
REMARK SMILES IDX 68 78 76 79 69 80 70 81 74 82 77 83 71 84 72 85 75 86 73 87
REMARK SMILES IDX 52 88 53 89 61 90 54 91 55 92 59 93 62 94 56 95 57 96 60 97
REMARK SMILES IDX 58 98
REMARK H PARENT 16 7 5 17 23 32 82 51 50 62
REMARK Flexibility Score: inf
ROOT
ATOM      1  C   UNL A   1      31.417  29.729  24.994  1.00  0.00     0.002 C 
ENDROOT
BRANCH   1   2
ATOM      2  C   UNL A   1      30.530  29.371  23.805  1.00  0.00     0.021 C 
BRANCH   2   3
ATOM      3  C   UNL A   1      30.798  27.974  23.237  1.00  0.00     0.116 C 
BRANCH   3   4
ATOM      4  N   UNL A   1      31.935  28.011  22.338  1.00  0.00    -0.356 N 
ATOM      5  C   UNL A   1      33.247  27.737  22.578  1.00  0.00     0.222 C 
ATOM      6  O   UNL A   1      34.074  28.012  21.708  1.00  0.00    -0.275 OA
ATOM      7  H   UNL A   1      31.726  28.273  21.411  1.00  0.00     0.163 HD
BRANCH   5   8
ATOM      8  C   UNL A   1      33.668  27.105  23.885  1.00  0.00     0.133 C 
BRANCH   8   9
ATOM      9  C   UNL A   1      33.413  25.600  23.949  1.00  0.00     0.147 C 
ATOM     10  N   UNL A   1      32.285  23.811  25.269  1.00  0.00    -0.320 N 
ATOM     11  C   UNL A   1      31.510  23.445  24.081  1.00  0.00     0.150 C 
ATOM     12  C   UNL A   1      32.746  25.183  25.269  1.00  0.00     0.154 C 
ATOM     13  C   UNL A   1      32.244  23.867  22.805  1.00  0.00     0.182 C 
ATOM     14  O   UNL A   1      32.553  25.270  22.833  1.00  0.00    -0.374 OA
BRANCH  10  15
ATOM     15  C   UNL A   1      32.106  23.195  26.486  1.00  0.00     0.322 C 
ATOM     16  N   UNL A   1      32.662  21.967  26.690  1.00  0.00    -0.308 N 
ATOM     17  H   UNL A   1      32.232  21.429  27.393  1.00  0.00     0.171 HD
ATOM     18  O   UNL A   1      31.457  23.716  27.395  1.00  0.00    -0.248 OA
BRANCH  16  19
ATOM     19  C   UNL A   1      33.753  21.350  26.053  1.00  0.00     0.043 A 
ATOM     20  C   UNL A   1      37.491  21.998  25.726  1.00  0.00     0.047 C 
ATOM     21  C   UNL A   1      36.143  21.358  25.617  1.00  0.00    -0.013 A 
ATOM     22  C   UNL A   1      35.000  21.976  26.144  1.00  0.00     0.032 A 
ATOM     23  C   UNL A   1      36.017  20.102  25.018  1.00  0.00     0.126 A 
ATOM     24  C   UNL A   1      34.775  19.510  24.851  1.00  0.00     0.041 A 
ATOM     25  F   UNL A   1      37.106  19.455  24.582  1.00  0.00    -0.207 F 
ATOM     26  C   UNL A   1      33.640  20.157  25.332  1.00  0.00     0.029 A 
ENDBRANCH  16  19
ENDBRANCH  10  15
ENDBRANCH   8   9
ENDBRANCH   5   8
ENDBRANCH   3   4
ENDBRANCH   2   3
ENDBRANCH   1   2
BRANCH   1  27
ATOM     27  C   UNL A   1      31.458  28.665  26.098  1.00  0.00     0.002 C 
BRANCH  27  28
ATOM     28  C   UNL A   1      32.354  28.999  27.300  1.00  0.00     0.021 C 
BRANCH  28  29
ATOM     29  C   UNL A   1      33.698  29.567  26.884  1.00  0.00     0.116 C 
BRANCH  29  30
ATOM     30  N   UNL A   1      33.952  30.837  27.553  1.00  0.00    -0.352 N 
ATOM     31  C   UNL A   1      34.884  31.148  28.507  1.00  0.00     0.251 C 
ATOM     32  H   UNL A   1      33.368  31.581  27.278  1.00  0.00     0.163 HD
ATOM     33  O   UNL A   1      34.754  32.153  29.195  1.00  0.00    -0.269 OA
BRANCH  31  34
ATOM     34  C   UNL A   1      36.078  30.301  28.660  1.00  0.00     0.039 A 
ATOM     35  C   UNL A   1      36.298  29.595  29.854  1.00  0.00     0.014 A 
ATOM     36  C   UNL A   1      37.050  30.332  27.665  1.00  0.00     0.014 A 
ATOM     37  C   UNL A   1      37.516  28.950  30.056  1.00  0.00     0.010 A 
ATOM     38  C   UNL A   1      38.188  29.597  27.802  1.00  0.00     0.010 A 
ATOM     39  C   UNL A   1      38.455  28.991  29.030  1.00  0.00    -0.014 A 
BRANCH  39  40
ATOM     40  C   UNL A   1      39.828  28.544  29.119  1.00  0.00     0.031 A 
ATOM     41  C   UNL A   1      40.190  27.178  28.746  1.00  0.00     0.074 A 
ATOM     42  C   UNL A   1      40.733  29.542  29.211  1.00  0.00     0.049 A 
ATOM     43  N   UNL A   1      41.342  26.661  28.984  1.00  0.00    -0.248 NA
ATOM     44  C   UNL A   1      39.279  26.275  28.052  1.00  0.00     0.031 C 
ATOM     45  C   UNL A   1      42.138  29.547  28.836  1.00  0.00     0.029 A 
ATOM     46  N   UNL A   1      40.519  30.821  29.751  1.00  0.00    -0.354 N 
ATOM     47  C   UNL A   1      41.439  25.509  28.240  1.00  0.00     0.074 A 
ATOM     48  C   UNL A   1      40.098  25.256  27.763  1.00  0.00     0.031 C 
ATOM     49  C   UNL A   1      42.727  30.613  29.406  1.00  0.00     0.029 A 
ATOM     50  C   UNL A   1      41.754  31.215  30.306  1.00  0.00     0.049 A 
ATOM     51  H   UNL A   1      39.680  31.336  29.743  1.00  0.00     0.167 HD
ATOM     52  C   UNL A   1      42.680  24.995  28.006  1.00  0.00     0.037 A 
ATOM     53  C   UNL A   1      41.856  31.253  31.672  1.00  0.00     0.037 A 
ATOM     54  C   UNL A   1      43.708  25.835  28.626  1.00  0.00     0.049 A 
ATOM     55  C   UNL A   1      42.748  30.173  32.244  1.00  0.00     0.074 A 
ATOM     56  C   UNL A   1      44.529  26.852  28.166  1.00  0.00     0.029 A 
ATOM     57  N   UNL A   1      43.737  25.921  30.001  1.00  0.00    -0.354 N 
ATOM     58  N   UNL A   1      43.287  29.223  31.532  1.00  0.00    -0.248 NA
ATOM     59  C   UNL A   1      43.061  30.038  33.665  1.00  0.00     0.031 C 
ATOM     60  C   UNL A   1      45.024  27.567  29.299  1.00  0.00     0.029 A 
ATOM     61  C   UNL A   1      44.510  26.976  30.439  1.00  0.00     0.049 A 
ATOM     62  H   UNL A   1      43.262  25.302  30.602  1.00  0.00     0.167 HD
ATOM     63  C   UNL A   1      43.960  28.358  32.342  1.00  0.00     0.074 A 
ATOM     64  C   UNL A   1      43.797  28.911  33.675  1.00  0.00     0.031 C 
ATOM     65  C   UNL A   1      44.575  27.237  31.868  1.00  0.00     0.037 A 
BRANCH  52  66
ATOM     66  C   UNL A   1      43.007  23.874  27.050  1.00  0.00     0.064 A 
ATOM     67  C   UNL A   1      42.669  22.542  27.376  1.00  0.00     0.173 A 
ATOM     68  C   UNL A   1      43.636  24.034  25.801  1.00  0.00     0.173 A 
ATOM     69  F   UNL A   1      41.993  22.242  28.493  1.00  0.00    -0.203 F 
ATOM     70  C   UNL A   1      43.008  21.458  26.563  1.00  0.00     0.198 A 
ATOM     71  C   UNL A   1      44.016  22.945  25.009  1.00  0.00     0.198 A 
ATOM     72  F   UNL A   1      43.851  25.245  25.274  1.00  0.00    -0.203 F 
ATOM     73  F   UNL A   1      42.654  20.219  26.930  1.00  0.00    -0.200 F 
ATOM     74  C   UNL A   1      43.707  21.656  25.393  1.00  0.00     0.200 A 
ATOM     75  F   UNL A   1      44.679  23.157  23.862  1.00  0.00    -0.200 F 
ATOM     76  F   UNL A   1      44.057  20.615  24.627  1.00  0.00    -0.200 F 
ENDBRANCH  52  66
BRANCH  53  77
ATOM     77  C   UNL A   1      40.595  31.777  32.288  1.00  0.00     0.064 A 
ATOM     78  C   UNL A   1      40.249  33.112  31.992  1.00  0.00     0.173 A 
ATOM     79  C   UNL A   1      39.558  30.910  32.662  1.00  0.00     0.173 A 
ATOM     80  F   UNL A   1      41.205  33.987  31.638  1.00  0.00    -0.203 F 
ATOM     81  C   UNL A   1      38.916  33.512  31.902  1.00  0.00     0.198 A 
ATOM     82  C   UNL A   1      38.223  31.321  32.587  1.00  0.00     0.198 A 
ATOM     83  F   UNL A   1      39.821  29.629  32.961  1.00  0.00    -0.203 F 
ATOM     84  F   UNL A   1      38.618  34.748  31.476  1.00  0.00    -0.200 F 
ATOM     85  C   UNL A   1      37.904  32.604  32.162  1.00  0.00     0.200 A 
ATOM     86  F   UNL A   1      37.241  30.445  32.846  1.00  0.00    -0.200 F 
ATOM     87  F   UNL A   1      36.625  32.956  31.969  1.00  0.00    -0.200 F 
ENDBRANCH  53  77
BRANCH  65  88
ATOM     88  C   UNL A   1      45.301  26.274  32.750  1.00  0.00     0.064 A 
ATOM     89  C   UNL A   1      46.690  26.112  32.679  1.00  0.00     0.173 A 
ATOM     90  C   UNL A   1      44.604  25.386  33.597  1.00  0.00     0.173 A 
ATOM     91  F   UNL A   1      47.426  26.887  31.868  1.00  0.00    -0.203 F 
ATOM     92  C   UNL A   1      47.345  25.140  33.433  1.00  0.00     0.198 A 
ATOM     93  C   UNL A   1      45.252  24.374  34.296  1.00  0.00     0.198 A 
ATOM     94  F   UNL A   1      43.281  25.492  33.788  1.00  0.00    -0.203 F 
ATOM     95  F   UNL A   1      48.681  25.051  33.385  1.00  0.00    -0.200 F 
ATOM     96  C   UNL A   1      46.625  24.260  34.226  1.00  0.00     0.200 A 
ATOM     97  F   UNL A   1      44.537  23.518  35.039  1.00  0.00    -0.200 F 
ATOM     98  F   UNL A   1      47.255  23.310  34.929  1.00  0.00    -0.200 F 
ENDBRANCH  65  88
ENDBRANCH  39  40
ENDBRANCH  31  34
ENDBRANCH  29  30
ENDBRANCH  28  29
ENDBRANCH  27  28
ENDBRANCH   1  27
TORSDOF 16
ENDMDL
MODEL 3
REMARK VINA RESULT:     -13.0      1.345      1.740
REMARK SMILES Cc1cc(NC(=O)N2CCO[C@@H](CC(=O)NCCCCCCNC(=O)c3ccc(-c4c5nc(c(-c6c(F)c(F)c(F)c(F)c6F)c6ccc([nH]6)c(-c6c(F)c(F)c(F)c(F)c6F)c6nc(c(-c7c(F)c(F)c(F)c(F)c7F)c7ccc4[nH]7)C=C6)C=C5)cc3)C2)ccc1F
REMARK SMILES IDX 19 1 18 2 17 3 16 4 14 5 15 6 13 8 12 9 8 10 9 11 89 12
REMARK SMILES IDX 10 13 11 14 6 15 5 16 7 18 4 19 1 20 2 21 3 22 92 23 91 24
REMARK SMILES IDX 93 25 90 26 20 27 21 28 22 29 23 30 24 31 25 33 26 34 27 35
REMARK SMILES IDX 88 36 28 37 87 38 29 39 30 40 31 41 81 42 32 43 86 44 80 45
REMARK SMILES IDX 82 46 33 47 85 48 79 49 78 50 34 52 66 53 46 54 65 55 47 56
REMARK SMILES IDX 50 57 64 58 83 59 48 60 49 61 63 63 84 64 51 65 35 66 36 67
REMARK SMILES IDX 44 68 37 69 38 70 42 71 45 72 39 73 40 74 43 75 41 76 67 77
REMARK SMILES IDX 68 78 76 79 69 80 70 81 74 82 77 83 71 84 72 85 75 86 73 87
REMARK SMILES IDX 52 88 53 89 61 90 54 91 55 92 59 93 62 94 56 95 57 96 60 97
REMARK SMILES IDX 58 98
REMARK H PARENT 16 7 5 17 23 32 82 51 50 62
REMARK Flexibility Score: inf
ROOT
ATOM      1  C   UNL A   1      31.375  28.154  25.212  1.00  0.00     0.002 C 
ENDROOT
BRANCH   1   2
ATOM      2  C   UNL A   1      31.475  28.625  23.765  1.00  0.00     0.021 C 
BRANCH   2   3
ATOM      3  C   UNL A   1      32.857  28.409  23.142  1.00  0.00     0.116 C 
BRANCH   3   4
ATOM      4  N   UNL A   1      32.779  27.420  22.084  1.00  0.00    -0.356 N 
ATOM      5  C   UNL A   1      33.314  26.169  22.017  1.00  0.00     0.222 C 
ATOM      6  O   UNL A   1      33.276  25.571  20.942  1.00  0.00    -0.275 OA
ATOM      7  H   UNL A   1      32.260  27.694  21.293  1.00  0.00     0.163 HD
BRANCH   5   8
ATOM      8  C   UNL A   1      33.934  25.538  23.242  1.00  0.00     0.133 C 
BRANCH   8   9
ATOM      9  C   UNL A   1      33.109  24.392  23.826  1.00  0.00     0.147 C 
ATOM     10  N   UNL A   1      32.886  22.882  25.797  1.00  0.00    -0.320 N 
ATOM     11  C   UNL A   1      31.525  23.383  26.007  1.00  0.00     0.150 C 
ATOM     12  C   UNL A   1      33.749  23.807  25.094  1.00  0.00     0.154 C 
ATOM     13  C   UNL A   1      30.942  23.926  24.700  1.00  0.00     0.182 C 
ATOM     14  O   UNL A   1      31.801  24.929  24.134  1.00  0.00    -0.374 OA
BRANCH  10  15
ATOM     15  C   UNL A   1      33.477  21.970  26.642  1.00  0.00     0.322 C 
ATOM     16  N   UNL A   1      33.383  20.643  26.345  1.00  0.00    -0.308 N 
ATOM     17  H   UNL A   1      33.489  20.038  27.114  1.00  0.00     0.171 HD
ATOM     18  O   UNL A   1      34.082  22.315  27.658  1.00  0.00    -0.248 OA
BRANCH  16  19
ATOM     19  C   UNL A   1      33.158  20.004  25.114  1.00  0.00     0.043 A 
ATOM     20  C   UNL A   1      33.870  16.580  23.606  1.00  0.00     0.047 C 
ATOM     21  C   UNL A   1      33.372  17.980  23.787  1.00  0.00    -0.013 A 
ATOM     22  C   UNL A   1      33.652  18.705  24.953  1.00  0.00     0.032 A 
ATOM     23  C   UNL A   1      32.579  18.567  22.799  1.00  0.00     0.126 A 
ATOM     24  C   UNL A   1      32.151  19.881  22.912  1.00  0.00     0.041 A 
ATOM     25  F   UNL A   1      32.229  17.864  21.714  1.00  0.00    -0.207 F 
ATOM     26  C   UNL A   1      32.480  20.610  24.052  1.00  0.00     0.029 A 
ENDBRANCH  16  19
ENDBRANCH  10  15
ENDBRANCH   8   9
ENDBRANCH   5   8
ENDBRANCH   3   4
ENDBRANCH   2   3
ENDBRANCH   1   2
BRANCH   1  27
ATOM     27  C   UNL A   1      31.689  29.233  26.254  1.00  0.00     0.002 C 
BRANCH  27  28
ATOM     28  C   UNL A   1      32.849  28.909  27.207  1.00  0.00     0.021 C 
BRANCH  28  29
ATOM     29  C   UNL A   1      34.178  29.444  26.708  1.00  0.00     0.116 C 
BRANCH  29  30
ATOM     30  N   UNL A   1      34.498  30.714  27.347  1.00  0.00    -0.352 N 
ATOM     31  C   UNL A   1      35.420  30.992  28.322  1.00  0.00     0.251 C 
ATOM     32  H   UNL A   1      33.975  31.486  27.032  1.00  0.00     0.163 HD
ATOM     33  O   UNL A   1      35.337  32.024  28.976  1.00  0.00    -0.269 OA
BRANCH  31  34
ATOM     34  C   UNL A   1      36.548  30.072  28.538  1.00  0.00     0.039 A 
ATOM     35  C   UNL A   1      36.630  29.317  29.718  1.00  0.00     0.014 A 
ATOM     36  C   UNL A   1      37.598  30.078  27.626  1.00  0.00     0.014 A 
ATOM     37  C   UNL A   1      37.791  28.595  29.993  1.00  0.00     0.010 A 
ATOM     38  C   UNL A   1      38.679  29.274  27.826  1.00  0.00     0.010 A 
ATOM     39  C   UNL A   1      38.811  28.614  29.047  1.00  0.00    -0.014 A 
BRANCH  39  40
ATOM     40  C   UNL A   1      40.145  28.085  29.229  1.00  0.00     0.031 A 
ATOM     41  C   UNL A   1      40.501  26.770  28.698  1.00  0.00     0.074 A 
ATOM     42  C   UNL A   1      41.067  29.008  29.576  1.00  0.00     0.049 A 
ATOM     43  N   UNL A   1      41.595  26.163  28.989  1.00  0.00    -0.248 NA
ATOM     44  C   UNL A   1      39.651  26.030  27.773  1.00  0.00     0.031 C 
ATOM     45  C   UNL A   1      42.506  28.992  29.374  1.00  0.00     0.029 A 
ATOM     46  N   UNL A   1      40.833  30.204  30.276  1.00  0.00    -0.354 N 
ATOM     47  C   UNL A   1      41.742  25.128  28.097  1.00  0.00     0.074 A 
ATOM     48  C   UNL A   1      40.463  25.021  27.432  1.00  0.00     0.031 C 
ATOM     49  C   UNL A   1      43.058  29.930  30.165  1.00  0.00     0.029 A 
ATOM     50  C   UNL A   1      42.003  30.446  31.025  1.00  0.00     0.049 A 
ATOM     51  H   UNL A   1      40.021  30.761  30.247  1.00  0.00     0.167 HD
ATOM     52  C   UNL A   1      42.984  24.587  27.935  1.00  0.00     0.037 A 
ATOM     53  C   UNL A   1      41.935  30.279  32.383  1.00  0.00     0.037 A 
ATOM     54  C   UNL A   1      43.956  25.271  28.791  1.00  0.00     0.049 A 
ATOM     55  C   UNL A   1      42.710  29.080  32.886  1.00  0.00     0.074 A 
ATOM     56  C   UNL A   1      44.864  26.298  28.591  1.00  0.00     0.029 A 
ATOM     57  N   UNL A   1      43.817  25.154  30.158  1.00  0.00    -0.354 N 
ATOM     58  N   UNL A   1      43.299  28.217  32.107  1.00  0.00    -0.248 NA
ATOM     59  C   UNL A   1      42.838  28.723  34.298  1.00  0.00     0.031 C 
ATOM     60  C   UNL A   1      45.239  26.813  29.869  1.00  0.00     0.029 A 
ATOM     61  C   UNL A   1      44.567  26.090  30.839  1.00  0.00     0.049 A 
ATOM     62  H   UNL A   1      43.248  24.480  30.598  1.00  0.00     0.167 HD
ATOM     63  C   UNL A   1      43.834  27.208  32.851  1.00  0.00     0.074 A 
ATOM     64  C   UNL A   1      43.526  27.568  34.223  1.00  0.00     0.031 C 
ATOM     65  C   UNL A   1      44.462  26.136  32.288  1.00  0.00     0.037 A 
BRANCH  52  66
ATOM     66  C   UNL A   1      43.387  23.602  26.866  1.00  0.00     0.064 A 
ATOM     67  C   UNL A   1      42.935  22.265  26.926  1.00  0.00     0.173 A 
ATOM     68  C   UNL A   1      44.198  23.901  25.755  1.00  0.00     0.173 A 
ATOM     69  F   UNL A   1      42.089  21.851  27.879  1.00  0.00    -0.203 F 
ATOM     70  C   UNL A   1      43.331  21.293  26.004  1.00  0.00     0.198 A 
ATOM     71  C   UNL A   1      44.631  22.918  24.858  1.00  0.00     0.198 A 
ATOM     72  F   UNL A   1      44.550  25.157  25.462  1.00  0.00    -0.203 F 
ATOM     73  F   UNL A   1      42.863  20.043  26.118  1.00  0.00    -0.200 F 
ATOM     74  C   UNL A   1      44.202  21.612  24.986  1.00  0.00     0.200 A 
ATOM     75  F   UNL A   1      45.464  23.250  23.860  1.00  0.00    -0.200 F 
ATOM     76  F   UNL A   1      44.604  20.675  24.118  1.00  0.00    -0.200 F 
ENDBRANCH  52  66
BRANCH  53  77
ATOM     77  C   UNL A   1      40.628  30.776  32.918  1.00  0.00     0.064 A 
ATOM     78  C   UNL A   1      40.357  32.151  32.763  1.00  0.00     0.173 A 
ATOM     79  C   UNL A   1      39.529  29.913  33.058  1.00  0.00     0.173 A 
ATOM     80  F   UNL A   1      41.372  33.021  32.636  1.00  0.00    -0.203 F 
ATOM     81  C   UNL A   1      39.055  32.617  32.580  1.00  0.00     0.198 A 
ATOM     82  C   UNL A   1      38.225  30.389  32.890  1.00  0.00     0.198 A 
ATOM     83  F   UNL A   1      39.718  28.595  33.214  1.00  0.00    -0.203 F 
ATOM     84  F   UNL A   1      38.844  33.908  32.288  1.00  0.00    -0.200 F 
ATOM     85  C   UNL A   1      37.994  31.728  32.604  1.00  0.00     0.200 A 
ATOM     86  F   UNL A   1      37.194  29.531  32.921  1.00  0.00    -0.200 F 
ATOM     87  F   UNL A   1      36.757  32.157  32.318  1.00  0.00    -0.200 F 
ENDBRANCH  53  77
BRANCH  65  88
ATOM     88  C   UNL A   1      45.037  25.016  33.093  1.00  0.00     0.064 A 
ATOM     89  C   UNL A   1      44.223  24.124  33.802  1.00  0.00     0.173 A 
ATOM     90  C   UNL A   1      46.429  24.891  33.287  1.00  0.00     0.173 A 
ATOM     91  F   UNL A   1      42.887  24.199  33.709  1.00  0.00    -0.203 F 
ATOM     92  C   UNL A   1      44.771  23.146  34.630  1.00  0.00     0.198 A 
ATOM     93  C   UNL A   1      46.970  23.959  34.164  1.00  0.00     0.198 A 
ATOM     94  F   UNL A   1      47.302  25.652  32.610  1.00  0.00    -0.203 F 
ATOM     95  F   UNL A   1      43.965  22.272  35.248  1.00  0.00    -0.200 F 
ATOM     96  C   UNL A   1      46.142  23.075  34.825  1.00  0.00     0.200 A 
ATOM     97  F   UNL A   1      48.296  23.921  34.359  1.00  0.00    -0.200 F 
ATOM     98  F   UNL A   1      46.664  22.152  35.643  1.00  0.00    -0.200 F 
ENDBRANCH  65  88
ENDBRANCH  39  40
ENDBRANCH  31  34
ENDBRANCH  29  30
ENDBRANCH  28  29
ENDBRANCH  27  28
ENDBRANCH   1  27
TORSDOF 16
ENDMDL
