MODEL 1
REMARK VINA RESULT:     -11.8      0.000      0.000
REMARK SMILES Cc1n[nH]c(C(F)(F)Cl)c1C(=O)NCCCCCCNC(=O)c1ccc(-c2c3nc(c(-c4c(F)c(F)c(F)c(F)c4F)c4ccc([nH]4)c(-c4c(F)c(F)c(F)c(F)c4F)c4nc(c(-c5c(F)c(F)c(F)c(F)c5F)c5ccc2[nH]5)C=C4)C=C3)cc1
REMARK SMILES IDX 17 1 16 2 15 3 14 4 13 5 11 6 12 7 10 9 1 10 2 11 3 12 4 13
REMARK SMILES IDX 5 14 6 16 7 17 8 18 9 19 18 20 19 21 20 22 21 23 22 25 23 26
REMARK SMILES IDX 24 27 85 28 25 29 84 30 26 31 27 32 28 33 78 34 29 35 83 36
REMARK SMILES IDX 77 37 79 38 30 39 82 40 76 41 75 42 31 44 63 45 43 46 62 47
REMARK SMILES IDX 44 48 47 49 61 50 80 51 45 52 46 53 60 55 81 56 48 57 32 58
REMARK SMILES IDX 33 59 41 60 34 61 35 62 39 63 42 64 36 65 37 66 40 67 38 68
REMARK SMILES IDX 64 69 65 70 73 71 66 72 67 73 71 74 74 75 68 76 69 77 72 78
REMARK SMILES IDX 70 79 49 80 50 81 58 82 51 83 52 84 56 85 59 86 53 87 54 88
REMARK SMILES IDX 57 89 55 90
REMARK H PARENT 13 8 4 15 20 24 79 43 47 54
REMARK Flexibility Score: inf
ROOT
ATOM      1  C   UNL A   1      31.501  30.770  26.006  1.00  0.00     0.002 C 
ENDROOT
BRANCH   1   2
ATOM      2  C   UNL A   1      32.357  29.833  26.861  1.00  0.00     0.002 C 
BRANCH   2   3
ATOM      3  C   UNL A   1      31.655  28.637  27.504  1.00  0.00     0.021 C 
BRANCH   3   4
ATOM      4  C   UNL A   1      31.810  27.278  26.831  1.00  0.00     0.116 C 
BRANCH   4   5
ATOM      5  N   UNL A   1      30.706  26.860  26.000  1.00  0.00    -0.352 N 
ATOM      6  C   UNL A   1      30.466  27.004  24.659  1.00  0.00     0.255 C 
ATOM      7  O   UNL A   1      29.507  26.342  24.226  1.00  0.00    -0.269 OA
ATOM      8  H   UNL A   1      29.994  26.385  26.487  1.00  0.00     0.163 HD
BRANCH   6   9
ATOM      9  C   UNL A   1      31.220  27.878  23.757  1.00  0.00     0.091 A 
ATOM     10  C   UNL A   1      33.727  26.944  23.546  1.00  0.00     0.069 C 
ATOM     11  C   UNL A   1      32.588  27.866  23.298  1.00  0.00     0.072 A 
ATOM     12  N   UNL A   1      32.842  28.861  22.442  1.00  0.00    -0.180 NA
ATOM     13  N   UNL A   1      31.669  29.451  22.262  1.00  0.00    -0.274 N 
ATOM     14  C   UNL A   1      30.656  28.926  23.011  1.00  0.00     0.133 A 
ATOM     15  H   UNL A   1      31.538  30.202  21.640  1.00  0.00     0.190 HD
BRANCH  14  16
ATOM     16  C   UNL A   1      29.331  29.558  22.773  1.00  0.00     0.365 C 
ATOM     17  F   UNL A   1      28.398  28.554  22.721  1.00  0.00    -0.181 F 
ATOM     18  F   UNL A   1      28.977  30.281  23.874  1.00  0.00    -0.181 F 
ATOM     19  Cl  UNL A   1      29.104  30.530  21.332  1.00  0.00    -0.040 Cl
ENDBRANCH  14  16
ENDBRANCH   6   9
ENDBRANCH   4   5
ENDBRANCH   3   4
ENDBRANCH   2   3
ENDBRANCH   1   2
BRANCH   1  20
ATOM     20  C   UNL A   1      31.325  32.202  26.518  1.00  0.00     0.021 C 
BRANCH  20  21
ATOM     21  C   UNL A   1      32.517  32.802  27.254  1.00  0.00     0.116 C 
BRANCH  21  22
ATOM     22  N   UNL A   1      32.315  34.193  27.623  1.00  0.00    -0.352 N 
ATOM     23  C   UNL A   1      32.953  34.944  28.574  1.00  0.00     0.251 C 
ATOM     24  H   UNL A   1      31.615  34.665  27.115  1.00  0.00     0.163 HD
ATOM     25  O   UNL A   1      32.539  36.073  28.851  1.00  0.00    -0.269 OA
BRANCH  23  26
ATOM     26  C   UNL A   1      34.128  34.405  29.292  1.00  0.00     0.039 A 
ATOM     27  C   UNL A   1      33.931  33.749  30.511  1.00  0.00     0.014 A 
ATOM     28  C   UNL A   1      35.420  34.556  28.780  1.00  0.00     0.014 A 
ATOM     29  C   UNL A   1      35.021  33.195  31.185  1.00  0.00     0.010 A 
ATOM     30  C   UNL A   1      36.495  33.941  29.416  1.00  0.00     0.010 A 
ATOM     31  C   UNL A   1      36.308  33.257  30.627  1.00  0.00    -0.014 A 
BRANCH  31  32
ATOM     32  C   UNL A   1      37.469  32.616  31.298  1.00  0.00     0.031 A 
ATOM     33  C   UNL A   1      38.189  31.474  30.636  1.00  0.00     0.074 A 
ATOM     34  C   UNL A   1      37.835  33.023  32.529  1.00  0.00     0.049 A 
ATOM     35  N   UNL A   1      39.176  30.742  31.089  1.00  0.00    -0.248 NA
ATOM     36  C   UNL A   1      37.721  31.085  29.297  1.00  0.00     0.031 C 
ATOM     37  C   UNL A   1      37.187  34.092  33.293  1.00  0.00     0.029 A 
ATOM     38  N   UNL A   1      38.834  32.581  33.360  1.00  0.00    -0.354 N 
ATOM     39  C   UNL A   1      39.435  29.803  30.101  1.00  0.00     0.074 A 
ATOM     40  C   UNL A   1      38.470  30.021  29.045  1.00  0.00     0.031 C 
ATOM     41  C   UNL A   1      37.818  34.235  34.469  1.00  0.00     0.029 A 
ATOM     42  C   UNL A   1      38.886  33.244  34.561  1.00  0.00     0.049 A 
ATOM     43  H   UNL A   1      39.455  31.856  33.117  1.00  0.00     0.167 HD
ATOM     44  C   UNL A   1      40.407  28.860  30.065  1.00  0.00     0.037 A 
ATOM     45  C   UNL A   1      39.697  33.066  35.621  1.00  0.00     0.037 A 
ATOM     46  C   UNL A   1      41.381  28.662  31.107  1.00  0.00     0.049 A 
ATOM     47  C   UNL A   1      40.762  32.002  35.560  1.00  0.00     0.074 A 
ATOM     48  C   UNL A   1      42.440  27.772  31.140  1.00  0.00     0.029 A 
ATOM     49  N   UNL A   1      41.412  29.365  32.302  1.00  0.00    -0.354 N 
ATOM     50  N   UNL A   1      41.041  31.166  34.591  1.00  0.00    -0.248 NA
ATOM     51  C   UNL A   1      41.628  31.864  36.739  1.00  0.00     0.031 C 
ATOM     52  C   UNL A   1      43.081  27.901  32.376  1.00  0.00     0.029 A 
ATOM     53  C   UNL A   1      42.458  28.912  33.090  1.00  0.00     0.049 A 
ATOM     54  H   UNL A   1      40.784  30.081  32.553  1.00  0.00     0.167 HD
ATOM     55  C   UNL A   1      42.132  30.426  35.027  1.00  0.00     0.074 A 
ATOM     56  C   UNL A   1      42.473  30.924  36.343  1.00  0.00     0.031 C 
ATOM     57  C   UNL A   1      42.793  29.427  34.393  1.00  0.00     0.037 A 
BRANCH  44  58
ATOM     58  C   UNL A   1      40.469  27.966  28.859  1.00  0.00     0.064 A 
ATOM     59  C   UNL A   1      41.247  28.295  27.738  1.00  0.00     0.173 A 
ATOM     60  C   UNL A   1      39.779  26.744  28.841  1.00  0.00     0.173 A 
ATOM     61  F   UNL A   1      41.919  29.456  27.699  1.00  0.00    -0.203 F 
ATOM     62  C   UNL A   1      41.311  27.447  26.636  1.00  0.00     0.198 A 
ATOM     63  C   UNL A   1      39.870  25.884  27.749  1.00  0.00     0.198 A 
ATOM     64  F   UNL A   1      39.025  26.377  29.888  1.00  0.00    -0.203 F 
ATOM     65  F   UNL A   1      42.023  27.806  25.558  1.00  0.00    -0.200 F 
ATOM     66  C   UNL A   1      40.630  26.240  26.645  1.00  0.00     0.200 A 
ATOM     67  F   UNL A   1      39.224  24.711  27.766  1.00  0.00    -0.200 F 
ATOM     68  F   UNL A   1      40.701  25.420  25.587  1.00  0.00    -0.200 F 
ENDBRANCH  44  58
BRANCH  45  69
ATOM     69  C   UNL A   1      39.550  33.926  36.826  1.00  0.00     0.064 A 
ATOM     70  C   UNL A   1      40.179  35.177  36.900  1.00  0.00     0.173 A 
ATOM     71  C   UNL A   1      38.792  33.512  37.931  1.00  0.00     0.173 A 
ATOM     72  F   UNL A   1      40.932  35.608  35.877  1.00  0.00    -0.203 F 
ATOM     73  C   UNL A   1      40.078  35.968  38.042  1.00  0.00     0.198 A 
ATOM     74  C   UNL A   1      38.665  34.318  39.060  1.00  0.00     0.198 A 
ATOM     75  F   UNL A   1      38.165  32.326  37.910  1.00  0.00    -0.203 F 
ATOM     76  F   UNL A   1      40.732  37.135  38.106  1.00  0.00    -0.200 F 
ATOM     77  C   UNL A   1      39.316  35.541  39.119  1.00  0.00     0.200 A 
ATOM     78  F   UNL A   1      37.915  33.908  40.093  1.00  0.00    -0.200 F 
ATOM     79  F   UNL A   1      39.218  36.303  40.217  1.00  0.00    -0.200 F 
ENDBRANCH  45  69
BRANCH  57  80
ATOM     80  C   UNL A   1      43.979  28.830  35.096  1.00  0.00     0.064 A 
ATOM     81  C   UNL A   1      45.275  29.336  34.918  1.00  0.00     0.173 A 
ATOM     82  C   UNL A   1      43.807  27.765  35.992  1.00  0.00     0.173 A 
ATOM     83  F   UNL A   1      45.495  30.344  34.060  1.00  0.00    -0.203 F 
ATOM     84  C   UNL A   1      46.359  28.778  35.591  1.00  0.00     0.198 A 
ATOM     85  C   UNL A   1      44.888  27.231  36.688  1.00  0.00     0.198 A 
ATOM     86  F   UNL A   1      42.587  27.248  36.205  1.00  0.00    -0.203 F 
ATOM     87  F   UNL A   1      47.595  29.243  35.366  1.00  0.00    -0.200 F 
ATOM     88  C   UNL A   1      46.163  27.732  36.481  1.00  0.00     0.200 A 
ATOM     89  F   UNL A   1      44.694  26.231  37.560  1.00  0.00    -0.200 F 
ATOM     90  F   UNL A   1      47.207  27.203  37.134  1.00  0.00    -0.200 F 
ENDBRANCH  57  80
ENDBRANCH  31  32
ENDBRANCH  23  26
ENDBRANCH  21  22
ENDBRANCH  20  21
ENDBRANCH   1  20
TORSDOF 14
ENDMDL
MODEL 2
REMARK VINA RESULT:     -11.8      0.377      2.037
REMARK SMILES Cc1n[nH]c(C(F)(F)Cl)c1C(=O)NCCCCCCNC(=O)c1ccc(-c2c3nc(c(-c4c(F)c(F)c(F)c(F)c4F)c4ccc([nH]4)c(-c4c(F)c(F)c(F)c(F)c4F)c4nc(c(-c5c(F)c(F)c(F)c(F)c5F)c5ccc2[nH]5)C=C4)C=C3)cc1
REMARK SMILES IDX 17 1 16 2 15 3 14 4 13 5 11 6 12 7 10 9 1 10 2 11 3 12 4 13
REMARK SMILES IDX 5 14 6 16 7 17 8 18 9 19 18 20 19 21 20 22 21 23 22 25 23 26
REMARK SMILES IDX 24 27 85 28 25 29 84 30 26 31 27 32 28 33 78 34 29 35 83 36
REMARK SMILES IDX 77 37 79 38 30 39 82 40 76 41 75 42 31 44 63 45 43 46 62 47
REMARK SMILES IDX 44 48 47 49 61 50 80 51 45 52 46 53 60 55 81 56 48 57 32 58
REMARK SMILES IDX 33 59 41 60 34 61 35 62 39 63 42 64 36 65 37 66 40 67 38 68
REMARK SMILES IDX 64 69 65 70 73 71 66 72 67 73 71 74 74 75 68 76 69 77 72 78
REMARK SMILES IDX 70 79 49 80 50 81 58 82 51 83 52 84 56 85 59 86 53 87 54 88
REMARK SMILES IDX 57 89 55 90
REMARK H PARENT 13 8 4 15 20 24 79 43 47 54
REMARK Flexibility Score: inf
ROOT
ATOM      1  C   UNL A   1      31.516  30.871  25.898  1.00  0.00     0.002 C 
ENDROOT
BRANCH   1   2
ATOM      2  C   UNL A   1      32.322  29.708  26.480  1.00  0.00     0.002 C 
BRANCH   2   3
ATOM      3  C   UNL A   1      31.552  28.648  27.269  1.00  0.00     0.021 C 
BRANCH   3   4
ATOM      4  C   UNL A   1      31.686  27.196  26.825  1.00  0.00     0.116 C 
BRANCH   4   5
ATOM      5  N   UNL A   1      30.627  26.699  25.978  1.00  0.00    -0.352 N 
ATOM      6  C   UNL A   1      30.382  26.849  24.639  1.00  0.00     0.255 C 
ATOM      7  O   UNL A   1      29.487  26.113  24.187  1.00  0.00    -0.269 OA
ATOM      8  H   UNL A   1      29.959  26.153  26.451  1.00  0.00     0.163 HD
BRANCH   6   9
ATOM      9  C   UNL A   1      31.059  27.805  23.759  1.00  0.00     0.091 A 
ATOM     10  C   UNL A   1      33.611  27.034  23.449  1.00  0.00     0.069 C 
ATOM     11  C   UNL A   1      32.413  27.895  23.268  1.00  0.00     0.072 A 
ATOM     12  N   UNL A   1      32.585  28.939  22.452  1.00  0.00    -0.180 NA
ATOM     13  N   UNL A   1      31.375  29.464  22.325  1.00  0.00    -0.274 N 
ATOM     14  C   UNL A   1      30.415  28.848  23.074  1.00  0.00     0.133 A 
ATOM     15  H   UNL A   1      31.184  30.232  21.741  1.00  0.00     0.190 HD
BRANCH  14  16
ATOM     16  C   UNL A   1      29.048  29.409  22.895  1.00  0.00     0.365 C 
ATOM     17  F   UNL A   1      28.840  29.565  21.548  1.00  0.00    -0.181 F 
ATOM     18  F   UNL A   1      28.129  28.471  23.263  1.00  0.00    -0.181 F 
ATOM     19  Cl  UNL A   1      28.658  30.943  23.645  1.00  0.00    -0.040 Cl
ENDBRANCH  14  16
ENDBRANCH   6   9
ENDBRANCH   4   5
ENDBRANCH   3   4
ENDBRANCH   2   3
ENDBRANCH   1   2
BRANCH   1  20
ATOM     20  C   UNL A   1      31.341  32.103  26.789  1.00  0.00     0.021 C 
BRANCH  20  21
ATOM     21  C   UNL A   1      32.620  32.837  27.177  1.00  0.00     0.116 C 
BRANCH  21  22
ATOM     22  N   UNL A   1      32.383  34.209  27.591  1.00  0.00    -0.352 N 
ATOM     23  C   UNL A   1      32.989  34.937  28.581  1.00  0.00     0.251 C 
ATOM     24  H   UNL A   1      31.685  34.686  27.086  1.00  0.00     0.163 HD
ATOM     25  O   UNL A   1      32.547  36.047  28.890  1.00  0.00    -0.269 OA
BRANCH  23  26
ATOM     26  C   UNL A   1      34.159  34.395  29.303  1.00  0.00     0.039 A 
ATOM     27  C   UNL A   1      33.950  33.675  30.483  1.00  0.00     0.014 A 
ATOM     28  C   UNL A   1      35.459  34.603  28.833  1.00  0.00     0.014 A 
ATOM     29  C   UNL A   1      35.037  33.118  31.159  1.00  0.00     0.010 A 
ATOM     30  C   UNL A   1      36.534  33.986  29.467  1.00  0.00     0.010 A 
ATOM     31  C   UNL A   1      36.335  33.240  30.639  1.00  0.00    -0.014 A 
BRANCH  31  32
ATOM     32  C   UNL A   1      37.496  32.597  31.308  1.00  0.00     0.031 A 
ATOM     33  C   UNL A   1      38.220  31.461  30.641  1.00  0.00     0.074 A 
ATOM     34  C   UNL A   1      37.858  32.997  32.543  1.00  0.00     0.049 A 
ATOM     35  N   UNL A   1      39.207  30.728  31.093  1.00  0.00    -0.248 NA
ATOM     36  C   UNL A   1      37.757  31.079  29.299  1.00  0.00     0.031 C 
ATOM     37  C   UNL A   1      37.206  34.060  33.312  1.00  0.00     0.029 A 
ATOM     38  N   UNL A   1      38.856  32.552  33.373  1.00  0.00    -0.354 N 
ATOM     39  C   UNL A   1      39.472  29.796  30.099  1.00  0.00     0.074 A 
ATOM     40  C   UNL A   1      38.508  30.018  29.042  1.00  0.00     0.031 C 
ATOM     41  C   UNL A   1      37.833  34.197  34.490  1.00  0.00     0.029 A 
ATOM     42  C   UNL A   1      38.903  33.208  34.579  1.00  0.00     0.049 A 
ATOM     43  H   UNL A   1      39.479  31.830  33.128  1.00  0.00     0.167 HD
ATOM     44  C   UNL A   1      40.445  28.855  30.060  1.00  0.00     0.037 A 
ATOM     45  C   UNL A   1      39.712  33.025  35.640  1.00  0.00     0.037 A 
ATOM     46  C   UNL A   1      41.417  28.654  31.103  1.00  0.00     0.049 A 
ATOM     47  C   UNL A   1      40.779  31.965  35.575  1.00  0.00     0.074 A 
ATOM     48  C   UNL A   1      42.479  27.766  31.133  1.00  0.00     0.029 A 
ATOM     49  N   UNL A   1      41.444  29.350  32.302  1.00  0.00    -0.354 N 
ATOM     50  N   UNL A   1      41.063  31.135  34.601  1.00  0.00    -0.248 NA
ATOM     51  C   UNL A   1      41.643  31.821  36.755  1.00  0.00     0.031 C 
ATOM     52  C   UNL A   1      43.116  27.889  32.372  1.00  0.00     0.029 A 
ATOM     53  C   UNL A   1      42.489  28.894  33.090  1.00  0.00     0.049 A 
ATOM     54  H   UNL A   1      40.814  30.062  32.556  1.00  0.00     0.167 HD
ATOM     55  C   UNL A   1      42.155  30.395  35.035  1.00  0.00     0.074 A 
ATOM     56  C   UNL A   1      42.492  30.885  36.355  1.00  0.00     0.031 C 
ATOM     57  C   UNL A   1      42.820  29.401  34.397  1.00  0.00     0.037 A 
BRANCH  44  58
ATOM     58  C   UNL A   1      40.513  27.969  28.848  1.00  0.00     0.064 A 
ATOM     59  C   UNL A   1      39.786  26.771  28.771  1.00  0.00     0.173 A 
ATOM     60  C   UNL A   1      41.277  28.344  27.734  1.00  0.00     0.173 A 
ATOM     61  F   UNL A   1      39.047  26.361  29.813  1.00  0.00    -0.203 F 
ATOM     62  C   UNL A   1      39.843  25.970  27.634  1.00  0.00     0.198 A 
ATOM     63  C   UNL A   1      41.308  27.556  26.586  1.00  0.00     0.198 A 
ATOM     64  F   UNL A   1      41.987  29.482  27.750  1.00  0.00    -0.203 F 
ATOM     65  F   UNL A   1      39.178  24.807  27.602  1.00  0.00    -0.200 F 
ATOM     66  C   UNL A   1      40.596  26.367  26.539  1.00  0.00     0.200 A 
ATOM     67  F   UNL A   1      42.024  27.948  25.523  1.00  0.00    -0.200 F 
ATOM     68  F   UNL A   1      40.642  25.599  25.442  1.00  0.00    -0.200 F 
ENDBRANCH  44  58
BRANCH  45  69
ATOM     69  C   UNL A   1      39.560  33.878  36.849  1.00  0.00     0.064 A 
ATOM     70  C   UNL A   1      38.774  33.458  37.933  1.00  0.00     0.173 A 
ATOM     71  C   UNL A   1      40.182  35.132  36.943  1.00  0.00     0.173 A 
ATOM     72  F   UNL A   1      38.142  32.277  37.883  1.00  0.00    -0.203 F 
ATOM     73  C   UNL A   1      38.595  34.271  39.050  1.00  0.00     0.198 A 
ATOM     74  C   UNL A   1      40.028  35.929  38.074  1.00  0.00     0.198 A 
ATOM     75  F   UNL A   1      40.949  35.578  35.937  1.00  0.00    -0.203 F 
ATOM     76  F   UNL A   1      37.797  33.867  40.048  1.00  0.00    -0.200 F 
ATOM     77  C   UNL A   1      39.227  35.503  39.123  1.00  0.00     0.200 A 
ATOM     78  F   UNL A   1      40.653  37.113  38.147  1.00  0.00    -0.200 F 
ATOM     79  F   UNL A   1      39.056  36.283  40.199  1.00  0.00    -0.200 F 
ENDBRANCH  45  69
BRANCH  57  80
ATOM     80  C   UNL A   1      44.005  28.803  35.099  1.00  0.00     0.064 A 
ATOM     81  C   UNL A   1      43.886  27.677  35.926  1.00  0.00     0.173 A 
ATOM     82  C   UNL A   1      45.287  29.343  34.905  1.00  0.00     0.173 A 
ATOM     83  F   UNL A   1      42.680  27.133  36.155  1.00  0.00    -0.203 F 
ATOM     84  C   UNL A   1      45.000  27.129  36.555  1.00  0.00     0.198 A 
ATOM     85  C   UNL A   1      46.403  28.773  35.510  1.00  0.00     0.198 A 
ATOM     86  F   UNL A   1      45.458  30.416  34.118  1.00  0.00    -0.203 F 
ATOM     87  F   UNL A   1      44.854  26.085  37.381  1.00  0.00    -0.200 F 
ATOM     88  C   UNL A   1      46.259  27.673  36.341  1.00  0.00     0.200 A 
ATOM     89  F   UNL A   1      47.620  29.289  35.287  1.00  0.00    -0.200 F 
ATOM     90  F   UNL A   1      47.331  27.138  36.940  1.00  0.00    -0.200 F 
ENDBRANCH  57  80
ENDBRANCH  31  32
ENDBRANCH  23  26
ENDBRANCH  21  22
ENDBRANCH  20  21
ENDBRANCH   1  20
TORSDOF 14
ENDMDL
MODEL 3
REMARK VINA RESULT:     -11.8      6.579     11.672
REMARK SMILES Cc1n[nH]c(C(F)(F)Cl)c1C(=O)NCCCCCCNC(=O)c1ccc(-c2c3nc(c(-c4c(F)c(F)c(F)c(F)c4F)c4ccc([nH]4)c(-c4c(F)c(F)c(F)c(F)c4F)c4nc(c(-c5c(F)c(F)c(F)c(F)c5F)c5ccc2[nH]5)C=C4)C=C3)cc1
REMARK SMILES IDX 17 1 16 2 15 3 14 4 13 5 11 6 12 7 10 9 1 10 2 11 3 12 4 13
REMARK SMILES IDX 5 14 6 16 7 17 8 18 9 19 18 20 19 21 20 22 21 23 22 25 23 26
REMARK SMILES IDX 24 27 85 28 25 29 84 30 26 31 27 32 28 33 78 34 29 35 83 36
REMARK SMILES IDX 77 37 79 38 30 39 82 40 76 41 75 42 31 44 63 45 43 46 62 47
REMARK SMILES IDX 44 48 47 49 61 50 80 51 45 52 46 53 60 55 81 56 48 57 32 58
REMARK SMILES IDX 33 59 41 60 34 61 35 62 39 63 42 64 36 65 37 66 40 67 38 68
REMARK SMILES IDX 64 69 65 70 73 71 66 72 67 73 71 74 74 75 68 76 69 77 72 78
REMARK SMILES IDX 70 79 49 80 50 81 58 82 51 83 52 84 56 85 59 86 53 87 54 88
REMARK SMILES IDX 57 89 55 90
REMARK H PARENT 13 8 4 15 20 24 79 43 47 54
REMARK Flexibility Score: inf
ROOT
ATOM      1  C   UNL A   1      36.723  20.548  24.998  1.00  0.00     0.002 C 
ENDROOT
BRANCH   1   2
ATOM      2  C   UNL A   1      37.001  22.037  24.781  1.00  0.00     0.002 C 
BRANCH   2   3
ATOM      3  C   UNL A   1      36.529  22.653  23.464  1.00  0.00     0.021 C 
BRANCH   3   4
ATOM      4  C   UNL A   1      35.244  23.472  23.483  1.00  0.00     0.116 C 
BRANCH   4   5
ATOM      5  N   UNL A   1      34.070  22.811  22.965  1.00  0.00    -0.352 N 
ATOM      6  C   UNL A   1      33.126  22.022  23.566  1.00  0.00     0.255 C 
ATOM      7  O   UNL A   1      32.126  21.781  22.868  1.00  0.00    -0.269 OA
ATOM      8  H   UNL A   1      33.922  22.953  22.002  1.00  0.00     0.163 HD
BRANCH   6   9
ATOM      9  C   UNL A   1      33.238  21.447  24.909  1.00  0.00     0.091 A 
ATOM     10  C   UNL A   1      33.182  23.437  26.708  1.00  0.00     0.069 C 
ATOM     11  C   UNL A   1      33.275  22.034  26.226  1.00  0.00     0.072 A 
ATOM     12  N   UNL A   1      33.361  21.110  27.188  1.00  0.00    -0.180 NA
ATOM     13  N   UNL A   1      33.284  19.954  26.546  1.00  0.00    -0.274 N 
ATOM     14  C   UNL A   1      33.212  20.070  25.188  1.00  0.00     0.133 A 
ATOM     15  H   UNL A   1      33.277  19.085  27.007  1.00  0.00     0.190 HD
BRANCH  14  16
ATOM     16  C   UNL A   1      33.078  18.774  24.471  1.00  0.00     0.365 C 
ATOM     17  F   UNL A   1      32.221  18.971  23.418  1.00  0.00    -0.181 F 
ATOM     18  F   UNL A   1      34.267  18.468  23.876  1.00  0.00    -0.181 F 
ATOM     19  Cl  UNL A   1      32.482  17.379  25.350  1.00  0.00    -0.040 Cl
ENDBRANCH  14  16
ENDBRANCH   6   9
ENDBRANCH   4   5
ENDBRANCH   3   4
ENDBRANCH   2   3
ENDBRANCH   1   2
BRANCH   1  20
ATOM     20  C   UNL A   1      37.936  19.615  25.012  1.00  0.00     0.021 C 
BRANCH  20  21
ATOM     21  C   UNL A   1      39.157  20.114  25.776  1.00  0.00     0.116 C 
BRANCH  21  22
ATOM     22  N   UNL A   1      40.192  19.104  25.914  1.00  0.00    -0.352 N 
ATOM     23  C   UNL A   1      41.538  19.259  26.121  1.00  0.00     0.251 C 
ATOM     24  H   UNL A   1      39.882  18.173  25.848  1.00  0.00     0.163 HD
ATOM     25  O   UNL A   1      42.288  18.281  26.058  1.00  0.00    -0.269 OA
BRANCH  23  26
ATOM     26  C   UNL A   1      42.106  20.595  26.397  1.00  0.00     0.039 A 
ATOM     27  C   UNL A   1      42.419  21.431  25.322  1.00  0.00     0.014 A 
ATOM     28  C   UNL A   1      42.347  21.021  27.707  1.00  0.00     0.014 A 
ATOM     29  C   UNL A   1      42.917  22.714  25.561  1.00  0.00     0.010 A 
ATOM     30  C   UNL A   1      42.775  22.324  27.946  1.00  0.00     0.010 A 
ATOM     31  C   UNL A   1      43.068  23.184  26.875  1.00  0.00    -0.014 A 
BRANCH  31  32
ATOM     32  C   UNL A   1      43.534  24.568  27.149  1.00  0.00     0.031 A 
ATOM     33  C   UNL A   1      42.574  25.599  27.673  1.00  0.00     0.074 A 
ATOM     34  C   UNL A   1      44.806  24.910  26.866  1.00  0.00     0.049 A 
ATOM     35  N   UNL A   1      42.772  26.873  27.908  1.00  0.00    -0.248 NA
ATOM     36  C   UNL A   1      41.201  25.147  27.947  1.00  0.00     0.031 C 
ATOM     37  C   UNL A   1      45.820  24.010  26.313  1.00  0.00     0.029 A 
ATOM     38  N   UNL A   1      45.462  26.109  26.996  1.00  0.00    -0.354 N 
ATOM     39  C   UNL A   1      41.551  27.371  28.341  1.00  0.00     0.074 A 
ATOM     40  C   UNL A   1      40.604  26.279  28.287  1.00  0.00     0.031 C 
ATOM     41  C   UNL A   1      46.973  24.683  26.170  1.00  0.00     0.029 A 
ATOM     42  C   UNL A   1      46.771  26.069  26.581  1.00  0.00     0.049 A 
ATOM     43  H   UNL A   1      45.034  26.922  27.351  1.00  0.00     0.167 HD
ATOM     44  C   UNL A   1      41.253  28.622  28.768  1.00  0.00     0.037 A 
ATOM     45  C   UNL A   1      47.700  27.042  26.530  1.00  0.00     0.037 A 
ATOM     46  C   UNL A   1      42.204  29.700  28.843  1.00  0.00     0.049 A 
ATOM     47  C   UNL A   1      47.338  28.427  27.001  1.00  0.00     0.074 A 
ATOM     48  C   UNL A   1      42.015  30.987  29.316  1.00  0.00     0.029 A 
ATOM     49  N   UNL A   1      43.526  29.616  28.431  1.00  0.00    -0.354 N 
ATOM     50  N   UNL A   1      46.199  28.869  27.473  1.00  0.00    -0.248 NA
ATOM     51  C   UNL A   1      48.396  29.445  26.937  1.00  0.00     0.031 C 
ATOM     52  C   UNL A   1      43.208  31.696  29.142  1.00  0.00     0.029 A 
ATOM     53  C   UNL A   1      44.158  30.835  28.616  1.00  0.00     0.049 A 
ATOM     54  H   UNL A   1      43.953  28.809  28.062  1.00  0.00     0.167 HD
ATOM     55  C   UNL A   1      46.410  30.203  27.793  1.00  0.00     0.074 A 
ATOM     56  C   UNL A   1      47.792  30.494  27.475  1.00  0.00     0.031 C 
ATOM     57  C   UNL A   1      45.538  31.106  28.306  1.00  0.00     0.037 A 
BRANCH  44  58
ATOM     58  C   UNL A   1      39.838  28.896  29.192  1.00  0.00     0.064 A 
ATOM     59  C   UNL A   1      38.871  29.350  28.281  1.00  0.00     0.173 A 
ATOM     60  C   UNL A   1      39.432  28.661  30.514  1.00  0.00     0.173 A 
ATOM     61  F   UNL A   1      39.208  29.600  27.007  1.00  0.00    -0.203 F 
ATOM     62  C   UNL A   1      37.558  29.581  28.684  1.00  0.00     0.198 A 
ATOM     63  C   UNL A   1      38.111  28.863  30.907  1.00  0.00     0.198 A 
ATOM     64  F   UNL A   1      40.313  28.222  31.426  1.00  0.00    -0.203 F 
ATOM     65  F   UNL A   1      36.665  30.059  27.807  1.00  0.00    -0.200 F 
ATOM     66  C   UNL A   1      37.178  29.330  29.993  1.00  0.00     0.200 A 
ATOM     67  F   UNL A   1      37.740  28.606  32.169  1.00  0.00    -0.200 F 
ATOM     68  F   UNL A   1      35.912  29.543  30.377  1.00  0.00    -0.200 F 
ENDBRANCH  44  58
BRANCH  45  69
ATOM     69  C   UNL A   1      49.068  26.742  26.032  1.00  0.00     0.064 A 
ATOM     70  C   UNL A   1      50.050  26.225  26.890  1.00  0.00     0.173 A 
ATOM     71  C   UNL A   1      49.428  26.978  24.697  1.00  0.00     0.173 A 
ATOM     72  F   UNL A   1      49.761  26.001  28.180  1.00  0.00    -0.203 F 
ATOM     73  C   UNL A   1      51.345  25.980  26.438  1.00  0.00     0.198 A 
ATOM     74  C   UNL A   1      50.715  26.702  24.239  1.00  0.00     0.198 A 
ATOM     75  F   UNL A   1      48.526  27.466  23.834  1.00  0.00    -0.203 F 
ATOM     76  F   UNL A   1      52.277  25.535  27.291  1.00  0.00    -0.200 F 
ATOM     77  C   UNL A   1      51.675  26.213  25.111  1.00  0.00     0.200 A 
ATOM     78  F   UNL A   1      51.025  26.914  22.952  1.00  0.00    -0.200 F 
ATOM     79  F   UNL A   1      52.921  25.976  24.677  1.00  0.00    -0.200 F 
ENDBRANCH  45  69
BRANCH  57  80
ATOM     80  C   UNL A   1      46.062  32.483  28.596  1.00  0.00     0.064 A 
ATOM     81  C   UNL A   1      46.054  33.497  27.627  1.00  0.00     0.173 A 
ATOM     82  C   UNL A   1      46.540  32.802  29.876  1.00  0.00     0.173 A 
ATOM     83  F   UNL A   1      45.621  33.238  26.383  1.00  0.00    -0.203 F 
ATOM     84  C   UNL A   1      46.531  34.772  27.921  1.00  0.00     0.198 A 
ATOM     85  C   UNL A   1      46.986  34.086  30.176  1.00  0.00     0.198 A 
ATOM     86  F   UNL A   1      46.564  31.871  30.842  1.00  0.00    -0.203 F 
ATOM     87  F   UNL A   1      46.560  35.710  26.965  1.00  0.00    -0.200 F 
ATOM     88  C   UNL A   1      46.988  35.067  29.197  1.00  0.00     0.200 A 
ATOM     89  F   UNL A   1      47.412  34.374  31.414  1.00  0.00    -0.200 F 
ATOM     90  F   UNL A   1      47.438  36.298  29.480  1.00  0.00    -0.200 F 
ENDBRANCH  57  80
ENDBRANCH  31  32
ENDBRANCH  23  26
ENDBRANCH  21  22
ENDBRANCH  20  21
ENDBRANCH   1  20
TORSDOF 14
ENDMDL
