MODEL 1
REMARK VINA RESULT:     -12.5      0.000      0.000
REMARK SMILES Nc1cc(C(=O)NCCCCCCNC(=O)c2ccc(-c3c4nc(c(-c5c(F)c(F)c(F)c(F)c5F)c5ccc([nH]5)c(-c5c(F)c(F)c(F)c(F)c5F)c5nc(c(-c6c(F)c(F)c(F)c(F)c6F)c6ccc3[nH]6)C=C5)C=C4)cc2)nc2ccccc12
REMARK SMILES IDX 11 1 10 2 9 3 8 4 7 5 5 6 6 7 4 9 2 10 3 11 86 12 81 13
REMARK SMILES IDX 85 14 80 15 82 16 84 17 83 18 1 19 12 22 13 23 14 24 15 25
REMARK SMILES IDX 16 27 17 28 18 29 79 30 19 31 78 32 20 33 21 34 22 35 72 36
REMARK SMILES IDX 23 37 77 38 71 39 73 40 24 41 76 42 70 43 69 44 25 46 57 47
REMARK SMILES IDX 37 48 56 49 38 50 41 51 55 52 74 53 39 54 40 55 54 57 75 58
REMARK SMILES IDX 42 59 26 60 27 61 35 62 28 63 29 64 33 65 36 66 30 67 31 68
REMARK SMILES IDX 34 69 32 70 58 71 59 72 67 73 60 74 61 75 65 76 68 77 62 78
REMARK SMILES IDX 63 79 66 80 64 81 43 82 44 83 52 84 45 85 46 86 50 87 53 88
REMARK SMILES IDX 47 89 48 90 51 91 49 92
REMARK H PARENT 7 8 1 20 1 21 14 26 73 45 41 56
REMARK Flexibility Score: inf
ROOT
ATOM      1  C   UNL A   1      31.805  30.594  26.305  1.00  0.00     0.002 C 
ENDROOT
BRANCH   1   2
ATOM      2  C   UNL A   1      33.184  30.049  26.707  1.00  0.00     0.002 C 
BRANCH   2   3
ATOM      3  C   UNL A   1      33.748  28.955  25.788  1.00  0.00     0.021 C 
BRANCH   3   4
ATOM      4  C   UNL A   1      33.335  27.541  26.206  1.00  0.00     0.116 C 
BRANCH   4   5
ATOM      5  N   UNL A   1      33.498  26.627  25.096  1.00  0.00    -0.351 N 
ATOM      6  C   UNL A   1      32.687  26.238  24.055  1.00  0.00     0.269 C 
ATOM      7  O   UNL A   1      33.165  25.379  23.308  1.00  0.00    -0.268 OA
ATOM      8  H   UNL A   1      34.379  26.187  25.084  1.00  0.00     0.163 HD
BRANCH   6   9
ATOM      9  C   UNL A   1      31.318  26.805  23.764  1.00  0.00     0.130 A 
ATOM     10  C   UNL A   1      28.915  26.860  23.824  1.00  0.00     0.043 A 
ATOM     11  C   UNL A   1      30.117  26.185  24.060  1.00  0.00     0.060 A 
ATOM     12  C   UNL A   1      28.946  28.098  23.138  1.00  0.00     0.023 A 
ATOM     13  C   UNL A   1      30.215  28.619  22.811  1.00  0.00     0.073 A 
ATOM     14  C   UNL A   1      27.797  28.835  22.756  1.00  0.00     0.012 A 
ATOM     15  N   UNL A   1      31.358  28.009  23.142  1.00  0.00    -0.242 NA
ATOM     16  C   UNL A   1      30.298  29.812  22.108  1.00  0.00     0.029 A 
ATOM     17  C   UNL A   1      27.905  30.037  22.055  1.00  0.00     0.001 A 
ATOM     18  C   UNL A   1      29.161  30.522  21.722  1.00  0.00     0.002 A 
BRANCH  10  19
ATOM     19  N   UNL A   1      27.719  26.211  24.146  1.00  0.00    -0.398 N 
ATOM     20  H   UNL A   1      27.426  25.430  23.622  1.00  0.00     0.156 HD
ATOM     21  H   UNL A   1      27.170  26.534  24.897  1.00  0.00     0.156 HD
ENDBRANCH  10  19
ENDBRANCH   6   9
ENDBRANCH   4   5
ENDBRANCH   3   4
ENDBRANCH   2   3
ENDBRANCH   1   2
BRANCH   1  22
ATOM     22  C   UNL A   1      31.523  32.032  26.742  1.00  0.00     0.021 C 
BRANCH  22  23
ATOM     23  C   UNL A   1      32.722  32.744  27.356  1.00  0.00     0.116 C 
BRANCH  23  24
ATOM     24  N   UNL A   1      32.441  34.145  27.636  1.00  0.00    -0.352 N 
ATOM     25  C   UNL A   1      33.010  34.965  28.584  1.00  0.00     0.251 C 
ATOM     26  H   UNL A   1      31.751  34.561  27.072  1.00  0.00     0.163 HD
ATOM     27  O   UNL A   1      32.538  36.065  28.832  1.00  0.00    -0.269 OA
BRANCH  25  28
ATOM     28  C   UNL A   1      34.194  34.481  29.324  1.00  0.00     0.039 A 
ATOM     29  C   UNL A   1      35.467  34.607  28.764  1.00  0.00     0.014 A 
ATOM     30  C   UNL A   1      34.021  33.855  30.561  1.00  0.00     0.014 A 
ATOM     31  C   UNL A   1      36.544  33.965  29.362  1.00  0.00     0.010 A 
ATOM     32  C   UNL A   1      35.121  33.276  31.199  1.00  0.00     0.010 A 
ATOM     33  C   UNL A   1      36.382  33.286  30.581  1.00  0.00    -0.014 A 
BRANCH  33  34
ATOM     34  C   UNL A   1      37.545  32.588  31.185  1.00  0.00     0.031 A 
ATOM     35  C   UNL A   1      38.005  32.923  32.578  1.00  0.00     0.074 A 
ATOM     36  C   UNL A   1      38.147  31.602  30.494  1.00  0.00     0.049 A 
ATOM     37  N   UNL A   1      38.994  32.409  33.266  1.00  0.00    -0.248 NA
ATOM     38  C   UNL A   1      37.263  33.972  33.294  1.00  0.00     0.031 C 
ATOM     39  C   UNL A   1      37.773  31.175  29.144  1.00  0.00     0.029 A 
ATOM     40  N   UNL A   1      39.176  30.763  30.835  1.00  0.00    -0.354 N 
ATOM     41  C   UNL A   1      39.003  33.079  34.482  1.00  0.00     0.074 A 
ATOM     42  C   UNL A   1      37.935  34.055  34.434  1.00  0.00     0.031 C 
ATOM     43  C   UNL A   1      38.525  30.121  28.794  1.00  0.00     0.029 A 
ATOM     44  C   UNL A   1      39.474  29.839  29.865  1.00  0.00     0.049 A 
ATOM     45  H   UNL A   1      39.656  30.820  31.693  1.00  0.00     0.167 HD
ATOM     46  C   UNL A   1      39.822  32.888  35.544  1.00  0.00     0.037 A 
ATOM     47  C   UNL A   1      40.414  28.876  29.836  1.00  0.00     0.037 A 
ATOM     48  C   UNL A   1      40.870  31.903  35.594  1.00  0.00     0.049 A 
ATOM     49  C   UNL A   1      41.330  28.712  31.014  1.00  0.00     0.074 A 
ATOM     50  C   UNL A   1      41.753  31.635  36.628  1.00  0.00     0.029 A 
ATOM     51  N   UNL A   1      41.172  31.016  34.572  1.00  0.00    -0.354 N 
ATOM     52  N   UNL A   1      41.337  29.363  32.150  1.00  0.00    -0.248 NA
ATOM     53  C   UNL A   1      42.374  27.685  30.901  1.00  0.00     0.031 C 
ATOM     54  C   UNL A   1      42.610  30.610  36.217  1.00  0.00     0.029 A 
ATOM     55  C   UNL A   1      42.234  30.208  34.945  1.00  0.00     0.049 A 
ATOM     56  H   UNL A   1      40.702  30.969  33.708  1.00  0.00     0.167 HD
ATOM     57  C   UNL A   1      42.375  28.821  32.894  1.00  0.00     0.074 A 
ATOM     58  C   UNL A   1      42.963  27.771  32.087  1.00  0.00     0.031 C 
ATOM     59  C   UNL A   1      42.803  29.165  34.132  1.00  0.00     0.037 A 
BRANCH  46  60
ATOM     60  C   UNL A   1      39.630  33.766  36.746  1.00  0.00     0.064 A 
ATOM     61  C   UNL A   1      40.178  35.055  36.807  1.00  0.00     0.173 A 
ATOM     62  C   UNL A   1      38.820  33.345  37.811  1.00  0.00     0.173 A 
ATOM     63  F   UNL A   1      40.971  35.500  35.819  1.00  0.00    -0.203 F 
ATOM     64  C   UNL A   1      39.930  35.888  37.895  1.00  0.00     0.198 A 
ATOM     65  C   UNL A   1      38.554  34.189  38.887  1.00  0.00     0.198 A 
ATOM     66  F   UNL A   1      38.268  32.123  37.798  1.00  0.00    -0.203 F 
ATOM     67  F   UNL A   1      40.485  37.107  37.944  1.00  0.00    -0.200 F 
ATOM     68  C   UNL A   1      39.111  35.459  38.929  1.00  0.00     0.200 A 
ATOM     69  F   UNL A   1      37.754  33.776  39.879  1.00  0.00    -0.200 F 
ATOM     70  F   UNL A   1      38.859  36.268  39.967  1.00  0.00    -0.200 F 
ENDBRANCH  46  60
BRANCH  47  71
ATOM     71  C   UNL A   1      40.521  27.995  28.647  1.00  0.00     0.064 A 
ATOM     72  C   UNL A   1      39.842  26.770  28.596  1.00  0.00     0.173 A 
ATOM     73  C   UNL A   1      41.274  28.373  27.525  1.00  0.00     0.173 A 
ATOM     74  F   UNL A   1      39.125  26.359  29.652  1.00  0.00    -0.203 F 
ATOM     75  C   UNL A   1      39.912  25.956  27.468  1.00  0.00     0.198 A 
ATOM     76  C   UNL A   1      41.322  27.571  26.388  1.00  0.00     0.198 A 
ATOM     77  F   UNL A   1      41.939  29.537  27.524  1.00  0.00    -0.203 F 
ATOM     78  F   UNL A   1      39.274  24.777  27.454  1.00  0.00    -0.200 F 
ATOM     79  C   UNL A   1      40.644  26.362  26.362  1.00  0.00     0.200 A 
ATOM     80  F   UNL A   1      42.015  27.974  25.315  1.00  0.00    -0.200 F 
ATOM     81  F   UNL A   1      40.698  25.585  25.270  1.00  0.00    -0.200 F 
ENDBRANCH  47  71
BRANCH  59  82
ATOM     82  C   UNL A   1      43.951  28.387  34.703  1.00  0.00     0.064 A 
ATOM     83  C   UNL A   1      45.275  28.822  34.557  1.00  0.00     0.173 A 
ATOM     84  C   UNL A   1      43.716  27.222  35.449  1.00  0.00     0.173 A 
ATOM     85  F   UNL A   1      45.549  29.923  33.840  1.00  0.00    -0.203 F 
ATOM     86  C   UNL A   1      46.327  28.110  35.124  1.00  0.00     0.198 A 
ATOM     87  C   UNL A   1      44.769  26.526  36.036  1.00  0.00     0.198 A 
ATOM     88  F   UNL A   1      42.466  26.770  35.622  1.00  0.00    -0.203 F 
ATOM     89  F   UNL A   1      47.589  28.523  34.943  1.00  0.00    -0.200 F 
ATOM     90  C   UNL A   1      46.073  26.967  35.869  1.00  0.00     0.200 A 
ATOM     91  F   UNL A   1      44.521  25.429  36.765  1.00  0.00    -0.200 F 
ATOM     92  F   UNL A   1      47.087  26.288  36.422  1.00  0.00    -0.200 F 
ENDBRANCH  59  82
ENDBRANCH  33  34
ENDBRANCH  25  28
ENDBRANCH  23  24
ENDBRANCH  22  23
ENDBRANCH   1  22
TORSDOF 14
ENDMDL
MODEL 2
REMARK VINA RESULT:     -12.5      0.274      1.178
REMARK SMILES Nc1cc(C(=O)NCCCCCCNC(=O)c2ccc(-c3c4nc(c(-c5c(F)c(F)c(F)c(F)c5F)c5ccc([nH]5)c(-c5c(F)c(F)c(F)c(F)c5F)c5nc(c(-c6c(F)c(F)c(F)c(F)c6F)c6ccc3[nH]6)C=C5)C=C4)cc2)nc2ccccc12
REMARK SMILES IDX 11 1 10 2 9 3 8 4 7 5 5 6 6 7 4 9 2 10 3 11 86 12 81 13
REMARK SMILES IDX 85 14 80 15 82 16 84 17 83 18 1 19 12 22 13 23 14 24 15 25
REMARK SMILES IDX 16 27 17 28 18 29 79 30 19 31 78 32 20 33 21 34 22 35 72 36
REMARK SMILES IDX 23 37 77 38 71 39 73 40 24 41 76 42 70 43 69 44 25 46 57 47
REMARK SMILES IDX 37 48 56 49 38 50 41 51 55 52 74 53 39 54 40 55 54 57 75 58
REMARK SMILES IDX 42 59 26 60 27 61 35 62 28 63 29 64 33 65 36 66 30 67 31 68
REMARK SMILES IDX 34 69 32 70 58 71 59 72 67 73 60 74 61 75 65 76 68 77 62 78
REMARK SMILES IDX 63 79 66 80 64 81 43 82 44 83 52 84 45 85 46 86 50 87 53 88
REMARK SMILES IDX 47 89 48 90 51 91 49 92
REMARK H PARENT 7 8 1 20 1 21 14 26 73 45 41 56
REMARK Flexibility Score: inf
ROOT
ATOM      1  C   UNL A   1      31.771  30.688  26.054  1.00  0.00     0.002 C 
ENDROOT
BRANCH   1   2
ATOM      2  C   UNL A   1      31.903  29.410  26.896  1.00  0.00     0.002 C 
BRANCH   2   3
ATOM      3  C   UNL A   1      33.213  28.632  26.703  1.00  0.00     0.021 C 
BRANCH   3   4
ATOM      4  C   UNL A   1      33.007  27.120  26.574  1.00  0.00     0.116 C 
BRANCH   4   5
ATOM      5  N   UNL A   1      33.430  26.669  25.266  1.00  0.00    -0.351 N 
ATOM      6  C   UNL A   1      32.805  26.574  24.044  1.00  0.00     0.269 C 
ATOM      7  O   UNL A   1      33.490  26.086  23.139  1.00  0.00    -0.268 OA
ATOM      8  H   UNL A   1      34.365  26.364  25.246  1.00  0.00     0.163 HD
BRANCH   6   9
ATOM      9  C   UNL A   1      31.402  27.048  23.747  1.00  0.00     0.130 A 
ATOM     10  C   UNL A   1      29.001  26.946  23.808  1.00  0.00     0.043 A 
ATOM     11  C   UNL A   1      30.244  26.353  24.050  1.00  0.00     0.060 A 
ATOM     12  C   UNL A   1      28.951  28.177  23.110  1.00  0.00     0.023 A 
ATOM     13  C   UNL A   1      30.183  28.777  22.778  1.00  0.00     0.073 A 
ATOM     14  C   UNL A   1      27.756  28.834  22.722  1.00  0.00     0.012 A 
ATOM     15  N   UNL A   1      31.364  28.246  23.114  1.00  0.00    -0.242 NA
ATOM     16  C   UNL A   1      30.188  29.966  22.064  1.00  0.00     0.029 A 
ATOM     17  C   UNL A   1      27.786  30.033  22.010  1.00  0.00     0.001 A 
ATOM     18  C   UNL A   1      29.007  30.597  21.672  1.00  0.00     0.002 A 
BRANCH  10  19
ATOM     19  N   UNL A   1      27.850  26.223  24.136  1.00  0.00    -0.398 N 
ATOM     20  H   UNL A   1      27.274  26.524  24.876  1.00  0.00     0.156 HD
ATOM     21  H   UNL A   1      27.615  25.413  23.628  1.00  0.00     0.156 HD
ENDBRANCH  10  19
ENDBRANCH   6   9
ENDBRANCH   4   5
ENDBRANCH   3   4
ENDBRANCH   2   3
ENDBRANCH   1   2
BRANCH   1  22
ATOM     22  C   UNL A   1      31.469  31.960  26.847  1.00  0.00     0.021 C 
BRANCH  22  23
ATOM     23  C   UNL A   1      32.709  32.721  27.300  1.00  0.00     0.116 C 
BRANCH  23  24
ATOM     24  N   UNL A   1      32.414  34.113  27.607  1.00  0.00    -0.352 N 
ATOM     25  C   UNL A   1      32.977  34.923  28.566  1.00  0.00     0.251 C 
ATOM     26  H   UNL A   1      31.717  34.532  27.052  1.00  0.00     0.163 HD
ATOM     27  O   UNL A   1      32.494  36.013  28.835  1.00  0.00    -0.269 OA
BRANCH  25  28
ATOM     28  C   UNL A   1      34.168  34.439  29.295  1.00  0.00     0.039 A 
ATOM     29  C   UNL A   1      35.440  34.608  28.744  1.00  0.00     0.014 A 
ATOM     30  C   UNL A   1      34.004  33.771  30.510  1.00  0.00     0.014 A 
ATOM     31  C   UNL A   1      36.528  33.968  29.325  1.00  0.00     0.010 A 
ATOM     32  C   UNL A   1      35.113  33.192  31.134  1.00  0.00     0.010 A 
ATOM     33  C   UNL A   1      36.375  33.247  30.521  1.00  0.00    -0.014 A 
BRANCH  33  34
ATOM     34  C   UNL A   1      37.550  32.553  31.106  1.00  0.00     0.031 A 
ATOM     35  C   UNL A   1      38.030  32.887  32.492  1.00  0.00     0.074 A 
ATOM     36  C   UNL A   1      38.146  31.572  30.404  1.00  0.00     0.049 A 
ATOM     37  N   UNL A   1      39.030  32.376  33.165  1.00  0.00    -0.248 NA
ATOM     38  C   UNL A   1      37.293  33.931  33.222  1.00  0.00     0.031 C 
ATOM     39  C   UNL A   1      37.755  31.146  29.059  1.00  0.00     0.029 A 
ATOM     40  N   UNL A   1      39.184  30.737  30.728  1.00  0.00    -0.354 N 
ATOM     41  C   UNL A   1      39.054  33.043  34.383  1.00  0.00     0.074 A 
ATOM     42  C   UNL A   1      37.981  34.014  34.352  1.00  0.00     0.031 C 
ATOM     43  C   UNL A   1      38.506  30.096  28.695  1.00  0.00     0.029 A 
ATOM     44  C   UNL A   1      39.472  29.816  29.751  1.00  0.00     0.049 A 
ATOM     45  H   UNL A   1      39.677  30.793  31.579  1.00  0.00     0.167 HD
ATOM     46  C   UNL A   1      39.890  32.854  35.431  1.00  0.00     0.037 A 
ATOM     47  C   UNL A   1      40.416  28.857  29.706  1.00  0.00     0.037 A 
ATOM     48  C   UNL A   1      40.943  31.873  35.465  1.00  0.00     0.049 A 
ATOM     49  C   UNL A   1      41.350  28.695  30.871  1.00  0.00     0.074 A 
ATOM     50  C   UNL A   1      41.842  31.607  36.484  1.00  0.00     0.029 A 
ATOM     51  N   UNL A   1      41.233  30.990  34.435  1.00  0.00    -0.354 N 
ATOM     52  N   UNL A   1      41.371  29.344  32.008  1.00  0.00    -0.248 NA
ATOM     53  C   UNL A   1      42.397  27.673  30.740  1.00  0.00     0.031 C 
ATOM     54  C   UNL A   1      42.697  30.587  36.059  1.00  0.00     0.029 A 
ATOM     55  C   UNL A   1      42.304  30.186  34.792  1.00  0.00     0.049 A 
ATOM     56  H   UNL A   1      40.751  30.942  33.578  1.00  0.00     0.167 HD
ATOM     57  C   UNL A   1      42.421  28.804  32.735  1.00  0.00     0.074 A 
ATOM     58  C   UNL A   1      43.003  27.759  31.918  1.00  0.00     0.031 C 
ATOM     59  C   UNL A   1      42.867  29.147  33.968  1.00  0.00     0.037 A 
BRANCH  46  60
ATOM     60  C   UNL A   1      39.711  33.728  36.638  1.00  0.00     0.064 A 
ATOM     61  C   UNL A   1      40.301  34.998  36.717  1.00  0.00     0.173 A 
ATOM     62  C   UNL A   1      38.874  33.326  37.689  1.00  0.00     0.173 A 
ATOM     63  F   UNL A   1      41.121  35.424  35.743  1.00  0.00    -0.203 F 
ATOM     64  C   UNL A   1      40.066  35.829  37.809  1.00  0.00     0.198 A 
ATOM     65  C   UNL A   1      38.622  34.170  38.769  1.00  0.00     0.198 A 
ATOM     66  F   UNL A   1      38.281  32.123  37.660  1.00  0.00    -0.203 F 
ATOM     67  F   UNL A   1      40.661  37.029  37.875  1.00  0.00    -0.200 F 
ATOM     68  C   UNL A   1      39.220  35.420  38.829  1.00  0.00     0.200 A 
ATOM     69  F   UNL A   1      37.795  33.776  39.747  1.00  0.00    -0.200 F 
ATOM     70  F   UNL A   1      38.982  36.229  39.870  1.00  0.00    -0.200 F 
ENDBRANCH  46  60
BRANCH  47  71
ATOM     71  C   UNL A   1      40.510  27.979  28.514  1.00  0.00     0.064 A 
ATOM     72  C   UNL A   1      41.269  28.358  27.399  1.00  0.00     0.173 A 
ATOM     73  C   UNL A   1      39.872  26.729  28.478  1.00  0.00     0.173 A 
ATOM     74  F   UNL A   1      41.881  29.551  27.381  1.00  0.00    -0.203 F 
ATOM     75  C   UNL A   1      41.387  27.521  26.292  1.00  0.00     0.198 A 
ATOM     76  C   UNL A   1      40.013  25.882  27.382  1.00  0.00     0.198 A 
ATOM     77  F   UNL A   1      39.137  26.320  29.522  1.00  0.00    -0.203 F 
ATOM     78  F   UNL A   1      42.098  27.918  25.227  1.00  0.00    -0.200 F 
ATOM     79  C   UNL A   1      40.767  26.281  26.289  1.00  0.00     0.200 A 
ATOM     80  F   UNL A   1      39.427  24.677  27.389  1.00  0.00    -0.200 F 
ATOM     81  F   UNL A   1      40.895  25.469  25.229  1.00  0.00    -0.200 F 
ENDBRANCH  47  71
BRANCH  59  82
ATOM     82  C   UNL A   1      44.026  28.373  34.520  1.00  0.00     0.064 A 
ATOM     83  C   UNL A   1      45.345  28.819  34.362  1.00  0.00     0.173 A 
ATOM     84  C   UNL A   1      43.808  27.202  35.260  1.00  0.00     0.173 A 
ATOM     85  F   UNL A   1      45.603  29.927  33.651  1.00  0.00    -0.203 F 
ATOM     86  C   UNL A   1      46.408  28.110  34.913  1.00  0.00     0.198 A 
ATOM     87  C   UNL A   1      44.872  26.508  35.830  1.00  0.00     0.198 A 
ATOM     88  F   UNL A   1      42.562  26.739  35.444  1.00  0.00    -0.203 F 
ATOM     89  F   UNL A   1      47.666  28.534  34.720  1.00  0.00    -0.200 F 
ATOM     90  C   UNL A   1      46.170  26.960  35.652  1.00  0.00     0.200 A 
ATOM     91  F   UNL A   1      44.639  25.404  36.553  1.00  0.00    -0.200 F 
ATOM     92  F   UNL A   1      47.196  26.283  36.188  1.00  0.00    -0.200 F 
ENDBRANCH  59  82
ENDBRANCH  33  34
ENDBRANCH  25  28
ENDBRANCH  23  24
ENDBRANCH  22  23
ENDBRANCH   1  22
TORSDOF 14
ENDMDL
MODEL 3
REMARK VINA RESULT:     -12.5      0.289      1.193
REMARK SMILES Nc1cc(C(=O)NCCCCCCNC(=O)c2ccc(-c3c4nc(c(-c5c(F)c(F)c(F)c(F)c5F)c5ccc([nH]5)c(-c5c(F)c(F)c(F)c(F)c5F)c5nc(c(-c6c(F)c(F)c(F)c(F)c6F)c6ccc3[nH]6)C=C5)C=C4)cc2)nc2ccccc12
REMARK SMILES IDX 11 1 10 2 9 3 8 4 7 5 5 6 6 7 4 9 2 10 3 11 86 12 81 13
REMARK SMILES IDX 85 14 80 15 82 16 84 17 83 18 1 19 12 22 13 23 14 24 15 25
REMARK SMILES IDX 16 27 17 28 18 29 79 30 19 31 78 32 20 33 21 34 22 35 72 36
REMARK SMILES IDX 23 37 77 38 71 39 73 40 24 41 76 42 70 43 69 44 25 46 57 47
REMARK SMILES IDX 37 48 56 49 38 50 41 51 55 52 74 53 39 54 40 55 54 57 75 58
REMARK SMILES IDX 42 59 26 60 27 61 35 62 28 63 29 64 33 65 36 66 30 67 31 68
REMARK SMILES IDX 34 69 32 70 58 71 59 72 67 73 60 74 61 75 65 76 68 77 62 78
REMARK SMILES IDX 63 79 66 80 64 81 43 82 44 83 52 84 45 85 46 86 50 87 53 88
REMARK SMILES IDX 47 89 48 90 51 91 49 92
REMARK H PARENT 7 8 1 20 1 21 14 26 73 45 41 56
REMARK Flexibility Score: inf
ROOT
ATOM      1  C   UNL A   1      31.790  30.634  26.116  1.00  0.00     0.002 C 
ENDROOT
BRANCH   1   2
ATOM      2  C   UNL A   1      31.789  29.396  27.024  1.00  0.00     0.002 C 
BRANCH   2   3
ATOM      3  C   UNL A   1      32.965  28.430  26.814  1.00  0.00     0.021 C 
BRANCH   3   4
ATOM      4  C   UNL A   1      33.687  28.635  25.480  1.00  0.00     0.116 C 
BRANCH   4   5
ATOM      5  N   UNL A   1      33.745  27.389  24.748  1.00  0.00    -0.351 N 
ATOM      6  C   UNL A   1      32.827  26.671  24.016  1.00  0.00     0.269 C 
ATOM      7  O   UNL A   1      33.238  25.600  23.561  1.00  0.00    -0.268 OA
ATOM      8  H   UNL A   1      34.631  26.962  24.781  1.00  0.00     0.163 HD
BRANCH   6   9
ATOM      9  C   UNL A   1      31.416  27.118  23.716  1.00  0.00     0.130 A 
ATOM     10  C   UNL A   1      29.017  26.982  23.787  1.00  0.00     0.043 A 
ATOM     11  C   UNL A   1      30.270  26.413  24.036  1.00  0.00     0.060 A 
ATOM     12  C   UNL A   1      28.946  28.199  23.066  1.00  0.00     0.023 A 
ATOM     13  C   UNL A   1      30.168  28.810  22.717  1.00  0.00     0.073 A 
ATOM     14  C   UNL A   1      27.740  28.830  22.670  1.00  0.00     0.012 A 
ATOM     15  N   UNL A   1      31.358  28.303  23.059  1.00  0.00    -0.242 NA
ATOM     16  C   UNL A   1      30.153  29.985  21.980  1.00  0.00     0.029 A 
ATOM     17  C   UNL A   1      27.750  30.015  21.934  1.00  0.00     0.001 A 
ATOM     18  C   UNL A   1      28.961  30.590  21.580  1.00  0.00     0.002 A 
BRANCH  10  19
ATOM     19  N   UNL A   1      27.878  26.249  24.135  1.00  0.00    -0.398 N 
ATOM     20  H   UNL A   1      27.552  26.256  25.064  1.00  0.00     0.156 HD
ATOM     21  H   UNL A   1      27.401  25.726  23.450  1.00  0.00     0.156 HD
ENDBRANCH  10  19
ENDBRANCH   6   9
ENDBRANCH   4   5
ENDBRANCH   3   4
ENDBRANCH   2   3
ENDBRANCH   1   2
BRANCH   1  22
ATOM     22  C   UNL A   1      31.458  31.953  26.815  1.00  0.00     0.021 C 
BRANCH  22  23
ATOM     23  C   UNL A   1      32.674  32.699  27.348  1.00  0.00     0.116 C 
BRANCH  23  24
ATOM     24  N   UNL A   1      32.386  34.105  27.600  1.00  0.00    -0.352 N 
ATOM     25  C   UNL A   1      32.950  34.947  28.531  1.00  0.00     0.251 C 
ATOM     26  H   UNL A   1      31.696  34.506  27.026  1.00  0.00     0.163 HD
ATOM     27  O   UNL A   1      32.473  36.049  28.756  1.00  0.00    -0.269 OA
BRANCH  25  28
ATOM     28  C   UNL A   1      34.134  34.483  29.284  1.00  0.00     0.039 A 
ATOM     29  C   UNL A   1      35.408  34.609  28.727  1.00  0.00     0.014 A 
ATOM     30  C   UNL A   1      33.961  33.876  30.530  1.00  0.00     0.014 A 
ATOM     31  C   UNL A   1      36.488  33.985  29.340  1.00  0.00     0.010 A 
ATOM     32  C   UNL A   1      35.062  33.315  31.182  1.00  0.00     0.010 A 
ATOM     33  C   UNL A   1      36.326  33.324  30.569  1.00  0.00    -0.014 A 
BRANCH  33  34
ATOM     34  C   UNL A   1      37.491  32.645  31.189  1.00  0.00     0.031 A 
ATOM     35  C   UNL A   1      37.934  32.994  32.583  1.00  0.00     0.074 A 
ATOM     36  C   UNL A   1      38.112  31.662  30.509  1.00  0.00     0.049 A 
ATOM     37  N   UNL A   1      38.922  32.496  33.284  1.00  0.00    -0.248 NA
ATOM     38  C   UNL A   1      37.171  34.038  33.285  1.00  0.00     0.031 C 
ATOM     39  C   UNL A   1      37.756  31.222  29.159  1.00  0.00     0.029 A 
ATOM     40  N   UNL A   1      39.148  30.838  30.866  1.00  0.00    -0.354 N 
ATOM     41  C   UNL A   1      38.911  33.174  34.496  1.00  0.00     0.074 A 
ATOM     42  C   UNL A   1      37.831  34.136  34.432  1.00  0.00     0.031 C 
ATOM     43  C   UNL A   1      38.525  30.175  28.822  1.00  0.00     0.029 A 
ATOM     44  C   UNL A   1      39.467  29.911  29.904  1.00  0.00     0.049 A 
ATOM     45  H   UNL A   1      39.619  30.906  31.728  1.00  0.00     0.167 HD
ATOM     46  C   UNL A   1      39.722  33.000  35.567  1.00  0.00     0.037 A 
ATOM     47  C   UNL A   1      40.419  28.960  29.890  1.00  0.00     0.037 A 
ATOM     48  C   UNL A   1      40.782  32.028  35.634  1.00  0.00     0.049 A 
ATOM     49  C   UNL A   1      41.325  28.815  31.078  1.00  0.00     0.074 A 
ATOM     50  C   UNL A   1      41.657  31.777  36.677  1.00  0.00     0.029 A 
ATOM     51  N   UNL A   1      41.104  31.138  34.620  1.00  0.00    -0.354 N 
ATOM     52  N   UNL A   1      41.314  29.473  32.211  1.00  0.00    -0.248 NA
ATOM     53  C   UNL A   1      42.383  27.800  30.982  1.00  0.00     0.031 C 
ATOM     54  C   UNL A   1      42.531  30.760  36.281  1.00  0.00     0.029 A 
ATOM     55  C   UNL A   1      42.172  30.346  35.009  1.00  0.00     0.049 A 
ATOM     56  H   UNL A   1      40.643  31.080  33.752  1.00  0.00     0.167 HD
ATOM     57  C   UNL A   1      42.350  28.948  32.967  1.00  0.00     0.074 A 
ATOM     58  C   UNL A   1      42.959  27.901  32.173  1.00  0.00     0.031 C 
ATOM     59  C   UNL A   1      42.763  29.305  34.208  1.00  0.00     0.037 A 
BRANCH  46  60
ATOM     60  C   UNL A   1      39.507  33.883  36.761  1.00  0.00     0.064 A 
ATOM     61  C   UNL A   1      38.742  33.459  37.857  1.00  0.00     0.173 A 
ATOM     62  C   UNL A   1      40.141  35.131  36.845  1.00  0.00     0.173 A 
ATOM     63  F   UNL A   1      38.105  32.279  37.820  1.00  0.00    -0.203 F 
ATOM     64  C   UNL A   1      38.613  34.258  38.991  1.00  0.00     0.198 A 
ATOM     65  C   UNL A   1      40.030  35.918  37.990  1.00  0.00     0.198 A 
ATOM     66  F   UNL A   1      40.889  35.580  35.826  1.00  0.00    -0.203 F 
ATOM     67  F   UNL A   1      37.856  33.844  40.017  1.00  0.00    -0.200 F 
ATOM     68  C   UNL A   1      39.264  35.481  39.061  1.00  0.00     0.200 A 
ATOM     69  F   UNL A   1      40.668  37.093  38.060  1.00  0.00    -0.200 F 
ATOM     70  F   UNL A   1      39.152  36.239  40.160  1.00  0.00    -0.200 F 
ENDBRANCH  46  60
BRANCH  47  71
ATOM     71  C   UNL A   1      40.548  28.072  28.708  1.00  0.00     0.064 A 
ATOM     72  C   UNL A   1      39.879  26.843  28.655  1.00  0.00     0.173 A 
ATOM     73  C   UNL A   1      41.314  28.450  27.594  1.00  0.00     0.173 A 
ATOM     74  F   UNL A   1      39.150  26.432  29.704  1.00  0.00    -0.203 F 
ATOM     75  C   UNL A   1      39.970  26.023  27.533  1.00  0.00     0.198 A 
ATOM     76  C   UNL A   1      41.383  27.642  26.462  1.00  0.00     0.198 A 
ATOM     77  F   UNL A   1      41.970  29.619  27.596  1.00  0.00    -0.203 F 
ATOM     78  F   UNL A   1      39.341  24.840  27.517  1.00  0.00    -0.200 F 
ATOM     79  C   UNL A   1      40.714  26.427  26.435  1.00  0.00     0.200 A 
ATOM     80  F   UNL A   1      42.088  28.043  25.397  1.00  0.00    -0.200 F 
ATOM     81  F   UNL A   1      40.788  25.645  25.348  1.00  0.00    -0.200 F 
ENDBRANCH  47  71
BRANCH  59  82
ATOM     82  C   UNL A   1      43.914  28.545  34.794  1.00  0.00     0.064 A 
ATOM     83  C   UNL A   1      45.234  28.998  34.662  1.00  0.00     0.173 A 
ATOM     84  C   UNL A   1      43.687  27.380  35.542  1.00  0.00     0.173 A 
ATOM     85  F   UNL A   1      45.500  30.100  33.944  1.00  0.00    -0.203 F 
ATOM     86  C   UNL A   1      46.289  28.302  35.243  1.00  0.00     0.198 A 
ATOM     87  C   UNL A   1      44.742  26.700  36.144  1.00  0.00     0.198 A 
ATOM     88  F   UNL A   1      42.440  26.912  35.703  1.00  0.00    -0.203 F 
ATOM     89  F   UNL A   1      47.547  28.732  35.075  1.00  0.00    -0.200 F 
ATOM     90  C   UNL A   1      46.041  27.158  35.990  1.00  0.00     0.200 A 
ATOM     91  F   UNL A   1      44.500  25.603  36.874  1.00  0.00    -0.200 F 
ATOM     92  F   UNL A   1      47.059  26.495  36.557  1.00  0.00    -0.200 F 
ENDBRANCH  59  82
ENDBRANCH  33  34
ENDBRANCH  25  28
ENDBRANCH  23  24
ENDBRANCH  22  23
ENDBRANCH   1  22
TORSDOF 14
ENDMDL
