MODEL 1
REMARK VINA RESULT:     -11.5      0.000      0.000
REMARK SMILES CC[C@H]1CC[C@](O)([C@H](F)C(=O)NCCCCCCNC(=O)c2ccc(-c3c4nc(c(-c5c(F)c(F)c(F)c(F)c5F)c5ccc([nH]5)c(-c5c(F)c(F)c(F)c(F)c5F)c5nc(c(-c6c(F)c(F)c(F)c(F)c6F)c6ccc3[nH]6)C=C5)C=C4)cc2)CC1
REMARK SMILES IDX 15 1 14 2 13 3 12 4 10 5 11 6 8 8 9 9 6 10 3 11 4 12 86 13
REMARK SMILES IDX 5 14 85 15 2 16 1 17 7 18 16 20 17 21 18 22 19 23 20 24
REMARK SMILES IDX 21 26 22 27 23 28 84 29 24 30 83 31 25 32 26 33 27 34 77 35
REMARK SMILES IDX 28 36 82 37 76 38 78 39 29 40 81 41 75 42 74 43 30 45 62 46
REMARK SMILES IDX 42 47 61 48 43 49 46 50 60 51 79 52 44 53 45 54 59 56 80 57
REMARK SMILES IDX 47 58 31 59 32 60 40 61 33 62 34 63 38 64 41 65 35 66 36 67
REMARK SMILES IDX 39 68 37 69 63 70 64 71 72 72 65 73 66 74 70 75 73 76 67 77
REMARK SMILES IDX 68 78 71 79 69 80 48 81 49 82 57 83 50 84 51 85 55 86 58 87
REMARK SMILES IDX 52 88 53 89 56 90 54 91
REMARK H PARENT 12 7 7 19 19 25 78 44 46 55
REMARK Flexibility Score: inf
ROOT
ATOM      1  C   UNL A   1      30.299  27.248  23.580  1.00  0.00     0.002 C 
ENDROOT
BRANCH   1   2
ATOM      2  C   UNL A   1      29.508  26.324  24.512  1.00  0.00     0.021 C 
BRANCH   2   3
ATOM      3  C   UNL A   1      30.255  25.713  25.693  1.00  0.00     0.116 C 
BRANCH   3   4
ATOM      4  N   UNL A   1      29.626  24.576  26.326  1.00  0.00    -0.353 N 
ATOM      5  C   UNL A   1      30.237  23.511  26.940  1.00  0.00     0.257 C 
ATOM      6  O   UNL A   1      29.520  22.774  27.624  1.00  0.00    -0.272 OA
ATOM      7  H   UNL A   1      28.641  24.564  26.314  1.00  0.00     0.163 HD
BRANCH   5   8
ATOM      8  C   UNL A   1      31.743  23.236  26.784  1.00  0.00     0.286 C 
ATOM      9  F   UNL A   1      32.360  22.961  27.976  1.00  0.00    -0.234 F 
BRANCH   8  10
ATOM     10  C   UNL A   1      32.210  22.209  25.697  1.00  0.00     0.105 C 
ATOM     11  C   UNL A   1      34.582  23.476  24.320  1.00  0.00    -0.011 C 
ATOM     12  C   UNL A   1      34.755  22.576  25.565  1.00  0.00     0.006 C 
ATOM     13  C   UNL A   1      33.131  23.826  23.947  1.00  0.00     0.006 C 
ATOM     14  C   UNL A   1      33.612  21.610  25.858  1.00  0.00     0.039 C 
ATOM     15  C   UNL A   1      32.103  22.756  24.262  1.00  0.00     0.039 C 
BRANCH  11  16
ATOM     16  C   UNL A   1      35.402  22.958  23.124  1.00  0.00    -0.000 C 
ATOM     17  C   UNL A   1      36.897  22.989  23.448  1.00  0.00     0.004 C 
ENDBRANCH  11  16
BRANCH  10  18
ATOM     18  O   UNL A   1      31.282  21.094  25.758  1.00  0.00    -0.386 OA
ATOM     19  H   UNL A   1      30.374  21.431  25.803  1.00  0.00     0.211 HD
ENDBRANCH  10  18
ENDBRANCH   8  10
ENDBRANCH   5   8
ENDBRANCH   3   4
ENDBRANCH   2   3
ENDBRANCH   1   2
BRANCH   1  20
ATOM     20  C   UNL A   1      30.865  28.545  24.165  1.00  0.00     0.002 C 
BRANCH  20  21
ATOM     21  C   UNL A   1      32.353  28.821  23.950  1.00  0.00     0.021 C 
BRANCH  21  22
ATOM     22  C   UNL A   1      33.153  29.292  25.157  1.00  0.00     0.116 C 
BRANCH  22  23
ATOM     23  N   UNL A   1      32.635  30.500  25.771  1.00  0.00    -0.352 N 
ATOM     24  C   UNL A   1      33.131  31.241  26.820  1.00  0.00     0.251 C 
ATOM     25  H   UNL A   1      31.801  30.843  25.376  1.00  0.00     0.163 HD
ATOM     26  O   UNL A   1      32.491  32.195  27.245  1.00  0.00    -0.269 OA
BRANCH  24  27
ATOM     27  C   UNL A   1      34.411  30.872  27.472  1.00  0.00     0.039 A 
ATOM     28  C   UNL A   1      35.368  31.873  27.675  1.00  0.00     0.014 A 
ATOM     29  C   UNL A   1      34.688  29.562  27.870  1.00  0.00     0.014 A 
ATOM     30  C   UNL A   1      36.562  31.576  28.340  1.00  0.00     0.010 A 
ATOM     31  C   UNL A   1      35.842  29.284  28.602  1.00  0.00     0.010 A 
ATOM     32  C   UNL A   1      36.792  30.287  28.847  1.00  0.00    -0.014 A 
BRANCH  32  33
ATOM     33  C   UNL A   1      38.009  29.978  29.645  1.00  0.00     0.031 A 
ATOM     34  C   UNL A   1      39.046  29.027  29.113  1.00  0.00     0.074 A 
ATOM     35  C   UNL A   1      38.148  30.504  30.878  1.00  0.00     0.049 A 
ATOM     36  N   UNL A   1      40.135  28.580  29.690  1.00  0.00    -0.248 NA
ATOM     37  C   UNL A   1      38.820  28.488  27.764  1.00  0.00     0.031 C 
ATOM     38  C   UNL A   1      37.193  31.404  31.525  1.00  0.00     0.029 A 
ATOM     39  N   UNL A   1      39.143  30.349  31.813  1.00  0.00    -0.354 N 
ATOM     40  C   UNL A   1      40.711  27.702  28.783  1.00  0.00     0.074 A 
ATOM     41  C   UNL A   1      39.826  27.635  27.640  1.00  0.00     0.031 C 
ATOM     42  C   UNL A   1      37.657  31.739  32.740  1.00  0.00     0.029 A 
ATOM     43  C   UNL A   1      38.919  31.044  32.977  1.00  0.00     0.049 A 
ATOM     44  H   UNL A   1      39.941  29.793  31.663  1.00  0.00     0.167 HD
ATOM     45  C   UNL A   1      41.883  27.028  28.883  1.00  0.00     0.037 A 
ATOM     46  C   UNL A   1      39.640  31.105  34.112  1.00  0.00     0.037 A 
ATOM     47  C   UNL A   1      42.770  27.110  30.015  1.00  0.00     0.049 A 
ATOM     48  C   UNL A   1      40.929  30.332  34.206  1.00  0.00     0.074 A 
ATOM     49  C   UNL A   1      44.006  26.511  30.188  1.00  0.00     0.029 A 
ATOM     50  N   UNL A   1      42.513  27.835  31.170  1.00  0.00    -0.354 N 
ATOM     51  N   UNL A   1      41.497  29.558  33.314  1.00  0.00    -0.248 NA
ATOM     52  C   UNL A   1      41.681  30.447  35.464  1.00  0.00     0.031 C 
ATOM     53  C   UNL A   1      44.470  26.825  31.469  1.00  0.00     0.029 A 
ATOM     54  C   UNL A   1      43.555  27.675  32.071  1.00  0.00     0.049 A 
ATOM     55  H   UNL A   1      41.709  28.382  31.327  1.00  0.00     0.167 HD
ATOM     56  C   UNL A   1      42.684  29.121  33.885  1.00  0.00     0.074 A 
ATOM     57  C   UNL A   1      42.762  29.729  35.198  1.00  0.00     0.031 C 
ATOM     58  C   UNL A   1      43.625  28.293  33.371  1.00  0.00     0.037 A 
BRANCH  45  59
ATOM     59  C   UNL A   1      42.277  26.138  27.738  1.00  0.00     0.064 A 
ATOM     60  C   UNL A   1      43.203  26.551  26.767  1.00  0.00     0.173 A 
ATOM     61  C   UNL A   1      41.756  24.840  27.633  1.00  0.00     0.173 A 
ATOM     62  F   UNL A   1      43.725  27.787  26.815  1.00  0.00    -0.203 F 
ATOM     63  C   UNL A   1      43.570  25.710  25.720  1.00  0.00     0.198 A 
ATOM     64  C   UNL A   1      42.150  23.989  26.604  1.00  0.00     0.198 A 
ATOM     65  F   UNL A   1      40.873  24.389  28.538  1.00  0.00    -0.203 F 
ATOM     66  F   UNL A   1      44.416  26.146  24.777  1.00  0.00    -0.200 F 
ATOM     67  C   UNL A   1      43.049  24.427  25.644  1.00  0.00     0.200 A 
ATOM     68  F   UNL A   1      41.659  22.743  26.541  1.00  0.00    -0.200 F 
ATOM     69  F   UNL A   1      43.410  23.615  24.640  1.00  0.00    -0.200 F 
ENDBRANCH  45  59
BRANCH  46  70
ATOM     70  C   UNL A   1      39.172  31.942  35.249  1.00  0.00     0.064 A 
ATOM     71  C   UNL A   1      38.429  31.385  36.298  1.00  0.00     0.173 A 
ATOM     72  C   UNL A   1      39.448  33.317  35.306  1.00  0.00     0.173 A 
ATOM     73  F   UNL A   1      38.120  30.079  36.280  1.00  0.00    -0.203 F 
ATOM     74  C   UNL A   1      37.957  32.172  37.347  1.00  0.00     0.198 A 
ATOM     75  C   UNL A   1      39.004  34.097  36.372  1.00  0.00     0.198 A 
ATOM     76  F   UNL A   1      40.159  33.901  34.331  1.00  0.00    -0.203 F 
ATOM     77  F   UNL A   1      37.205  31.622  38.309  1.00  0.00    -0.200 F 
ATOM     78  C   UNL A   1      38.252  33.527  37.387  1.00  0.00     0.200 A 
ATOM     79  F   UNL A   1      39.305  35.403  36.414  1.00  0.00    -0.200 F 
ATOM     80  F   UNL A   1      37.802  34.283  38.397  1.00  0.00    -0.200 F 
ENDBRANCH  46  70
BRANCH  58  81
ATOM     81  C   UNL A   1      44.845  28.028  34.207  1.00  0.00     0.064 A 
ATOM     82  C   UNL A   1      45.973  28.860  34.154  1.00  0.00     0.173 A 
ATOM     83  C   UNL A   1      44.868  26.947  35.102  1.00  0.00     0.173 A 
ATOM     84  F   UNL A   1      46.009  29.897  33.305  1.00  0.00    -0.203 F 
ATOM     85  C   UNL A   1      47.090  28.602  34.946  1.00  0.00     0.198 A 
ATOM     86  C   UNL A   1      45.972  26.714  35.918  1.00  0.00     0.198 A 
ATOM     87  F   UNL A   1      43.812  26.126  35.198  1.00  0.00    -0.203 F 
ATOM     88  F   UNL A   1      48.177  29.379  34.841  1.00  0.00    -0.200 F 
ATOM     89  C   UNL A   1      47.085  27.536  35.833  1.00  0.00     0.200 A 
ATOM     90  F   UNL A   1      45.958  25.692  36.785  1.00  0.00    -0.200 F 
ATOM     91  F   UNL A   1      48.156  27.295  36.601  1.00  0.00    -0.200 F 
ENDBRANCH  58  81
ENDBRANCH  32  33
ENDBRANCH  24  27
ENDBRANCH  22  23
ENDBRANCH  21  22
ENDBRANCH  20  21
ENDBRANCH   1  20
TORSDOF 16
ENDMDL
MODEL 2
REMARK VINA RESULT:     -11.5      1.946      2.951
REMARK SMILES CC[C@H]1CC[C@](O)([C@H](F)C(=O)NCCCCCCNC(=O)c2ccc(-c3c4nc(c(-c5c(F)c(F)c(F)c(F)c5F)c5ccc([nH]5)c(-c5c(F)c(F)c(F)c(F)c5F)c5nc(c(-c6c(F)c(F)c(F)c(F)c6F)c6ccc3[nH]6)C=C5)C=C4)cc2)CC1
REMARK SMILES IDX 15 1 14 2 13 3 12 4 10 5 11 6 8 8 9 9 6 10 3 11 4 12 86 13
REMARK SMILES IDX 5 14 85 15 2 16 1 17 7 18 16 20 17 21 18 22 19 23 20 24
REMARK SMILES IDX 21 26 22 27 23 28 84 29 24 30 83 31 25 32 26 33 27 34 77 35
REMARK SMILES IDX 28 36 82 37 76 38 78 39 29 40 81 41 75 42 74 43 30 45 62 46
REMARK SMILES IDX 42 47 61 48 43 49 46 50 60 51 79 52 44 53 45 54 59 56 80 57
REMARK SMILES IDX 47 58 31 59 32 60 40 61 33 62 34 63 38 64 41 65 35 66 36 67
REMARK SMILES IDX 39 68 37 69 63 70 64 71 72 72 65 73 66 74 70 75 73 76 67 77
REMARK SMILES IDX 68 78 71 79 69 80 48 81 49 82 57 83 50 84 51 85 55 86 58 87
REMARK SMILES IDX 52 88 53 89 56 90 54 91
REMARK H PARENT 12 7 7 19 19 25 78 44 46 55
REMARK Flexibility Score: inf
ROOT
ATOM      1  C   UNL A   1      32.300  29.556  26.920  1.00  0.00     0.002 C 
ENDROOT
BRANCH   1   2
ATOM      2  C   UNL A   1      31.491  28.307  27.287  1.00  0.00     0.021 C 
BRANCH   2   3
ATOM      3  C   UNL A   1      31.916  26.986  26.656  1.00  0.00     0.116 C 
BRANCH   3   4
ATOM      4  N   UNL A   1      30.892  25.971  26.551  1.00  0.00    -0.353 N 
ATOM      5  C   UNL A   1      31.034  24.614  26.705  1.00  0.00     0.257 C 
ATOM      6  O   UNL A   1      29.997  23.952  26.813  1.00  0.00    -0.272 OA
ATOM      7  H   UNL A   1      29.985  26.292  26.343  1.00  0.00     0.163 HD
BRANCH   5   8
ATOM      8  C   UNL A   1      32.416  23.938  26.736  1.00  0.00     0.286 C 
ATOM      9  F   UNL A   1      32.524  22.992  27.721  1.00  0.00    -0.234 F 
BRANCH   8  10
ATOM     10  C   UNL A   1      33.009  23.379  25.398  1.00  0.00     0.105 C 
ATOM     11  C   UNL A   1      36.012  23.481  25.712  1.00  0.00    -0.011 C 
ATOM     12  C   UNL A   1      35.197  22.236  26.130  1.00  0.00     0.006 C 
ATOM     13  C   UNL A   1      35.185  24.713  25.302  1.00  0.00     0.006 C 
ATOM     14  C   UNL A   1      33.825  22.083  25.483  1.00  0.00     0.039 C 
ATOM     15  C   UNL A   1      33.858  24.411  24.633  1.00  0.00     0.039 C 
BRANCH  11  16
ATOM     16  C   UNL A   1      37.109  23.127  24.690  1.00  0.00    -0.000 C 
ATOM     17  C   UNL A   1      36.500  22.928  23.300  1.00  0.00     0.004 C 
ENDBRANCH  11  16
BRANCH  10  18
ATOM     18  O   UNL A   1      31.878  23.091  24.535  1.00  0.00    -0.386 OA
ATOM     19  H   UNL A   1      32.179  23.031  23.616  1.00  0.00     0.211 HD
ENDBRANCH  10  18
ENDBRANCH   8  10
ENDBRANCH   5   8
ENDBRANCH   3   4
ENDBRANCH   2   3
ENDBRANCH   1   2
BRANCH   1  20
ATOM     20  C   UNL A   1      31.632  30.610  26.033  1.00  0.00     0.002 C 
BRANCH  20  21
ATOM     21  C   UNL A   1      31.392  31.991  26.643  1.00  0.00     0.021 C 
BRANCH  21  22
ATOM     22  C   UNL A   1      32.600  32.714  27.222  1.00  0.00     0.116 C 
BRANCH  22  23
ATOM     23  N   UNL A   1      32.331  34.083  27.620  1.00  0.00    -0.352 N 
ATOM     24  C   UNL A   1      32.975  34.880  28.539  1.00  0.00     0.251 C 
ATOM     25  H   UNL A   1      31.570  34.508  27.161  1.00  0.00     0.163 HD
ATOM     26  O   UNL A   1      32.536  35.995  28.790  1.00  0.00    -0.269 OA
BRANCH  24  27
ATOM     27  C   UNL A   1      34.174  34.388  29.261  1.00  0.00     0.039 A 
ATOM     28  C   UNL A   1      34.002  33.832  30.534  1.00  0.00     0.014 A 
ATOM     29  C   UNL A   1      35.456  34.479  28.716  1.00  0.00     0.014 A 
ATOM     30  C   UNL A   1      35.099  33.303  31.221  1.00  0.00     0.010 A 
ATOM     31  C   UNL A   1      36.535  33.880  29.366  1.00  0.00     0.010 A 
ATOM     32  C   UNL A   1      36.370  33.284  30.625  1.00  0.00    -0.014 A 
BRANCH  32  33
ATOM     33  C   UNL A   1      37.527  32.634  31.296  1.00  0.00     0.031 A 
ATOM     34  C   UNL A   1      38.248  31.492  30.633  1.00  0.00     0.074 A 
ATOM     35  C   UNL A   1      37.889  33.029  32.532  1.00  0.00     0.049 A 
ATOM     36  N   UNL A   1      39.231  30.754  31.090  1.00  0.00    -0.248 NA
ATOM     37  C   UNL A   1      37.790  31.112  29.288  1.00  0.00     0.031 C 
ATOM     38  C   UNL A   1      37.244  34.094  33.301  1.00  0.00     0.029 A 
ATOM     39  N   UNL A   1      38.882  32.574  33.367  1.00  0.00    -0.354 N 
ATOM     40  C   UNL A   1      39.496  29.820  30.097  1.00  0.00     0.074 A 
ATOM     41  C   UNL A   1      38.538  30.047  29.037  1.00  0.00     0.031 C 
ATOM     42  C   UNL A   1      37.868  34.226  34.482  1.00  0.00     0.029 A 
ATOM     43  C   UNL A   1      38.930  33.228  34.574  1.00  0.00     0.049 A 
ATOM     44  H   UNL A   1      39.500  31.849  33.122  1.00  0.00     0.167 HD
ATOM     45  C   UNL A   1      40.465  28.874  30.063  1.00  0.00     0.037 A 
ATOM     46  C   UNL A   1      39.728  33.036  35.641  1.00  0.00     0.037 A 
ATOM     47  C   UNL A   1      41.429  28.662  31.112  1.00  0.00     0.049 A 
ATOM     48  C   UNL A   1      40.784  31.965  35.585  1.00  0.00     0.074 A 
ATOM     49  C   UNL A   1      42.483  27.766  31.147  1.00  0.00     0.029 A 
ATOM     50  N   UNL A   1      41.452  29.352  32.316  1.00  0.00    -0.354 N 
ATOM     51  N   UNL A   1      41.069  31.133  34.613  1.00  0.00    -0.248 NA
ATOM     52  C   UNL A   1      41.635  31.810  36.774  1.00  0.00     0.031 C 
ATOM     53  C   UNL A   1      43.109  27.874  32.393  1.00  0.00     0.029 A 
ATOM     54  C   UNL A   1      42.486  28.883  33.111  1.00  0.00     0.049 A 
ATOM     55  H   UNL A   1      40.826  30.069  32.568  1.00  0.00     0.167 HD
ATOM     56  C   UNL A   1      42.149  30.381  35.057  1.00  0.00     0.074 A 
ATOM     57  C   UNL A   1      42.478  30.866  36.381  1.00  0.00     0.031 C 
ATOM     58  C   UNL A   1      42.809  29.380  34.424  1.00  0.00     0.037 A 
BRANCH  45  59
ATOM     59  C   UNL A   1      40.533  27.988  28.850  1.00  0.00     0.064 A 
ATOM     60  C   UNL A   1      39.798  26.795  28.765  1.00  0.00     0.173 A 
ATOM     61  C   UNL A   1      41.310  28.357  27.742  1.00  0.00     0.173 A 
ATOM     62  F   UNL A   1      39.046  26.390  29.800  1.00  0.00    -0.203 F 
ATOM     63  C   UNL A   1      39.861  25.993  27.629  1.00  0.00     0.198 A 
ATOM     64  C   UNL A   1      41.344  27.569  26.594  1.00  0.00     0.198 A 
ATOM     65  F   UNL A   1      42.028  29.491  27.765  1.00  0.00    -0.203 F 
ATOM     66  F   UNL A   1      39.191  24.833  27.592  1.00  0.00    -0.200 F 
ATOM     67  C   UNL A   1      40.627  26.384  26.542  1.00  0.00     0.200 A 
ATOM     68  F   UNL A   1      42.072  27.957  25.538  1.00  0.00    -0.200 F 
ATOM     69  F   UNL A   1      40.680  25.614  25.445  1.00  0.00    -0.200 F 
ENDBRANCH  45  59
BRANCH  46  70
ATOM     70  C   UNL A   1      39.574  33.889  36.850  1.00  0.00     0.064 A 
ATOM     71  C   UNL A   1      38.791  33.470  37.935  1.00  0.00     0.173 A 
ATOM     72  C   UNL A   1      40.197  35.143  36.944  1.00  0.00     0.173 A 
ATOM     73  F   UNL A   1      38.157  32.288  37.885  1.00  0.00    -0.203 F 
ATOM     74  C   UNL A   1      38.615  34.281  39.054  1.00  0.00     0.198 A 
ATOM     75  C   UNL A   1      40.047  35.939  38.077  1.00  0.00     0.198 A 
ATOM     76  F   UNL A   1      40.961  35.591  35.937  1.00  0.00    -0.203 F 
ATOM     77  F   UNL A   1      37.819  33.877  40.053  1.00  0.00    -0.200 F 
ATOM     78  C   UNL A   1      39.249  35.512  39.128  1.00  0.00     0.200 A 
ATOM     79  F   UNL A   1      40.674  37.121  38.150  1.00  0.00    -0.200 F 
ATOM     80  F   UNL A   1      39.083  36.291  40.205  1.00  0.00    -0.200 F 
ENDBRANCH  46  70
BRANCH  58  81
ATOM     81  C   UNL A   1      43.984  28.770  35.134  1.00  0.00     0.064 A 
ATOM     82  C   UNL A   1      45.287  29.258  34.964  1.00  0.00     0.173 A 
ATOM     83  C   UNL A   1      43.794  27.705  36.030  1.00  0.00     0.173 A 
ATOM     84  F   UNL A   1      45.525  30.264  34.109  1.00  0.00    -0.203 F 
ATOM     85  C   UNL A   1      46.361  28.684  35.641  1.00  0.00     0.198 A 
ATOM     86  C   UNL A   1      44.865  27.157  36.731  1.00  0.00     0.198 A 
ATOM     87  F   UNL A   1      42.566  27.206  36.236  1.00  0.00    -0.203 F 
ATOM     88  F   UNL A   1      47.605  29.132  35.422  1.00  0.00    -0.200 F 
ATOM     89  C   UNL A   1      46.148  27.641  36.530  1.00  0.00     0.200 A 
ATOM     90  F   UNL A   1      44.653  26.160  37.601  1.00  0.00    -0.200 F 
ATOM     91  F   UNL A   1      47.180  27.096  37.187  1.00  0.00    -0.200 F 
ENDBRANCH  58  81
ENDBRANCH  32  33
ENDBRANCH  24  27
ENDBRANCH  22  23
ENDBRANCH  21  22
ENDBRANCH  20  21
ENDBRANCH   1  20
TORSDOF 16
ENDMDL
MODEL 3
REMARK VINA RESULT:     -11.4      2.833      8.778
REMARK SMILES CC[C@H]1CC[C@](O)([C@H](F)C(=O)NCCCCCCNC(=O)c2ccc(-c3c4nc(c(-c5c(F)c(F)c(F)c(F)c5F)c5ccc([nH]5)c(-c5c(F)c(F)c(F)c(F)c5F)c5nc(c(-c6c(F)c(F)c(F)c(F)c6F)c6ccc3[nH]6)C=C5)C=C4)cc2)CC1
REMARK SMILES IDX 15 1 14 2 13 3 12 4 10 5 11 6 8 8 9 9 6 10 3 11 4 12 86 13
REMARK SMILES IDX 5 14 85 15 2 16 1 17 7 18 16 20 17 21 18 22 19 23 20 24
REMARK SMILES IDX 21 26 22 27 23 28 84 29 24 30 83 31 25 32 26 33 27 34 77 35
REMARK SMILES IDX 28 36 82 37 76 38 78 39 29 40 81 41 75 42 74 43 30 45 62 46
REMARK SMILES IDX 42 47 61 48 43 49 46 50 60 51 79 52 44 53 45 54 59 56 80 57
REMARK SMILES IDX 47 58 31 59 32 60 40 61 33 62 34 63 38 64 41 65 35 66 36 67
REMARK SMILES IDX 39 68 37 69 63 70 64 71 72 72 65 73 66 74 70 75 73 76 67 77
REMARK SMILES IDX 68 78 71 79 69 80 48 81 49 82 57 83 50 84 51 85 55 86 58 87
REMARK SMILES IDX 52 88 53 89 56 90 54 91
REMARK H PARENT 12 7 7 19 19 25 78 44 46 55
REMARK Flexibility Score: inf
ROOT
ATOM      1  C   UNL A   1      35.438  33.008  28.009  1.00  0.00     0.002 C 
ENDROOT
BRANCH   1   2
ATOM      2  C   UNL A   1      35.741  31.507  28.074  1.00  0.00     0.021 C 
BRANCH   2   3
ATOM      3  C   UNL A   1      34.635  30.550  27.642  1.00  0.00     0.116 C 
BRANCH   3   4
ATOM      4  N   UNL A   1      33.449  31.158  27.082  1.00  0.00    -0.353 N 
ATOM      5  C   UNL A   1      32.223  30.576  26.876  1.00  0.00     0.257 C 
ATOM      6  O   UNL A   1      31.282  31.331  26.614  1.00  0.00    -0.272 OA
ATOM      7  H   UNL A   1      33.531  32.103  26.817  1.00  0.00     0.163 HD
BRANCH   5   8
ATOM      8  C   UNL A   1      32.021  29.052  26.959  1.00  0.00     0.286 C 
ATOM      9  F   UNL A   1      31.069  28.690  27.874  1.00  0.00    -0.234 F 
BRANCH   8  10
ATOM     10  C   UNL A   1      31.811  28.250  25.629  1.00  0.00     0.105 C 
ATOM     11  C   UNL A   1      33.331  25.661  25.971  1.00  0.00    -0.011 C 
ATOM     12  C   UNL A   1      31.849  25.790  26.390  1.00  0.00     0.006 C 
ATOM     13  C   UNL A   1      34.020  26.969  25.547  1.00  0.00     0.006 C 
ATOM     14  C   UNL A   1      31.060  26.916  25.731  1.00  0.00     0.039 C 
ATOM     15  C   UNL A   1      33.122  27.986  24.867  1.00  0.00     0.039 C 
BRANCH  11  16
ATOM     16  C   UNL A   1      33.540  24.516  24.962  1.00  0.00    -0.000 C 
ATOM     17  C   UNL A   1      35.011  24.094  24.931  1.00  0.00     0.004 C 
ENDBRANCH  11  16
BRANCH  10  18
ATOM     18  O   UNL A   1      31.018  29.097  24.758  1.00  0.00    -0.386 OA
ATOM     19  H   UNL A   1      31.444  29.965  24.676  1.00  0.00     0.211 HD
ENDBRANCH  10  18
ENDBRANCH   8  10
ENDBRANCH   5   8
ENDBRANCH   3   4
ENDBRANCH   2   3
ENDBRANCH   1   2
BRANCH   1  20
ATOM     20  C   UNL A   1      34.763  33.659  29.219  1.00  0.00     0.002 C 
BRANCH  20  21
ATOM     21  C   UNL A   1      33.472  34.439  28.969  1.00  0.00     0.021 C 
BRANCH  21  22
ATOM     22  C   UNL A   1      33.418  35.873  29.476  1.00  0.00     0.116 C 
BRANCH  22  23
ATOM     23  N   UNL A   1      32.498  36.071  30.581  1.00  0.00    -0.352 N 
ATOM     24  C   UNL A   1      32.609  35.700  31.902  1.00  0.00     0.251 C 
ATOM     25  H   UNL A   1      31.667  36.545  30.350  1.00  0.00     0.163 HD
ATOM     26  O   UNL A   1      31.673  35.892  32.667  1.00  0.00    -0.269 OA
BRANCH  24  27
ATOM     27  C   UNL A   1      33.835  35.029  32.401  1.00  0.00     0.039 A 
ATOM     28  C   UNL A   1      33.720  33.738  32.929  1.00  0.00     0.014 A 
ATOM     29  C   UNL A   1      35.084  35.653  32.371  1.00  0.00     0.014 A 
ATOM     30  C   UNL A   1      34.860  33.051  33.354  1.00  0.00     0.010 A 
ATOM     31  C   UNL A   1      36.230  34.939  32.720  1.00  0.00     0.010 A 
ATOM     32  C   UNL A   1      36.132  33.629  33.214  1.00  0.00    -0.014 A 
BRANCH  32  33
ATOM     33  C   UNL A   1      37.365  32.875  33.565  1.00  0.00     0.031 A 
ATOM     34  C   UNL A   1      38.105  33.177  34.840  1.00  0.00     0.074 A 
ATOM     35  C   UNL A   1      37.856  31.962  32.704  1.00  0.00     0.049 A 
ATOM     36  N   UNL A   1      39.233  32.677  35.282  1.00  0.00    -0.248 NA
ATOM     37  C   UNL A   1      37.513  34.191  35.724  1.00  0.00     0.031 C 
ATOM     38  C   UNL A   1      37.257  31.609  31.416  1.00  0.00     0.029 A 
ATOM     39  N   UNL A   1      38.978  31.171  32.775  1.00  0.00    -0.354 N 
ATOM     40  C   UNL A   1      39.489  33.324  36.484  1.00  0.00     0.074 A 
ATOM     41  C   UNL A   1      38.430  34.291  36.676  1.00  0.00     0.031 C 
ATOM     42  C   UNL A   1      38.002  30.659  30.830  1.00  0.00     0.029 A 
ATOM     43  C   UNL A   1      39.155  30.366  31.676  1.00  0.00     0.049 A 
ATOM     44  H   UNL A   1      39.594  31.180  33.542  1.00  0.00     0.167 HD
ATOM     45  C   UNL A   1      40.503  33.116  37.358  1.00  0.00     0.037 A 
ATOM     46  C   UNL A   1      40.141  29.499  31.377  1.00  0.00     0.037 A 
ATOM     47  C   UNL A   1      41.546  32.140  37.173  1.00  0.00     0.049 A 
ATOM     48  C   UNL A   1      41.267  29.301  32.358  1.00  0.00     0.074 A 
ATOM     49  C   UNL A   1      42.585  31.815  38.027  1.00  0.00     0.029 A 
ATOM     50  N   UNL A   1      41.685  31.335  36.051  1.00  0.00    -0.354 N 
ATOM     51  N   UNL A   1      41.461  29.870  33.522  1.00  0.00    -0.248 NA
ATOM     52  C   UNL A   1      42.308  28.332  31.984  1.00  0.00     0.031 C 
ATOM     53  C   UNL A   1      43.386  30.856  37.399  1.00  0.00     0.029 A 
ATOM     54  C   UNL A   1      42.809  30.534  36.180  1.00  0.00     0.049 A 
ATOM     55  H   UNL A   1      41.076  31.334  35.278  1.00  0.00     0.167 HD
ATOM     56  C   UNL A   1      42.622  29.308  34.034  1.00  0.00     0.074 A 
ATOM     57  C   UNL A   1      43.082  28.341  33.059  1.00  0.00     0.031 C 
ATOM     58  C   UNL A   1      43.251  29.568  35.206  1.00  0.00     0.037 A 
BRANCH  45  59
ATOM     59  C   UNL A   1      40.538  33.961  38.601  1.00  0.00     0.064 A 
ATOM     60  C   UNL A   1      39.910  33.554  39.788  1.00  0.00     0.173 A 
ATOM     61  C   UNL A   1      41.244  35.173  38.618  1.00  0.00     0.173 A 
ATOM     62  F   UNL A   1      39.213  32.408  39.825  1.00  0.00    -0.203 F 
ATOM     63  C   UNL A   1      39.963  34.341  40.936  1.00  0.00     0.198 A 
ATOM     64  C   UNL A   1      41.324  35.942  39.777  1.00  0.00     0.198 A 
ATOM     65  F   UNL A   1      41.870  35.608  37.514  1.00  0.00    -0.203 F 
ATOM     66  F   UNL A   1      39.312  33.956  42.042  1.00  0.00    -0.200 F 
ATOM     67  C   UNL A   1      40.677  35.530  40.931  1.00  0.00     0.200 A 
ATOM     68  F   UNL A   1      42.028  37.083  39.775  1.00  0.00    -0.200 F 
ATOM     69  F   UNL A   1      40.734  36.283  42.039  1.00  0.00    -0.200 F 
ENDBRANCH  45  59
BRANCH  46  70
ATOM     70  C   UNL A   1      40.103  28.738  30.100  1.00  0.00     0.064 A 
ATOM     71  C   UNL A   1      39.493  27.478  30.028  1.00  0.00     0.173 A 
ATOM     72  C   UNL A   1      40.682  29.248  28.927  1.00  0.00     0.173 A 
ATOM     73  F   UNL A   1      38.944  26.937  31.126  1.00  0.00    -0.203 F 
ATOM     74  C   UNL A   1      39.487  26.746  28.843  1.00  0.00     0.198 A 
ATOM     75  C   UNL A   1      40.645  28.530  27.735  1.00  0.00     0.198 A 
ATOM     76  F   UNL A   1      41.274  30.451  28.939  1.00  0.00    -0.203 F 
ATOM     77  F   UNL A   1      38.943  25.521  28.817  1.00  0.00    -0.200 F 
ATOM     78  C   UNL A   1      40.056  27.276  27.694  1.00  0.00     0.200 A 
ATOM     79  F   UNL A   1      41.183  29.053  26.624  1.00  0.00    -0.200 F 
ATOM     80  F   UNL A   1      40.046  26.573  26.554  1.00  0.00    -0.200 F 
ENDBRANCH  46  70
BRANCH  58  81
ATOM     81  C   UNL A   1      44.481  28.766  35.524  1.00  0.00     0.064 A 
ATOM     82  C   UNL A   1      44.412  27.549  36.218  1.00  0.00     0.173 A 
ATOM     83  C   UNL A   1      45.743  29.203  35.092  1.00  0.00     0.173 A 
ATOM     84  F   UNL A   1      43.232  27.093  36.667  1.00  0.00    -0.203 F 
ATOM     85  C   UNL A   1      45.563  26.815  36.494  1.00  0.00     0.198 A 
ATOM     86  C   UNL A   1      46.887  28.449  35.337  1.00  0.00     0.198 A 
ATOM     87  F   UNL A   1      45.864  30.356  34.416  1.00  0.00    -0.203 F 
ATOM     88  F   UNL A   1      45.479  25.683  37.204  1.00  0.00    -0.200 F 
ATOM     89  C   UNL A   1      46.798  27.261  36.045  1.00  0.00     0.200 A 
ATOM     90  F   UNL A   1      48.076  28.874  34.889  1.00  0.00    -0.200 F 
ATOM     91  F   UNL A   1      47.903  26.549  36.303  1.00  0.00    -0.200 F 
ENDBRANCH  58  81
ENDBRANCH  32  33
ENDBRANCH  24  27
ENDBRANCH  22  23
ENDBRANCH  21  22
ENDBRANCH  20  21
ENDBRANCH   1  20
TORSDOF 16
ENDMDL
