MODEL 1
REMARK VINA RESULT:     -12.2      0.000      0.000
REMARK SMILES C[C@H](C1CC1)n1c(SCC(=O)NCCCCCCNC(=O)c2ccc(-c3c4nc(c(-c5c(F)c(F)c(F)c(F)c5F)c5ccc([nH]5)c(-c5c(F)c(F)c(F)c(F)c5F)c5nc(c(-c6c(F)c(F)c(F)c(F)c6F)c6ccc3[nH]6)C=C5)C=C4)cc2)nc2cc(Cl)c(Cl)cc21
REMARK SMILES IDX 14 1 13 2 12 3 10 4 11 5 9 7 8 8 7 9 6 10 93 11 85 12 86 13
REMARK SMILES IDX 92 14 87 15 90 16 88 17 91 18 89 19 2 20 1 21 3 22 4 23 5 24
REMARK SMILES IDX 15 25 16 26 17 27 18 28 19 29 20 30 21 32 22 33 23 34 84 35
REMARK SMILES IDX 24 36 83 37 25 38 26 39 27 40 77 41 28 42 82 43 76 44 78 45
REMARK SMILES IDX 29 46 81 47 75 48 74 49 30 51 62 52 42 53 61 54 43 55 46 56
REMARK SMILES IDX 60 57 79 58 44 59 45 60 59 62 80 63 47 64 31 65 32 66 40 67
REMARK SMILES IDX 33 68 34 69 38 70 41 71 35 72 36 73 39 74 37 75 63 76 64 77
REMARK SMILES IDX 72 78 65 79 66 80 70 81 73 82 67 83 68 84 71 85 69 86 48 87
REMARK SMILES IDX 49 88 57 89 50 90 51 91 55 92 58 93 52 94 53 95 56 96 54 97
REMARK H PARENT 12 6 19 31 78 50 46 61
REMARK Flexibility Score: inf
ROOT
ATOM      1  C   UNL A   1      35.160  22.767  25.934  1.00  0.00     0.021 C 
ENDROOT
BRANCH   1   2
ATOM      2  C   UNL A   1      34.219  23.927  26.269  1.00  0.00     0.116 C 
BRANCH   2   3
ATOM      3  N   UNL A   1      32.817  23.592  26.380  1.00  0.00    -0.355 N 
ATOM      4  C   UNL A   1      32.048  22.974  25.426  1.00  0.00     0.230 C 
ATOM      5  O   UNL A   1      31.179  22.189  25.828  1.00  0.00    -0.274 OA
ATOM      6  H   UNL A   1      32.369  23.832  27.223  1.00  0.00     0.163 HD
BRANCH   4   7
ATOM      7  C   UNL A   1      32.221  23.240  23.926  1.00  0.00     0.178 C 
BRANCH   7   8
ATOM      8  S   UNL A   1      31.382  24.709  23.369  1.00  0.00    -0.078 SA
BRANCH   8   9
ATOM      9  C   UNL A   1      31.728  26.323  23.866  1.00  0.00     0.169 A 
ATOM     10  N   UNL A   1      30.976  27.459  24.177  1.00  0.00    -0.316 N 
ATOM     11  C   UNL A   1      31.816  28.289  24.943  1.00  0.00     0.071 A 
ATOM     12  N   UNL A   1      32.939  26.422  24.389  1.00  0.00    -0.222 NA
ATOM     13  C   UNL A   1      32.987  27.569  25.104  1.00  0.00     0.091 A 
ATOM     14  C   UNL A   1      31.659  29.553  25.536  1.00  0.00     0.050 A 
ATOM     15  C   UNL A   1      34.017  28.049  25.925  1.00  0.00     0.052 A 
ATOM     16  C   UNL A   1      32.678  30.017  26.381  1.00  0.00     0.061 A 
ATOM     17  C   UNL A   1      33.843  29.272  26.578  1.00  0.00     0.061 A 
ATOM     18  Cl  UNL A   1      32.405  31.530  27.178  1.00  0.00    -0.083 Cl
ATOM     19  Cl  UNL A   1      35.121  29.810  27.612  1.00  0.00    -0.083 Cl
BRANCH  10  20
ATOM     20  C   UNL A   1      29.592  27.895  23.858  1.00  0.00     0.090 C 
ATOM     21  C   UNL A   1      28.597  26.715  23.878  1.00  0.00     0.032 C 
BRANCH  20  22
ATOM     22  C   UNL A   1      29.518  28.671  22.587  1.00  0.00     0.012 C 
ATOM     23  C   UNL A   1      28.242  29.448  22.339  1.00  0.00     0.006 C 
ATOM     24  C   UNL A   1      29.550  30.156  22.287  1.00  0.00     0.006 C 
ENDBRANCH  20  22
ENDBRANCH  10  20
ENDBRANCH   8   9
ENDBRANCH   7   8
ENDBRANCH   4   7
ENDBRANCH   2   3
ENDBRANCH   1   2
BRANCH   1  25
ATOM     25  C   UNL A   1      36.433  23.089  25.151  1.00  0.00     0.002 C 
BRANCH  25  26
ATOM     26  C   UNL A   1      37.010  21.968  24.292  1.00  0.00     0.002 C 
BRANCH  26  27
ATOM     27  C   UNL A   1      38.071  21.078  24.947  1.00  0.00     0.021 C 
BRANCH  27  28
ATOM     28  C   UNL A   1      38.755  21.667  26.178  1.00  0.00     0.116 C 
BRANCH  28  29
ATOM     29  N   UNL A   1      40.185  21.788  26.030  1.00  0.00    -0.352 N 
ATOM     30  C   UNL A   1      41.108  22.710  26.422  1.00  0.00     0.251 C 
ATOM     31  H   UNL A   1      40.583  21.036  25.533  1.00  0.00     0.163 HD
ATOM     32  O   UNL A   1      42.292  22.410  26.210  1.00  0.00    -0.269 OA
BRANCH  30  33
ATOM     33  C   UNL A   1      40.811  24.044  27.012  1.00  0.00     0.039 A 
ATOM     34  C   UNL A   1      39.759  24.888  26.652  1.00  0.00     0.014 A 
ATOM     35  C   UNL A   1      41.739  24.508  27.965  1.00  0.00     0.014 A 
ATOM     36  C   UNL A   1      39.707  26.191  27.138  1.00  0.00     0.010 A 
ATOM     37  C   UNL A   1      41.680  25.803  28.471  1.00  0.00     0.010 A 
ATOM     38  C   UNL A   1      40.695  26.664  28.011  1.00  0.00    -0.014 A 
BRANCH  38  39
ATOM     39  C   UNL A   1      40.601  28.050  28.461  1.00  0.00     0.031 A 
ATOM     40  C   UNL A   1      41.697  28.935  27.981  1.00  0.00     0.074 A 
ATOM     41  C   UNL A   1      39.605  28.541  29.227  1.00  0.00     0.049 A 
ATOM     42  N   UNL A   1      42.636  29.476  28.685  1.00  0.00    -0.248 NA
ATOM     43  C   UNL A   1      41.836  29.146  26.534  1.00  0.00     0.031 C 
ATOM     44  C   UNL A   1      38.334  27.917  29.601  1.00  0.00     0.029 A 
ATOM     45  N   UNL A   1      39.520  29.773  29.808  1.00  0.00    -0.354 N 
ATOM     46  C   UNL A   1      43.411  30.223  27.800  1.00  0.00     0.074 A 
ATOM     47  C   UNL A   1      42.943  29.891  26.480  1.00  0.00     0.031 C 
ATOM     48  C   UNL A   1      37.525  28.845  30.165  1.00  0.00     0.029 A 
ATOM     49  C   UNL A   1      38.273  30.079  30.337  1.00  0.00     0.049 A 
ATOM     50  H   UNL A   1      40.282  30.395  29.847  1.00  0.00     0.167 HD
ATOM     51  C   UNL A   1      44.255  31.192  28.251  1.00  0.00     0.037 A 
ATOM     52  C   UNL A   1      37.885  31.271  30.856  1.00  0.00     0.037 A 
ATOM     53  C   UNL A   1      44.550  31.013  29.650  1.00  0.00     0.049 A 
ATOM     54  C   UNL A   1      39.113  31.993  31.267  1.00  0.00     0.074 A 
ATOM     55  C   UNL A   1      45.181  30.039  30.398  1.00  0.00     0.029 A 
ATOM     56  N   UNL A   1      43.875  31.792  30.555  1.00  0.00    -0.354 N 
ATOM     57  N   UNL A   1      39.875  31.625  32.257  1.00  0.00    -0.248 NA
ATOM     58  C   UNL A   1      39.728  32.887  30.298  1.00  0.00     0.031 C 
ATOM     59  C   UNL A   1      44.457  29.991  31.627  1.00  0.00     0.029 A 
ATOM     60  C   UNL A   1      43.466  30.970  31.571  1.00  0.00     0.049 A 
ATOM     61  H   UNL A   1      43.715  32.760  30.487  1.00  0.00     0.167 HD
ATOM     62  C   UNL A   1      41.165  31.873  31.813  1.00  0.00     0.074 A 
ATOM     63  C   UNL A   1      41.008  32.729  30.640  1.00  0.00     0.031 C 
ATOM     64  C   UNL A   1      42.216  31.136  32.272  1.00  0.00     0.037 A 
BRANCH  51  65
ATOM     65  C   UNL A   1      44.520  32.506  27.548  1.00  0.00     0.064 A 
ATOM     66  C   UNL A   1      45.710  32.650  26.802  1.00  0.00     0.173 A 
ATOM     67  C   UNL A   1      43.845  33.708  27.845  1.00  0.00     0.173 A 
ATOM     68  F   UNL A   1      46.433  31.576  26.448  1.00  0.00    -0.203 F 
ATOM     69  C   UNL A   1      46.244  33.904  26.494  1.00  0.00     0.198 A 
ATOM     70  C   UNL A   1      44.357  34.956  27.493  1.00  0.00     0.198 A 
ATOM     71  F   UNL A   1      42.727  33.738  28.578  1.00  0.00    -0.203 F 
ATOM     72  F   UNL A   1      47.451  33.988  25.917  1.00  0.00    -0.200 F 
ATOM     73  C   UNL A   1      45.575  35.056  26.855  1.00  0.00     0.200 A 
ATOM     74  F   UNL A   1      43.698  36.064  27.860  1.00  0.00    -0.200 F 
ATOM     75  F   UNL A   1      46.121  36.259  26.634  1.00  0.00    -0.200 F 
ENDBRANCH  51  65
BRANCH  52  76
ATOM     76  C   UNL A   1      36.584  31.967  30.710  1.00  0.00     0.064 A 
ATOM     77  C   UNL A   1      35.788  32.258  31.832  1.00  0.00     0.173 A 
ATOM     78  C   UNL A   1      36.249  32.637  29.518  1.00  0.00     0.173 A 
ATOM     79  F   UNL A   1      36.064  31.696  33.019  1.00  0.00    -0.203 F 
ATOM     80  C   UNL A   1      34.750  33.195  31.776  1.00  0.00     0.198 A 
ATOM     81  C   UNL A   1      35.211  33.568  29.461  1.00  0.00     0.198 A 
ATOM     82  F   UNL A   1      36.990  32.480  28.412  1.00  0.00    -0.203 F 
ATOM     83  F   UNL A   1      34.062  33.501  32.885  1.00  0.00    -0.200 F 
ATOM     84  C   UNL A   1      34.472  33.860  30.593  1.00  0.00     0.200 A 
ATOM     85  F   UNL A   1      34.977  34.235  28.321  1.00  0.00    -0.200 F 
ATOM     86  F   UNL A   1      33.528  34.810  30.555  1.00  0.00    -0.200 F 
ENDBRANCH  52  76
BRANCH  64  87
ATOM     87  C   UNL A   1      41.987  30.241  33.456  1.00  0.00     0.064 A 
ATOM     88  C   UNL A   1      41.586  28.897  33.357  1.00  0.00     0.173 A 
ATOM     89  C   UNL A   1      42.349  30.716  34.723  1.00  0.00     0.173 A 
ATOM     90  F   UNL A   1      41.313  28.343  32.168  1.00  0.00    -0.203 F 
ATOM     91  C   UNL A   1      41.525  28.079  34.483  1.00  0.00     0.198 A 
ATOM     92  C   UNL A   1      42.322  29.886  35.839  1.00  0.00     0.198 A 
ATOM     93  F   UNL A   1      42.789  31.976  34.867  1.00  0.00    -0.203 F 
ATOM     94  F   UNL A   1      41.142  26.798  34.365  1.00  0.00    -0.200 F 
ATOM     95  C   UNL A   1      41.904  28.571  35.722  1.00  0.00     0.200 A 
ATOM     96  F   UNL A   1      42.737  30.353  37.025  1.00  0.00    -0.200 F 
ATOM     97  F   UNL A   1      41.898  27.769  36.796  1.00  0.00    -0.200 F 
ENDBRANCH  64  87
ENDBRANCH  38  39
ENDBRANCH  30  33
ENDBRANCH  28  29
ENDBRANCH  27  28
ENDBRANCH  26  27
ENDBRANCH  25  26
ENDBRANCH   1  25
TORSDOF 17
ENDMDL
MODEL 2
REMARK VINA RESULT:     -12.1      3.544      9.087
REMARK SMILES C[C@H](C1CC1)n1c(SCC(=O)NCCCCCCNC(=O)c2ccc(-c3c4nc(c(-c5c(F)c(F)c(F)c(F)c5F)c5ccc([nH]5)c(-c5c(F)c(F)c(F)c(F)c5F)c5nc(c(-c6c(F)c(F)c(F)c(F)c6F)c6ccc3[nH]6)C=C5)C=C4)cc2)nc2cc(Cl)c(Cl)cc21
REMARK SMILES IDX 14 1 13 2 12 3 10 4 11 5 9 7 8 8 7 9 6 10 93 11 85 12 86 13
REMARK SMILES IDX 92 14 87 15 90 16 88 17 91 18 89 19 2 20 1 21 3 22 4 23 5 24
REMARK SMILES IDX 15 25 16 26 17 27 18 28 19 29 20 30 21 32 22 33 23 34 84 35
REMARK SMILES IDX 24 36 83 37 25 38 26 39 27 40 77 41 28 42 82 43 76 44 78 45
REMARK SMILES IDX 29 46 81 47 75 48 74 49 30 51 62 52 42 53 61 54 43 55 46 56
REMARK SMILES IDX 60 57 79 58 44 59 45 60 59 62 80 63 47 64 31 65 32 66 40 67
REMARK SMILES IDX 33 68 34 69 38 70 41 71 35 72 36 73 39 74 37 75 63 76 64 77
REMARK SMILES IDX 72 78 65 79 66 80 70 81 73 82 67 83 68 84 71 85 69 86 48 87
REMARK SMILES IDX 49 88 57 89 50 90 51 91 55 92 58 93 52 94 53 95 56 96 54 97
REMARK H PARENT 12 6 19 31 78 50 46 61
REMARK Flexibility Score: inf
ROOT
ATOM      1  C   UNL A   1      33.622  27.762  25.967  1.00  0.00     0.021 C 
ENDROOT
BRANCH   1   2
ATOM      2  C   UNL A   1      33.421  28.092  24.485  1.00  0.00     0.116 C 
BRANCH   2   3
ATOM      3  N   UNL A   1      33.857  27.083  23.547  1.00  0.00    -0.355 N 
ATOM      4  C   UNL A   1      33.071  26.418  22.639  1.00  0.00     0.230 C 
ATOM      5  O   UNL A   1      33.584  26.144  21.547  1.00  0.00    -0.274 OA
ATOM      6  H   UNL A   1      34.813  26.848  23.561  1.00  0.00     0.163 HD
BRANCH   4   7
ATOM      7  C   UNL A   1      31.627  26.003  22.945  1.00  0.00     0.178 C 
BRANCH   7   8
ATOM      8  S   UNL A   1      31.511  24.479  23.860  1.00  0.00    -0.078 SA
BRANCH   8   9
ATOM      9  C   UNL A   1      32.835  23.577  24.496  1.00  0.00     0.169 A 
ATOM     10  N   UNL A   1      33.429  22.343  24.221  1.00  0.00    -0.316 N 
ATOM     11  C   UNL A   1      34.725  22.400  24.769  1.00  0.00     0.071 A 
ATOM     12  N   UNL A   1      33.678  24.350  25.159  1.00  0.00    -0.222 NA
ATOM     13  C   UNL A   1      34.849  23.685  25.270  1.00  0.00     0.091 A 
ATOM     14  C   UNL A   1      35.794  21.492  24.839  1.00  0.00     0.050 A 
ATOM     15  C   UNL A   1      36.070  24.136  25.791  1.00  0.00     0.052 A 
ATOM     16  C   UNL A   1      37.023  21.955  25.332  1.00  0.00     0.061 A 
ATOM     17  C   UNL A   1      37.162  23.264  25.800  1.00  0.00     0.061 A 
ATOM     18  Cl  UNL A   1      38.347  20.840  25.306  1.00  0.00    -0.083 Cl
ATOM     19  Cl  UNL A   1      38.659  23.873  26.415  1.00  0.00    -0.083 Cl
BRANCH  10  20
ATOM     20  C   UNL A   1      32.968  21.109  23.533  1.00  0.00     0.090 C 
ATOM     21  C   UNL A   1      32.064  21.428  22.324  1.00  0.00     0.032 C 
BRANCH  20  22
ATOM     22  C   UNL A   1      32.334  20.138  24.469  1.00  0.00     0.012 C 
ATOM     23  C   UNL A   1      32.425  18.673  24.093  1.00  0.00     0.006 C 
ATOM     24  C   UNL A   1      32.904  19.115  25.431  1.00  0.00     0.006 C 
ENDBRANCH  20  22
ENDBRANCH  10  20
ENDBRANCH   8   9
ENDBRANCH   7   8
ENDBRANCH   4   7
ENDBRANCH   2   3
ENDBRANCH   1   2
BRANCH   1  25
ATOM     25  C   UNL A   1      33.671  28.928  26.954  1.00  0.00     0.002 C 
BRANCH  25  26
ATOM     26  C   UNL A   1      35.046  29.523  27.242  1.00  0.00     0.002 C 
BRANCH  26  27
ATOM     27  C   UNL A   1      35.099  31.033  27.501  1.00  0.00     0.021 C 
BRANCH  27  28
ATOM     28  C   UNL A   1      33.941  31.601  28.319  1.00  0.00     0.116 C 
BRANCH  28  29
ATOM     29  N   UNL A   1      34.362  32.178  29.573  1.00  0.00    -0.352 N 
ATOM     30  C   UNL A   1      35.473  32.055  30.352  1.00  0.00     0.251 C 
ATOM     31  H   UNL A   1      33.698  32.799  29.951  1.00  0.00     0.163 HD
ATOM     32  O   UNL A   1      35.534  32.817  31.327  1.00  0.00    -0.269 OA
BRANCH  30  33
ATOM     33  C   UNL A   1      36.563  31.058  30.164  1.00  0.00     0.039 A 
ATOM     34  C   UNL A   1      36.527  29.717  30.548  1.00  0.00     0.014 A 
ATOM     35  C   UNL A   1      37.760  31.561  29.616  1.00  0.00     0.014 A 
ATOM     36  C   UNL A   1      37.682  28.942  30.497  1.00  0.00     0.010 A 
ATOM     37  C   UNL A   1      38.912  30.785  29.544  1.00  0.00     0.010 A 
ATOM     38  C   UNL A   1      38.887  29.490  30.039  1.00  0.00    -0.014 A 
BRANCH  38  39
ATOM     39  C   UNL A   1      40.069  28.633  30.040  1.00  0.00     0.031 A 
ATOM     40  C   UNL A   1      40.729  28.485  31.366  1.00  0.00     0.074 A 
ATOM     41  C   UNL A   1      40.547  27.986  28.957  1.00  0.00     0.049 A 
ATOM     42  N   UNL A   1      41.885  28.940  31.724  1.00  0.00    -0.248 NA
ATOM     43  C   UNL A   1      39.965  27.865  32.456  1.00  0.00     0.031 C 
ATOM     44  C   UNL A   1      39.930  27.805  27.642  1.00  0.00     0.029 A 
ATOM     45  N   UNL A   1      41.718  27.294  28.840  1.00  0.00    -0.354 N 
ATOM     46  C   UNL A   1      42.072  28.539  33.046  1.00  0.00     0.074 A 
ATOM     47  C   UNL A   1      40.816  27.984  33.478  1.00  0.00     0.031 C 
ATOM     48  C   UNL A   1      40.630  26.886  26.936  1.00  0.00     0.029 A 
ATOM     49  C   UNL A   1      41.827  26.535  27.682  1.00  0.00     0.049 A 
ATOM     50  H   UNL A   1      42.426  27.329  29.521  1.00  0.00     0.167 HD
ATOM     51  C   UNL A   1      43.311  28.539  33.611  1.00  0.00     0.037 A 
ATOM     52  C   UNL A   1      42.823  25.665  27.377  1.00  0.00     0.037 A 
ATOM     53  C   UNL A   1      44.218  29.379  32.872  1.00  0.00     0.049 A 
ATOM     54  C   UNL A   1      44.008  26.052  28.179  1.00  0.00     0.074 A 
ATOM     55  C   UNL A   1      44.289  30.728  32.588  1.00  0.00     0.029 A 
ATOM     56  N   UNL A   1      45.093  28.775  32.003  1.00  0.00    -0.354 N 
ATOM     57  N   UNL A   1      44.686  27.148  27.990  1.00  0.00    -0.248 NA
ATOM     58  C   UNL A   1      44.180  25.421  29.478  1.00  0.00     0.031 C 
ATOM     59  C   UNL A   1      44.810  30.801  31.262  1.00  0.00     0.029 A 
ATOM     60  C   UNL A   1      45.072  29.497  30.841  1.00  0.00     0.049 A 
ATOM     61  H   UNL A   1      45.634  27.973  32.183  1.00  0.00     0.167 HD
ATOM     62  C   UNL A   1      45.014  27.577  29.267  1.00  0.00     0.074 A 
ATOM     63  C   UNL A   1      44.754  26.431  30.134  1.00  0.00     0.031 C 
ATOM     64  C   UNL A   1      45.201  28.901  29.533  1.00  0.00     0.037 A 
BRANCH  51  65
ATOM     65  C   UNL A   1      43.813  27.505  34.595  1.00  0.00     0.064 A 
ATOM     66  C   UNL A   1      43.778  26.141  34.226  1.00  0.00     0.173 A 
ATOM     67  C   UNL A   1      44.004  27.753  35.970  1.00  0.00     0.173 A 
ATOM     68  F   UNL A   1      43.614  25.782  32.944  1.00  0.00    -0.203 F 
ATOM     69  C   UNL A   1      43.800  25.117  35.176  1.00  0.00     0.198 A 
ATOM     70  C   UNL A   1      44.074  26.725  36.909  1.00  0.00     0.198 A 
ATOM     71  F   UNL A   1      44.019  28.990  36.478  1.00  0.00    -0.203 F 
ATOM     72  F   UNL A   1      43.611  23.848  34.788  1.00  0.00    -0.200 F 
ATOM     73  C   UNL A   1      43.930  25.411  36.519  1.00  0.00     0.200 A 
ATOM     74  F   UNL A   1      44.192  27.030  38.210  1.00  0.00    -0.200 F 
ATOM     75  F   UNL A   1      43.871  24.438  37.438  1.00  0.00    -0.200 F 
ENDBRANCH  51  65
BRANCH  52  76
ATOM     76  C   UNL A   1      42.727  24.340  26.717  1.00  0.00     0.064 A 
ATOM     77  C   UNL A   1      43.392  24.084  25.505  1.00  0.00     0.173 A 
ATOM     78  C   UNL A   1      42.252  23.214  27.417  1.00  0.00     0.173 A 
ATOM     79  F   UNL A   1      43.913  25.097  24.795  1.00  0.00    -0.203 F 
ATOM     80  C   UNL A   1      43.606  22.781  25.042  1.00  0.00     0.198 A 
ATOM     81  C   UNL A   1      42.463  21.914  26.953  1.00  0.00     0.198 A 
ATOM     82  F   UNL A   1      41.667  23.348  28.615  1.00  0.00    -0.203 F 
ATOM     83  F   UNL A   1      44.309  22.575  23.920  1.00  0.00    -0.200 F 
ATOM     84  C   UNL A   1      43.154  21.696  25.775  1.00  0.00     0.200 A 
ATOM     85  F   UNL A   1      42.055  20.871  27.691  1.00  0.00    -0.200 F 
ATOM     86  F   UNL A   1      43.422  20.446  25.373  1.00  0.00    -0.200 F 
ENDBRANCH  52  76
BRANCH  64  87
ATOM     87  C   UNL A   1      45.306  29.847  28.372  1.00  0.00     0.064 A 
ATOM     88  C   UNL A   1      44.200  30.454  27.753  1.00  0.00     0.173 A 
ATOM     89  C   UNL A   1      46.581  30.279  27.985  1.00  0.00     0.173 A 
ATOM     90  F   UNL A   1      42.948  30.161  28.132  1.00  0.00    -0.203 F 
ATOM     91  C   UNL A   1      44.368  31.429  26.772  1.00  0.00     0.198 A 
ATOM     92  C   UNL A   1      46.746  31.278  27.032  1.00  0.00     0.198 A 
ATOM     93  F   UNL A   1      47.671  29.770  28.581  1.00  0.00    -0.203 F 
ATOM     94  F   UNL A   1      43.297  31.997  26.195  1.00  0.00    -0.200 F 
ATOM     95  C   UNL A   1      45.641  31.849  26.420  1.00  0.00     0.200 A 
ATOM     96  F   UNL A   1      47.977  31.715  26.732  1.00  0.00    -0.200 F 
ATOM     97  F   UNL A   1      45.803  32.824  25.516  1.00  0.00    -0.200 F 
ENDBRANCH  64  87
ENDBRANCH  38  39
ENDBRANCH  30  33
ENDBRANCH  28  29
ENDBRANCH  27  28
ENDBRANCH  26  27
ENDBRANCH  25  26
ENDBRANCH   1  25
TORSDOF 17
ENDMDL
MODEL 3
REMARK VINA RESULT:     -11.8      2.701      4.120
REMARK SMILES C[C@H](C1CC1)n1c(SCC(=O)NCCCCCCNC(=O)c2ccc(-c3c4nc(c(-c5c(F)c(F)c(F)c(F)c5F)c5ccc([nH]5)c(-c5c(F)c(F)c(F)c(F)c5F)c5nc(c(-c6c(F)c(F)c(F)c(F)c6F)c6ccc3[nH]6)C=C5)C=C4)cc2)nc2cc(Cl)c(Cl)cc21
REMARK SMILES IDX 14 1 13 2 12 3 10 4 11 5 9 7 8 8 7 9 6 10 93 11 85 12 86 13
REMARK SMILES IDX 92 14 87 15 90 16 88 17 91 18 89 19 2 20 1 21 3 22 4 23 5 24
REMARK SMILES IDX 15 25 16 26 17 27 18 28 19 29 20 30 21 32 22 33 23 34 84 35
REMARK SMILES IDX 24 36 83 37 25 38 26 39 27 40 77 41 28 42 82 43 76 44 78 45
REMARK SMILES IDX 29 46 81 47 75 48 74 49 30 51 62 52 42 53 61 54 43 55 46 56
REMARK SMILES IDX 60 57 79 58 44 59 45 60 59 62 80 63 47 64 31 65 32 66 40 67
REMARK SMILES IDX 33 68 34 69 38 70 41 71 35 72 36 73 39 74 37 75 63 76 64 77
REMARK SMILES IDX 72 78 65 79 66 80 70 81 73 82 67 83 68 84 71 85 69 86 48 87
REMARK SMILES IDX 49 88 57 89 50 90 51 91 55 92 58 93 52 94 53 95 56 96 54 97
REMARK H PARENT 12 6 19 31 78 50 46 61
REMARK Flexibility Score: inf
ROOT
ATOM      1  C   UNL A   1      40.458  21.962  27.424  1.00  0.00     0.021 C 
ENDROOT
BRANCH   1   2
ATOM      2  C   UNL A   1      39.679  21.969  26.106  1.00  0.00     0.116 C 
BRANCH   2   3
ATOM      3  N   UNL A   1      38.353  21.396  26.151  1.00  0.00    -0.355 N 
ATOM      4  C   UNL A   1      37.362  21.558  25.216  1.00  0.00     0.230 C 
ATOM      5  O   UNL A   1      36.624  20.587  25.005  1.00  0.00    -0.274 OA
ATOM      6  H   UNL A   1      38.140  20.833  26.930  1.00  0.00     0.163 HD
BRANCH   4   7
ATOM      7  C   UNL A   1      37.141  22.879  24.468  1.00  0.00     0.178 C 
BRANCH   7   8
ATOM      8  S   UNL A   1      35.477  23.076  23.862  1.00  0.00    -0.078 SA
BRANCH   8   9
ATOM      9  C   UNL A   1      34.293  24.160  24.488  1.00  0.00     0.169 A 
ATOM     10  N   UNL A   1      33.506  24.225  25.641  1.00  0.00    -0.316 N 
ATOM     11  C   UNL A   1      33.103  25.569  25.764  1.00  0.00     0.071 A 
ATOM     12  N   UNL A   1      34.383  25.355  23.930  1.00  0.00    -0.222 NA
ATOM     13  C   UNL A   1      33.731  26.232  24.725  1.00  0.00     0.091 A 
ATOM     14  C   UNL A   1      32.302  26.265  26.686  1.00  0.00     0.050 A 
ATOM     15  C   UNL A   1      33.646  27.627  24.609  1.00  0.00     0.052 A 
ATOM     16  C   UNL A   1      32.244  27.663  26.586  1.00  0.00     0.061 A 
ATOM     17  C   UNL A   1      32.912  28.339  25.561  1.00  0.00     0.061 A 
ATOM     18  Cl  UNL A   1      31.334  28.497  27.800  1.00  0.00    -0.083 Cl
ATOM     19  Cl  UNL A   1      32.865  30.060  25.405  1.00  0.00    -0.083 Cl
BRANCH  10  20
ATOM     20  C   UNL A   1      33.061  23.222  26.642  1.00  0.00     0.090 C 
ATOM     21  C   UNL A   1      34.230  22.341  27.132  1.00  0.00     0.032 C 
BRANCH  20  22
ATOM     22  C   UNL A   1      31.908  22.409  26.161  1.00  0.00     0.012 C 
ATOM     23  C   UNL A   1      30.571  22.669  26.823  1.00  0.00     0.006 C 
ATOM     24  C   UNL A   1      30.681  22.752  25.341  1.00  0.00     0.006 C 
ENDBRANCH  20  22
ENDBRANCH  10  20
ENDBRANCH   8   9
ENDBRANCH   7   8
ENDBRANCH   4   7
ENDBRANCH   2   3
ENDBRANCH   1   2
BRANCH   1  25
ATOM     25  C   UNL A   1      41.588  20.943  27.576  1.00  0.00     0.002 C 
BRANCH  25  26
ATOM     26  C   UNL A   1      41.341  19.556  26.992  1.00  0.00     0.002 C 
BRANCH  26  27
ATOM     27  C   UNL A   1      42.207  19.151  25.794  1.00  0.00     0.021 C 
BRANCH  27  28
ATOM     28  C   UNL A   1      43.667  18.839  26.115  1.00  0.00     0.116 C 
BRANCH  28  29
ATOM     29  N   UNL A   1      44.593  19.447  25.190  1.00  0.00    -0.352 N 
ATOM     30  C   UNL A   1      45.007  20.725  24.960  1.00  0.00     0.251 C 
ATOM     31  H   UNL A   1      45.020  18.794  24.590  1.00  0.00     0.163 HD
ATOM     32  O   UNL A   1      45.927  20.853  24.140  1.00  0.00    -0.269 OA
BRANCH  30  33
ATOM     33  C   UNL A   1      44.414  21.954  25.556  1.00  0.00     0.039 A 
ATOM     34  C   UNL A   1      43.441  22.765  24.971  1.00  0.00     0.014 A 
ATOM     35  C   UNL A   1      44.960  22.356  26.791  1.00  0.00     0.014 A 
ATOM     36  C   UNL A   1      43.115  23.992  25.542  1.00  0.00     0.010 A 
ATOM     37  C   UNL A   1      44.623  23.571  27.377  1.00  0.00     0.010 A 
ATOM     38  C   UNL A   1      43.741  24.417  26.721  1.00  0.00    -0.014 A 
BRANCH  38  39
ATOM     39  C   UNL A   1      43.377  25.727  27.251  1.00  0.00     0.031 A 
ATOM     40  C   UNL A   1      44.315  26.826  26.891  1.00  0.00     0.074 A 
ATOM     41  C   UNL A   1      42.277  25.977  27.991  1.00  0.00     0.049 A 
ATOM     42  N   UNL A   1      45.109  27.472  27.680  1.00  0.00    -0.248 NA
ATOM     43  C   UNL A   1      44.477  27.163  25.471  1.00  0.00     0.031 C 
ATOM     44  C   UNL A   1      41.125  25.112  28.252  1.00  0.00     0.029 A 
ATOM     45  N   UNL A   1      41.945  27.129  28.643  1.00  0.00    -0.354 N 
ATOM     46  C   UNL A   1      45.774  28.408  26.889  1.00  0.00     0.074 A 
ATOM     47  C   UNL A   1      45.431  28.095  25.526  1.00  0.00     0.031 C 
ATOM     48  C   UNL A   1      40.137  25.837  28.828  1.00  0.00     0.029 A 
ATOM     49  C   UNL A   1      40.641  27.168  29.119  1.00  0.00     0.049 A 
ATOM     50  H   UNL A   1      42.578  27.872  28.764  1.00  0.00     0.167 HD
ATOM     51  C   UNL A   1      46.408  29.476  27.447  1.00  0.00     0.037 A 
ATOM     52  C   UNL A   1      40.021  28.232  29.691  1.00  0.00     0.037 A 
ATOM     53  C   UNL A   1      46.669  29.251  28.846  1.00  0.00     0.049 A 
ATOM     54  C   UNL A   1      41.078  29.129  30.215  1.00  0.00     0.074 A 
ATOM     55  C   UNL A   1      47.432  28.353  29.565  1.00  0.00     0.029 A 
ATOM     56  N   UNL A   1      45.824  29.830  29.760  1.00  0.00    -0.354 N 
ATOM     57  N   UNL A   1      41.851  28.831  31.221  1.00  0.00    -0.248 NA
ATOM     58  C   UNL A   1      41.563  30.186  29.340  1.00  0.00     0.031 C 
ATOM     59  C   UNL A   1      46.676  28.088  30.746  1.00  0.00     0.029 A 
ATOM     60  C   UNL A   1      45.527  28.877  30.697  1.00  0.00     0.049 A 
ATOM     61  H   UNL A   1      45.495  30.757  29.745  1.00  0.00     0.167 HD
ATOM     62  C   UNL A   1      43.092  29.335  30.866  1.00  0.00     0.074 A 
ATOM     63  C   UNL A   1      42.834  30.233  29.743  1.00  0.00     0.031 C 
ATOM     64  C   UNL A   1      44.239  28.766  31.336  1.00  0.00     0.037 A 
BRANCH  51  65
ATOM     65  C   UNL A   1      46.460  30.864  26.846  1.00  0.00     0.064 A 
ATOM     66  C   UNL A   1      47.684  31.568  26.867  1.00  0.00     0.173 A 
ATOM     67  C   UNL A   1      45.320  31.644  26.565  1.00  0.00     0.173 A 
ATOM     68  F   UNL A   1      48.839  30.930  27.111  1.00  0.00    -0.203 F 
ATOM     69  C   UNL A   1      47.741  32.959  26.747  1.00  0.00     0.198 A 
ATOM     70  C   UNL A   1      45.387  33.026  26.398  1.00  0.00     0.198 A 
ATOM     71  F   UNL A   1      44.086  31.129  26.551  1.00  0.00    -0.203 F 
ATOM     72  F   UNL A   1      48.907  33.594  26.925  1.00  0.00    -0.200 F 
ATOM     73  C   UNL A   1      46.589  33.689  26.530  1.00  0.00     0.200 A 
ATOM     74  F   UNL A   1      44.257  33.720  26.196  1.00  0.00    -0.200 F 
ATOM     75  F   UNL A   1      46.627  35.027  26.495  1.00  0.00    -0.200 F 
ENDBRANCH  51  65
BRANCH  52  76
ATOM     76  C   UNL A   1      38.623  28.694  29.516  1.00  0.00     0.064 A 
ATOM     77  C   UNL A   1      37.817  28.998  30.628  1.00  0.00     0.173 A 
ATOM     78  C   UNL A   1      38.160  29.148  28.267  1.00  0.00     0.173 A 
ATOM     79  F   UNL A   1      38.205  28.639  31.861  1.00  0.00    -0.203 F 
ATOM     80  C   UNL A   1      36.642  29.748  30.502  1.00  0.00     0.198 A 
ATOM     81  C   UNL A   1      36.985  29.893  28.142  1.00  0.00     0.198 A 
ATOM     82  F   UNL A   1      38.890  28.969  27.158  1.00  0.00    -0.203 F 
ATOM     83  F   UNL A   1      35.940  30.081  31.594  1.00  0.00    -0.200 F 
ATOM     84  C   UNL A   1      36.236  30.208  29.260  1.00  0.00     0.200 A 
ATOM     85  F   UNL A   1      36.623  30.366  26.940  1.00  0.00    -0.200 F 
ATOM     86  F   UNL A   1      35.151  30.988  29.147  1.00  0.00    -0.200 F 
ENDBRANCH  52  76
BRANCH  64  87
ATOM     87  C   UNL A   1      44.124  27.761  32.446  1.00  0.00     0.064 A 
ATOM     88  C   UNL A   1      44.050  26.372  32.241  1.00  0.00     0.173 A 
ATOM     89  C   UNL A   1      44.263  28.214  33.764  1.00  0.00     0.173 A 
ATOM     90  F   UNL A   1      44.010  25.857  31.005  1.00  0.00    -0.203 F 
ATOM     91  C   UNL A   1      44.087  25.483  33.313  1.00  0.00     0.198 A 
ATOM     92  C   UNL A   1      44.334  27.322  34.829  1.00  0.00     0.198 A 
ATOM     93  F   UNL A   1      44.389  29.527  34.012  1.00  0.00    -0.203 F 
ATOM     94  F   UNL A   1      44.017  24.161  33.095  1.00  0.00    -0.200 F 
ATOM     95  C   UNL A   1      44.240  25.959  34.606  1.00  0.00     0.200 A 
ATOM     96  F   UNL A   1      44.533  27.785  36.071  1.00  0.00    -0.200 F 
ATOM     97  F   UNL A   1      44.329  25.102  35.633  1.00  0.00    -0.200 F 
ENDBRANCH  64  87
ENDBRANCH  38  39
ENDBRANCH  30  33
ENDBRANCH  28  29
ENDBRANCH  27  28
ENDBRANCH  26  27
ENDBRANCH  25  26
ENDBRANCH   1  25
TORSDOF 17
ENDMDL
