MODEL 1
REMARK VINA RESULT:     -11.0      0.000      0.000
REMARK SMILES O=C(COC[C@@H]1CCCCO1)NCCCCCCNC(=O)c1ccc(-c2c3nc(c(-c4c(F)c(F)c(F)c(F)c4F)c4ccc([nH]4)c(-c4c(F)c(F)c(F)c(F)c4F)c4nc(c(-c5c(F)c(F)c(F)c(F)c5F)c5ccc2[nH]5)C=C4)C=C3)cc1
REMARK SMILES IDX 15 1 14 2 13 3 12 4 1 5 2 6 3 8 4 9 5 10 6 11 7 12 11 13
REMARK SMILES IDX 8 14 10 15 9 16 16 17 17 18 18 19 19 20 20 21 21 23 22 24
REMARK SMILES IDX 23 25 84 26 24 27 83 28 25 29 26 30 27 31 77 32 28 33 82 34
REMARK SMILES IDX 76 35 78 36 29 37 81 38 75 39 74 40 30 42 62 43 42 44 61 45
REMARK SMILES IDX 43 46 46 47 60 48 79 49 44 50 45 51 59 53 80 54 47 55 31 56
REMARK SMILES IDX 32 57 40 58 33 59 34 60 38 61 41 62 35 63 36 64 39 65 37 66
REMARK SMILES IDX 63 67 64 68 72 69 65 70 66 71 70 72 73 73 67 74 68 75 71 76
REMARK SMILES IDX 69 77 48 78 49 79 57 80 50 81 51 82 55 83 58 84 52 85 53 86
REMARK SMILES IDX 56 87 54 88
REMARK H PARENT 12 7 19 22 78 41 46 52
REMARK Flexibility Score: inf
ROOT
ATOM      1  C   UNL A   1      32.965  30.047  26.934  1.00  0.00     0.002 C 
ENDROOT
BRANCH   1   2
ATOM      2  C   UNL A   1      32.787  28.564  27.281  1.00  0.00     0.021 C 
BRANCH   2   3
ATOM      3  C   UNL A   1      33.088  27.614  26.120  1.00  0.00     0.116 C 
BRANCH   3   4
ATOM      4  N   UNL A   1      31.895  27.340  25.348  1.00  0.00    -0.354 N 
ATOM      5  O   UNL A   1      33.006  26.292  23.641  1.00  0.00    -0.272 OA
ATOM      6  C   UNL A   1      31.964  26.736  24.114  1.00  0.00     0.245 C 
ATOM      7  H   UNL A   1      31.016  27.591  25.713  1.00  0.00     0.163 HD
BRANCH   6   8
ATOM      8  C   UNL A   1      30.630  26.709  23.342  1.00  0.00     0.260 C 
BRANCH   8   9
ATOM      9  O   UNL A   1      29.432  27.293  23.817  1.00  0.00    -0.369 OA
BRANCH   9  10
ATOM     10  C   UNL A   1      28.803  28.266  22.988  1.00  0.00     0.192 C 
BRANCH  10  11
ATOM     11  C   UNL A   1      29.546  29.598  22.720  1.00  0.00     0.144 C 
ATOM     12  C   UNL A   1      29.328  30.765  23.684  1.00  0.00     0.034 C 
ATOM     13  O   UNL A   1      29.385  30.035  21.355  1.00  0.00    -0.376 OA
ATOM     14  C   UNL A   1      28.041  31.531  23.413  1.00  0.00     0.005 C 
ATOM     15  C   UNL A   1      28.152  30.695  21.077  1.00  0.00     0.160 C 
ATOM     16  C   UNL A   1      27.981  31.930  21.948  1.00  0.00     0.029 C 
ENDBRANCH  10  11
ENDBRANCH   9  10
ENDBRANCH   8   9
ENDBRANCH   6   8
ENDBRANCH   3   4
ENDBRANCH   2   3
ENDBRANCH   1   2
BRANCH   1  17
ATOM     17  C   UNL A   1      31.720  30.731  26.359  1.00  0.00     0.002 C 
BRANCH  17  18
ATOM     18  C   UNL A   1      31.478  32.153  26.865  1.00  0.00     0.021 C 
BRANCH  18  19
ATOM     19  C   UNL A   1      32.745  32.929  27.201  1.00  0.00     0.116 C 
BRANCH  19  20
ATOM     20  N   UNL A   1      32.460  34.294  27.616  1.00  0.00    -0.352 N 
ATOM     21  C   UNL A   1      32.999  35.019  28.650  1.00  0.00     0.251 C 
ATOM     22  H   UNL A   1      31.783  34.765  27.079  1.00  0.00     0.163 HD
ATOM     23  O   UNL A   1      32.508  36.093  28.976  1.00  0.00    -0.269 OA
BRANCH  21  24
ATOM     24  C   UNL A   1      34.167  34.488  29.385  1.00  0.00     0.039 A 
ATOM     25  C   UNL A   1      33.957  33.844  30.606  1.00  0.00     0.014 A 
ATOM     26  C   UNL A   1      35.459  34.621  28.872  1.00  0.00     0.014 A 
ATOM     27  C   UNL A   1      35.040  33.279  31.284  1.00  0.00     0.010 A 
ATOM     28  C   UNL A   1      36.524  33.989  29.507  1.00  0.00     0.010 A 
ATOM     29  C   UNL A   1      36.327  33.315  30.722  1.00  0.00    -0.014 A 
BRANCH  29  30
ATOM     30  C   UNL A   1      37.476  32.654  31.390  1.00  0.00     0.031 A 
ATOM     31  C   UNL A   1      38.175  31.499  30.727  1.00  0.00     0.074 A 
ATOM     32  C   UNL A   1      37.850  33.053  32.621  1.00  0.00     0.049 A 
ATOM     33  N   UNL A   1      39.154  30.755  31.177  1.00  0.00    -0.248 NA
ATOM     34  C   UNL A   1      37.695  31.114  29.391  1.00  0.00     0.031 C 
ATOM     35  C   UNL A   1      37.222  34.130  33.387  1.00  0.00     0.029 A 
ATOM     36  N   UNL A   1      38.844  32.594  33.449  1.00  0.00    -0.354 N 
ATOM     37  C   UNL A   1      39.397  29.811  30.187  1.00  0.00     0.074 A 
ATOM     38  C   UNL A   1      38.425  30.039  29.139  1.00  0.00     0.031 C 
ATOM     39  C   UNL A   1      37.859  34.264  34.561  1.00  0.00     0.029 A 
ATOM     40  C   UNL A   1      38.911  33.257  34.651  1.00  0.00     0.049 A 
ATOM     41  H   UNL A   1      39.452  31.858  33.205  1.00  0.00     0.167 HD
ATOM     42  C   UNL A   1      40.359  28.859  30.144  1.00  0.00     0.037 A 
ATOM     43  C   UNL A   1      39.723  33.066  35.708  1.00  0.00     0.037 A 
ATOM     44  C   UNL A   1      41.334  28.649  31.183  1.00  0.00     0.049 A 
ATOM     45  C   UNL A   1      40.768  31.984  35.645  1.00  0.00     0.074 A 
ATOM     46  C   UNL A   1      42.383  27.745  31.210  1.00  0.00     0.029 A 
ATOM     47  N   UNL A   1      41.375  29.345  32.382  1.00  0.00    -0.354 N 
ATOM     48  N   UNL A   1      41.034  31.145  34.674  1.00  0.00    -0.248 NA
ATOM     49  C   UNL A   1      41.629  31.827  36.825  1.00  0.00     0.031 C 
ATOM     50  C   UNL A   1      43.021  27.855  32.450  1.00  0.00     0.029 A 
ATOM     51  C   UNL A   1      42.413  28.871  33.169  1.00  0.00     0.049 A 
ATOM     52  H   UNL A   1      40.757  30.068  32.638  1.00  0.00     0.167 HD
ATOM     53  C   UNL A   1      42.111  30.385  35.110  1.00  0.00     0.074 A 
ATOM     54  C   UNL A   1      42.460  30.874  36.428  1.00  0.00     0.031 C 
ATOM     55  C   UNL A   1      42.754  29.373  34.476  1.00  0.00     0.037 A 
BRANCH  42  56
ATOM     56  C   UNL A   1      40.405  27.968  28.935  1.00  0.00     0.064 A 
ATOM     57  C   UNL A   1      41.178  28.291  27.809  1.00  0.00     0.173 A 
ATOM     58  C   UNL A   1      39.698  26.756  28.917  1.00  0.00     0.173 A 
ATOM     59  F   UNL A   1      41.866  29.443  27.770  1.00  0.00    -0.203 F 
ATOM     60  C   UNL A   1      41.217  27.450  26.700  1.00  0.00     0.198 A 
ATOM     61  C   UNL A   1      39.767  25.901  27.819  1.00  0.00     0.198 A 
ATOM     62  F   UNL A   1      38.947  26.394  29.968  1.00  0.00    -0.203 F 
ATOM     63  F   UNL A   1      41.920  27.807  25.617  1.00  0.00    -0.200 F 
ATOM     64  C   UNL A   1      40.519  26.253  26.709  1.00  0.00     0.200 A 
ATOM     65  F   UNL A   1      39.103  24.737  27.837  1.00  0.00    -0.200 F 
ATOM     66  F   UNL A   1      40.565  25.441  25.645  1.00  0.00    -0.200 F 
ENDBRANCH  42  56
BRANCH  43  67
ATOM     67  C   UNL A   1      39.591  33.929  36.913  1.00  0.00     0.064 A 
ATOM     68  C   UNL A   1      38.812  33.527  38.007  1.00  0.00     0.173 A 
ATOM     69  C   UNL A   1      40.227  35.177  36.991  1.00  0.00     0.173 A 
ATOM     70  F   UNL A   1      38.167  32.351  37.973  1.00  0.00    -0.203 F 
ATOM     71  C   UNL A   1      38.652  34.350  39.120  1.00  0.00     0.198 A 
ATOM     72  C   UNL A   1      40.095  35.984  38.119  1.00  0.00     0.198 A 
ATOM     73  F   UNL A   1      40.990  35.606  35.975  1.00  0.00    -0.203 F 
ATOM     74  F   UNL A   1      37.857  33.965  40.127  1.00  0.00    -0.200 F 
ATOM     75  C   UNL A   1      39.298  35.576  39.177  1.00  0.00     0.200 A 
ATOM     76  F   UNL A   1      40.735  37.160  38.177  1.00  0.00    -0.200 F 
ATOM     77  F   UNL A   1      39.146  36.366  40.248  1.00  0.00    -0.200 F 
ENDBRANCH  43  67
BRANCH  55  78
ATOM     78  C   UNL A   1      43.928  28.753  35.180  1.00  0.00     0.064 A 
ATOM     79  C   UNL A   1      43.778  27.668  36.056  1.00  0.00     0.173 A 
ATOM     80  C   UNL A   1      45.227  29.228  34.941  1.00  0.00     0.173 A 
ATOM     81  F   UNL A   1      42.557  27.186  36.330  1.00  0.00    -0.203 F 
ATOM     82  C   UNL A   1      44.881  27.102  36.690  1.00  0.00     0.198 A 
ATOM     83  C   UNL A   1      46.331  28.636  35.549  1.00  0.00     0.198 A 
ATOM     84  F   UNL A   1      45.429  30.258  34.105  1.00  0.00    -0.203 F 
ATOM     85  F   UNL A   1      44.707  26.103  37.566  1.00  0.00    -0.200 F 
ATOM     86  C   UNL A   1      46.157  27.580  36.431  1.00  0.00     0.200 A 
ATOM     87  F   UNL A   1      47.565  29.088  35.282  1.00  0.00    -0.200 F 
ATOM     88  F   UNL A   1      47.217  27.028  37.034  1.00  0.00    -0.200 F 
ENDBRANCH  55  78
ENDBRANCH  29  30
ENDBRANCH  21  24
ENDBRANCH  19  20
ENDBRANCH  18  19
ENDBRANCH  17  18
ENDBRANCH   1  17
TORSDOF 16
ENDMDL
MODEL 2
REMARK VINA RESULT:     -10.9      0.609      7.549
REMARK SMILES O=C(COC[C@@H]1CCCCO1)NCCCCCCNC(=O)c1ccc(-c2c3nc(c(-c4c(F)c(F)c(F)c(F)c4F)c4ccc([nH]4)c(-c4c(F)c(F)c(F)c(F)c4F)c4nc(c(-c5c(F)c(F)c(F)c(F)c5F)c5ccc2[nH]5)C=C4)C=C3)cc1
REMARK SMILES IDX 15 1 14 2 13 3 12 4 1 5 2 6 3 8 4 9 5 10 6 11 7 12 11 13
REMARK SMILES IDX 8 14 10 15 9 16 16 17 17 18 18 19 19 20 20 21 21 23 22 24
REMARK SMILES IDX 23 25 84 26 24 27 83 28 25 29 26 30 27 31 77 32 28 33 82 34
REMARK SMILES IDX 76 35 78 36 29 37 81 38 75 39 74 40 30 42 62 43 42 44 61 45
REMARK SMILES IDX 43 46 46 47 60 48 79 49 44 50 45 51 59 53 80 54 47 55 31 56
REMARK SMILES IDX 32 57 40 58 33 59 34 60 38 61 41 62 35 63 36 64 39 65 37 66
REMARK SMILES IDX 63 67 64 68 72 69 65 70 66 71 70 72 73 73 67 74 68 75 71 76
REMARK SMILES IDX 69 77 48 78 49 79 57 80 50 81 51 82 55 83 58 84 52 85 53 86
REMARK SMILES IDX 56 87 54 88
REMARK H PARENT 12 7 19 22 78 41 46 52
REMARK Flexibility Score: inf
ROOT
ATOM      1  C   UNL A   1      32.266  29.833  27.177  1.00  0.00     0.002 C 
ENDROOT
BRANCH   1   2
ATOM      2  C   UNL A   1      33.630  29.316  26.705  1.00  0.00     0.021 C 
BRANCH   2   3
ATOM      3  C   UNL A   1      33.636  27.832  26.332  1.00  0.00     0.116 C 
BRANCH   3   4
ATOM      4  N   UNL A   1      32.320  27.393  25.918  1.00  0.00    -0.354 N 
ATOM      5  O   UNL A   1      32.739  27.611  23.678  1.00  0.00    -0.272 OA
ATOM      6  C   UNL A   1      31.956  27.374  24.592  1.00  0.00     0.245 C 
ATOM      7  H   UNL A   1      31.672  27.102  26.600  1.00  0.00     0.163 HD
BRANCH   6   8
ATOM      8  C   UNL A   1      30.463  27.083  24.345  1.00  0.00     0.260 C 
BRANCH   8   9
ATOM      9  O   UNL A   1      29.826  27.240  23.091  1.00  0.00    -0.369 OA
BRANCH   9  10
ATOM     10  C   UNL A   1      28.945  28.350  22.938  1.00  0.00     0.192 C 
BRANCH  10  11
ATOM     11  C   UNL A   1      29.560  29.748  22.676  1.00  0.00     0.144 C 
ATOM     12  C   UNL A   1      29.203  30.893  23.624  1.00  0.00     0.034 C 
ATOM     13  O   UNL A   1      29.393  30.156  21.304  1.00  0.00    -0.376 OA
ATOM     14  C   UNL A   1      27.854  31.527  23.312  1.00  0.00     0.005 C 
ATOM     15  C   UNL A   1      28.108  30.690  20.988  1.00  0.00     0.160 C 
ATOM     16  C   UNL A   1      27.793  31.907  21.843  1.00  0.00     0.029 C 
ENDBRANCH  10  11
ENDBRANCH   9  10
ENDBRANCH   8   9
ENDBRANCH   6   8
ENDBRANCH   3   4
ENDBRANCH   2   3
ENDBRANCH   1   2
BRANCH   1  17
ATOM     17  C   UNL A   1      31.549  30.761  26.190  1.00  0.00     0.002 C 
BRANCH  17  18
ATOM     18  C   UNL A   1      31.381  32.203  26.671  1.00  0.00     0.021 C 
BRANCH  18  19
ATOM     19  C   UNL A   1      32.666  32.859  27.162  1.00  0.00     0.116 C 
BRANCH  19  20
ATOM     20  N   UNL A   1      32.445  34.221  27.623  1.00  0.00    -0.352 N 
ATOM     21  C   UNL A   1      33.041  34.896  28.661  1.00  0.00     0.251 C 
ATOM     22  H   UNL A   1      31.773  34.733  27.119  1.00  0.00     0.163 HD
ATOM     23  O   UNL A   1      32.601  35.977  29.030  1.00  0.00    -0.269 OA
BRANCH  21  24
ATOM     24  C   UNL A   1      34.206  34.299  29.347  1.00  0.00     0.039 A 
ATOM     25  C   UNL A   1      33.988  33.478  30.456  1.00  0.00     0.014 A 
ATOM     26  C   UNL A   1      35.506  34.545  28.899  1.00  0.00     0.014 A 
ATOM     27  C   UNL A   1      35.071  32.855  31.078  1.00  0.00     0.010 A 
ATOM     28  C   UNL A   1      36.576  33.861  29.469  1.00  0.00     0.010 A 
ATOM     29  C   UNL A   1      36.370  33.012  30.567  1.00  0.00    -0.014 A 
BRANCH  29  30
ATOM     30  C   UNL A   1      37.524  32.296  31.169  1.00  0.00     0.031 A 
ATOM     31  C   UNL A   1      38.023  32.680  32.534  1.00  0.00     0.074 A 
ATOM     32  C   UNL A   1      38.160  31.343  30.460  1.00  0.00     0.049 A 
ATOM     33  N   UNL A   1      39.052  32.218  33.201  1.00  0.00    -0.248 NA
ATOM     34  C   UNL A   1      37.284  33.741  33.235  1.00  0.00     0.031 C 
ATOM     35  C   UNL A   1      37.800  30.913  29.108  1.00  0.00     0.029 A 
ATOM     36  N   UNL A   1      39.249  30.570  30.774  1.00  0.00    -0.354 N 
ATOM     37  C   UNL A   1      39.088  32.937  34.387  1.00  0.00     0.074 A 
ATOM     38  C   UNL A   1      38.016  33.907  34.326  1.00  0.00     0.031 C 
ATOM     39  C   UNL A   1      38.636  29.938  28.719  1.00  0.00     0.029 A 
ATOM     40  C   UNL A   1      39.618  29.703  29.773  1.00  0.00     0.049 A 
ATOM     41  H   UNL A   1      39.723  30.629  31.636  1.00  0.00     0.167 HD
ATOM     42  C   UNL A   1      39.922  32.786  35.444  1.00  0.00     0.037 A 
ATOM     43  C   UNL A   1      40.639  28.827  29.710  1.00  0.00     0.037 A 
ATOM     44  C   UNL A   1      40.977  31.807  35.505  1.00  0.00     0.049 A 
ATOM     45  C   UNL A   1      41.567  28.696  30.887  1.00  0.00     0.074 A 
ATOM     46  C   UNL A   1      41.842  31.538  36.552  1.00  0.00     0.029 A 
ATOM     47  N   UNL A   1      41.315  30.943  34.475  1.00  0.00    -0.354 N 
ATOM     48  N   UNL A   1      41.547  29.332  32.034  1.00  0.00    -0.248 NA
ATOM     49  C   UNL A   1      42.657  27.719  30.764  1.00  0.00     0.031 C 
ATOM     50  C   UNL A   1      42.741  30.552  36.133  1.00  0.00     0.029 A 
ATOM     51  C   UNL A   1      42.396  30.159  34.850  1.00  0.00     0.049 A 
ATOM     52  H   UNL A   1      40.857  30.893  33.605  1.00  0.00     0.167 HD
ATOM     53  C   UNL A   1      42.596  28.811  32.778  1.00  0.00     0.074 A 
ATOM     54  C   UNL A   1      43.223  27.794  31.960  1.00  0.00     0.031 C 
ATOM     55  C   UNL A   1      43.005  29.145  34.028  1.00  0.00     0.037 A 
BRANCH  42  56
ATOM     56  C   UNL A   1      39.731  33.701  36.620  1.00  0.00     0.064 A 
ATOM     57  C   UNL A   1      40.366  34.950  36.694  1.00  0.00     0.173 A 
ATOM     58  C   UNL A   1      38.870  33.342  37.668  1.00  0.00     0.173 A 
ATOM     59  F   UNL A   1      41.208  35.338  35.724  1.00  0.00    -0.203 F 
ATOM     60  C   UNL A   1      40.172  35.791  37.787  1.00  0.00     0.198 A 
ATOM     61  C   UNL A   1      38.651  34.200  38.743  1.00  0.00     0.198 A 
ATOM     62  F   UNL A   1      38.231  32.162  37.646  1.00  0.00    -0.203 F 
ATOM     63  F   UNL A   1      40.832  36.954  37.860  1.00  0.00    -0.200 F 
ATOM     64  C   UNL A   1      39.309  35.419  38.806  1.00  0.00     0.200 A 
ATOM     65  F   UNL A   1      37.803  33.846  39.719  1.00  0.00    -0.200 F 
ATOM     66  F   UNL A   1      39.115  36.233  39.852  1.00  0.00    -0.200 F 
ENDBRANCH  42  56
BRANCH  43  67
ATOM     67  C   UNL A   1      40.829  27.993  28.493  1.00  0.00     0.064 A 
ATOM     68  C   UNL A   1      41.629  28.437  27.431  1.00  0.00     0.173 A 
ATOM     69  C   UNL A   1      40.204  26.744  28.358  1.00  0.00     0.173 A 
ATOM     70  F   UNL A   1      42.232  29.633  27.502  1.00  0.00    -0.203 F 
ATOM     71  C   UNL A   1      41.777  27.677  26.272  1.00  0.00     0.198 A 
ATOM     72  C   UNL A   1      40.379  25.970  27.213  1.00  0.00     0.198 A 
ATOM     73  F   UNL A   1      39.433  26.269  29.347  1.00  0.00    -0.203 F 
ATOM     74  F   UNL A   1      42.503  28.151  25.251  1.00  0.00    -0.200 F 
ATOM     75  C   UNL A   1      41.156  26.442  26.167  1.00  0.00     0.200 A 
ATOM     76  F   UNL A   1      39.792  24.769  27.123  1.00  0.00    -0.200 F 
ATOM     77  F   UNL A   1      41.299  25.711  25.053  1.00  0.00    -0.200 F 
ENDBRANCH  43  67
BRANCH  55  78
ATOM     78  C   UNL A   1      44.159  28.375  34.606  1.00  0.00     0.064 A 
ATOM     79  C   UNL A   1      43.970  27.186  35.326  1.00  0.00     0.173 A 
ATOM     80  C   UNL A   1      45.476  28.815  34.401  1.00  0.00     0.173 A 
ATOM     81  F   UNL A   1      42.731  26.730  35.562  1.00  0.00    -0.203 F 
ATOM     82  C   UNL A   1      45.054  26.484  35.845  1.00  0.00     0.198 A 
ATOM     83  C   UNL A   1      46.559  28.091  34.890  1.00  0.00     0.198 A 
ATOM     84  F   UNL A   1      45.714  29.942  33.712  1.00  0.00    -0.203 F 
ATOM     85  F   UNL A   1      44.846  25.380  36.577  1.00  0.00    -0.200 F 
ATOM     86  C   UNL A   1      46.348  26.931  35.620  1.00  0.00     0.200 A 
ATOM     87  F   UNL A   1      47.809  28.515  34.656  1.00  0.00    -0.200 F 
ATOM     88  F   UNL A   1      47.390  26.248  36.112  1.00  0.00    -0.200 F 
ENDBRANCH  55  78
ENDBRANCH  29  30
ENDBRANCH  21  24
ENDBRANCH  19  20
ENDBRANCH  18  19
ENDBRANCH  17  18
ENDBRANCH   1  17
TORSDOF 16
ENDMDL
MODEL 3
REMARK VINA RESULT:     -10.9      6.772     12.047
REMARK SMILES O=C(COC[C@@H]1CCCCO1)NCCCCCCNC(=O)c1ccc(-c2c3nc(c(-c4c(F)c(F)c(F)c(F)c4F)c4ccc([nH]4)c(-c4c(F)c(F)c(F)c(F)c4F)c4nc(c(-c5c(F)c(F)c(F)c(F)c5F)c5ccc2[nH]5)C=C4)C=C3)cc1
REMARK SMILES IDX 15 1 14 2 13 3 12 4 1 5 2 6 3 8 4 9 5 10 6 11 7 12 11 13
REMARK SMILES IDX 8 14 10 15 9 16 16 17 17 18 18 19 19 20 20 21 21 23 22 24
REMARK SMILES IDX 23 25 84 26 24 27 83 28 25 29 26 30 27 31 77 32 28 33 82 34
REMARK SMILES IDX 76 35 78 36 29 37 81 38 75 39 74 40 30 42 62 43 42 44 61 45
REMARK SMILES IDX 43 46 46 47 60 48 79 49 44 50 45 51 59 53 80 54 47 55 31 56
REMARK SMILES IDX 32 57 40 58 33 59 34 60 38 61 41 62 35 63 36 64 39 65 37 66
REMARK SMILES IDX 63 67 64 68 72 69 65 70 66 71 70 72 73 73 67 74 68 75 71 76
REMARK SMILES IDX 69 77 48 78 49 79 57 80 50 81 51 82 55 83 58 84 52 85 53 86
REMARK SMILES IDX 56 87 54 88
REMARK H PARENT 12 7 19 22 78 41 46 52
REMARK Flexibility Score: inf
ROOT
ATOM      1  C   UNL A   1      37.522  21.993  25.615  1.00  0.00     0.002 C 
ENDROOT
BRANCH   1   2
ATOM      2  C   UNL A   1      36.660  23.195  25.209  1.00  0.00     0.021 C 
BRANCH   2   3
ATOM      3  C   UNL A   1      35.470  23.447  26.135  1.00  0.00     0.116 C 
BRANCH   3   4
ATOM      4  N   UNL A   1      34.224  23.076  25.497  1.00  0.00    -0.354 N 
ATOM      5  O   UNL A   1      33.400  21.958  27.319  1.00  0.00    -0.272 OA
ATOM      6  C   UNL A   1      33.295  22.292  26.143  1.00  0.00     0.245 C 
ATOM      7  H   UNL A   1      34.039  23.389  24.583  1.00  0.00     0.163 HD
BRANCH   6   8
ATOM      8  C   UNL A   1      32.130  21.820  25.251  1.00  0.00     0.260 C 
BRANCH   8   9
ATOM      9  O   UNL A   1      31.777  20.462  25.069  1.00  0.00    -0.369 OA
BRANCH   9  10
ATOM     10  C   UNL A   1      32.655  19.655  24.289  1.00  0.00     0.192 C 
BRANCH  10  11
ATOM     11  C   UNL A   1      33.651  18.725  25.026  1.00  0.00     0.144 C 
ATOM     12  C   UNL A   1      34.657  17.927  24.197  1.00  0.00     0.034 C 
ATOM     13  O   UNL A   1      32.980  17.866  25.970  1.00  0.00    -0.376 OA
ATOM     14  C   UNL A   1      34.063  16.662  23.591  1.00  0.00     0.005 C 
ATOM     15  C   UNL A   1      32.363  16.713  25.401  1.00  0.00     0.160 C 
ATOM     16  C   UNL A   1      33.380  15.846  24.675  1.00  0.00     0.029 C 
ENDBRANCH  10  11
ENDBRANCH   9  10
ENDBRANCH   8   9
ENDBRANCH   6   8
ENDBRANCH   3   4
ENDBRANCH   2   3
ENDBRANCH   1   2
BRANCH   1  17
ATOM     17  C   UNL A   1      37.286  20.721  24.795  1.00  0.00     0.002 C 
BRANCH  17  18
ATOM     18  C   UNL A   1      38.304  19.605  25.033  1.00  0.00     0.021 C 
BRANCH  18  19
ATOM     19  C   UNL A   1      39.471  19.996  25.930  1.00  0.00     0.116 C 
BRANCH  19  20
ATOM     20  N   UNL A   1      40.511  18.979  25.954  1.00  0.00    -0.352 N 
ATOM     21  C   UNL A   1      41.873  19.129  26.051  1.00  0.00     0.251 C 
ATOM     22  H   UNL A   1      40.193  18.050  25.893  1.00  0.00     0.163 HD
ATOM     23  O   UNL A   1      42.615  18.173  25.866  1.00  0.00    -0.269 OA
BRANCH  21  24
ATOM     24  C   UNL A   1      42.442  20.458  26.357  1.00  0.00     0.039 A 
ATOM     25  C   UNL A   1      42.947  21.232  25.311  1.00  0.00     0.014 A 
ATOM     26  C   UNL A   1      42.476  20.939  27.668  1.00  0.00     0.014 A 
ATOM     27  C   UNL A   1      43.431  22.516  25.572  1.00  0.00     0.010 A 
ATOM     28  C   UNL A   1      42.883  22.247  27.915  1.00  0.00     0.010 A 
ATOM     29  C   UNL A   1      43.368  23.048  26.871  1.00  0.00    -0.014 A 
BRANCH  29  30
ATOM     30  C   UNL A   1      43.807  24.438  27.154  1.00  0.00     0.031 A 
ATOM     31  C   UNL A   1      42.817  25.457  27.648  1.00  0.00     0.074 A 
ATOM     32  C   UNL A   1      45.082  24.797  26.909  1.00  0.00     0.049 A 
ATOM     33  N   UNL A   1      42.993  26.732  27.891  1.00  0.00    -0.248 NA
ATOM     34  C   UNL A   1      41.442  24.989  27.874  1.00  0.00     0.031 C 
ATOM     35  C   UNL A   1      46.123  23.912  26.387  1.00  0.00     0.029 A 
ATOM     36  N   UNL A   1      45.716  26.005  27.056  1.00  0.00    -0.354 N 
ATOM     37  C   UNL A   1      41.753  27.216  28.286  1.00  0.00     0.074 A 
ATOM     38  C   UNL A   1      40.821  26.114  28.194  1.00  0.00     0.031 C 
ATOM     39  C   UNL A   1      47.272  24.599  26.281  1.00  0.00     0.029 A 
ATOM     40  C   UNL A   1      47.039  25.982  26.684  1.00  0.00     0.049 A 
ATOM     41  H   UNL A   1      45.267  26.813  27.397  1.00  0.00     0.167 HD
ATOM     42  C   UNL A   1      41.427  28.460  28.713  1.00  0.00     0.037 A 
ATOM     43  C   UNL A   1      47.956  26.968  26.661  1.00  0.00     0.037 A 
ATOM     44  C   UNL A   1      42.364  29.549  28.818  1.00  0.00     0.049 A 
ATOM     45  C   UNL A   1      47.562  28.347  27.117  1.00  0.00     0.074 A 
ATOM     46  C   UNL A   1      42.144  30.832  29.289  1.00  0.00     0.029 A 
ATOM     47  N   UNL A   1      43.696  29.485  28.438  1.00  0.00    -0.354 N 
ATOM     48  N   UNL A   1      46.403  28.775  27.557  1.00  0.00    -0.248 NA
ATOM     49  C   UNL A   1      48.606  29.380  27.077  1.00  0.00     0.031 C 
ATOM     50  C   UNL A   1      43.328  31.560  29.139  1.00  0.00     0.029 A 
ATOM     51  C   UNL A   1      44.305  30.715  28.638  1.00  0.00     0.049 A 
ATOM     52  H   UNL A   1      44.145  28.685  28.080  1.00  0.00     0.167 HD
ATOM     53  C   UNL A   1      46.587  30.114  27.878  1.00  0.00     0.074 A 
ATOM     54  C   UNL A   1      47.974  30.423  27.596  1.00  0.00     0.031 C 
ATOM     55  C   UNL A   1      45.688  31.006  28.361  1.00  0.00     0.037 A 
BRANCH  42  56
ATOM     56  C   UNL A   1      39.997  28.713  29.096  1.00  0.00     0.064 A 
ATOM     57  C   UNL A   1      39.055  29.180  28.166  1.00  0.00     0.173 A 
ATOM     58  C   UNL A   1      39.551  28.447  30.400  1.00  0.00     0.173 A 
ATOM     59  F   UNL A   1      39.429  29.461  26.909  1.00  0.00    -0.203 F 
ATOM     60  C   UNL A   1      37.731  29.401  28.535  1.00  0.00     0.198 A 
ATOM     61  C   UNL A   1      38.218  28.635  30.756  1.00  0.00     0.198 A 
ATOM     62  F   UNL A   1      40.407  27.992  31.328  1.00  0.00    -0.203 F 
ATOM     63  F   UNL A   1      36.863  29.899  27.643  1.00  0.00    -0.200 F 
ATOM     64  C   UNL A   1      37.312  29.121  29.826  1.00  0.00     0.200 A 
ATOM     65  F   UNL A   1      37.812  28.348  32.001  1.00  0.00    -0.200 F 
ATOM     66  F   UNL A   1      36.035  29.325  30.177  1.00  0.00    -0.200 F 
ENDBRANCH  42  56
BRANCH  43  67
ATOM     67  C   UNL A   1      49.343  26.684  26.205  1.00  0.00     0.064 A 
ATOM     68  C   UNL A   1      50.310  26.195  27.096  1.00  0.00     0.173 A 
ATOM     69  C   UNL A   1      49.737  26.909  24.878  1.00  0.00     0.173 A 
ATOM     70  F   UNL A   1      49.988  25.982  28.381  1.00  0.00    -0.203 F 
ATOM     71  C   UNL A   1      51.621  25.967  26.683  1.00  0.00     0.198 A 
ATOM     72  C   UNL A   1      51.040  26.648  24.458  1.00  0.00     0.198 A 
ATOM     73  F   UNL A   1      48.851  27.370  23.983  1.00  0.00    -0.203 F 
ATOM     74  F   UNL A   1      52.537  25.552  27.569  1.00  0.00    -0.200 F 
ATOM     75  C   UNL A   1      51.983  26.188  25.364  1.00  0.00     0.200 A 
ATOM     76  F   UNL A   1      51.382  26.847  23.178  1.00  0.00    -0.200 F 
ATOM     77  F   UNL A   1      53.244  25.967  24.967  1.00  0.00    -0.200 F 
ENDBRANCH  43  67
BRANCH  55  78
ATOM     78  C   UNL A   1      46.184  32.394  28.658  1.00  0.00     0.064 A 
ATOM     79  C   UNL A   1      46.129  33.420  27.703  1.00  0.00     0.173 A 
ATOM     80  C   UNL A   1      46.685  32.708  29.931  1.00  0.00     0.173 A 
ATOM     81  F   UNL A   1      45.672  33.169  26.468  1.00  0.00    -0.203 F 
ATOM     82  C   UNL A   1      46.585  34.701  28.003  1.00  0.00     0.198 A 
ATOM     83  C   UNL A   1      47.106  33.999  30.238  1.00  0.00     0.198 A 
ATOM     84  F   UNL A   1      46.753  31.766  30.884  1.00  0.00    -0.203 F 
ATOM     85  F   UNL A   1      46.573  35.652  27.059  1.00  0.00    -0.200 F 
ATOM     86  C   UNL A   1      47.065  34.992  29.271  1.00  0.00     0.200 A 
ATOM     87  F   UNL A   1      47.553  34.282  31.470  1.00  0.00    -0.200 F 
ATOM     88  F   UNL A   1      47.495  36.228  29.561  1.00  0.00    -0.200 F 
ENDBRANCH  55  78
ENDBRANCH  29  30
ENDBRANCH  21  24
ENDBRANCH  19  20
ENDBRANCH  18  19
ENDBRANCH  17  18
ENDBRANCH   1  17
TORSDOF 16
ENDMDL
