MODEL 1
REMARK VINA RESULT:     -13.2      0.000      0.000
REMARK SMILES O=C(NCCCCCCNC(=O)[C@H]1[C@H]2CC[C@H](C2)[C@@H]1C(=O)N[C@H]1CCCc2ccccc21)c1ccc(-c2c3nc(c(-c4c(F)c(F)c(F)c(F)c4F)c4ccc([nH]4)c(-c4c(F)c(F)c(F)c(F)c4F)c4nc(c(-c5c(F)c(F)c(F)c(F)c5F)c5ccc2[nH]5)C=C4)C=C3)cc1
REMARK SMILES IDX 6 1 5 2 4 3 3 4 1 5 2 6 33 8 34 9 95 10 35 11 94 12 36 13
REMARK SMILES IDX 37 14 38 15 88 16 39 17 93 18 87 19 89 20 40 21 92 22 86 23
REMARK SMILES IDX 85 24 41 26 73 27 53 28 72 29 54 30 57 31 71 32 90 33 55 34
REMARK SMILES IDX 56 35 70 37 91 38 58 39 42 40 43 41 51 42 44 43 45 44 49 45
REMARK SMILES IDX 52 46 46 47 47 48 50 49 48 50 74 51 75 52 83 53 76 54 77 55
REMARK SMILES IDX 81 56 84 57 78 58 79 59 82 60 80 61 59 62 60 63 68 64 61 65
REMARK SMILES IDX 62 66 66 67 69 68 63 69 64 70 67 71 65 72 7 73 8 74 9 75
REMARK SMILES IDX 10 76 11 77 12 79 13 80 14 81 19 82 15 83 18 84 17 85 16 86
REMARK SMILES IDX 20 87 21 88 22 89 23 91 24 92 32 93 25 94 27 95 31 96 26 97
REMARK SMILES IDX 28 98 30 99 29 100
REMARK H PARENT 3 7 89 25 57 36 10 78 22 90
REMARK Flexibility Score: inf
ROOT
ATOM      1  C   UNL A   1      31.638  30.742  26.751  1.00  0.00     0.002 C 
ENDROOT
BRANCH   1   2
ATOM      2  C   UNL A   1      31.403  32.250  26.823  1.00  0.00     0.021 C 
BRANCH   2   3
ATOM      3  C   UNL A   1      32.666  33.082  26.999  1.00  0.00     0.116 C 
BRANCH   3   4
ATOM      4  N   UNL A   1      32.409  34.362  27.640  1.00  0.00    -0.352 N 
ATOM      5  O   UNL A   1      32.561  35.925  29.265  1.00  0.00    -0.269 OA
ATOM      6  C   UNL A   1      33.007  34.911  28.751  1.00  0.00     0.251 C 
ATOM      7  H   UNL A   1      31.708  34.911  27.222  1.00  0.00     0.163 HD
BRANCH   6   8
ATOM      8  C   UNL A   1      34.193  34.245  29.331  1.00  0.00     0.039 A 
ATOM      9  C   UNL A   1      34.036  33.269  30.316  1.00  0.00     0.014 A 
ATOM     10  C   UNL A   1      35.470  34.606  28.894  1.00  0.00     0.014 A 
ATOM     11  C   UNL A   1      35.150  32.771  30.974  1.00  0.00     0.010 A 
ATOM     12  C   UNL A   1      36.594  34.018  29.481  1.00  0.00     0.010 A 
ATOM     13  C   UNL A   1      36.444  33.112  30.542  1.00  0.00    -0.014 A 
BRANCH  13  14
ATOM     14  C   UNL A   1      37.601  32.414  31.157  1.00  0.00     0.031 A 
ATOM     15  C   UNL A   1      38.076  32.736  32.545  1.00  0.00     0.074 A 
ATOM     16  C   UNL A   1      38.195  31.434  30.445  1.00  0.00     0.049 A 
ATOM     17  N   UNL A   1      39.041  32.179  33.233  1.00  0.00    -0.248 NA
ATOM     18  C   UNL A   1      37.388  33.824  33.256  1.00  0.00     0.031 C 
ATOM     19  C   UNL A   1      37.829  31.053  29.077  1.00  0.00     0.029 A 
ATOM     20  N   UNL A   1      39.202  30.564  30.772  1.00  0.00    -0.354 N 
ATOM     21  C   UNL A   1      39.083  32.848  34.448  1.00  0.00     0.074 A 
ATOM     22  C   UNL A   1      38.066  33.877  34.396  1.00  0.00     0.031 C 
ATOM     23  C   UNL A   1      38.557  29.992  28.705  1.00  0.00     0.029 A 
ATOM     24  C   UNL A   1      39.494  29.669  29.772  1.00  0.00     0.049 A 
ATOM     25  H   UNL A   1      39.670  30.580  31.638  1.00  0.00     0.167 HD
ATOM     26  C   UNL A   1      39.890  32.612  35.512  1.00  0.00     0.037 A 
ATOM     27  C   UNL A   1      40.432  28.706  29.708  1.00  0.00     0.037 A 
ATOM     28  C   UNL A   1      40.900  31.584  35.553  1.00  0.00     0.049 A 
ATOM     29  C   UNL A   1      41.331  28.498  30.892  1.00  0.00     0.074 A 
ATOM     30  C   UNL A   1      41.757  31.256  36.590  1.00  0.00     0.029 A 
ATOM     31  N   UNL A   1      41.193  30.717  34.509  1.00  0.00    -0.354 N 
ATOM     32  N   UNL A   1      41.332  29.113  32.049  1.00  0.00    -0.248 NA
ATOM     33  C   UNL A   1      42.359  27.459  30.761  1.00  0.00     0.031 C 
ATOM     34  C   UNL A   1      42.601  30.228  36.157  1.00  0.00     0.029 A 
ATOM     35  C   UNL A   1      42.232  29.871  34.871  1.00  0.00     0.049 A 
ATOM     36  H   UNL A   1      40.732  30.705  33.639  1.00  0.00     0.167 HD
ATOM     37  C   UNL A   1      42.350  28.529  32.789  1.00  0.00     0.074 A 
ATOM     38  C   UNL A   1      42.917  27.483  31.961  1.00  0.00     0.031 C 
ATOM     39  C   UNL A   1      42.785  28.838  34.034  1.00  0.00     0.037 A 
BRANCH  26  40
ATOM     40  C   UNL A   1      39.728  33.482  36.727  1.00  0.00     0.064 A 
ATOM     41  C   UNL A   1      40.387  34.716  36.840  1.00  0.00     0.173 A 
ATOM     42  C   UNL A   1      38.840  33.119  37.752  1.00  0.00     0.173 A 
ATOM     43  F   UNL A   1      41.252  35.108  35.893  1.00  0.00    -0.203 F 
ATOM     44  C   UNL A   1      40.172  35.546  37.937  1.00  0.00     0.198 A 
ATOM     45  C   UNL A   1      38.607  33.964  38.834  1.00  0.00     0.198 A 
ATOM     46  F   UNL A   1      38.178  31.954  37.691  1.00  0.00    -0.203 F 
ATOM     47  F   UNL A   1      40.836  36.706  38.038  1.00  0.00    -0.200 F 
ATOM     48  C   UNL A   1      39.275  35.175  38.929  1.00  0.00     0.200 A 
ATOM     49  F   UNL A   1      37.727  33.610  39.781  1.00  0.00    -0.200 F 
ATOM     50  F   UNL A   1      39.056  35.984  39.974  1.00  0.00    -0.200 F 
ENDBRANCH  26  40
BRANCH  27  51
ATOM     51  C   UNL A   1      40.585  27.895  28.473  1.00  0.00     0.064 A 
ATOM     52  C   UNL A   1      39.955  26.650  28.338  1.00  0.00     0.173 A 
ATOM     53  C   UNL A   1      41.382  28.339  27.407  1.00  0.00     0.173 A 
ATOM     54  F   UNL A   1      39.195  26.172  29.336  1.00  0.00    -0.203 F 
ATOM     55  C   UNL A   1      40.146  25.867  27.202  1.00  0.00     0.198 A 
ATOM     56  C   UNL A   1      41.539  27.574  26.254  1.00  0.00     0.198 A 
ATOM     57  F   UNL A   1      41.999  29.528  27.479  1.00  0.00    -0.203 F 
ATOM     58  F   UNL A   1      39.584  24.652  27.127  1.00  0.00    -0.200 F 
ATOM     59  C   UNL A   1      40.932  26.331  26.159  1.00  0.00     0.200 A 
ATOM     60  F   UNL A   1      42.281  28.039  25.241  1.00  0.00    -0.200 F 
ATOM     61  F   UNL A   1      41.115  25.578  25.066  1.00  0.00    -0.200 F 
ENDBRANCH  27  51
BRANCH  39  62
ATOM     62  C   UNL A   1      43.913  28.008  34.580  1.00  0.00     0.064 A 
ATOM     63  C   UNL A   1      43.676  26.817  35.285  1.00  0.00     0.173 A 
ATOM     64  C   UNL A   1      45.245  28.411  34.400  1.00  0.00     0.173 A 
ATOM     65  F   UNL A   1      42.420  26.399  35.500  1.00  0.00    -0.203 F 
ATOM     66  C   UNL A   1      44.729  26.087  35.828  1.00  0.00     0.198 A 
ATOM     67  C   UNL A   1      46.296  27.656  34.912  1.00  0.00     0.198 A 
ATOM     68  F   UNL A   1      45.526  29.536  33.727  1.00  0.00    -0.203 F 
ATOM     69  F   UNL A   1      44.475  24.993  36.559  1.00  0.00    -0.200 F 
ATOM     70  C   UNL A   1      46.037  26.504  35.636  1.00  0.00     0.200 A 
ATOM     71  F   UNL A   1      47.561  28.054  34.714  1.00  0.00    -0.200 F 
ATOM     72  F   UNL A   1      47.050  25.801  36.163  1.00  0.00    -0.200 F 
ENDBRANCH  39  62
ENDBRANCH  13  14
ENDBRANCH   6   8
ENDBRANCH   3   4
ENDBRANCH   2   3
ENDBRANCH   1   2
BRANCH   1  73
ATOM     73  C   UNL A   1      33.033  30.278  27.180  1.00  0.00     0.002 C 
BRANCH  73  74
ATOM     74  C   UNL A   1      33.215  28.761  27.300  1.00  0.00     0.021 C 
BRANCH  74  75
ATOM     75  C   UNL A   1      34.178  28.151  26.283  1.00  0.00     0.116 C 
BRANCH  75  76
ATOM     76  N   UNL A   1      34.143  28.902  25.043  1.00  0.00    -0.356 N 
ATOM     77  C   UNL A   1      33.496  28.621  23.876  1.00  0.00     0.224 C 
ATOM     78  H   UNL A   1      34.664  29.738  25.043  1.00  0.00     0.163 HD
ATOM     79  O   UNL A   1      33.736  29.328  22.901  1.00  0.00    -0.275 OA
BRANCH  77  80
ATOM     80  C   UNL A   1      32.473  27.493  23.856  1.00  0.00     0.094 C 
ATOM     81  C   UNL A   1      31.125  27.976  24.473  1.00  0.00     0.002 C 
ATOM     82  C   UNL A   1      32.045  27.032  22.450  1.00  0.00     0.094 C 
ATOM     83  C   UNL A   1      30.506  29.139  23.665  1.00  0.00     0.005 C 
ATOM     84  C   UNL A   1      30.181  26.853  24.071  1.00  0.00     0.009 C 
ATOM     85  C   UNL A   1      30.494  26.991  22.573  1.00  0.00     0.002 C 
ATOM     86  C   UNL A   1      30.012  28.448  22.376  1.00  0.00     0.005 C 
BRANCH  82  87
ATOM     87  C   UNL A   1      32.742  25.826  21.791  1.00  0.00     0.224 C 
ATOM     88  O   UNL A   1      33.210  25.952  20.653  1.00  0.00    -0.275 OA
ATOM     89  N   UNL A   1      32.889  24.593  22.336  1.00  0.00    -0.349 N 
ATOM     90  H   UNL A   1      33.233  23.907  21.719  1.00  0.00     0.164 HD
BRANCH  89  91
ATOM     91  C   UNL A   1      32.621  24.126  23.668  1.00  0.00     0.112 C 
ATOM     92  C   UNL A   1      31.509  23.081  23.737  1.00  0.00     0.030 C 
ATOM     93  C   UNL A   1      33.840  23.669  24.441  1.00  0.00    -0.022 A 
ATOM     94  C   UNL A   1      31.109  22.917  25.205  1.00  0.00     0.007 C 
ATOM     95  C   UNL A   1      33.641  23.038  25.686  1.00  0.00    -0.043 A 
ATOM     96  C   UNL A   1      35.148  23.962  24.025  1.00  0.00     0.006 A 
ATOM     97  C   UNL A   1      32.287  22.493  26.089  1.00  0.00     0.036 C 
ATOM     98  C   UNL A   1      34.737  22.824  26.533  1.00  0.00     0.004 A 
ATOM     99  C   UNL A   1      36.233  23.702  24.858  1.00  0.00     0.000 A 
ATOM    100  C   UNL A   1      36.025  23.171  26.126  1.00  0.00     0.000 A 
ENDBRANCH  89  91
ENDBRANCH  82  87
ENDBRANCH  77  80
ENDBRANCH  75  76
ENDBRANCH  74  75
ENDBRANCH  73  74
ENDBRANCH   1  73
TORSDOF 15
ENDMDL
MODEL 2
REMARK VINA RESULT:     -13.2      0.129      1.547
REMARK SMILES O=C(NCCCCCCNC(=O)[C@H]1[C@H]2CC[C@H](C2)[C@@H]1C(=O)N[C@H]1CCCc2ccccc21)c1ccc(-c2c3nc(c(-c4c(F)c(F)c(F)c(F)c4F)c4ccc([nH]4)c(-c4c(F)c(F)c(F)c(F)c4F)c4nc(c(-c5c(F)c(F)c(F)c(F)c5F)c5ccc2[nH]5)C=C4)C=C3)cc1
REMARK SMILES IDX 6 1 5 2 4 3 3 4 1 5 2 6 33 8 34 9 95 10 35 11 94 12 36 13
REMARK SMILES IDX 37 14 38 15 88 16 39 17 93 18 87 19 89 20 40 21 92 22 86 23
REMARK SMILES IDX 85 24 41 26 73 27 53 28 72 29 54 30 57 31 71 32 90 33 55 34
REMARK SMILES IDX 56 35 70 37 91 38 58 39 42 40 43 41 51 42 44 43 45 44 49 45
REMARK SMILES IDX 52 46 46 47 47 48 50 49 48 50 74 51 75 52 83 53 76 54 77 55
REMARK SMILES IDX 81 56 84 57 78 58 79 59 82 60 80 61 59 62 60 63 68 64 61 65
REMARK SMILES IDX 62 66 66 67 69 68 63 69 64 70 67 71 65 72 7 73 8 74 9 75
REMARK SMILES IDX 10 76 11 77 12 79 13 80 14 81 19 82 15 83 18 84 17 85 16 86
REMARK SMILES IDX 20 87 21 88 22 89 23 91 24 92 32 93 25 94 27 95 31 96 26 97
REMARK SMILES IDX 28 98 30 99 29 100
REMARK H PARENT 3 7 89 25 57 36 10 78 22 90
REMARK Flexibility Score: inf
ROOT
ATOM      1  C   UNL A   1      31.712  30.701  26.869  1.00  0.00     0.002 C 
ENDROOT
BRANCH   1   2
ATOM      2  C   UNL A   1      31.436  32.203  26.874  1.00  0.00     0.021 C 
BRANCH   2   3
ATOM      3  C   UNL A   1      32.676  33.078  26.992  1.00  0.00     0.116 C 
BRANCH   3   4
ATOM      4  N   UNL A   1      32.403  34.356  27.630  1.00  0.00    -0.352 N 
ATOM      5  O   UNL A   1      32.528  35.922  29.254  1.00  0.00    -0.269 OA
ATOM      6  C   UNL A   1      32.988  34.911  28.745  1.00  0.00     0.251 C 
ATOM      7  H   UNL A   1      31.701  34.899  27.205  1.00  0.00     0.163 HD
BRANCH   6   8
ATOM      8  C   UNL A   1      34.175  34.256  29.334  1.00  0.00     0.039 A 
ATOM      9  C   UNL A   1      34.021  33.321  30.359  1.00  0.00     0.014 A 
ATOM     10  C   UNL A   1      35.449  34.586  28.867  1.00  0.00     0.014 A 
ATOM     11  C   UNL A   1      35.140  32.838  31.022  1.00  0.00     0.010 A 
ATOM     12  C   UNL A   1      36.576  34.010  29.462  1.00  0.00     0.010 A 
ATOM     13  C   UNL A   1      36.431  33.148  30.560  1.00  0.00    -0.014 A 
BRANCH  13  14
ATOM     14  C   UNL A   1      37.589  32.462  31.187  1.00  0.00     0.031 A 
ATOM     15  C   UNL A   1      38.068  32.815  32.565  1.00  0.00     0.074 A 
ATOM     16  C   UNL A   1      38.180  31.467  30.494  1.00  0.00     0.049 A 
ATOM     17  N   UNL A   1      39.035  32.272  33.263  1.00  0.00    -0.248 NA
ATOM     18  C   UNL A   1      37.384  33.919  33.254  1.00  0.00     0.031 C 
ATOM     19  C   UNL A   1      37.810  31.056  29.136  1.00  0.00     0.029 A 
ATOM     20  N   UNL A   1      39.188  30.604  30.837  1.00  0.00    -0.354 N 
ATOM     21  C   UNL A   1      39.081  32.967  34.463  1.00  0.00     0.074 A 
ATOM     22  C   UNL A   1      38.064  33.995  34.391  1.00  0.00     0.031 C 
ATOM     23  C   UNL A   1      38.536  29.987  28.784  1.00  0.00     0.029 A 
ATOM     24  C   UNL A   1      39.476  29.687  29.856  1.00  0.00     0.049 A 
ATOM     25  H   UNL A   1      39.658  30.638  31.701  1.00  0.00     0.167 HD
ATOM     26  C   UNL A   1      39.891  32.754  35.529  1.00  0.00     0.037 A 
ATOM     27  C   UNL A   1      40.414  28.722  29.810  1.00  0.00     0.037 A 
ATOM     28  C   UNL A   1      40.900  31.726  35.590  1.00  0.00     0.049 A 
ATOM     29  C   UNL A   1      41.316  28.539  30.996  1.00  0.00     0.074 A 
ATOM     30  C   UNL A   1      41.760  31.420  36.631  1.00  0.00     0.029 A 
ATOM     31  N   UNL A   1      41.190  30.837  34.564  1.00  0.00    -0.354 N 
ATOM     32  N   UNL A   1      41.320  29.179  32.139  1.00  0.00    -0.248 NA
ATOM     33  C   UNL A   1      42.342  27.497  30.884  1.00  0.00     0.031 C 
ATOM     34  C   UNL A   1      42.602  30.382  36.218  1.00  0.00     0.029 A 
ATOM     35  C   UNL A   1      42.229  29.998  34.941  1.00  0.00     0.049 A 
ATOM     36  H   UNL A   1      40.726  30.806  33.696  1.00  0.00     0.167 HD
ATOM     37  C   UNL A   1      42.340  28.611  32.888  1.00  0.00     0.074 A 
ATOM     38  C   UNL A   1      42.903  27.546  32.082  1.00  0.00     0.031 C 
ATOM     39  C   UNL A   1      42.779  28.946  34.126  1.00  0.00     0.037 A 
BRANCH  26  40
ATOM     40  C   UNL A   1      39.733  33.650  36.726  1.00  0.00     0.064 A 
ATOM     41  C   UNL A   1      40.373  34.896  36.799  1.00  0.00     0.173 A 
ATOM     42  C   UNL A   1      38.867  33.298  37.773  1.00  0.00     0.173 A 
ATOM     43  F   UNL A   1      41.218  35.280  35.830  1.00  0.00    -0.203 F 
ATOM     44  C   UNL A   1      40.162  35.750  37.879  1.00  0.00     0.198 A 
ATOM     45  C   UNL A   1      38.636  34.165  38.837  1.00  0.00     0.198 A 
ATOM     46  F   UNL A   1      38.223  32.121  37.749  1.00  0.00    -0.203 F 
ATOM     47  F   UNL A   1      40.808  36.922  37.942  1.00  0.00    -0.200 F 
ATOM     48  C   UNL A   1      39.286  35.388  38.893  1.00  0.00     0.200 A 
ATOM     49  F   UNL A   1      37.776  33.820  39.806  1.00  0.00    -0.200 F 
ATOM     50  F   UNL A   1      39.069  36.218  39.922  1.00  0.00    -0.200 F 
ENDBRANCH  26  40
BRANCH  27  51
ATOM     51  C   UNL A   1      40.562  27.884  28.592  1.00  0.00     0.064 A 
ATOM     52  C   UNL A   1      41.347  28.305  27.510  1.00  0.00     0.173 A 
ATOM     53  C   UNL A   1      39.903  26.651  28.477  1.00  0.00     0.173 A 
ATOM     54  F   UNL A   1      41.985  29.484  27.565  1.00  0.00    -0.203 F 
ATOM     55  C   UNL A   1      41.439  27.542  26.348  1.00  0.00     0.198 A 
ATOM     56  C   UNL A   1      40.027  25.870  27.331  1.00  0.00     0.198 A 
ATOM     57  F   UNL A   1      39.146  26.195  29.486  1.00  0.00    -0.203 F 
ATOM     58  F   UNL A   1      42.144  28.000  25.305  1.00  0.00    -0.200 F 
ATOM     59  C   UNL A   1      40.784  26.324  26.261  1.00  0.00     0.200 A 
ATOM     60  F   UNL A   1      39.412  24.683  27.262  1.00  0.00    -0.200 F 
ATOM     61  F   UNL A   1      40.873  25.590  25.144  1.00  0.00    -0.200 F 
ENDBRANCH  27  51
BRANCH  39  62
ATOM     62  C   UNL A   1      43.908  28.127  34.686  1.00  0.00     0.064 A 
ATOM     63  C   UNL A   1      45.249  28.506  34.512  1.00  0.00     0.173 A 
ATOM     64  C   UNL A   1      43.646  26.949  35.400  1.00  0.00     0.173 A 
ATOM     65  F   UNL A   1      45.552  29.615  33.820  1.00  0.00    -0.203 F 
ATOM     66  C   UNL A   1      46.284  27.711  34.993  1.00  0.00     0.198 A 
ATOM     67  C   UNL A   1      44.685  26.177  35.913  1.00  0.00     0.198 A 
ATOM     68  F   UNL A   1      42.383  26.546  35.601  1.00  0.00    -0.203 F 
ATOM     69  F   UNL A   1      47.557  28.054  34.752  1.00  0.00    -0.200 F 
ATOM     70  C   UNL A   1      46.001  26.551  35.697  1.00  0.00     0.200 A 
ATOM     71  F   UNL A   1      44.408  25.062  36.605  1.00  0.00    -0.200 F 
ATOM     72  F   UNL A   1      47.000  25.784  36.158  1.00  0.00    -0.200 F 
ENDBRANCH  39  62
ENDBRANCH  13  14
ENDBRANCH   6   8
ENDBRANCH   3   4
ENDBRANCH   2   3
ENDBRANCH   1   2
BRANCH   1  73
ATOM     73  C   UNL A   1      33.176  30.306  27.083  1.00  0.00     0.002 C 
BRANCH  73  74
ATOM     74  C   UNL A   1      33.424  28.820  27.365  1.00  0.00     0.021 C 
BRANCH  74  75
ATOM     75  C   UNL A   1      34.261  28.102  26.309  1.00  0.00     0.116 C 
BRANCH  75  76
ATOM     76  N   UNL A   1      34.263  28.853  25.070  1.00  0.00    -0.356 N 
ATOM     77  C   UNL A   1      33.623  28.590  23.894  1.00  0.00     0.224 C 
ATOM     78  H   UNL A   1      34.806  29.675  25.076  1.00  0.00     0.163 HD
ATOM     79  O   UNL A   1      33.895  29.291  22.922  1.00  0.00    -0.275 OA
BRANCH  77  80
ATOM     80  C   UNL A   1      32.571  27.489  23.859  1.00  0.00     0.094 C 
ATOM     81  C   UNL A   1      31.234  28.002  24.476  1.00  0.00     0.002 C 
ATOM     82  C   UNL A   1      32.137  27.052  22.448  1.00  0.00     0.094 C 
ATOM     83  C   UNL A   1      30.649  29.188  23.675  1.00  0.00     0.005 C 
ATOM     84  C   UNL A   1      30.262  26.908  24.060  1.00  0.00     0.009 C 
ATOM     85  C   UNL A   1      30.586  27.051  22.564  1.00  0.00     0.002 C 
ATOM     86  C   UNL A   1      30.142  28.521  22.378  1.00  0.00     0.005 C 
BRANCH  82  87
ATOM     87  C   UNL A   1      32.805  25.834  21.782  1.00  0.00     0.224 C 
ATOM     88  O   UNL A   1      33.275  25.956  20.643  1.00  0.00    -0.275 OA
ATOM     89  N   UNL A   1      32.925  24.594  22.319  1.00  0.00    -0.349 N 
ATOM     90  H   UNL A   1      33.252  23.905  21.698  1.00  0.00     0.164 HD
BRANCH  89  91
ATOM     91  C   UNL A   1      32.647  24.127  23.649  1.00  0.00     0.112 C 
ATOM     92  C   UNL A   1      31.532  23.084  23.710  1.00  0.00     0.030 C 
ATOM     93  C   UNL A   1      33.860  23.665  24.429  1.00  0.00    -0.022 A 
ATOM     94  C   UNL A   1      31.123  22.919  25.176  1.00  0.00     0.007 C 
ATOM     95  C   UNL A   1      33.652  23.033  25.672  1.00  0.00    -0.043 A 
ATOM     96  C   UNL A   1      35.172  23.956  24.021  1.00  0.00     0.006 A 
ATOM     97  C   UNL A   1      32.294  22.491  26.066  1.00  0.00     0.036 C 
ATOM     98  C   UNL A   1      34.742  22.815  26.525  1.00  0.00     0.004 A 
ATOM     99  C   UNL A   1      36.251  23.691  24.860  1.00  0.00     0.000 A 
ATOM    100  C   UNL A   1      36.034  23.159  26.127  1.00  0.00     0.000 A 
ENDBRANCH  89  91
ENDBRANCH  82  87
ENDBRANCH  77  80
ENDBRANCH  75  76
ENDBRANCH  74  75
ENDBRANCH  73  74
ENDBRANCH   1  73
TORSDOF 15
ENDMDL
MODEL 3
REMARK VINA RESULT:     -13.1      5.182     10.382
REMARK SMILES O=C(NCCCCCCNC(=O)[C@H]1[C@H]2CC[C@H](C2)[C@@H]1C(=O)N[C@H]1CCCc2ccccc21)c1ccc(-c2c3nc(c(-c4c(F)c(F)c(F)c(F)c4F)c4ccc([nH]4)c(-c4c(F)c(F)c(F)c(F)c4F)c4nc(c(-c5c(F)c(F)c(F)c(F)c5F)c5ccc2[nH]5)C=C4)C=C3)cc1
REMARK SMILES IDX 6 1 5 2 4 3 3 4 1 5 2 6 33 8 34 9 95 10 35 11 94 12 36 13
REMARK SMILES IDX 37 14 38 15 88 16 39 17 93 18 87 19 89 20 40 21 92 22 86 23
REMARK SMILES IDX 85 24 41 26 73 27 53 28 72 29 54 30 57 31 71 32 90 33 55 34
REMARK SMILES IDX 56 35 70 37 91 38 58 39 42 40 43 41 51 42 44 43 45 44 49 45
REMARK SMILES IDX 52 46 46 47 47 48 50 49 48 50 74 51 75 52 83 53 76 54 77 55
REMARK SMILES IDX 81 56 84 57 78 58 79 59 82 60 80 61 59 62 60 63 68 64 61 65
REMARK SMILES IDX 62 66 66 67 69 68 63 69 64 70 67 71 65 72 7 73 8 74 9 75
REMARK SMILES IDX 10 76 11 77 12 79 13 80 14 81 19 82 15 83 18 84 17 85 16 86
REMARK SMILES IDX 20 87 21 88 22 89 23 91 24 92 32 93 25 94 27 95 31 96 26 97
REMARK SMILES IDX 28 98 30 99 29 100
REMARK H PARENT 3 7 89 25 57 36 10 78 22 90
REMARK Flexibility Score: inf
ROOT
ATOM      1  C   UNL A   1      36.961  20.596  24.932  1.00  0.00     0.002 C 
ENDROOT
BRANCH   1   2
ATOM      2  C   UNL A   1      38.130  19.613  24.980  1.00  0.00     0.021 C 
BRANCH   2   3
ATOM      3  C   UNL A   1      39.246  19.999  25.941  1.00  0.00     0.116 C 
BRANCH   3   4
ATOM      4  N   UNL A   1      40.384  19.096  25.870  1.00  0.00    -0.352 N 
ATOM      5  O   UNL A   1      42.569  18.532  25.759  1.00  0.00    -0.269 OA
ATOM      6  C   UNL A   1      41.723  19.375  26.014  1.00  0.00     0.251 C 
ATOM      7  H   UNL A   1      40.164  18.153  25.694  1.00  0.00     0.163 HD
BRANCH   6   8
ATOM      8  C   UNL A   1      42.131  20.723  26.465  1.00  0.00     0.039 A 
ATOM      9  C   UNL A   1      42.438  21.711  25.528  1.00  0.00     0.014 A 
ATOM     10  C   UNL A   1      42.216  20.997  27.832  1.00  0.00     0.014 A 
ATOM     11  C   UNL A   1      42.981  22.915  25.953  1.00  0.00     0.010 A 
ATOM     12  C   UNL A   1      42.656  22.253  28.260  1.00  0.00     0.010 A 
ATOM     13  C   UNL A   1      43.064  23.215  27.324  1.00  0.00    -0.014 A 
BRANCH  13  14
ATOM     14  C   UNL A   1      43.479  24.584  27.723  1.00  0.00     0.031 A 
ATOM     15  C   UNL A   1      44.922  24.997  27.755  1.00  0.00     0.074 A 
ATOM     16  C   UNL A   1      42.509  25.475  28.015  1.00  0.00     0.049 A 
ATOM     17  N   UNL A   1      45.435  26.169  28.037  1.00  0.00    -0.248 NA
ATOM     18  C   UNL A   1      45.924  23.969  27.436  1.00  0.00     0.031 C 
ATOM     19  C   UNL A   1      41.074  25.174  28.039  1.00  0.00     0.029 A 
ATOM     20  N   UNL A   1      42.571  26.809  28.320  1.00  0.00    -0.354 N 
ATOM     21  C   UNL A   1      46.811  26.021  27.937  1.00  0.00     0.074 A 
ATOM     22  C   UNL A   1      47.061  24.635  27.599  1.00  0.00     0.031 C 
ATOM     23  C   UNL A   1      40.391  26.300  28.281  1.00  0.00     0.029 A 
ATOM     24  C   UNL A   1      41.338  27.382  28.510  1.00  0.00     0.049 A 
ATOM     25  H   UNL A   1      43.417  27.308  28.394  1.00  0.00     0.167 HD
ATOM     26  C   UNL A   1      47.774  26.961  28.101  1.00  0.00     0.037 A 
ATOM     27  C   UNL A   1      41.003  28.639  28.856  1.00  0.00     0.037 A 
ATOM     28  C   UNL A   1      47.514  28.339  28.437  1.00  0.00     0.049 A 
ATOM     29  C   UNL A   1      42.098  29.644  29.064  1.00  0.00     0.074 A 
ATOM     30  C   UNL A   1      48.420  29.372  28.610  1.00  0.00     0.029 A 
ATOM     31  N   UNL A   1      46.253  28.878  28.658  1.00  0.00    -0.354 N 
ATOM     32  N   UNL A   1      43.392  29.498  28.927  1.00  0.00    -0.248 NA
ATOM     33  C   UNL A   1      41.683  30.991  29.473  1.00  0.00     0.031 C 
ATOM     34  C   UNL A   1      47.714  30.520  28.983  1.00  0.00     0.029 A 
ATOM     35  C   UNL A   1      46.362  30.222  28.986  1.00  0.00     0.049 A 
ATOM     36  H   UNL A   1      45.407  28.380  28.591  1.00  0.00     0.167 HD
ATOM     37  C   UNL A   1      43.947  30.735  29.221  1.00  0.00     0.074 A 
ATOM     38  C   UNL A   1      42.842  31.629  29.503  1.00  0.00     0.031 C 
ATOM     39  C   UNL A   1      45.252  31.097  29.266  1.00  0.00     0.037 A 
BRANCH  26  40
ATOM     40  C   UNL A   1      49.207  26.543  27.927  1.00  0.00     0.064 A 
ATOM     41  C   UNL A   1      49.790  26.430  26.656  1.00  0.00     0.173 A 
ATOM     42  C   UNL A   1      50.030  26.332  29.045  1.00  0.00     0.173 A 
ATOM     43  F   UNL A   1      49.047  26.612  25.553  1.00  0.00    -0.203 F 
ATOM     44  C   UNL A   1      51.138  26.112  26.510  1.00  0.00     0.198 A 
ATOM     45  C   UNL A   1      51.384  26.043  28.896  1.00  0.00     0.198 A 
ATOM     46  F   UNL A   1      49.526  26.435  30.284  1.00  0.00    -0.203 F 
ATOM     47  F   UNL A   1      51.665  25.981  25.285  1.00  0.00    -0.200 F 
ATOM     48  C   UNL A   1      51.937  25.928  27.630  1.00  0.00     0.200 A 
ATOM     49  F   UNL A   1      52.157  25.883  29.980  1.00  0.00    -0.200 F 
ATOM     50  F   UNL A   1      53.238  25.642  27.488  1.00  0.00    -0.200 F 
ENDBRANCH  26  40
BRANCH  27  51
ATOM     51  C   UNL A   1      39.575  29.001  29.056  1.00  0.00     0.064 A 
ATOM     52  C   UNL A   1      38.978  28.932  30.322  1.00  0.00     0.173 A 
ATOM     53  C   UNL A   1      38.773  29.406  27.979  1.00  0.00     0.173 A 
ATOM     54  F   UNL A   1      39.698  28.536  31.382  1.00  0.00    -0.203 F 
ATOM     55  C   UNL A   1      37.625  29.219  30.496  1.00  0.00     0.198 A 
ATOM     56  C   UNL A   1      37.431  29.731  28.160  1.00  0.00     0.198 A 
ATOM     57  F   UNL A   1      39.296  29.498  26.747  1.00  0.00    -0.203 F 
ATOM     58  F   UNL A   1      37.065  29.082  31.705  1.00  0.00    -0.200 F 
ATOM     59  C   UNL A   1      36.855  29.623  29.416  1.00  0.00     0.200 A 
ATOM     60  F   UNL A   1      36.698  30.144  27.118  1.00  0.00    -0.200 F 
ATOM     61  F   UNL A   1      35.555  29.899  29.584  1.00  0.00    -0.200 F 
ENDBRANCH  27  51
BRANCH  39  62
ATOM     62  C   UNL A   1      45.544  32.530  29.607  1.00  0.00     0.064 A 
ATOM     63  C   UNL A   1      45.750  32.945  30.932  1.00  0.00     0.173 A 
ATOM     64  C   UNL A   1      45.613  33.502  28.597  1.00  0.00     0.173 A 
ATOM     65  F   UNL A   1      45.676  32.057  31.936  1.00  0.00    -0.203 F 
ATOM     66  C   UNL A   1      45.970  34.285  31.237  1.00  0.00     0.198 A 
ATOM     67  C   UNL A   1      45.871  34.835  28.903  1.00  0.00     0.198 A 
ATOM     68  F   UNL A   1      45.432  33.158  27.314  1.00  0.00    -0.203 F 
ATOM     69  F   UNL A   1      46.091  34.668  32.515  1.00  0.00    -0.200 F 
ATOM     70  C   UNL A   1      46.035  35.227  30.222  1.00  0.00     0.200 A 
ATOM     71  F   UNL A   1      45.948  35.743  27.919  1.00  0.00    -0.200 F 
ATOM     72  F   UNL A   1      46.243  36.518  30.517  1.00  0.00    -0.200 F 
ENDBRANCH  39  62
ENDBRANCH  13  14
ENDBRANCH   6   8
ENDBRANCH   3   4
ENDBRANCH   2   3
ENDBRANCH   1   2
BRANCH   1  73
ATOM     73  C   UNL A   1      37.334  22.035  24.564  1.00  0.00     0.002 C 
BRANCH  73  74
ATOM     74  C   UNL A   1      37.439  23.011  25.741  1.00  0.00     0.021 C 
BRANCH  74  75
ATOM     75  C   UNL A   1      36.136  23.723  26.097  1.00  0.00     0.116 C 
BRANCH  75  76
ATOM     76  N   UNL A   1      35.286  22.854  26.887  1.00  0.00    -0.356 N 
ATOM     77  C   UNL A   1      33.925  22.773  26.926  1.00  0.00     0.224 C 
ATOM     78  H   UNL A   1      35.760  22.231  27.484  1.00  0.00     0.163 HD
ATOM     79  O   UNL A   1      33.416  22.063  27.790  1.00  0.00    -0.275 OA
BRANCH  77  80
ATOM     80  C   UNL A   1      33.113  23.511  25.869  1.00  0.00     0.094 C 
ATOM     81  C   UNL A   1      33.684  23.216  24.448  1.00  0.00     0.002 C 
ATOM     82  C   UNL A   1      31.649  23.052  25.739  1.00  0.00     0.094 C 
ATOM     83  C   UNL A   1      33.595  21.715  24.093  1.00  0.00     0.005 C 
ATOM     84  C   UNL A   1      32.578  23.757  23.554  1.00  0.00     0.009 C 
ATOM     85  C   UNL A   1      31.491  22.883  24.200  1.00  0.00     0.002 C 
ATOM     86  C   UNL A   1      32.085  21.497  23.859  1.00  0.00     0.005 C 
BRANCH  82  87
ATOM     87  C   UNL A   1      30.538  23.805  26.494  1.00  0.00     0.224 C 
ATOM     88  O   UNL A   1      30.020  23.275  27.485  1.00  0.00    -0.275 OA
ATOM     89  N   UNL A   1      30.035  25.023  26.170  1.00  0.00    -0.349 N 
ATOM     90  H   UNL A   1      29.234  25.287  26.677  1.00  0.00     0.164 HD
BRANCH  89  91
ATOM     91  C   UNL A   1      30.483  25.987  25.203  1.00  0.00     0.112 C 
ATOM     92  C   UNL A   1      29.454  26.283  24.114  1.00  0.00     0.030 C 
ATOM     93  C   UNL A   1      31.033  27.270  25.789  1.00  0.00    -0.022 A 
ATOM     94  C   UNL A   1      30.161  27.054  22.997  1.00  0.00     0.007 C 
ATOM     95  C   UNL A   1      31.331  28.330  24.910  1.00  0.00    -0.043 A 
ATOM     96  C   UNL A   1      31.372  27.392  27.147  1.00  0.00     0.006 A 
ATOM     97  C   UNL A   1      30.793  28.358  23.494  1.00  0.00     0.036 C 
ATOM     98  C   UNL A   1      32.061  29.430  25.379  1.00  0.00     0.004 A 
ATOM     99  C   UNL A   1      32.057  28.512  27.609  1.00  0.00     0.000 A 
ATOM    100  C   UNL A   1      32.437  29.511  26.720  1.00  0.00     0.000 A 
ENDBRANCH  89  91
ENDBRANCH  82  87
ENDBRANCH  77  80
ENDBRANCH  75  76
ENDBRANCH  74  75
ENDBRANCH  73  74
ENDBRANCH   1  73
TORSDOF 15
ENDMDL
