MODEL 1
REMARK VINA RESULT:     -13.7      0.000      0.000
REMARK SMILES Cc1ccnc(C(=O)c2[nH]c3cc(Cl)c(F)cc3c2CC(=O)NCCCCCCNC(=O)c2ccc(-c3c4nc(c(-c5c(F)c(F)c(F)c(F)c5F)c5ccc([nH]5)c(-c5c(F)c(F)c(F)c(F)c5F)c5nc(c(-c6c(F)c(F)c(F)c(F)c6F)c6ccc3[nH]6)C=C5)C=C4)cc2)c1
REMARK SMILES IDX 26 1 25 2 24 3 23 4 21 5 22 6 20 8 19 9 9 10 10 11 11 12
REMARK SMILES IDX 18 14 12 15 17 16 13 17 15 18 14 19 16 20 7 21 8 22 6 23
REMARK SMILES IDX 1 24 2 25 3 26 96 27 4 28 5 29 27 30 28 31 29 32 30 33 31 34
REMARK SMILES IDX 32 36 33 37 34 38 95 39 35 40 94 41 36 42 37 43 38 44 88 45
REMARK SMILES IDX 39 46 93 47 87 48 89 49 40 50 92 51 86 52 85 53 41 55 73 56
REMARK SMILES IDX 53 57 72 58 54 59 57 60 71 61 90 62 55 63 56 64 70 66 91 67
REMARK SMILES IDX 58 68 42 69 43 70 51 71 44 72 45 73 49 74 52 75 46 76 47 77
REMARK SMILES IDX 50 78 48 79 74 80 75 81 83 82 76 83 77 84 81 85 84 86 78 87
REMARK SMILES IDX 79 88 82 89 80 90 59 91 60 92 68 93 61 94 62 95 66 96 69 97
REMARK SMILES IDX 63 98 64 99 67 100 65 101
REMARK H PARENT 23 7 10 13 30 35 89 54 57 65
REMARK Flexibility Score: inf
ROOT
ATOM      1  C   UNL A   1      31.281  29.568  24.769  1.00  0.00     0.002 C 
ENDROOT
BRANCH   1   2
ATOM      2  C   UNL A   1      31.920  29.049  23.479  1.00  0.00     0.021 C 
BRANCH   2   3
ATOM      3  C   UNL A   1      31.237  27.835  22.842  1.00  0.00     0.116 C 
BRANCH   3   4
ATOM      4  N   UNL A   1      32.105  27.055  21.984  1.00  0.00    -0.356 N 
ATOM      5  C   UNL A   1      33.195  26.287  22.263  1.00  0.00     0.224 C 
ATOM      6  O   UNL A   1      33.655  25.621  21.330  1.00  0.00    -0.275 OA
ATOM      7  H   UNL A   1      31.865  27.085  21.030  1.00  0.00     0.163 HD
BRANCH   5   8
ATOM      8  C   UNL A   1      33.797  26.167  23.651  1.00  0.00     0.138 C 
BRANCH   8   9
ATOM      9  C   UNL A   1      33.595  24.868  24.381  1.00  0.00    -0.002 A 
ATOM     10  C   UNL A   1      34.435  23.752  24.468  1.00  0.00     0.093 A 
ATOM     11  N   UNL A   1      33.726  22.777  25.145  1.00  0.00    -0.351 N 
ATOM     12  C   UNL A   1      32.511  23.235  25.575  1.00  0.00     0.048 A 
ATOM     13  H   UNL A   1      34.057  21.863  25.300  1.00  0.00     0.167 HD
ATOM     14  C   UNL A   1      32.359  24.513  25.049  1.00  0.00     0.007 A 
ATOM     15  C   UNL A   1      31.534  22.606  26.361  1.00  0.00     0.050 A 
ATOM     16  C   UNL A   1      31.132  25.178  25.270  1.00  0.00     0.051 A 
ATOM     17  C   UNL A   1      30.357  23.314  26.617  1.00  0.00     0.078 A 
ATOM     18  C   UNL A   1      30.159  24.576  26.068  1.00  0.00     0.142 A 
ATOM     19  Cl  UNL A   1      29.156  22.605  27.629  1.00  0.00    -0.081 Cl
ATOM     20  F   UNL A   1      29.029  25.258  26.314  1.00  0.00    -0.205 F 
BRANCH  10  21
ATOM     21  C   UNL A   1      35.746  23.388  23.936  1.00  0.00     0.227 C 
ATOM     22  O   UNL A   1      35.858  23.176  22.728  1.00  0.00    -0.285 OA
BRANCH  21  23
ATOM     23  C   UNL A   1      36.936  23.110  24.809  1.00  0.00     0.113 A 
ATOM     24  C   UNL A   1      38.994  24.612  27.627  1.00  0.00     0.044 C 
ATOM     25  C   UNL A   1      38.448  23.663  26.603  1.00  0.00    -0.047 A 
ATOM     26  C   UNL A   1      39.018  22.401  26.454  1.00  0.00     0.023 A 
ATOM     27  C   UNL A   1      37.351  23.997  25.798  1.00  0.00     0.036 A 
ATOM     28  C   UNL A   1      38.509  21.555  25.486  1.00  0.00     0.112 A 
ATOM     29  N   UNL A   1      37.495  21.881  24.658  1.00  0.00    -0.253 NA
ENDBRANCH  21  23
ENDBRANCH  10  21
ENDBRANCH   8   9
ENDBRANCH   5   8
ENDBRANCH   3   4
ENDBRANCH   2   3
ENDBRANCH   1   2
BRANCH   1  30
ATOM     30  C   UNL A   1      31.503  28.704  26.005  1.00  0.00     0.002 C 
BRANCH  30  31
ATOM     31  C   UNL A   1      32.183  29.431  27.165  1.00  0.00     0.021 C 
BRANCH  31  32
ATOM     32  C   UNL A   1      33.501  30.115  26.786  1.00  0.00     0.116 C 
BRANCH  32  33
ATOM     33  N   UNL A   1      33.797  31.267  27.612  1.00  0.00    -0.352 N 
ATOM     34  C   UNL A   1      34.892  31.674  28.327  1.00  0.00     0.251 C 
ATOM     35  H   UNL A   1      33.044  31.899  27.673  1.00  0.00     0.163 HD
ATOM     36  O   UNL A   1      34.794  32.758  28.905  1.00  0.00    -0.269 OA
BRANCH  34  37
ATOM     37  C   UNL A   1      36.158  30.896  28.472  1.00  0.00     0.039 A 
ATOM     38  C   UNL A   1      36.292  29.524  28.269  1.00  0.00     0.014 A 
ATOM     39  C   UNL A   1      37.300  31.616  28.873  1.00  0.00     0.014 A 
ATOM     40  C   UNL A   1      37.497  28.877  28.517  1.00  0.00     0.010 A 
ATOM     41  C   UNL A   1      38.523  30.978  29.095  1.00  0.00     0.010 A 
ATOM     42  C   UNL A   1      38.613  29.597  28.946  1.00  0.00    -0.014 A 
BRANCH  42  43
ATOM     43  C   UNL A   1      39.831  28.820  29.182  1.00  0.00     0.031 A 
ATOM     44  C   UNL A   1      40.246  28.632  30.602  1.00  0.00     0.074 A 
ATOM     45  C   UNL A   1      40.569  28.248  28.212  1.00  0.00     0.049 A 
ATOM     46  N   UNL A   1      41.353  28.994  31.170  1.00  0.00    -0.248 NA
ATOM     47  C   UNL A   1      39.292  27.974  31.506  1.00  0.00     0.031 C 
ATOM     48  C   UNL A   1      40.209  28.047  26.809  1.00  0.00     0.029 A 
ATOM     49  N   UNL A   1      41.792  27.642  28.321  1.00  0.00    -0.354 N 
ATOM     50  C   UNL A   1      41.300  28.497  32.470  1.00  0.00     0.074 A 
ATOM     51  C   UNL A   1      39.984  27.936  32.647  1.00  0.00     0.031 C 
ATOM     52  C   UNL A   1      41.088  27.190  26.249  1.00  0.00     0.029 A 
ATOM     53  C   UNL A   1      42.145  26.905  27.208  1.00  0.00     0.049 A 
ATOM     54  H   UNL A   1      42.365  27.723  29.118  1.00  0.00     0.167 HD
ATOM     55  C   UNL A   1      42.397  28.432  33.272  1.00  0.00     0.037 A 
ATOM     56  C   UNL A   1      43.201  26.070  27.088  1.00  0.00     0.037 A 
ATOM     57  C   UNL A   1      43.489  29.226  32.792  1.00  0.00     0.049 A 
ATOM     58  C   UNL A   1      44.249  26.464  28.057  1.00  0.00     0.074 A 
ATOM     59  C   UNL A   1      43.823  30.561  32.779  1.00  0.00     0.029 A 
ATOM     60  N   UNL A   1      44.369  28.582  31.967  1.00  0.00    -0.354 N 
ATOM     61  N   UNL A   1      44.925  27.578  28.000  1.00  0.00    -0.248 NA
ATOM     62  C   UNL A   1      44.438  25.687  29.278  1.00  0.00     0.031 C 
ATOM     63  C   UNL A   1      44.767  30.724  31.722  1.00  0.00     0.029 A 
ATOM     64  C   UNL A   1      44.949  29.483  31.114  1.00  0.00     0.049 A 
ATOM     65  H   UNL A   1      44.557  27.615  31.984  1.00  0.00     0.167 HD
ATOM     66  C   UNL A   1      45.289  27.830  29.307  1.00  0.00     0.074 A 
ATOM     67  C   UNL A   1      45.142  26.563  30.000  1.00  0.00     0.031 C 
ATOM     68  C   UNL A   1      45.355  29.105  29.779  1.00  0.00     0.037 A 
BRANCH  55  69
ATOM     69  C   UNL A   1      42.621  27.382  34.329  1.00  0.00     0.064 A 
ATOM     70  C   UNL A   1      43.178  26.136  33.981  1.00  0.00     0.173 A 
ATOM     71  C   UNL A   1      42.022  27.454  35.604  1.00  0.00     0.173 A 
ATOM     72  F   UNL A   1      43.731  25.950  32.772  1.00  0.00    -0.203 F 
ATOM     73  C   UNL A   1      43.111  25.034  34.837  1.00  0.00     0.198 A 
ATOM     74  C   UNL A   1      41.999  26.366  36.476  1.00  0.00     0.198 A 
ATOM     75  F   UNL A   1      41.349  28.543  35.998  1.00  0.00    -0.203 F 
ATOM     76  F   UNL A   1      43.568  23.841  34.428  1.00  0.00    -0.200 F 
ATOM     77  C   UNL A   1      42.524  25.149  36.084  1.00  0.00     0.200 A 
ATOM     78  F   UNL A   1      41.400  26.487  37.668  1.00  0.00    -0.200 F 
ATOM     79  F   UNL A   1      42.419  24.084  36.888  1.00  0.00    -0.200 F 
ENDBRANCH  55  69
BRANCH  56  80
ATOM     80  C   UNL A   1      43.264  24.810  26.316  1.00  0.00     0.064 A 
ATOM     81  C   UNL A   1      44.152  24.663  25.241  1.00  0.00     0.173 A 
ATOM     82  C   UNL A   1      42.641  23.637  26.787  1.00  0.00     0.173 A 
ATOM     83  F   UNL A   1      44.818  25.725  24.765  1.00  0.00    -0.203 F 
ATOM     84  C   UNL A   1      44.425  23.410  24.688  1.00  0.00     0.198 A 
ATOM     85  C   UNL A   1      42.903  22.389  26.223  1.00  0.00     0.198 A 
ATOM     86  F   UNL A   1      41.841  23.663  27.862  1.00  0.00    -0.203 F 
ATOM     87  F   UNL A   1      45.332  23.298  23.708  1.00  0.00    -0.200 F 
ATOM     88  C   UNL A   1      43.806  22.274  25.184  1.00  0.00     0.200 A 
ATOM     89  F   UNL A   1      42.321  21.295  26.735  1.00  0.00    -0.200 F 
ATOM     90  F   UNL A   1      44.113  21.066  24.692  1.00  0.00    -0.200 F 
ENDBRANCH  56  80
BRANCH  68  91
ATOM     91  C   UNL A   1      45.597  30.191  28.780  1.00  0.00     0.064 A 
ATOM     92  C   UNL A   1      44.578  30.828  28.056  1.00  0.00     0.173 A 
ATOM     93  C   UNL A   1      46.909  30.650  28.602  1.00  0.00     0.173 A 
ATOM     94  F   UNL A   1      43.292  30.505  28.247  1.00  0.00    -0.203 F 
ATOM     95  C   UNL A   1      44.872  31.843  27.147  1.00  0.00     0.198 A 
ATOM     96  C   UNL A   1      47.195  31.689  27.721  1.00  0.00     0.198 A 
ATOM     97  F   UNL A   1      47.913  30.112  29.313  1.00  0.00    -0.203 F 
ATOM     98  F   UNL A   1      43.887  32.423  26.446  1.00  0.00    -0.200 F 
ATOM     99  C   UNL A   1      46.180  32.274  26.984  1.00  0.00     0.200 A 
ATOM    100  F   UNL A   1      48.454  32.135  27.602  1.00  0.00    -0.200 F 
ATOM    101  F   UNL A   1      46.458  33.271  26.132  1.00  0.00    -0.200 F 
ENDBRANCH  68  91
ENDBRANCH  42  43
ENDBRANCH  34  37
ENDBRANCH  32  33
ENDBRANCH  31  32
ENDBRANCH  30  31
ENDBRANCH   1  30
TORSDOF 16
ENDMDL
MODEL 2
REMARK VINA RESULT:     -13.5      2.878      8.779
REMARK SMILES Cc1ccnc(C(=O)c2[nH]c3cc(Cl)c(F)cc3c2CC(=O)NCCCCCCNC(=O)c2ccc(-c3c4nc(c(-c5c(F)c(F)c(F)c(F)c5F)c5ccc([nH]5)c(-c5c(F)c(F)c(F)c(F)c5F)c5nc(c(-c6c(F)c(F)c(F)c(F)c6F)c6ccc3[nH]6)C=C5)C=C4)cc2)c1
REMARK SMILES IDX 26 1 25 2 24 3 23 4 21 5 22 6 20 8 19 9 9 10 10 11 11 12
REMARK SMILES IDX 18 14 12 15 17 16 13 17 15 18 14 19 16 20 7 21 8 22 6 23
REMARK SMILES IDX 1 24 2 25 3 26 96 27 4 28 5 29 27 30 28 31 29 32 30 33 31 34
REMARK SMILES IDX 32 36 33 37 34 38 95 39 35 40 94 41 36 42 37 43 38 44 88 45
REMARK SMILES IDX 39 46 93 47 87 48 89 49 40 50 92 51 86 52 85 53 41 55 73 56
REMARK SMILES IDX 53 57 72 58 54 59 57 60 71 61 90 62 55 63 56 64 70 66 91 67
REMARK SMILES IDX 58 68 42 69 43 70 51 71 44 72 45 73 49 74 52 75 46 76 47 77
REMARK SMILES IDX 50 78 48 79 74 80 75 81 83 82 76 83 77 84 81 85 84 86 78 87
REMARK SMILES IDX 79 88 82 89 80 90 59 91 60 92 68 93 61 94 62 95 66 96 69 97
REMARK SMILES IDX 63 98 64 99 67 100 65 101
REMARK H PARENT 23 7 10 13 30 35 89 54 57 65
REMARK Flexibility Score: inf
ROOT
ATOM      1  C   UNL A   1      40.778  21.480  27.443  1.00  0.00     0.002 C 
ENDROOT
BRANCH   1   2
ATOM      2  C   UNL A   1      40.246  21.771  26.037  1.00  0.00     0.021 C 
BRANCH   2   3
ATOM      3  C   UNL A   1      38.730  21.635  25.859  1.00  0.00     0.116 C 
BRANCH   3   4
ATOM      4  N   UNL A   1      37.992  22.841  26.171  1.00  0.00    -0.356 N 
ATOM      5  C   UNL A   1      36.988  23.480  25.507  1.00  0.00     0.224 C 
ATOM      6  O   UNL A   1      36.453  24.426  26.095  1.00  0.00    -0.275 OA
ATOM      7  H   UNL A   1      38.263  23.275  27.011  1.00  0.00     0.163 HD
BRANCH   5   8
ATOM      8  C   UNL A   1      36.473  23.039  24.150  1.00  0.00     0.138 C 
BRANCH   8   9
ATOM      9  C   UNL A   1      35.035  22.610  24.064  1.00  0.00    -0.002 A 
ATOM     10  C   UNL A   1      33.884  23.378  23.851  1.00  0.00     0.093 A 
ATOM     11  N   UNL A   1      32.807  22.524  23.994  1.00  0.00    -0.351 N 
ATOM     12  C   UNL A   1      33.205  21.231  24.201  1.00  0.00     0.048 A 
ATOM     13  H   UNL A   1      31.866  22.811  23.952  1.00  0.00     0.167 HD
ATOM     14  C   UNL A   1      34.589  21.258  24.330  1.00  0.00     0.007 A 
ATOM     15  C   UNL A   1      32.444  20.057  24.309  1.00  0.00     0.050 A 
ATOM     16  C   UNL A   1      35.247  20.048  24.647  1.00  0.00     0.051 A 
ATOM     17  C   UNL A   1      33.129  18.866  24.558  1.00  0.00     0.078 A 
ATOM     18  C   UNL A   1      34.508  18.867  24.736  1.00  0.00     0.142 A 
ATOM     19  Cl  UNL A   1      32.242  17.390  24.637  1.00  0.00    -0.081 Cl
ATOM     20  F   UNL A   1      35.168  17.723  24.974  1.00  0.00    -0.205 F 
BRANCH  10  21
ATOM     21  C   UNL A   1      33.599  24.797  23.644  1.00  0.00     0.227 C 
ATOM     22  O   UNL A   1      33.953  25.324  22.589  1.00  0.00    -0.285 OA
BRANCH  21  23
ATOM     23  C   UNL A   1      33.032  25.683  24.716  1.00  0.00     0.113 A 
ATOM     24  C   UNL A   1      33.941  28.596  26.979  1.00  0.00     0.044 C 
ATOM     25  C   UNL A   1      33.173  27.526  26.262  1.00  0.00    -0.047 A 
ATOM     26  C   UNL A   1      31.820  27.341  26.539  1.00  0.00     0.023 A 
ATOM     27  C   UNL A   1      33.771  26.712  25.291  1.00  0.00     0.036 A 
ATOM     28  C   UNL A   1      31.142  26.331  25.881  1.00  0.00     0.112 A 
ATOM     29  N   UNL A   1      31.715  25.496  24.990  1.00  0.00    -0.253 NA
ENDBRANCH  21  23
ENDBRANCH  10  21
ENDBRANCH   8   9
ENDBRANCH   5   8
ENDBRANCH   3   4
ENDBRANCH   2   3
ENDBRANCH   1   2
BRANCH   1  30
ATOM     30  C   UNL A   1      41.484  20.140  27.612  1.00  0.00     0.002 C 
BRANCH  30  31
ATOM     31  C   UNL A   1      41.712  19.381  26.305  1.00  0.00     0.021 C 
BRANCH  31  32
ATOM     32  C   UNL A   1      43.072  18.679  26.220  1.00  0.00     0.116 C 
BRANCH  32  33
ATOM     33  N   UNL A   1      43.818  19.037  25.031  1.00  0.00    -0.352 N 
ATOM     34  C   UNL A   1      44.345  20.206  24.550  1.00  0.00     0.251 C 
ATOM     35  H   UNL A   1      43.984  18.269  24.437  1.00  0.00     0.163 HD
ATOM     36  O   UNL A   1      44.962  20.129  23.485  1.00  0.00    -0.269 OA
BRANCH  34  37
ATOM     37  C   UNL A   1      44.202  21.542  25.200  1.00  0.00     0.039 A 
ATOM     38  C   UNL A   1      44.732  21.900  26.437  1.00  0.00     0.014 A 
ATOM     39  C   UNL A   1      43.443  22.505  24.507  1.00  0.00     0.014 A 
ATOM     40  C   UNL A   1      44.467  23.144  26.998  1.00  0.00     0.010 A 
ATOM     41  C   UNL A   1      43.197  23.769  25.050  1.00  0.00     0.010 A 
ATOM     42  C   UNL A   1      43.686  24.078  26.316  1.00  0.00    -0.014 A 
BRANCH  42  43
ATOM     43  C   UNL A   1      43.464  25.354  26.996  1.00  0.00     0.031 A 
ATOM     44  C   UNL A   1      44.484  26.420  26.779  1.00  0.00     0.074 A 
ATOM     45  C   UNL A   1      42.395  25.631  27.767  1.00  0.00     0.049 A 
ATOM     46  N   UNL A   1      45.220  27.019  27.662  1.00  0.00    -0.248 NA
ATOM     47  C   UNL A   1      44.727  26.856  25.397  1.00  0.00     0.031 C 
ATOM     48  C   UNL A   1      41.150  24.871  27.882  1.00  0.00     0.029 A 
ATOM     49  N   UNL A   1      42.178  26.726  28.558  1.00  0.00    -0.354 N 
ATOM     50  C   UNL A   1      45.927  28.001  26.973  1.00  0.00     0.074 A 
ATOM     51  C   UNL A   1      45.638  27.815  25.573  1.00  0.00     0.031 C 
ATOM     52  C   UNL A   1      40.234  25.627  28.525  1.00  0.00     0.029 A 
ATOM     53  C   UNL A   1      40.872  26.849  28.989  1.00  0.00     0.049 A 
ATOM     54  H   UNL A   1      42.887  27.367  28.798  1.00  0.00     0.167 HD
ATOM     55  C   UNL A   1      46.581  29.012  27.607  1.00  0.00     0.037 A 
ATOM     56  C   UNL A   1      40.326  27.903  29.635  1.00  0.00     0.037 A 
ATOM     57  C   UNL A   1      46.762  28.767  29.008  1.00  0.00     0.049 A 
ATOM     58  C   UNL A   1      41.391  28.655  30.335  1.00  0.00     0.074 A 
ATOM     59  C   UNL A   1      47.599  28.002  29.788  1.00  0.00     0.029 A 
ATOM     60  N   UNL A   1      45.772  29.239  29.823  1.00  0.00    -0.354 N 
ATOM     61  N   UNL A   1      42.077  28.193  31.344  1.00  0.00    -0.248 NA
ATOM     62  C   UNL A   1      41.878  29.914  29.780  1.00  0.00     0.031 C 
ATOM     63  C   UNL A   1      46.930  27.827  31.035  1.00  0.00     0.029 A 
ATOM     64  C   UNL A   1      45.696  28.471  30.954  1.00  0.00     0.049 A 
ATOM     65  H   UNL A   1      45.198  30.015  29.625  1.00  0.00     0.167 HD
ATOM     66  C   UNL A   1      43.279  28.869  31.286  1.00  0.00     0.074 A 
ATOM     67  C   UNL A   1      43.028  30.030  30.449  1.00  0.00     0.031 C 
ATOM     68  C   UNL A   1      44.442  28.258  31.640  1.00  0.00     0.037 A 
BRANCH  55  69
ATOM     69  C   UNL A   1      46.772  30.394  27.041  1.00  0.00     0.064 A 
ATOM     70  C   UNL A   1      48.040  31.005  27.080  1.00  0.00     0.173 A 
ATOM     71  C   UNL A   1      45.687  31.246  26.745  1.00  0.00     0.173 A 
ATOM     72  F   UNL A   1      49.132  30.291  27.396  1.00  0.00    -0.203 F 
ATOM     73  C   UNL A   1      48.205  32.376  26.869  1.00  0.00     0.198 A 
ATOM     74  C   UNL A   1      45.859  32.606  26.488  1.00  0.00     0.198 A 
ATOM     75  F   UNL A   1      44.421  30.810  26.804  1.00  0.00    -0.203 F 
ATOM     76  F   UNL A   1      49.416  32.933  27.010  1.00  0.00    -0.200 F 
ATOM     77  C   UNL A   1      47.115  33.175  26.572  1.00  0.00     0.200 A 
ATOM     78  F   UNL A   1      44.790  33.371  26.231  1.00  0.00    -0.200 F 
ATOM     79  F   UNL A   1      47.264  34.497  26.412  1.00  0.00    -0.200 F 
ENDBRANCH  55  69
BRANCH  56  80
ATOM     80  C   UNL A   1      38.945  28.416  29.502  1.00  0.00     0.064 A 
ATOM     81  C   UNL A   1      38.126  28.589  30.627  1.00  0.00     0.173 A 
ATOM     82  C   UNL A   1      38.496  28.996  28.299  1.00  0.00     0.173 A 
ATOM     83  F   UNL A   1      38.505  28.106  31.819  1.00  0.00    -0.203 F 
ATOM     84  C   UNL A   1      36.941  29.325  30.559  1.00  0.00     0.198 A 
ATOM     85  C   UNL A   1      37.305  29.717  28.229  1.00  0.00     0.198 A 
ATOM     86  F   UNL A   1      39.249  28.956  27.190  1.00  0.00    -0.203 F 
ATOM     87  F   UNL A   1      36.220  29.530  31.670  1.00  0.00    -0.200 F 
ATOM     88  C   UNL A   1      36.536  29.894  29.363  1.00  0.00     0.200 A 
ATOM     89  F   UNL A   1      36.943  30.289  27.073  1.00  0.00    -0.200 F 
ATOM     90  F   UNL A   1      35.430  30.649  29.312  1.00  0.00    -0.200 F 
ENDBRANCH  56  80
BRANCH  68  91
ATOM     91  C   UNL A   1      44.347  27.115  32.600  1.00  0.00     0.064 A 
ATOM     92  C   UNL A   1      44.258  27.269  33.992  1.00  0.00     0.173 A 
ATOM     93  C   UNL A   1      44.275  25.815  32.082  1.00  0.00     0.173 A 
ATOM     94  F   UNL A   1      44.225  28.487  34.549  1.00  0.00    -0.203 F 
ATOM     95  C   UNL A   1      44.159  26.161  34.830  1.00  0.00     0.198 A 
ATOM     96  C   UNL A   1      44.140  24.712  32.919  1.00  0.00     0.198 A 
ATOM     97  F   UNL A   1      44.300  25.617  30.754  1.00  0.00    -0.203 F 
ATOM     98  F   UNL A   1      44.100  26.327  36.160  1.00  0.00    -0.200 F 
ATOM     99  C   UNL A   1      44.097  24.884  34.293  1.00  0.00     0.200 A 
ATOM    100  F   UNL A   1      44.032  23.483  32.393  1.00  0.00    -0.200 F 
ATOM    101  F   UNL A   1      43.972  23.820  35.099  1.00  0.00    -0.200 F 
ENDBRANCH  68  91
ENDBRANCH  42  43
ENDBRANCH  34  37
ENDBRANCH  32  33
ENDBRANCH  31  32
ENDBRANCH  30  31
ENDBRANCH   1  30
TORSDOF 16
ENDMDL
MODEL 3
REMARK VINA RESULT:     -13.5      3.236      8.859
REMARK SMILES Cc1ccnc(C(=O)c2[nH]c3cc(Cl)c(F)cc3c2CC(=O)NCCCCCCNC(=O)c2ccc(-c3c4nc(c(-c5c(F)c(F)c(F)c(F)c5F)c5ccc([nH]5)c(-c5c(F)c(F)c(F)c(F)c5F)c5nc(c(-c6c(F)c(F)c(F)c(F)c6F)c6ccc3[nH]6)C=C5)C=C4)cc2)c1
REMARK SMILES IDX 26 1 25 2 24 3 23 4 21 5 22 6 20 8 19 9 9 10 10 11 11 12
REMARK SMILES IDX 18 14 12 15 17 16 13 17 15 18 14 19 16 20 7 21 8 22 6 23
REMARK SMILES IDX 1 24 2 25 3 26 96 27 4 28 5 29 27 30 28 31 29 32 30 33 31 34
REMARK SMILES IDX 32 36 33 37 34 38 95 39 35 40 94 41 36 42 37 43 38 44 88 45
REMARK SMILES IDX 39 46 93 47 87 48 89 49 40 50 92 51 86 52 85 53 41 55 73 56
REMARK SMILES IDX 53 57 72 58 54 59 57 60 71 61 90 62 55 63 56 64 70 66 91 67
REMARK SMILES IDX 58 68 42 69 43 70 51 71 44 72 45 73 49 74 52 75 46 76 47 77
REMARK SMILES IDX 50 78 48 79 74 80 75 81 83 82 76 83 77 84 81 85 84 86 78 87
REMARK SMILES IDX 79 88 82 89 80 90 59 91 60 92 68 93 61 94 62 95 66 96 69 97
REMARK SMILES IDX 63 98 64 99 67 100 65 101
REMARK H PARENT 23 7 10 13 30 35 89 54 57 65
REMARK Flexibility Score: inf
ROOT
ATOM      1  C   UNL A   1      34.945  21.055  25.792  1.00  0.00     0.002 C 
ENDROOT
BRANCH   1   2
ATOM      2  C   UNL A   1      33.572  20.419  25.560  1.00  0.00     0.021 C 
BRANCH   2   3
ATOM      3  C   UNL A   1      32.459  21.381  25.133  1.00  0.00     0.116 C 
BRANCH   3   4
ATOM      4  N   UNL A   1      31.858  22.109  26.232  1.00  0.00    -0.356 N 
ATOM      5  C   UNL A   1      32.125  23.339  26.752  1.00  0.00     0.224 C 
ATOM      6  O   UNL A   1      31.344  23.756  27.613  1.00  0.00    -0.275 OA
ATOM      7  H   UNL A   1      31.126  21.629  26.683  1.00  0.00     0.163 HD
BRANCH   5   8
ATOM      8  C   UNL A   1      33.267  24.216  26.273  1.00  0.00     0.138 C 
BRANCH   8   9
ATOM      9  C   UNL A   1      32.934  25.310  25.297  1.00  0.00    -0.002 A 
ATOM     10  C   UNL A   1      32.545  26.633  25.537  1.00  0.00     0.093 A 
ATOM     11  N   UNL A   1      32.229  27.180  24.307  1.00  0.00    -0.351 N 
ATOM     12  C   UNL A   1      32.478  26.309  23.281  1.00  0.00     0.048 A 
ATOM     13  H   UNL A   1      31.869  28.088  24.184  1.00  0.00     0.167 HD
ATOM     14  C   UNL A   1      32.845  25.102  23.866  1.00  0.00     0.007 A 
ATOM     15  C   UNL A   1      32.380  26.493  21.894  1.00  0.00     0.050 A 
ATOM     16  C   UNL A   1      33.067  23.996  23.016  1.00  0.00     0.051 A 
ATOM     17  C   UNL A   1      32.669  25.399  21.076  1.00  0.00     0.078 A 
ATOM     18  C   UNL A   1      32.996  24.168  21.633  1.00  0.00     0.142 A 
ATOM     19  Cl  UNL A   1      32.622  25.597  19.365  1.00  0.00    -0.081 Cl
ATOM     20  F   UNL A   1      33.275  23.115  20.848  1.00  0.00    -0.205 F 
BRANCH  10  21
ATOM     21  C   UNL A   1      32.307  27.453  26.723  1.00  0.00     0.227 C 
ATOM     22  O   UNL A   1      31.318  27.218  27.418  1.00  0.00    -0.285 OA
BRANCH  21  23
ATOM     23  C   UNL A   1      33.124  28.669  27.055  1.00  0.00     0.113 A 
ATOM     24  C   UNL A   1      36.709  29.811  27.579  1.00  0.00     0.044 C 
ATOM     25  C   UNL A   1      35.220  29.806  27.406  1.00  0.00    -0.047 A 
ATOM     26  C   UNL A   1      34.508  31.000  27.497  1.00  0.00     0.023 A 
ATOM     27  C   UNL A   1      34.513  28.629  27.126  1.00  0.00     0.036 A 
ATOM     28  C   UNL A   1      33.132  30.962  27.357  1.00  0.00     0.112 A 
ATOM     29  N   UNL A   1      32.427  29.831  27.150  1.00  0.00    -0.253 NA
ENDBRANCH  21  23
ENDBRANCH  10  21
ENDBRANCH   8   9
ENDBRANCH   5   8
ENDBRANCH   3   4
ENDBRANCH   2   3
ENDBRANCH   1   2
BRANCH   1  30
ATOM     30  C   UNL A   1      35.554  21.757  24.583  1.00  0.00     0.002 C 
BRANCH  30  31
ATOM     31  C   UNL A   1      37.082  21.726  24.543  1.00  0.00     0.021 C 
BRANCH  31  32
ATOM     32  C   UNL A   1      37.751  22.344  25.775  1.00  0.00     0.116 C 
BRANCH  32  33
ATOM     33  N   UNL A   1      39.140  21.959  25.916  1.00  0.00    -0.352 N 
ATOM     34  C   UNL A   1      40.242  22.549  26.476  1.00  0.00     0.251 C 
ATOM     35  H   UNL A   1      39.336  21.078  25.524  1.00  0.00     0.163 HD
ATOM     36  O   UNL A   1      41.289  21.898  26.437  1.00  0.00    -0.269 OA
BRANCH  34  37
ATOM     37  C   UNL A   1      40.267  23.908  27.092  1.00  0.00     0.039 A 
ATOM     38  C   UNL A   1      39.321  24.909  26.881  1.00  0.00     0.014 A 
ATOM     39  C   UNL A   1      41.357  24.201  27.935  1.00  0.00     0.014 A 
ATOM     40  C   UNL A   1      39.482  26.175  27.432  1.00  0.00     0.010 A 
ATOM     41  C   UNL A   1      41.510  25.462  28.518  1.00  0.00     0.010 A 
ATOM     42  C   UNL A   1      40.583  26.463  28.239  1.00  0.00    -0.014 A 
BRANCH  42  43
ATOM     43  C   UNL A   1      40.660  27.826  28.766  1.00  0.00     0.031 A 
ATOM     44  C   UNL A   1      41.759  28.689  28.245  1.00  0.00     0.074 A 
ATOM     45  C   UNL A   1      39.794  28.349  29.654  1.00  0.00     0.049 A 
ATOM     46  N   UNL A   1      42.715  29.260  28.909  1.00  0.00    -0.248 NA
ATOM     47  C   UNL A   1      41.807  28.926  26.796  1.00  0.00     0.031 C 
ATOM     48  C   UNL A   1      38.499  27.810  30.070  1.00  0.00     0.029 A 
ATOM     49  N   UNL A   1      39.872  29.546  30.314  1.00  0.00    -0.354 N 
ATOM     50  C   UNL A   1      43.412  30.038  27.988  1.00  0.00     0.074 A 
ATOM     51  C   UNL A   1      42.856  29.745  26.691  1.00  0.00     0.031 C 
ATOM     52  C   UNL A   1      37.823  28.765  30.743  1.00  0.00     0.029 A 
ATOM     53  C   UNL A   1      38.692  29.918  30.928  1.00  0.00     0.049 A 
ATOM     54  H   UNL A   1      40.692  30.090  30.347  1.00  0.00     0.167 HD
ATOM     55  C   UNL A   1      44.299  30.998  28.366  1.00  0.00     0.037 A 
ATOM     56  C   UNL A   1      38.417  31.108  31.504  1.00  0.00     0.037 A 
ATOM     57  C   UNL A   1      44.694  30.885  29.739  1.00  0.00     0.049 A 
ATOM     58  C   UNL A   1      39.682  31.758  31.916  1.00  0.00     0.074 A 
ATOM     59  C   UNL A   1      45.547  30.090  30.470  1.00  0.00     0.029 A 
ATOM     60  N   UNL A   1      43.938  31.593  30.631  1.00  0.00    -0.354 N 
ATOM     61  N   UNL A   1      40.469  31.310  32.855  1.00  0.00    -0.248 NA
ATOM     62  C   UNL A   1      40.226  32.856  31.124  1.00  0.00     0.031 C 
ATOM     63  C   UNL A   1      45.094  30.160  31.821  1.00  0.00     0.029 A 
ATOM     64  C   UNL A   1      43.964  30.976  31.854  1.00  0.00     0.049 A 
ATOM     65  H   UNL A   1      43.447  32.421  30.424  1.00  0.00     0.167 HD
ATOM     66  C   UNL A   1      41.720  31.780  32.512  1.00  0.00     0.074 A 
ATOM     67  C   UNL A   1      41.482  32.866  31.577  1.00  0.00     0.031 C 
ATOM     68  C   UNL A   1      42.835  31.038  32.754  1.00  0.00     0.037 A 
BRANCH  55  69
ATOM     69  C   UNL A   1      44.570  32.262  27.594  1.00  0.00     0.064 A 
ATOM     70  C   UNL A   1      45.768  32.404  26.868  1.00  0.00     0.173 A 
ATOM     71  C   UNL A   1      43.830  33.446  27.798  1.00  0.00     0.173 A 
ATOM     72  F   UNL A   1      46.568  31.347  26.657  1.00  0.00    -0.203 F 
ATOM     73  C   UNL A   1      46.209  33.649  26.409  1.00  0.00     0.198 A 
ATOM     74  C   UNL A   1      44.248  34.678  27.298  1.00  0.00     0.198 A 
ATOM     75  F   UNL A   1      42.741  33.461  28.580  1.00  0.00    -0.203 F 
ATOM     76  F   UNL A   1      47.402  33.754  25.806  1.00  0.00    -0.200 F 
ATOM     77  C   UNL A   1      45.448  34.784  26.622  1.00  0.00     0.200 A 
ATOM     78  F   UNL A   1      43.513  35.773  27.539  1.00  0.00    -0.200 F 
ATOM     79  F   UNL A   1      45.889  35.984  26.222  1.00  0.00    -0.200 F 
ENDBRANCH  55  69
BRANCH  56  80
ATOM     80  C   UNL A   1      37.117  31.812  31.527  1.00  0.00     0.064 A 
ATOM     81  C   UNL A   1      36.417  32.002  32.728  1.00  0.00     0.173 A 
ATOM     82  C   UNL A   1      36.665  32.543  30.411  1.00  0.00     0.173 A 
ATOM     83  F   UNL A   1      36.812  31.377  33.846  1.00  0.00    -0.203 F 
ATOM     84  C   UNL A   1      35.346  32.895  32.814  1.00  0.00     0.198 A 
ATOM     85  C   UNL A   1      35.586  33.422  30.494  1.00  0.00     0.198 A 
ATOM     86  F   UNL A   1      37.319  32.493  29.241  1.00  0.00    -0.203 F 
ATOM     87  F   UNL A   1      34.746  33.104  33.994  1.00  0.00    -0.200 F 
ATOM     88  C   UNL A   1      34.937  33.609  31.700  1.00  0.00     0.200 A 
ATOM     89  F   UNL A   1      35.222  34.130  29.416  1.00  0.00    -0.200 F 
ATOM     90  F   UNL A   1      33.948  34.508  31.796  1.00  0.00    -0.200 F 
ENDBRANCH  56  80
BRANCH  68  91
ATOM     91  C   UNL A   1      42.761  30.037  33.864  1.00  0.00     0.064 A 
ATOM     92  C   UNL A   1      43.104  30.319  35.195  1.00  0.00     0.173 A 
ATOM     93  C   UNL A   1      42.257  28.762  33.576  1.00  0.00     0.173 A 
ATOM     94  F   UNL A   1      43.502  31.546  35.558  1.00  0.00    -0.203 F 
ATOM     95  C   UNL A   1      42.999  29.343  36.183  1.00  0.00     0.198 A 
ATOM     96  C   UNL A   1      42.120  27.800  34.572  1.00  0.00     0.198 A 
ATOM     97  F   UNL A   1      41.863  28.459  32.329  1.00  0.00    -0.203 F 
ATOM     98  F   UNL A   1      43.355  29.624  37.445  1.00  0.00    -0.200 F 
ATOM     99  C   UNL A   1      42.505  28.086  35.872  1.00  0.00     0.200 A 
ATOM    100  F   UNL A   1      41.597  26.601  34.276  1.00  0.00    -0.200 F 
ATOM    101  F   UNL A   1      42.377  27.157  36.829  1.00  0.00    -0.200 F 
ENDBRANCH  68  91
ENDBRANCH  42  43
ENDBRANCH  34  37
ENDBRANCH  32  33
ENDBRANCH  31  32
ENDBRANCH  30  31
ENDBRANCH   1  30
TORSDOF 16
ENDMDL
