MODEL 1
REMARK VINA RESULT:     -14.5      0.000      0.000
REMARK SMILES Cc1ccccc1C(=O)Nc1cc(C(=O)NCCCCCCNC(=O)c2ccc(-c3c4nc(c(-c5c(F)c(F)c(F)c(F)c5F)c5ccc([nH]5)c(-c5c(F)c(F)c(F)c(F)c5F)c5nc(c(-c6c(F)c(F)c(F)c(F)c6F)c6ccc3[nH]6)C=C5)C=C4)cc2)ccc1N1CC[NH+](CC(=O)Nc2ccc(F)cc2)CC1
REMARK SMILES IDX 18 1 17 2 16 3 14 4 15 5 13 7 11 8 12 9 91 10 90 11 89 12
REMARK SMILES IDX 10 13 8 14 9 15 7 17 1 18 2 19 3 20 4 21 6 22 5 23 92 24
REMARK SMILES IDX 93 25 108 26 94 27 107 28 95 29 96 31 97 32 98 33 99 34
REMARK SMILES IDX 100 36 101 37 106 38 102 39 105 40 103 41 104 42 19 43 20 44
REMARK SMILES IDX 21 45 22 46 23 47 24 48 25 50 26 51 27 52 88 53 28 54 87 55
REMARK SMILES IDX 29 56 30 57 31 58 81 59 32 60 86 61 80 62 82 63 33 64 85 65
REMARK SMILES IDX 79 66 78 67 34 69 66 70 46 71 65 72 47 73 50 74 64 75 83 76
REMARK SMILES IDX 48 77 49 78 63 80 84 81 51 82 35 83 36 84 44 85 37 86 38 87
REMARK SMILES IDX 42 88 45 89 39 90 40 91 43 92 41 93 67 94 68 95 76 96 69 97
REMARK SMILES IDX 70 98 74 99 77 100 71 101 72 102 75 103 73 104 52 105 53 106
REMARK SMILES IDX 61 107 54 108 55 109 59 110 62 111 56 112 57 113 60 114
REMARK SMILES IDX 58 115
REMARK H PARENT 16 6 10 16 95 30 99 35 23 49 82 68 50 79
REMARK Flexibility Score: inf
ROOT
ATOM      1  C   UNL A   1      39.762  22.668  27.491  1.00  0.00     0.021 C 
ENDROOT
BRANCH   1   2
ATOM      2  C   UNL A   1      39.047  22.714  26.137  1.00  0.00     0.116 C 
BRANCH   2   3
ATOM      3  N   UNL A   1      38.655  21.386  25.699  1.00  0.00    -0.352 N 
ATOM      4  C   UNL A   1      37.575  20.908  24.997  1.00  0.00     0.251 C 
ATOM      5  O   UNL A   1      37.558  19.702  24.748  1.00  0.00    -0.269 OA
ATOM      6  H   UNL A   1      39.295  20.685  25.958  1.00  0.00     0.163 HD
BRANCH   4   7
ATOM      7  C   UNL A   1      36.466  21.762  24.478  1.00  0.00     0.042 A 
ATOM      8  C   UNL A   1      34.182  22.560  24.470  1.00  0.00     0.065 A 
ATOM      9  C   UNL A   1      35.135  21.605  24.828  1.00  0.00     0.042 A 
ATOM     10  C   UNL A   1      34.468  23.625  23.569  1.00  0.00     0.061 A 
ATOM     11  C   UNL A   1      35.800  23.702  23.136  1.00  0.00     0.029 A 
ATOM     12  C   UNL A   1      36.787  22.815  23.610  1.00  0.00     0.016 A 
BRANCH   8  13
ATOM     13  N   UNL A   1      32.902  22.421  25.019  1.00  0.00    -0.320 N 
ATOM     14  C   UNL A   1      32.109  21.289  25.124  1.00  0.00     0.255 C 
ATOM     15  O   UNL A   1      31.129  21.363  25.875  1.00  0.00    -0.269 OA
ATOM     16  H   UNL A   1      32.507  23.246  25.382  1.00  0.00     0.170 HD
BRANCH  14  17
ATOM     17  C   UNL A   1      32.331  19.988  24.413  1.00  0.00     0.043 A 
ATOM     18  C   UNL A   1      31.975  20.698  21.941  1.00  0.00     0.045 C 
ATOM     19  C   UNL A   1      32.246  19.705  23.033  1.00  0.00    -0.038 A 
ATOM     20  C   UNL A   1      32.470  18.378  22.593  1.00  0.00     0.004 A 
ATOM     21  C   UNL A   1      32.883  17.377  23.469  1.00  0.00     0.000 A 
ATOM     22  C   UNL A   1      32.797  18.967  25.271  1.00  0.00     0.014 A 
ATOM     23  C   UNL A   1      33.082  17.682  24.806  1.00  0.00     0.001 A 
ENDBRANCH  14  17
ENDBRANCH   8  13
BRANCH  10  24
ATOM     24  N   UNL A   1      33.521  24.567  23.173  1.00  0.00    -0.359 N 
ATOM     25  C   UNL A   1      33.138  24.795  21.750  1.00  0.00     0.178 C 
ATOM     26  C   UNL A   1      33.311  25.774  23.972  1.00  0.00     0.178 C 
ATOM     27  C   UNL A   1      31.815  25.645  21.587  1.00  0.00     0.284 C 
ATOM     28  C   UNL A   1      31.812  26.083  23.939  1.00  0.00     0.284 C 
ATOM     29  N   UNL A   1      31.431  26.618  22.638  1.00  0.00    -0.324 N 
ATOM     30  H   UNL A   1      30.417  26.702  22.569  1.00  0.00     0.348 HD
BRANCH  29  31
ATOM     31  C   UNL A   1      31.793  28.041  22.443  1.00  0.00     0.364 C 
BRANCH  31  32
ATOM     32  C   UNL A   1      30.750  29.103  22.784  1.00  0.00     0.279 C 
ATOM     33  O   UNL A   1      29.904  29.423  21.935  1.00  0.00    -0.268 OA
ATOM     34  N   UNL A   1      30.619  29.708  24.007  1.00  0.00    -0.321 N 
ATOM     35  H   UNL A   1      29.717  30.087  24.121  1.00  0.00     0.170 HD
BRANCH  34  36
ATOM     36  C   UNL A   1      31.420  29.943  25.146  1.00  0.00     0.041 A 
ATOM     37  C   UNL A   1      31.140  31.116  25.870  1.00  0.00     0.029 A 
ATOM     38  C   UNL A   1      32.524  29.194  25.542  1.00  0.00     0.029 A 
ATOM     39  C   UNL A   1      31.973  31.551  26.909  1.00  0.00     0.041 A 
ATOM     40  C   UNL A   1      33.397  29.654  26.540  1.00  0.00     0.041 A 
ATOM     41  C   UNL A   1      33.115  30.830  27.215  1.00  0.00     0.123 A 
ATOM     42  F   UNL A   1      33.946  31.269  28.170  1.00  0.00    -0.207 F 
ENDBRANCH  34  36
ENDBRANCH  31  32
ENDBRANCH  29  31
ENDBRANCH  10  24
ENDBRANCH   4   7
ENDBRANCH   2   3
ENDBRANCH   1   2
BRANCH   1  43
ATOM     43  C   UNL A   1      41.274  22.906  27.397  1.00  0.00     0.002 C 
BRANCH  43  44
ATOM     44  C   UNL A   1      42.159  21.878  28.127  1.00  0.00     0.002 C 
BRANCH  44  45
ATOM     45  C   UNL A   1      42.352  20.540  27.406  1.00  0.00     0.021 C 
BRANCH  45  46
ATOM     46  C   UNL A   1      42.224  20.646  25.894  1.00  0.00     0.116 C 
BRANCH  46  47
ATOM     47  N   UNL A   1      43.322  20.019  25.170  1.00  0.00    -0.352 N 
ATOM     48  C   UNL A   1      44.460  20.576  24.603  1.00  0.00     0.251 C 
ATOM     49  H   UNL A   1      43.244  19.043  25.064  1.00  0.00     0.163 HD
ATOM     50  O   UNL A   1      45.223  19.893  23.966  1.00  0.00    -0.269 OA
BRANCH  48  51
ATOM     51  C   UNL A   1      44.799  21.993  24.907  1.00  0.00     0.039 A 
ATOM     52  C   UNL A   1      45.811  22.234  25.847  1.00  0.00     0.014 A 
ATOM     53  C   UNL A   1      44.013  23.039  24.441  1.00  0.00     0.014 A 
ATOM     54  C   UNL A   1      45.860  23.464  26.498  1.00  0.00     0.010 A 
ATOM     55  C   UNL A   1      43.982  24.213  25.163  1.00  0.00     0.010 A 
ATOM     56  C   UNL A   1      44.864  24.398  26.232  1.00  0.00    -0.014 A 
BRANCH  56  57
ATOM     57  C   UNL A   1      44.596  25.562  27.064  1.00  0.00     0.031 A 
ATOM     58  C   UNL A   1      43.280  26.229  27.002  1.00  0.00     0.074 A 
ATOM     59  C   UNL A   1      45.499  25.918  28.005  1.00  0.00     0.049 A 
ATOM     60  N   UNL A   1      43.048  27.409  27.464  1.00  0.00    -0.248 NA
ATOM     61  C   UNL A   1      42.110  25.619  26.383  1.00  0.00     0.031 C 
ATOM     62  C   UNL A   1      45.285  26.798  29.150  1.00  0.00     0.029 A 
ATOM     63  N   UNL A   1      46.886  25.690  27.999  1.00  0.00    -0.354 N 
ATOM     64  C   UNL A   1      41.688  27.606  27.463  1.00  0.00     0.074 A 
ATOM     65  C   UNL A   1      41.151  26.484  26.729  1.00  0.00     0.031 C 
ATOM     66  C   UNL A   1      46.470  27.287  29.550  1.00  0.00     0.029 A 
ATOM     67  C   UNL A   1      47.453  26.849  28.579  1.00  0.00     0.049 A 
ATOM     68  H   UNL A   1      47.361  24.895  27.662  1.00  0.00     0.167 HD
ATOM     69  C   UNL A   1      41.173  28.638  28.192  1.00  0.00     0.037 A 
ATOM     70  C   UNL A   1      48.264  27.682  27.865  1.00  0.00     0.037 A 
ATOM     71  C   UNL A   1      42.240  29.440  28.787  1.00  0.00     0.049 A 
ATOM     72  C   UNL A   1      47.770  29.107  27.793  1.00  0.00     0.074 A 
ATOM     73  C   UNL A   1      42.810  29.470  30.050  1.00  0.00     0.029 A 
ATOM     74  N   UNL A   1      43.096  30.151  27.954  1.00  0.00    -0.354 N 
ATOM     75  N   UNL A   1      46.529  29.458  27.995  1.00  0.00    -0.248 NA
ATOM     76  C   UNL A   1      48.626  30.247  27.484  1.00  0.00     0.031 C 
ATOM     77  C   UNL A   1      44.024  30.196  29.970  1.00  0.00     0.029 A 
ATOM     78  C   UNL A   1      44.186  30.618  28.662  1.00  0.00     0.049 A 
ATOM     79  H   UNL A   1      42.947  30.302  26.993  1.00  0.00     0.167 HD
ATOM     80  C   UNL A   1      46.405  30.820  27.860  1.00  0.00     0.074 A 
ATOM     81  C   UNL A   1      47.752  31.266  27.554  1.00  0.00     0.031 C 
ATOM     82  C   UNL A   1      45.196  31.443  28.015  1.00  0.00     0.037 A 
BRANCH  69  83
ATOM     83  C   UNL A   1      39.718  28.768  28.584  1.00  0.00     0.064 A 
ATOM     84  C   UNL A   1      38.772  29.313  27.688  1.00  0.00     0.173 A 
ATOM     85  C   UNL A   1      39.198  28.418  29.843  1.00  0.00     0.173 A 
ATOM     86  F   UNL A   1      39.088  29.600  26.420  1.00  0.00    -0.203 F 
ATOM     87  C   UNL A   1      37.453  29.591  28.061  1.00  0.00     0.198 A 
ATOM     88  C   UNL A   1      37.896  28.746  30.236  1.00  0.00     0.198 A 
ATOM     89  F   UNL A   1      39.912  27.694  30.713  1.00  0.00    -0.203 F 
ATOM     90  F   UNL A   1      36.604  30.114  27.164  1.00  0.00    -0.200 F 
ATOM     91  C   UNL A   1      37.025  29.343  29.347  1.00  0.00     0.200 A 
ATOM     92  F   UNL A   1      37.490  28.475  31.485  1.00  0.00    -0.200 F 
ATOM     93  F   UNL A   1      35.776  29.651  29.720  1.00  0.00    -0.200 F 
ENDBRANCH  69  83
BRANCH  70  94
ATOM     94  C   UNL A   1      49.033  26.970  26.810  1.00  0.00     0.064 A 
ATOM     95  C   UNL A   1      48.571  27.070  25.481  1.00  0.00     0.173 A 
ATOM     96  C   UNL A   1      50.366  26.593  27.004  1.00  0.00     0.173 A 
ATOM     97  F   UNL A   1      47.299  27.429  25.241  1.00  0.00    -0.203 F 
ATOM     98  C   UNL A   1      49.439  26.936  24.400  1.00  0.00     0.198 A 
ATOM     99  C   UNL A   1      51.229  26.440  25.915  1.00  0.00     0.198 A 
ATOM    100  F   UNL A   1      50.870  26.496  28.243  1.00  0.00    -0.203 F 
ATOM    101  F   UNL A   1      48.997  27.168  23.156  1.00  0.00    -0.200 F 
ATOM    102  C   UNL A   1      50.775  26.653  24.620  1.00  0.00     0.200 A 
ATOM    103  F   UNL A   1      52.529  26.188  26.126  1.00  0.00    -0.200 F 
ATOM    104  F   UNL A   1      51.634  26.627  23.591  1.00  0.00    -0.200 F 
ENDBRANCH  70  94
BRANCH  82 105
ATOM    105  C   UNL A   1      44.824  32.878  27.678  1.00  0.00     0.064 A 
ATOM    106  C   UNL A   1      45.207  34.004  28.422  1.00  0.00     0.173 A 
ATOM    107  C   UNL A   1      44.155  33.175  26.457  1.00  0.00     0.173 A 
ATOM    108  F   UNL A   1      45.940  33.895  29.535  1.00  0.00    -0.203 F 
ATOM    109  C   UNL A   1      44.905  35.308  28.012  1.00  0.00     0.198 A 
ATOM    110  C   UNL A   1      43.914  34.476  26.019  1.00  0.00     0.198 A 
ATOM    111  F   UNL A   1      43.738  32.211  25.623  1.00  0.00    -0.203 F 
ATOM    112  F   UNL A   1      45.261  36.343  28.785  1.00  0.00    -0.200 F 
ATOM    113  C   UNL A   1      44.275  35.546  26.804  1.00  0.00     0.200 A 
ATOM    114  F   UNL A   1      43.351  34.681  24.820  1.00  0.00    -0.200 F 
ATOM    115  F   UNL A   1      44.040  36.798  26.392  1.00  0.00    -0.200 F 
ENDBRANCH  82 105
ENDBRANCH  56  57
ENDBRANCH  48  51
ENDBRANCH  46  47
ENDBRANCH  45  46
ENDBRANCH  44  45
ENDBRANCH  43  44
ENDBRANCH   1  43
TORSDOF 19
ENDMDL
MODEL 2
REMARK VINA RESULT:     -14.4      4.854     11.045
REMARK SMILES Cc1ccccc1C(=O)Nc1cc(C(=O)NCCCCCCNC(=O)c2ccc(-c3c4nc(c(-c5c(F)c(F)c(F)c(F)c5F)c5ccc([nH]5)c(-c5c(F)c(F)c(F)c(F)c5F)c5nc(c(-c6c(F)c(F)c(F)c(F)c6F)c6ccc3[nH]6)C=C5)C=C4)cc2)ccc1N1CC[NH+](CC(=O)Nc2ccc(F)cc2)CC1
REMARK SMILES IDX 18 1 17 2 16 3 14 4 15 5 13 7 11 8 12 9 91 10 90 11 89 12
REMARK SMILES IDX 10 13 8 14 9 15 7 17 1 18 2 19 3 20 4 21 6 22 5 23 92 24
REMARK SMILES IDX 93 25 108 26 94 27 107 28 95 29 96 31 97 32 98 33 99 34
REMARK SMILES IDX 100 36 101 37 106 38 102 39 105 40 103 41 104 42 19 43 20 44
REMARK SMILES IDX 21 45 22 46 23 47 24 48 25 50 26 51 27 52 88 53 28 54 87 55
REMARK SMILES IDX 29 56 30 57 31 58 81 59 32 60 86 61 80 62 82 63 33 64 85 65
REMARK SMILES IDX 79 66 78 67 34 69 66 70 46 71 65 72 47 73 50 74 64 75 83 76
REMARK SMILES IDX 48 77 49 78 63 80 84 81 51 82 35 83 36 84 44 85 37 86 38 87
REMARK SMILES IDX 42 88 45 89 39 90 40 91 43 92 41 93 67 94 68 95 76 96 69 97
REMARK SMILES IDX 70 98 74 99 77 100 71 101 72 102 75 103 73 104 52 105 53 106
REMARK SMILES IDX 61 107 54 108 55 109 59 110 62 111 56 112 57 113 60 114
REMARK SMILES IDX 58 115
REMARK H PARENT 16 6 10 16 95 30 99 35 23 49 82 68 50 79
REMARK Flexibility Score: inf
ROOT
ATOM      1  C   UNL A   1      34.688  32.182  28.750  1.00  0.00     0.021 C 
ENDROOT
BRANCH   1   2
ATOM      2  C   UNL A   1      34.212  31.250  27.632  1.00  0.00     0.116 C 
BRANCH   2   3
ATOM      3  N   UNL A   1      32.959  31.705  27.059  1.00  0.00    -0.352 N 
ATOM      4  C   UNL A   1      31.876  31.050  26.523  1.00  0.00     0.251 C 
ATOM      5  O   UNL A   1      30.930  31.744  26.148  1.00  0.00    -0.269 OA
ATOM      6  H   UNL A   1      32.866  32.685  27.053  1.00  0.00     0.163 HD
BRANCH   4   7
ATOM      7  C   UNL A   1      31.760  29.566  26.421  1.00  0.00     0.042 A 
ATOM      8  C   UNL A   1      31.767  27.481  25.193  1.00  0.00     0.065 A 
ATOM      9  C   UNL A   1      31.668  28.872  25.225  1.00  0.00     0.042 A 
ATOM     10  C   UNL A   1      31.763  26.686  26.375  1.00  0.00     0.061 A 
ATOM     11  C   UNL A   1      31.743  27.405  27.579  1.00  0.00     0.029 A 
ATOM     12  C   UNL A   1      31.780  28.813  27.604  1.00  0.00     0.016 A 
BRANCH   8  13
ATOM     13  N   UNL A   1      31.852  26.876  23.933  1.00  0.00    -0.320 N 
ATOM     14  C   UNL A   1      31.165  27.176  22.767  1.00  0.00     0.255 C 
ATOM     15  O   UNL A   1      31.596  26.673  21.722  1.00  0.00    -0.269 OA
ATOM     16  H   UNL A   1      32.490  26.129  23.865  1.00  0.00     0.170 HD
BRANCH  14  17
ATOM     17  C   UNL A   1      29.954  28.052  22.657  1.00  0.00     0.043 A 
ATOM     18  C   UNL A   1      28.210  26.670  23.995  1.00  0.00     0.045 C 
ATOM     19  C   UNL A   1      28.653  27.834  23.158  1.00  0.00    -0.038 A 
ATOM     20  C   UNL A   1      27.651  28.801  22.900  1.00  0.00     0.004 A 
ATOM     21  C   UNL A   1      27.944  30.008  22.270  1.00  0.00     0.000 A 
ATOM     22  C   UNL A   1      30.234  29.303  22.064  1.00  0.00     0.014 A 
ATOM     23  C   UNL A   1      29.248  30.275  21.884  1.00  0.00     0.001 A 
ENDBRANCH  14  17
ENDBRANCH   8  13
BRANCH  10  24
ATOM     24  N   UNL A   1      31.827  25.294  26.361  1.00  0.00    -0.359 N 
ATOM     25  C   UNL A   1      33.106  24.534  26.451  1.00  0.00     0.178 C 
ATOM     26  C   UNL A   1      30.805  24.522  25.655  1.00  0.00     0.178 C 
ATOM     27  C   UNL A   1      32.898  22.998  26.768  1.00  0.00     0.284 C 
ATOM     28  C   UNL A   1      30.538  23.263  26.483  1.00  0.00     0.284 C 
ATOM     29  N   UNL A   1      31.645  22.324  26.353  1.00  0.00    -0.324 N 
ATOM     30  H   UNL A   1      31.532  21.545  27.002  1.00  0.00     0.348 HD
BRANCH  29  31
ATOM     31  C   UNL A   1      31.644  21.564  25.082  1.00  0.00     0.364 C 
BRANCH  31  32
ATOM     32  C   UNL A   1      32.538  20.331  24.977  1.00  0.00     0.279 C 
ATOM     33  O   UNL A   1      32.051  19.206  25.171  1.00  0.00    -0.268 OA
ATOM     34  N   UNL A   1      33.859  20.350  24.614  1.00  0.00    -0.321 N 
ATOM     35  H   UNL A   1      34.150  19.468  24.285  1.00  0.00     0.170 HD
BRANCH  34  36
ATOM     36  C   UNL A   1      34.919  21.282  24.583  1.00  0.00     0.041 A 
ATOM     37  C   UNL A   1      35.996  21.027  25.453  1.00  0.00     0.029 A 
ATOM     38  C   UNL A   1      34.942  22.477  23.871  1.00  0.00     0.029 A 
ATOM     39  C   UNL A   1      37.019  21.964  25.646  1.00  0.00     0.041 A 
ATOM     40  C   UNL A   1      35.931  23.447  24.104  1.00  0.00     0.041 A 
ATOM     41  C   UNL A   1      36.961  23.182  24.991  1.00  0.00     0.123 A 
ATOM     42  F   UNL A   1      37.906  24.105  25.213  1.00  0.00    -0.207 F 
ENDBRANCH  34  36
ENDBRANCH  31  32
ENDBRANCH  29  31
ENDBRANCH  10  24
ENDBRANCH   4   7
ENDBRANCH   2   3
ENDBRANCH   1   2
BRANCH   1  43
ATOM     43  C   UNL A   1      35.268  33.507  28.242  1.00  0.00     0.002 C 
BRANCH  43  44
ATOM     44  C   UNL A   1      34.241  34.609  27.922  1.00  0.00     0.002 C 
BRANCH  44  45
ATOM     45  C   UNL A   1      33.962  35.603  29.054  1.00  0.00     0.021 C 
BRANCH  45  46
ATOM     46  C   UNL A   1      33.538  34.934  30.353  1.00  0.00     0.116 C 
BRANCH  46  47
ATOM     47  N   UNL A   1      34.181  35.493  31.535  1.00  0.00    -0.352 N 
ATOM     48  C   UNL A   1      35.305  35.071  32.231  1.00  0.00     0.251 C 
ATOM     49  H   UNL A   1      33.748  36.298  31.899  1.00  0.00     0.163 HD
ATOM     50  O   UNL A   1      35.640  35.629  33.248  1.00  0.00    -0.269 OA
BRANCH  48  51
ATOM     51  C   UNL A   1      36.171  34.018  31.636  1.00  0.00     0.039 A 
ATOM     52  C   UNL A   1      36.086  32.724  32.169  1.00  0.00     0.014 A 
ATOM     53  C   UNL A   1      37.175  34.336  30.729  1.00  0.00     0.014 A 
ATOM     54  C   UNL A   1      37.146  31.839  31.989  1.00  0.00     0.010 A 
ATOM     55  C   UNL A   1      38.275  33.510  30.646  1.00  0.00     0.010 A 
ATOM     56  C   UNL A   1      38.284  32.289  31.329  1.00  0.00    -0.014 A 
BRANCH  56  57
ATOM     57  C   UNL A   1      39.569  31.607  31.363  1.00  0.00     0.031 A 
ATOM     58  C   UNL A   1      39.769  30.364  30.593  1.00  0.00     0.074 A 
ATOM     59  C   UNL A   1      40.617  32.212  31.968  1.00  0.00     0.049 A 
ATOM     60  N   UNL A   1      40.745  29.546  30.784  1.00  0.00    -0.248 NA
ATOM     61  C   UNL A   1      38.854  29.924  29.547  1.00  0.00     0.031 C 
ATOM     62  C   UNL A   1      42.033  31.890  31.816  1.00  0.00     0.029 A 
ATOM     63  N   UNL A   1      40.584  33.146  33.019  1.00  0.00    -0.354 N 
ATOM     64  C   UNL A   1      40.758  28.647  29.745  1.00  0.00     0.074 A 
ATOM     65  C   UNL A   1      39.527  28.891  29.029  1.00  0.00     0.031 C 
ATOM     66  C   UNL A   1      42.699  32.342  32.892  1.00  0.00     0.029 A 
ATOM     67  C   UNL A   1      41.704  32.832  33.826  1.00  0.00     0.049 A 
ATOM     68  H   UNL A   1      39.925  33.863  33.162  1.00  0.00     0.167 HD
ATOM     69  C   UNL A   1      41.873  27.886  29.547  1.00  0.00     0.037 A 
ATOM     70  C   UNL A   1      41.558  32.390  35.109  1.00  0.00     0.037 A 
ATOM     71  C   UNL A   1      42.856  28.118  30.603  1.00  0.00     0.049 A 
ATOM     72  C   UNL A   1      42.182  31.039  35.367  1.00  0.00     0.074 A 
ATOM     73  C   UNL A   1      43.997  28.903  30.679  1.00  0.00     0.029 A 
ATOM     74  N   UNL A   1      42.550  27.744  31.906  1.00  0.00    -0.354 N 
ATOM     75  N   UNL A   1      42.454  30.172  34.430  1.00  0.00    -0.248 NA
ATOM     76  C   UNL A   1      42.542  30.554  36.694  1.00  0.00     0.031 C 
ATOM     77  C   UNL A   1      44.369  29.009  32.042  1.00  0.00     0.029 A 
ATOM     78  C   UNL A   1      43.464  28.280  32.792  1.00  0.00     0.049 A 
ATOM     79  H   UNL A   1      41.788  27.177  32.163  1.00  0.00     0.167 HD
ATOM     80  C   UNL A   1      43.014  29.048  34.987  1.00  0.00     0.074 A 
ATOM     81  C   UNL A   1      43.060  29.346  36.406  1.00  0.00     0.031 C 
ATOM     82  C   UNL A   1      43.385  27.980  34.215  1.00  0.00     0.037 A 
BRANCH  69  83
ATOM     83  C   UNL A   1      42.184  27.137  28.271  1.00  0.00     0.064 A 
ATOM     84  C   UNL A   1      42.975  27.727  27.259  1.00  0.00     0.173 A 
ATOM     85  C   UNL A   1      41.698  25.854  27.961  1.00  0.00     0.173 A 
ATOM     86  F   UNL A   1      43.594  28.899  27.443  1.00  0.00    -0.203 F 
ATOM     87  C   UNL A   1      43.161  27.134  26.007  1.00  0.00     0.198 A 
ATOM     88  C   UNL A   1      41.836  25.285  26.690  1.00  0.00     0.198 A 
ATOM     89  F   UNL A   1      41.127  25.084  28.894  1.00  0.00    -0.203 F 
ATOM     90  F   UNL A   1      43.918  27.747  25.085  1.00  0.00    -0.200 F 
ATOM     91  C   UNL A   1      42.560  25.930  25.708  1.00  0.00     0.200 A 
ATOM     92  F   UNL A   1      41.264  24.101  26.427  1.00  0.00    -0.200 F 
ATOM     93  F   UNL A   1      42.699  25.383  24.494  1.00  0.00    -0.200 F 
ENDBRANCH  69  83
BRANCH  70  94
ATOM     94  C   UNL A   1      40.339  32.929  35.767  1.00  0.00     0.064 A 
ATOM     95  C   UNL A   1      39.289  32.028  36.044  1.00  0.00     0.173 A 
ATOM     96  C   UNL A   1      40.365  34.131  36.482  1.00  0.00     0.173 A 
ATOM     97  F   UNL A   1      39.220  30.860  35.386  1.00  0.00    -0.203 F 
ATOM     98  C   UNL A   1      38.393  32.258  37.085  1.00  0.00     0.198 A 
ATOM     99  C   UNL A   1      39.450  34.367  37.511  1.00  0.00     0.198 A 
ATOM    100  F   UNL A   1      41.345  35.022  36.276  1.00  0.00    -0.203 F 
ATOM    101  F   UNL A   1      37.490  31.322  37.408  1.00  0.00    -0.200 F 
ATOM    102  C   UNL A   1      38.494  33.414  37.838  1.00  0.00     0.200 A 
ATOM    103  F   UNL A   1      39.559  35.475  38.259  1.00  0.00    -0.200 F 
ATOM    104  F   UNL A   1      37.702  33.591  38.905  1.00  0.00    -0.200 F 
ENDBRANCH  70  94
BRANCH  82 105
ATOM    105  C   UNL A   1      43.793  26.586  34.665  1.00  0.00     0.064 A 
ATOM    106  C   UNL A   1      45.109  26.179  34.929  1.00  0.00     0.173 A 
ATOM    107  C   UNL A   1      42.798  25.622  34.991  1.00  0.00     0.173 A 
ATOM    108  F   UNL A   1      46.145  27.012  34.782  1.00  0.00    -0.203 F 
ATOM    109  C   UNL A   1      45.412  24.905  35.425  1.00  0.00     0.198 A 
ATOM    110  C   UNL A   1      43.098  24.378  35.546  1.00  0.00     0.198 A 
ATOM    111  F   UNL A   1      41.491  25.861  34.814  1.00  0.00    -0.203 F 
ATOM    112  F   UNL A   1      46.692  24.558  35.619  1.00  0.00    -0.200 F 
ATOM    113  C   UNL A   1      44.408  24.012  35.749  1.00  0.00     0.200 A 
ATOM    114  F   UNL A   1      42.105  23.551  35.902  1.00  0.00    -0.200 F 
ATOM    115  F   UNL A   1      44.702  22.816  36.276  1.00  0.00    -0.200 F 
ENDBRANCH  82 105
ENDBRANCH  56  57
ENDBRANCH  48  51
ENDBRANCH  46  47
ENDBRANCH  45  46
ENDBRANCH  44  45
ENDBRANCH  43  44
ENDBRANCH   1  43
TORSDOF 19
ENDMDL
MODEL 3
REMARK VINA RESULT:     -14.0      4.576     10.759
REMARK SMILES Cc1ccccc1C(=O)Nc1cc(C(=O)NCCCCCCNC(=O)c2ccc(-c3c4nc(c(-c5c(F)c(F)c(F)c(F)c5F)c5ccc([nH]5)c(-c5c(F)c(F)c(F)c(F)c5F)c5nc(c(-c6c(F)c(F)c(F)c(F)c6F)c6ccc3[nH]6)C=C5)C=C4)cc2)ccc1N1CC[NH+](CC(=O)Nc2ccc(F)cc2)CC1
REMARK SMILES IDX 18 1 17 2 16 3 14 4 15 5 13 7 11 8 12 9 91 10 90 11 89 12
REMARK SMILES IDX 10 13 8 14 9 15 7 17 1 18 2 19 3 20 4 21 6 22 5 23 92 24
REMARK SMILES IDX 93 25 108 26 94 27 107 28 95 29 96 31 97 32 98 33 99 34
REMARK SMILES IDX 100 36 101 37 106 38 102 39 105 40 103 41 104 42 19 43 20 44
REMARK SMILES IDX 21 45 22 46 23 47 24 48 25 50 26 51 27 52 88 53 28 54 87 55
REMARK SMILES IDX 29 56 30 57 31 58 81 59 32 60 86 61 80 62 82 63 33 64 85 65
REMARK SMILES IDX 79 66 78 67 34 69 66 70 46 71 65 72 47 73 50 74 64 75 83 76
REMARK SMILES IDX 48 77 49 78 63 80 84 81 51 82 35 83 36 84 44 85 37 86 38 87
REMARK SMILES IDX 42 88 45 89 39 90 40 91 43 92 41 93 67 94 68 95 76 96 69 97
REMARK SMILES IDX 70 98 74 99 77 100 71 101 72 102 75 103 73 104 52 105 53 106
REMARK SMILES IDX 61 107 54 108 55 109 59 110 62 111 56 112 57 113 60 114
REMARK SMILES IDX 58 115
REMARK H PARENT 16 6 10 16 95 30 99 35 23 49 82 68 50 79
REMARK Flexibility Score: inf
ROOT
ATOM      1  C   UNL A   1      34.709  32.001  28.790  1.00  0.00     0.021 C 
ENDROOT
BRANCH   1   2
ATOM      2  C   UNL A   1      34.289  31.202  27.553  1.00  0.00     0.116 C 
BRANCH   2   3
ATOM      3  N   UNL A   1      33.018  31.665  27.028  1.00  0.00    -0.352 N 
ATOM      4  C   UNL A   1      31.915  31.017  26.524  1.00  0.00     0.251 C 
ATOM      5  O   UNL A   1      30.958  31.717  26.188  1.00  0.00    -0.269 OA
ATOM      6  H   UNL A   1      32.927  32.645  27.033  1.00  0.00     0.163 HD
BRANCH   4   7
ATOM      7  C   UNL A   1      31.791  29.534  26.414  1.00  0.00     0.042 A 
ATOM      8  C   UNL A   1      31.783  27.457  25.173  1.00  0.00     0.065 A 
ATOM      9  C   UNL A   1      31.691  28.849  25.214  1.00  0.00     0.042 A 
ATOM     10  C   UNL A   1      31.780  26.655  26.350  1.00  0.00     0.061 A 
ATOM     11  C   UNL A   1      31.768  27.367  27.559  1.00  0.00     0.029 A 
ATOM     12  C   UNL A   1      31.812  28.775  27.592  1.00  0.00     0.016 A 
BRANCH   8  13
ATOM     13  N   UNL A   1      31.860  26.859  23.909  1.00  0.00    -0.320 N 
ATOM     14  C   UNL A   1      31.181  27.179  22.744  1.00  0.00     0.255 C 
ATOM     15  O   UNL A   1      31.604  26.676  21.696  1.00  0.00    -0.269 OA
ATOM     16  H   UNL A   1      32.485  26.102  23.837  1.00  0.00     0.170 HD
BRANCH  14  17
ATOM     17  C   UNL A   1      29.985  28.077  22.638  1.00  0.00     0.043 A 
ATOM     18  C   UNL A   1      28.207  26.702  23.938  1.00  0.00     0.045 C 
ATOM     19  C   UNL A   1      28.676  27.872  23.124  1.00  0.00    -0.038 A 
ATOM     20  C   UNL A   1      27.692  28.859  22.874  1.00  0.00     0.004 A 
ATOM     21  C   UNL A   1      28.011  30.071  22.265  1.00  0.00     0.000 A 
ATOM     22  C   UNL A   1      30.291  29.333  22.068  1.00  0.00     0.014 A 
ATOM     23  C   UNL A   1      29.322  30.323  21.895  1.00  0.00     0.001 A 
ENDBRANCH  14  17
ENDBRANCH   8  13
BRANCH  10  24
ATOM     24  N   UNL A   1      31.837  25.263  26.328  1.00  0.00    -0.359 N 
ATOM     25  C   UNL A   1      33.102  24.494  26.505  1.00  0.00     0.178 C 
ATOM     26  C   UNL A   1      30.867  24.504  25.540  1.00  0.00     0.178 C 
ATOM     27  C   UNL A   1      32.863  22.957  26.791  1.00  0.00     0.284 C 
ATOM     28  C   UNL A   1      30.531  23.239  26.333  1.00  0.00     0.284 C 
ATOM     29  N   UNL A   1      31.640  22.294  26.277  1.00  0.00    -0.324 N 
ATOM     30  H   UNL A   1      31.475  21.510  26.908  1.00  0.00     0.348 HD
BRANCH  29  31
ATOM     31  C   UNL A   1      31.730  21.546  25.002  1.00  0.00     0.364 C 
BRANCH  31  32
ATOM     32  C   UNL A   1      32.638  20.319  24.947  1.00  0.00     0.279 C 
ATOM     33  O   UNL A   1      32.153  19.193  25.137  1.00  0.00    -0.268 OA
ATOM     34  N   UNL A   1      33.971  20.346  24.633  1.00  0.00    -0.321 N 
ATOM     35  H   UNL A   1      34.281  19.462  24.327  1.00  0.00     0.170 HD
BRANCH  34  36
ATOM     36  C   UNL A   1      35.024  21.287  24.630  1.00  0.00     0.041 A 
ATOM     37  C   UNL A   1      36.077  21.043  25.532  1.00  0.00     0.029 A 
ATOM     38  C   UNL A   1      35.058  22.480  23.916  1.00  0.00     0.029 A 
ATOM     39  C   UNL A   1      37.086  21.989  25.752  1.00  0.00     0.041 A 
ATOM     40  C   UNL A   1      36.031  23.458  24.174  1.00  0.00     0.041 A 
ATOM     41  C   UNL A   1      37.037  23.205  25.091  1.00  0.00     0.123 A 
ATOM     42  F   UNL A   1      37.967  24.137  25.337  1.00  0.00    -0.207 F 
ENDBRANCH  34  36
ENDBRANCH  31  32
ENDBRANCH  29  31
ENDBRANCH  10  24
ENDBRANCH   4   7
ENDBRANCH   2   3
ENDBRANCH   1   2
BRANCH   1  43
ATOM     43  C   UNL A   1      35.546  33.244  28.464  1.00  0.00     0.002 C 
BRANCH  43  44
ATOM     44  C   UNL A   1      34.766  34.568  28.361  1.00  0.00     0.002 C 
BRANCH  44  45
ATOM     45  C   UNL A   1      33.924  34.938  29.586  1.00  0.00     0.021 C 
BRANCH  45  46
ATOM     46  C   UNL A   1      34.231  34.085  30.809  1.00  0.00     0.116 C 
BRANCH  46  47
ATOM     47  N   UNL A   1      35.033  34.772  31.813  1.00  0.00    -0.352 N 
ATOM     48  C   UNL A   1      36.254  34.429  32.377  1.00  0.00     0.251 C 
ATOM     49  H   UNL A   1      34.646  35.613  32.146  1.00  0.00     0.163 HD
ATOM     50  O   UNL A   1      36.726  35.096  33.265  1.00  0.00    -0.269 OA
BRANCH  48  51
ATOM     51  C   UNL A   1      37.038  33.314  31.780  1.00  0.00     0.039 A 
ATOM     52  C   UNL A   1      37.019  32.077  32.438  1.00  0.00     0.014 A 
ATOM     53  C   UNL A   1      37.921  33.535  30.730  1.00  0.00     0.014 A 
ATOM     54  C   UNL A   1      38.049  31.166  32.212  1.00  0.00     0.010 A 
ATOM     55  C   UNL A   1      39.002  32.692  30.589  1.00  0.00     0.010 A 
ATOM     56  C   UNL A   1      39.096  31.540  31.377  1.00  0.00    -0.014 A 
BRANCH  56  57
ATOM     57  C   UNL A   1      40.375  30.848  31.315  1.00  0.00     0.031 A 
ATOM     58  C   UNL A   1      40.523  29.635  30.487  1.00  0.00     0.074 A 
ATOM     59  C   UNL A   1      41.459  31.422  31.885  1.00  0.00     0.049 A 
ATOM     60  N   UNL A   1      41.501  28.804  30.594  1.00  0.00    -0.248 NA
ATOM     61  C   UNL A   1      39.549  29.243  29.476  1.00  0.00     0.031 C 
ATOM     62  C   UNL A   1      42.862  31.097  31.645  1.00  0.00     0.029 A 
ATOM     63  N   UNL A   1      41.491  32.314  32.972  1.00  0.00    -0.354 N 
ATOM     64  C   UNL A   1      41.449  27.947  29.521  1.00  0.00     0.074 A 
ATOM     65  C   UNL A   1      40.184  28.226  28.883  1.00  0.00     0.031 C 
ATOM     66  C   UNL A   1      43.588  31.502  32.700  1.00  0.00     0.029 A 
ATOM     67  C   UNL A   1      42.649  31.961  33.705  1.00  0.00     0.049 A 
ATOM     68  H   UNL A   1      40.846  33.029  33.178  1.00  0.00     0.167 HD
ATOM     69  C   UNL A   1      42.545  27.187  29.234  1.00  0.00     0.037 A 
ATOM     70  C   UNL A   1      42.568  31.470  34.975  1.00  0.00     0.037 A 
ATOM     71  C   UNL A   1      43.586  27.370  30.243  1.00  0.00     0.049 A 
ATOM     72  C   UNL A   1      43.194  30.106  35.147  1.00  0.00     0.074 A 
ATOM     73  C   UNL A   1      44.736  28.144  30.288  1.00  0.00     0.029 A 
ATOM     74  N   UNL A   1      43.347  26.948  31.546  1.00  0.00    -0.354 N 
ATOM     75  N   UNL A   1      43.407  29.274  34.163  1.00  0.00    -0.248 NA
ATOM     76  C   UNL A   1      43.621  29.566  36.433  1.00  0.00     0.031 C 
ATOM     77  C   UNL A   1      45.182  28.194  31.632  1.00  0.00     0.029 A 
ATOM     78  C   UNL A   1      44.312  27.442  32.401  1.00  0.00     0.049 A 
ATOM     79  H   UNL A   1      42.595  26.375  31.821  1.00  0.00     0.167 HD
ATOM     80  C   UNL A   1      43.987  28.126  34.645  1.00  0.00     0.074 A 
ATOM     81  C   UNL A   1      44.112  28.368  36.071  1.00  0.00     0.031 C 
ATOM     82  C   UNL A   1      44.307  27.087  33.813  1.00  0.00     0.037 A 
BRANCH  69  83
ATOM     83  C   UNL A   1      42.782  26.487  27.914  1.00  0.00     0.064 A 
ATOM     84  C   UNL A   1      42.092  25.296  27.592  1.00  0.00     0.173 A 
ATOM     85  C   UNL A   1      43.706  26.909  26.943  1.00  0.00     0.173 A 
ATOM     86  F   UNL A   1      41.109  24.821  28.365  1.00  0.00    -0.203 F 
ATOM     87  C   UNL A   1      42.389  24.538  26.456  1.00  0.00     0.198 A 
ATOM     88  C   UNL A   1      44.044  26.124  25.835  1.00  0.00     0.198 A 
ATOM     89  F   UNL A   1      44.269  28.122  26.999  1.00  0.00    -0.203 F 
ATOM     90  F   UNL A   1      41.703  23.412  26.208  1.00  0.00    -0.200 F 
ATOM     91  C   UNL A   1      43.392  24.931  25.596  1.00  0.00     0.200 A 
ATOM     92  F   UNL A   1      45.006  26.536  24.997  1.00  0.00    -0.200 F 
ATOM     93  F   UNL A   1      43.710  24.182  24.533  1.00  0.00    -0.200 F 
ENDBRANCH  69  83
BRANCH  70  94
ATOM     94  C   UNL A   1      41.392  31.991  35.719  1.00  0.00     0.064 A 
ATOM     95  C   UNL A   1      41.436  33.329  36.164  1.00  0.00     0.173 A 
ATOM     96  C   UNL A   1      40.135  31.384  35.619  1.00  0.00     0.173 A 
ATOM     97  F   UNL A   1      42.618  33.956  36.276  1.00  0.00    -0.203 F 
ATOM     98  C   UNL A   1      40.271  34.066  36.362  1.00  0.00     0.198 A 
ATOM     99  C   UNL A   1      38.969  32.122  35.839  1.00  0.00     0.198 A 
ATOM    100  F   UNL A   1      40.025  30.120  35.188  1.00  0.00    -0.203 F 
ATOM    101  F   UNL A   1      40.348  35.371  36.655  1.00  0.00    -0.200 F 
ATOM    102  C   UNL A   1      39.038  33.469  36.168  1.00  0.00     0.200 A 
ATOM    103  F   UNL A   1      37.772  31.554  35.630  1.00  0.00    -0.200 F 
ATOM    104  F   UNL A   1      37.917  34.201  36.255  1.00  0.00    -0.200 F 
ENDBRANCH  70  94
BRANCH  82 105
ATOM    105  C   UNL A   1      44.726  25.674  34.186  1.00  0.00     0.064 A 
ATOM    106  C   UNL A   1      43.844  24.635  34.521  1.00  0.00     0.173 A 
ATOM    107  C   UNL A   1      46.089  25.280  34.073  1.00  0.00     0.173 A 
ATOM    108  F   UNL A   1      42.520  24.821  34.556  1.00  0.00    -0.203 F 
ATOM    109  C   UNL A   1      44.287  23.331  34.772  1.00  0.00     0.198 A 
ATOM    110  C   UNL A   1      46.519  23.966  34.259  1.00  0.00     0.198 A 
ATOM    111  F   UNL A   1      47.055  26.150  33.744  1.00  0.00    -0.203 F 
ATOM    112  F   UNL A   1      43.403  22.389  35.127  1.00  0.00    -0.200 F 
ATOM    113  C   UNL A   1      45.619  22.992  34.625  1.00  0.00     0.200 A 
ATOM    114  F   UNL A   1      47.806  23.652  34.058  1.00  0.00    -0.200 F 
ATOM    115  F   UNL A   1      46.028  21.731  34.811  1.00  0.00    -0.200 F 
ENDBRANCH  82 105
ENDBRANCH  56  57
ENDBRANCH  48  51
ENDBRANCH  46  47
ENDBRANCH  45  46
ENDBRANCH  44  45
ENDBRANCH  43  44
ENDBRANCH   1  43
TORSDOF 19
ENDMDL
