MODEL 1
REMARK VINA RESULT:     -12.4      0.000      0.000
REMARK SMILES Cc1cc(C)c2c(c1)C=C(C(=O)NCCCCCCNC(=O)c1ccc(-c3c4nc(c(-c5c(F)c(F)c(F)c(F)c5F)c5ccc([nH]5)c(-c5c(F)c(F)c(F)c(F)c5F)c5nc(c(-c6c(F)c(F)c(F)c(F)c6F)c6ccc3[nH]6)C=C5)C=C4)cc1)[C@@H](C(F)(F)F)O2
REMARK SMILES IDX 17 1 16 2 15 3 14 4 13 5 11 6 12 7 10 9 1 10 2 11 3 12 8 13
REMARK SMILES IDX 4 14 7 15 5 16 6 17 9 18 91 19 86 20 87 21 88 22 89 23 90 24
REMARK SMILES IDX 18 25 19 26 20 27 21 28 22 30 23 31 24 32 85 33 25 34 84 35
REMARK SMILES IDX 26 36 27 37 28 38 78 39 29 40 83 41 77 42 79 43 30 44 82 45
REMARK SMILES IDX 76 46 75 47 31 49 63 50 43 51 62 52 44 53 47 54 61 55 80 56
REMARK SMILES IDX 45 57 46 58 60 60 81 61 48 62 32 63 33 64 41 65 34 66 35 67
REMARK SMILES IDX 39 68 42 69 36 70 37 71 40 72 38 73 64 74 65 75 73 76 66 77
REMARK SMILES IDX 67 78 71 79 74 80 68 81 69 82 72 83 70 84 49 85 50 86 58 87
REMARK SMILES IDX 51 88 52 89 56 90 59 91 53 92 54 93 57 94 55 95
REMARK H PARENT 13 8 20 29 79 48 47 59
REMARK Flexibility Score: inf
ROOT
ATOM      1  C   UNL A   1      31.724  30.442  25.872  1.00  0.00     0.002 C 
ENDROOT
BRANCH   1   2
ATOM      2  C   UNL A   1      32.890  29.651  26.479  1.00  0.00     0.002 C 
BRANCH   2   3
ATOM      3  C   UNL A   1      33.777  28.931  25.462  1.00  0.00     0.021 C 
BRANCH   3   4
ATOM      4  C   UNL A   1      33.878  27.430  25.706  1.00  0.00     0.116 C 
BRANCH   4   5
ATOM      5  N   UNL A   1      33.765  26.671  24.473  1.00  0.00    -0.352 N 
ATOM      6  C   UNL A   1      32.823  26.453  23.526  1.00  0.00     0.251 C 
ATOM      7  O   UNL A   1      33.176  25.738  22.583  1.00  0.00    -0.270 OA
ATOM      8  H   UNL A   1      34.598  26.185  24.273  1.00  0.00     0.163 HD
BRANCH   6   9
ATOM      9  C   UNL A   1      31.433  27.001  23.559  1.00  0.00     0.067 C 
ATOM     10  C   UNL A   1      28.208  32.100  22.150  1.00  0.00     0.044 C 
ATOM     11  C   UNL A   1      28.442  30.691  22.608  1.00  0.00    -0.050 A 
ATOM     12  C   UNL A   1      27.347  29.882  22.946  1.00  0.00     0.010 A 
ATOM     13  C   UNL A   1      29.737  30.155  22.658  1.00  0.00     0.015 A 
ATOM     14  C   UNL A   1      27.534  28.555  23.342  1.00  0.00    -0.008 A 
ATOM     15  C   UNL A   1      29.939  28.830  23.053  1.00  0.00     0.018 A 
ATOM     16  C   UNL A   1      26.363  27.682  23.694  1.00  0.00     0.048 C 
ATOM     17  C   UNL A   1      28.836  28.045  23.395  1.00  0.00     0.130 A 
ATOM     18  C   UNL A   1      31.273  28.240  23.061  1.00  0.00     0.025 C 
ATOM     19  O   UNL A   1      28.952  26.734  23.746  1.00  0.00    -0.475 OA
ATOM     20  C   UNL A   1      30.261  26.257  24.128  1.00  0.00     0.314 C 
BRANCH  20  21
ATOM     21  C   UNL A   1      30.314  26.133  25.661  1.00  0.00     0.429 C 
ATOM     22  F   UNL A   1      29.112  25.723  26.142  1.00  0.00    -0.167 F 
ATOM     23  F   UNL A   1      31.219  25.219  26.084  1.00  0.00    -0.167 F 
ATOM     24  F   UNL A   1      30.618  27.301  26.270  1.00  0.00    -0.167 F 
ENDBRANCH  20  21
ENDBRANCH   6   9
ENDBRANCH   4   5
ENDBRANCH   3   4
ENDBRANCH   2   3
ENDBRANCH   1   2
BRANCH   1  25
ATOM     25  C   UNL A   1      31.467  31.813  26.505  1.00  0.00     0.021 C 
BRANCH  25  26
ATOM     26  C   UNL A   1      32.681  32.418  27.199  1.00  0.00     0.116 C 
BRANCH  26  27
ATOM     27  N   UNL A   1      32.478  33.824  27.508  1.00  0.00    -0.352 N 
ATOM     28  C   UNL A   1      33.058  34.588  28.483  1.00  0.00     0.251 C 
ATOM     29  H   UNL A   1      31.832  34.293  26.932  1.00  0.00     0.163 HD
ATOM     30  O   UNL A   1      32.609  35.700  28.753  1.00  0.00    -0.269 OA
BRANCH  28  31
ATOM     31  C   UNL A   1      34.223  34.066  29.221  1.00  0.00     0.039 A 
ATOM     32  C   UNL A   1      34.009  33.250  30.333  1.00  0.00     0.014 A 
ATOM     33  C   UNL A   1      35.522  34.388  28.816  1.00  0.00     0.014 A 
ATOM     34  C   UNL A   1      35.103  32.713  31.012  1.00  0.00     0.010 A 
ATOM     35  C   UNL A   1      36.608  33.796  29.448  1.00  0.00     0.010 A 
ATOM     36  C   UNL A   1      36.408  32.959  30.556  1.00  0.00    -0.014 A 
BRANCH  36  37
ATOM     37  C   UNL A   1      37.581  32.352  31.230  1.00  0.00     0.031 A 
ATOM     38  C   UNL A   1      38.344  31.247  30.557  1.00  0.00     0.074 A 
ATOM     39  C   UNL A   1      37.922  32.766  32.464  1.00  0.00     0.049 A 
ATOM     40  N   UNL A   1      39.357  30.551  31.007  1.00  0.00    -0.248 NA
ATOM     41  C   UNL A   1      37.899  30.858  29.209  1.00  0.00     0.031 C 
ATOM     42  C   UNL A   1      37.237  33.811  33.224  1.00  0.00     0.029 A 
ATOM     43  N   UNL A   1      38.932  32.355  33.299  1.00  0.00    -0.354 N 
ATOM     44  C   UNL A   1      39.668  29.647  30.001  1.00  0.00     0.074 A 
ATOM     45  C   UNL A   1      38.700  29.838  28.942  1.00  0.00     0.031 C 
ATOM     46  C   UNL A   1      37.862  33.983  34.399  1.00  0.00     0.029 A 
ATOM     47  C   UNL A   1      38.964  33.031  34.494  1.00  0.00     0.049 A 
ATOM     48  H   UNL A   1      39.570  31.644  33.064  1.00  0.00     0.167 HD
ATOM     49  C   UNL A   1      40.689  28.758  29.953  1.00  0.00     0.037 A 
ATOM     50  C   UNL A   1      39.790  32.893  35.549  1.00  0.00     0.037 A 
ATOM     51  C   UNL A   1      41.653  28.582  31.006  1.00  0.00     0.049 A 
ATOM     52  C   UNL A   1      40.891  31.870  35.487  1.00  0.00     0.074 A 
ATOM     53  C   UNL A   1      42.738  27.725  31.047  1.00  0.00     0.029 A 
ATOM     54  N   UNL A   1      41.649  29.279  32.207  1.00  0.00    -0.354 N 
ATOM     55  N   UNL A   1      41.201  31.046  34.515  1.00  0.00    -0.248 NA
ATOM     56  C   UNL A   1      41.762  31.760  36.666  1.00  0.00     0.031 C 
ATOM     57  C   UNL A   1      43.359  27.865  32.290  1.00  0.00     0.029 A 
ATOM     58  C   UNL A   1      42.703  28.856  33.001  1.00  0.00     0.049 A 
ATOM     59  H   UNL A   1      40.995  29.971  32.457  1.00  0.00     0.167 HD
ATOM     60  C   UNL A   1      42.320  30.347  34.948  1.00  0.00     0.074 A 
ATOM     61  C   UNL A   1      42.640  30.851  36.268  1.00  0.00     0.031 C 
ATOM     62  C   UNL A   1      43.018  29.378  34.309  1.00  0.00     0.037 A 
BRANCH  49  63
ATOM     63  C   UNL A   1      40.826  27.914  28.720  1.00  0.00     0.064 A 
ATOM     64  C   UNL A   1      40.114  26.713  28.571  1.00  0.00     0.173 A 
ATOM     65  C   UNL A   1      41.622  28.340  27.646  1.00  0.00     0.173 A 
ATOM     66  F   UNL A   1      39.349  26.254  29.572  1.00  0.00    -0.203 F 
ATOM     67  C   UNL A   1      40.207  25.965  27.401  1.00  0.00     0.198 A 
ATOM     68  C   UNL A   1      41.687  27.606  26.465  1.00  0.00     0.198 A 
ATOM     69  F   UNL A   1      42.322  29.482  27.733  1.00  0.00    -0.203 F 
ATOM     70  F   UNL A   1      39.548  24.803  27.297  1.00  0.00    -0.200 F 
ATOM     71  C   UNL A   1      40.983  26.417  26.345  1.00  0.00     0.200 A 
ATOM     72  F   UNL A   1      42.426  28.052  25.439  1.00  0.00    -0.200 F 
ATOM     73  F   UNL A   1      41.055  25.706  25.211  1.00  0.00    -0.200 F 
ENDBRANCH  49  63
BRANCH  50  74
ATOM     74  C   UNL A   1      39.627  33.779  36.732  1.00  0.00     0.064 A 
ATOM     75  C   UNL A   1      38.859  33.374  37.832  1.00  0.00     0.173 A 
ATOM     76  C   UNL A   1      40.254  35.033  36.802  1.00  0.00     0.173 A 
ATOM     77  F   UNL A   1      38.225  32.193  37.806  1.00  0.00    -0.203 F 
ATOM     78  C   UNL A   1      38.714  34.192  38.950  1.00  0.00     0.198 A 
ATOM     79  C   UNL A   1      40.134  35.836  37.932  1.00  0.00     0.198 A 
ATOM     80  F   UNL A   1      41.005  35.465  35.778  1.00  0.00    -0.203 F 
ATOM     81  F   UNL A   1      37.944  33.794  39.973  1.00  0.00    -0.200 F 
ATOM     82  C   UNL A   1      39.359  35.418  39.004  1.00  0.00     0.200 A 
ATOM     83  F   UNL A   1      40.773  37.013  37.987  1.00  0.00    -0.200 F 
ATOM     84  F   UNL A   1      39.231  36.198  40.087  1.00  0.00    -0.200 F 
ENDBRANCH  50  74
BRANCH  62  85
ATOM     85  C   UNL A   1      44.228  28.819  35.001  1.00  0.00     0.064 A 
ATOM     86  C   UNL A   1      44.152  27.684  35.822  1.00  0.00     0.173 A 
ATOM     87  C   UNL A   1      45.493  29.387  34.781  1.00  0.00     0.173 A 
ATOM     88  F   UNL A   1      42.964  27.111  36.072  1.00  0.00    -0.203 F 
ATOM     89  C   UNL A   1      45.294  27.154  36.415  1.00  0.00     0.198 A 
ATOM     90  C   UNL A   1      46.637  28.833  35.348  1.00  0.00     0.198 A 
ATOM     91  F   UNL A   1      45.623  30.467  33.995  1.00  0.00    -0.203 F 
ATOM     92  F   UNL A   1      45.192  26.095  37.231  1.00  0.00    -0.200 F 
ATOM     93  C   UNL A   1      46.536  27.721  36.170  1.00  0.00     0.200 A 
ATOM     94  F   UNL A   1      47.837  29.370  35.093  1.00  0.00    -0.200 F 
ATOM     95  F   UNL A   1      47.635  27.197  36.728  1.00  0.00    -0.200 F 
ENDBRANCH  62  85
ENDBRANCH  36  37
ENDBRANCH  28  31
ENDBRANCH  26  27
ENDBRANCH  25  26
ENDBRANCH   1  25
TORSDOF 14
ENDMDL
MODEL 2
REMARK VINA RESULT:     -12.3      4.276      7.865
REMARK SMILES Cc1cc(C)c2c(c1)C=C(C(=O)NCCCCCCNC(=O)c1ccc(-c3c4nc(c(-c5c(F)c(F)c(F)c(F)c5F)c5ccc([nH]5)c(-c5c(F)c(F)c(F)c(F)c5F)c5nc(c(-c6c(F)c(F)c(F)c(F)c6F)c6ccc3[nH]6)C=C5)C=C4)cc1)[C@@H](C(F)(F)F)O2
REMARK SMILES IDX 17 1 16 2 15 3 14 4 13 5 11 6 12 7 10 9 1 10 2 11 3 12 8 13
REMARK SMILES IDX 4 14 7 15 5 16 6 17 9 18 91 19 86 20 87 21 88 22 89 23 90 24
REMARK SMILES IDX 18 25 19 26 20 27 21 28 22 30 23 31 24 32 85 33 25 34 84 35
REMARK SMILES IDX 26 36 27 37 28 38 78 39 29 40 83 41 77 42 79 43 30 44 82 45
REMARK SMILES IDX 76 46 75 47 31 49 63 50 43 51 62 52 44 53 47 54 61 55 80 56
REMARK SMILES IDX 45 57 46 58 60 60 81 61 48 62 32 63 33 64 41 65 34 66 35 67
REMARK SMILES IDX 39 68 42 69 36 70 37 71 40 72 38 73 64 74 65 75 73 76 66 77
REMARK SMILES IDX 67 78 71 79 74 80 68 81 69 82 72 83 70 84 49 85 50 86 58 87
REMARK SMILES IDX 51 88 52 89 56 90 59 91 53 92 54 93 57 94 55 95
REMARK H PARENT 13 8 20 29 79 48 47 59
REMARK Flexibility Score: inf
ROOT
ATOM      1  C   UNL A   1      35.543  22.163  24.244  1.00  0.00     0.002 C 
ENDROOT
BRANCH   1   2
ATOM      2  C   UNL A   1      34.616  21.010  24.653  1.00  0.00     0.002 C 
BRANCH   2   3
ATOM      3  C   UNL A   1      33.595  21.361  25.738  1.00  0.00     0.021 C 
BRANCH   3   4
ATOM      4  C   UNL A   1      32.157  21.364  25.233  1.00  0.00     0.116 C 
BRANCH   4   5
ATOM      5  N   UNL A   1      31.266  22.069  26.138  1.00  0.00    -0.352 N 
ATOM      6  C   UNL A   1      30.960  23.356  26.424  1.00  0.00     0.251 C 
ATOM      7  O   UNL A   1      30.078  23.513  27.274  1.00  0.00    -0.270 OA
ATOM      8  H   UNL A   1      30.746  21.442  26.691  1.00  0.00     0.163 HD
BRANCH   6   9
ATOM      9  C   UNL A   1      31.609  24.549  25.801  1.00  0.00     0.067 C 
ATOM     10  C   UNL A   1      34.092  30.030  27.277  1.00  0.00     0.044 C 
ATOM     11  C   UNL A   1      33.687  28.883  26.399  1.00  0.00    -0.050 A 
ATOM     12  C   UNL A   1      34.027  28.901  25.038  1.00  0.00     0.010 A 
ATOM     13  C   UNL A   1      33.015  27.772  26.928  1.00  0.00     0.015 A 
ATOM     14  C   UNL A   1      33.693  27.831  24.204  1.00  0.00    -0.008 A 
ATOM     15  C   UNL A   1      32.675  26.695  26.105  1.00  0.00     0.018 A 
ATOM     16  C   UNL A   1      34.066  27.841  22.749  1.00  0.00     0.048 C 
ATOM     17  C   UNL A   1      33.013  26.737  24.751  1.00  0.00     0.130 A 
ATOM     18  C   UNL A   1      32.022  25.508  26.648  1.00  0.00     0.025 C 
ATOM     19  O   UNL A   1      32.754  25.706  23.900  1.00  0.00    -0.475 OA
ATOM     20  C   UNL A   1      31.787  24.719  24.321  1.00  0.00     0.314 C 
BRANCH  20  21
ATOM     21  C   UNL A   1      30.463  24.977  23.582  1.00  0.00     0.429 C 
ATOM     22  F   UNL A   1      30.664  25.818  22.535  1.00  0.00    -0.167 F 
ATOM     23  F   UNL A   1      29.924  23.851  23.059  1.00  0.00    -0.167 F 
ATOM     24  F   UNL A   1      29.521  25.534  24.375  1.00  0.00    -0.167 F 
ENDBRANCH  20  21
ENDBRANCH   6   9
ENDBRANCH   4   5
ENDBRANCH   3   4
ENDBRANCH   2   3
ENDBRANCH   1   2
BRANCH   1  25
ATOM     25  C   UNL A   1      35.334  23.471  25.013  1.00  0.00     0.021 C 
BRANCH  25  26
ATOM     26  C   UNL A   1      36.538  23.911  25.836  1.00  0.00     0.116 C 
BRANCH  26  27
ATOM     27  N   UNL A   1      37.523  22.849  25.958  1.00  0.00    -0.352 N 
ATOM     28  C   UNL A   1      38.840  22.927  26.322  1.00  0.00     0.251 C 
ATOM     29  H   UNL A   1      37.195  21.944  25.750  1.00  0.00     0.163 HD
ATOM     30  O   UNL A   1      39.590  21.968  26.155  1.00  0.00    -0.269 OA
BRANCH  28  31
ATOM     31  C   UNL A   1      39.360  24.176  26.907  1.00  0.00     0.039 A 
ATOM     32  C   UNL A   1      40.018  25.088  26.081  1.00  0.00     0.014 A 
ATOM     33  C   UNL A   1      39.201  24.440  28.271  1.00  0.00     0.014 A 
ATOM     34  C   UNL A   1      40.475  26.293  26.614  1.00  0.00     0.010 A 
ATOM     35  C   UNL A   1      39.592  25.670  28.786  1.00  0.00     0.010 A 
ATOM     36  C   UNL A   1      40.239  26.604  27.963  1.00  0.00    -0.014 A 
BRANCH  36  37
ATOM     37  C   UNL A   1      40.667  27.904  28.534  1.00  0.00     0.031 A 
ATOM     38  C   UNL A   1      42.109  28.129  28.890  1.00  0.00     0.074 A 
ATOM     39  C   UNL A   1      39.747  28.857  28.775  1.00  0.00     0.049 A 
ATOM     40  N   UNL A   1      42.667  29.170  29.453  1.00  0.00    -0.248 NA
ATOM     41  C   UNL A   1      43.044  27.031  28.594  1.00  0.00     0.031 C 
ATOM     42  C   UNL A   1      38.316  28.737  28.495  1.00  0.00     0.029 A 
ATOM     43  N   UNL A   1      39.878  30.113  29.311  1.00  0.00    -0.354 N 
ATOM     44  C   UNL A   1      44.013  28.854  29.576  1.00  0.00     0.074 A 
ATOM     45  C   UNL A   1      44.179  27.501  29.089  1.00  0.00     0.031 C 
ATOM     46  C   UNL A   1      37.705  29.884  28.831  1.00  0.00     0.029 A 
ATOM     47  C   UNL A   1      38.693  30.802  29.392  1.00  0.00     0.049 A 
ATOM     48  H   UNL A   1      40.739  30.484  29.610  1.00  0.00     0.167 HD
ATOM     49  C   UNL A   1      45.023  29.634  30.028  1.00  0.00     0.037 A 
ATOM     50  C   UNL A   1      38.433  32.034  29.868  1.00  0.00     0.037 A 
ATOM     51  C   UNL A   1      44.850  30.982  30.501  1.00  0.00     0.049 A 
ATOM     52  C   UNL A   1      39.567  32.865  30.402  1.00  0.00     0.074 A 
ATOM     53  C   UNL A   1      45.812  31.864  30.959  1.00  0.00     0.029 A 
ATOM     54  N   UNL A   1      43.632  31.644  30.576  1.00  0.00    -0.354 N 
ATOM     55  N   UNL A   1      40.843  32.572  30.478  1.00  0.00    -0.248 NA
ATOM     56  C   UNL A   1      39.228  34.202  30.911  1.00  0.00     0.031 C 
ATOM     57  C   UNL A   1      45.172  33.040  31.359  1.00  0.00     0.029 A 
ATOM     58  C   UNL A   1      43.818  32.917  31.091  1.00  0.00     0.049 A 
ATOM     59  H   UNL A   1      42.765  31.265  30.304  1.00  0.00     0.167 HD
ATOM     60  C   UNL A   1      41.463  33.695  31.009  1.00  0.00     0.074 A 
ATOM     61  C   UNL A   1      40.424  34.681  31.227  1.00  0.00     0.031 C 
ATOM     62  C   UNL A   1      42.774  33.892  31.288  1.00  0.00     0.037 A 
BRANCH  49  63
ATOM     63  C   UNL A   1      46.409  29.058  30.023  1.00  0.00     0.064 A 
ATOM     64  C   UNL A   1      46.921  28.371  31.135  1.00  0.00     0.173 A 
ATOM     65  C   UNL A   1      47.211  29.132  28.874  1.00  0.00     0.173 A 
ATOM     66  F   UNL A   1      46.201  28.282  32.263  1.00  0.00    -0.203 F 
ATOM     67  C   UNL A   1      48.187  27.794  31.101  1.00  0.00     0.198 A 
ATOM     68  C   UNL A   1      48.464  28.526  28.833  1.00  0.00     0.198 A 
ATOM     69  F   UNL A   1      46.771  29.775  27.782  1.00  0.00    -0.203 F 
ATOM     70  F   UNL A   1      48.669  27.176  32.189  1.00  0.00    -0.200 F 
ATOM     71  C   UNL A   1      48.953  27.861  29.948  1.00  0.00     0.200 A 
ATOM     72  F   UNL A   1      49.196  28.579  27.712  1.00  0.00    -0.200 F 
ATOM     73  F   UNL A   1      50.163  27.288  29.910  1.00  0.00    -0.200 F 
ENDBRANCH  49  63
BRANCH  50  74
ATOM     74  C   UNL A   1      37.045  32.566  29.818  1.00  0.00     0.064 A 
ATOM     75  C   UNL A   1      36.179  32.415  30.909  1.00  0.00     0.173 A 
ATOM     76  C   UNL A   1      36.564  33.257  28.694  1.00  0.00     0.173 A 
ATOM     77  F   UNL A   1      36.586  31.747  31.998  1.00  0.00    -0.203 F 
ATOM     78  C   UNL A   1      34.883  32.924  30.876  1.00  0.00     0.198 A 
ATOM     79  C   UNL A   1      35.279  33.791  28.674  1.00  0.00     0.198 A 
ATOM     80  F   UNL A   1      37.355  33.433  27.626  1.00  0.00    -0.203 F 
ATOM     81  F   UNL A   1      34.064  32.734  31.920  1.00  0.00    -0.200 F 
ATOM     82  C   UNL A   1      34.436  33.620  29.762  1.00  0.00     0.200 A 
ATOM     83  F   UNL A   1      34.858  34.478  27.603  1.00  0.00    -0.200 F 
ATOM     84  F   UNL A   1      33.194  34.122  29.737  1.00  0.00    -0.200 F 
ENDBRANCH  50  74
BRANCH  62  85
ATOM     85  C   UNL A   1      43.179  35.237  31.821  1.00  0.00     0.064 A 
ATOM     86  C   UNL A   1      43.632  36.261  30.976  1.00  0.00     0.173 A 
ATOM     87  C   UNL A   1      43.044  35.526  33.188  1.00  0.00     0.173 A 
ATOM     88  F   UNL A   1      43.790  36.032  29.663  1.00  0.00    -0.203 F 
ATOM     89  C   UNL A   1      43.956  37.515  31.484  1.00  0.00     0.198 A 
ATOM     90  C   UNL A   1      43.335  36.792  33.687  1.00  0.00     0.198 A 
ATOM     91  F   UNL A   1      42.604  34.584  34.039  1.00  0.00    -0.203 F 
ATOM     92  F   UNL A   1      44.429  38.465  30.665  1.00  0.00    -0.200 F 
ATOM     93  C   UNL A   1      43.797  37.784  32.836  1.00  0.00     0.200 A 
ATOM     94  F   UNL A   1      43.161  37.054  34.989  1.00  0.00    -0.200 F 
ATOM     95  F   UNL A   1      44.093  38.998  33.319  1.00  0.00    -0.200 F 
ENDBRANCH  62  85
ENDBRANCH  36  37
ENDBRANCH  28  31
ENDBRANCH  26  27
ENDBRANCH  25  26
ENDBRANCH   1  25
TORSDOF 14
ENDMDL
MODEL 3
REMARK VINA RESULT:     -12.3      0.436      7.342
REMARK SMILES Cc1cc(C)c2c(c1)C=C(C(=O)NCCCCCCNC(=O)c1ccc(-c3c4nc(c(-c5c(F)c(F)c(F)c(F)c5F)c5ccc([nH]5)c(-c5c(F)c(F)c(F)c(F)c5F)c5nc(c(-c6c(F)c(F)c(F)c(F)c6F)c6ccc3[nH]6)C=C5)C=C4)cc1)[C@@H](C(F)(F)F)O2
REMARK SMILES IDX 17 1 16 2 15 3 14 4 13 5 11 6 12 7 10 9 1 10 2 11 3 12 8 13
REMARK SMILES IDX 4 14 7 15 5 16 6 17 9 18 91 19 86 20 87 21 88 22 89 23 90 24
REMARK SMILES IDX 18 25 19 26 20 27 21 28 22 30 23 31 24 32 85 33 25 34 84 35
REMARK SMILES IDX 26 36 27 37 28 38 78 39 29 40 83 41 77 42 79 43 30 44 82 45
REMARK SMILES IDX 76 46 75 47 31 49 63 50 43 51 62 52 44 53 47 54 61 55 80 56
REMARK SMILES IDX 45 57 46 58 60 60 81 61 48 62 32 63 33 64 41 65 34 66 35 67
REMARK SMILES IDX 39 68 42 69 36 70 37 71 40 72 38 73 64 74 65 75 73 76 66 77
REMARK SMILES IDX 67 78 71 79 74 80 68 81 69 82 72 83 70 84 49 85 50 86 58 87
REMARK SMILES IDX 51 88 52 89 56 90 59 91 53 92 54 93 57 94 55 95
REMARK H PARENT 13 8 20 29 79 48 47 59
REMARK Flexibility Score: inf
ROOT
ATOM      1  C   UNL A   1      31.750  30.319  26.545  1.00  0.00     0.002 C 
ENDROOT
BRANCH   1   2
ATOM      2  C   UNL A   1      33.083  29.745  27.042  1.00  0.00     0.002 C 
BRANCH   2   3
ATOM      3  C   UNL A   1      33.906  29.020  25.975  1.00  0.00     0.021 C 
BRANCH   3   4
ATOM      4  C   UNL A   1      33.814  27.501  26.072  1.00  0.00     0.116 C 
BRANCH   4   5
ATOM      5  N   UNL A   1      33.799  26.874  24.762  1.00  0.00    -0.352 N 
ATOM      6  C   UNL A   1      32.929  26.751  23.731  1.00  0.00     0.251 C 
ATOM      7  O   UNL A   1      33.358  26.140  22.748  1.00  0.00    -0.270 OA
ATOM      8  H   UNL A   1      34.650  26.416  24.573  1.00  0.00     0.163 HD
BRANCH   6   9
ATOM      9  C   UNL A   1      31.535  27.285  23.721  1.00  0.00     0.067 C 
ATOM     10  C   UNL A   1      28.367  32.524  22.766  1.00  0.00     0.044 C 
ATOM     11  C   UNL A   1      28.582  31.065  23.040  1.00  0.00    -0.050 A 
ATOM     12  C   UNL A   1      27.474  30.214  23.166  1.00  0.00     0.010 A 
ATOM     13  C   UNL A   1      29.875  30.531  23.127  1.00  0.00     0.015 A 
ATOM     14  C   UNL A   1      27.645  28.845  23.387  1.00  0.00    -0.008 A 
ATOM     15  C   UNL A   1      30.062  29.164  23.348  1.00  0.00     0.018 A 
ATOM     16  C   UNL A   1      26.462  27.929  23.510  1.00  0.00     0.048 C 
ATOM     17  C   UNL A   1      28.946  28.336  23.480  1.00  0.00     0.130 A 
ATOM     18  C   UNL A   1      31.399  28.582  23.389  1.00  0.00     0.025 C 
ATOM     19  O   UNL A   1      29.050  26.988  23.652  1.00  0.00    -0.475 OA
ATOM     20  C   UNL A   1      30.329  26.466  24.076  1.00  0.00     0.314 C 
BRANCH  20  21
ATOM     21  C   UNL A   1      30.252  26.128  25.575  1.00  0.00     0.429 C 
ATOM     22  F   UNL A   1      31.121  25.129  25.876  1.00  0.00    -0.167 F 
ATOM     23  F   UNL A   1      30.591  27.171  26.368  1.00  0.00    -0.167 F 
ATOM     24  F   UNL A   1      29.021  25.724  25.957  1.00  0.00    -0.167 F 
ENDBRANCH  20  21
ENDBRANCH   6   9
ENDBRANCH   4   5
ENDBRANCH   3   4
ENDBRANCH   2   3
ENDBRANCH   1   2
BRANCH   1  25
ATOM     25  C   UNL A   1      31.532  31.807  26.839  1.00  0.00     0.021 C 
BRANCH  25  26
ATOM     26  C   UNL A   1      32.819  32.606  27.003  1.00  0.00     0.116 C 
BRANCH  26  27
ATOM     27  N   UNL A   1      32.560  33.945  27.507  1.00  0.00    -0.352 N 
ATOM     28  C   UNL A   1      33.105  34.584  28.587  1.00  0.00     0.251 C 
ATOM     29  H   UNL A   1      31.898  34.466  26.997  1.00  0.00     0.163 HD
ATOM     30  O   UNL A   1      32.611  35.628  29.008  1.00  0.00    -0.269 OA
BRANCH  28  31
ATOM     31  C   UNL A   1      34.286  34.007  29.254  1.00  0.00     0.039 A 
ATOM     32  C   UNL A   1      34.098  33.099  30.296  1.00  0.00     0.014 A 
ATOM     33  C   UNL A   1      35.575  34.369  28.851  1.00  0.00     0.014 A 
ATOM     34  C   UNL A   1      35.207  32.512  30.906  1.00  0.00     0.010 A 
ATOM     35  C   UNL A   1      36.677  33.731  29.408  1.00  0.00     0.010 A 
ATOM     36  C   UNL A   1      36.502  32.802  30.445  1.00  0.00    -0.014 A 
BRANCH  36  37
ATOM     37  C   UNL A   1      37.691  32.146  31.042  1.00  0.00     0.031 A 
ATOM     38  C   UNL A   1      38.171  32.559  32.403  1.00  0.00     0.074 A 
ATOM     39  C   UNL A   1      38.358  31.216  30.334  1.00  0.00     0.049 A 
ATOM     40  N   UNL A   1      39.222  32.148  33.068  1.00  0.00    -0.248 NA
ATOM     41  C   UNL A   1      37.381  33.584  33.103  1.00  0.00     0.031 C 
ATOM     42  C   UNL A   1      37.998  30.757  28.993  1.00  0.00     0.029 A 
ATOM     43  N   UNL A   1      39.482  30.491  30.644  1.00  0.00    -0.354 N 
ATOM     44  C   UNL A   1      39.216  32.861  34.259  1.00  0.00     0.074 A 
ATOM     45  C   UNL A   1      38.096  33.776  34.202  1.00  0.00     0.031 C 
ATOM     46  C   UNL A   1      38.863  29.806  28.606  1.00  0.00     0.029 A 
ATOM     47  C   UNL A   1      39.864  29.621  29.652  1.00  0.00     0.049 A 
ATOM     48  H   UNL A   1      39.968  30.587  31.494  1.00  0.00     0.167 HD
ATOM     49  C   UNL A   1      40.053  32.741  35.316  1.00  0.00     0.037 A 
ATOM     50  C   UNL A   1      40.908  28.772  29.595  1.00  0.00     0.037 A 
ATOM     51  C   UNL A   1      41.158  31.821  35.368  1.00  0.00     0.049 A 
ATOM     52  C   UNL A   1      41.847  28.687  30.767  1.00  0.00     0.074 A 
ATOM     53  C   UNL A   1      42.053  31.607  36.401  1.00  0.00     0.029 A 
ATOM     54  N   UNL A   1      41.520  30.961  34.340  1.00  0.00    -0.354 N 
ATOM     55  N   UNL A   1      41.811  29.337  31.905  1.00  0.00    -0.248 NA
ATOM     56  C   UNL A   1      42.970  27.745  30.651  1.00  0.00     0.031 C 
ATOM     57  C   UNL A   1      42.986  30.655  35.981  1.00  0.00     0.029 A 
ATOM     58  C   UNL A   1      42.636  30.228  34.710  1.00  0.00     0.049 A 
ATOM     59  H   UNL A   1      41.053  30.883  33.477  1.00  0.00     0.167 HD
ATOM     60  C   UNL A   1      42.879  28.862  32.652  1.00  0.00     0.074 A 
ATOM     61  C   UNL A   1      43.540  27.859  31.842  1.00  0.00     0.031 C 
ATOM     62  C   UNL A   1      43.275  29.222  33.897  1.00  0.00     0.037 A 
BRANCH  49  63
ATOM     63  C   UNL A   1      39.803  33.615  36.510  1.00  0.00     0.064 A 
ATOM     64  C   UNL A   1      40.378  34.891  36.617  1.00  0.00     0.173 A 
ATOM     65  C   UNL A   1      38.928  33.205  37.527  1.00  0.00     0.173 A 
ATOM     66  F   UNL A   1      41.232  35.328  35.680  1.00  0.00    -0.203 F 
ATOM     67  C   UNL A   1      40.097  35.715  37.703  1.00  0.00     0.198 A 
ATOM     68  C   UNL A   1      38.624  34.045  38.595  1.00  0.00     0.198 A 
ATOM     69  F   UNL A   1      38.348  31.996  37.474  1.00  0.00    -0.203 F 
ATOM     70  F   UNL A   1      40.688  36.915  37.802  1.00  0.00    -0.200 F 
ATOM     71  C   UNL A   1      39.212  35.298  38.684  1.00  0.00     0.200 A 
ATOM     72  F   UNL A   1      37.756  33.645  39.535  1.00  0.00    -0.200 F 
ATOM     73  F   UNL A   1      38.927  36.100  39.719  1.00  0.00    -0.200 F 
ENDBRANCH  49  63
BRANCH  50  74
ATOM     74  C   UNL A   1      41.088  27.906  28.399  1.00  0.00     0.064 A 
ATOM     75  C   UNL A   1      40.457  26.657  28.317  1.00  0.00     0.173 A 
ATOM     76  C   UNL A   1      41.868  28.315  27.307  1.00  0.00     0.173 A 
ATOM     77  F   UNL A   1      39.716  26.213  29.342  1.00  0.00    -0.203 F 
ATOM     78  C   UNL A   1      40.607  25.847  27.194  1.00  0.00     0.198 A 
ATOM     79  C   UNL A   1      41.993  27.518  26.172  1.00  0.00     0.198 A 
ATOM     80  F   UNL A   1      42.488  29.504  27.333  1.00  0.00    -0.203 F 
ATOM     81  F   UNL A   1      40.022  24.641  27.158  1.00  0.00    -0.200 F 
ATOM     82  C   UNL A   1      41.368  26.281  26.119  1.00  0.00     0.200 A 
ATOM     83  F   UNL A   1      42.714  27.949  25.128  1.00  0.00    -0.200 F 
ATOM     84  F   UNL A   1      41.500  25.507  25.032  1.00  0.00    -0.200 F 
ENDBRANCH  50  74
BRANCH  62  85
ATOM     85  C   UNL A   1      44.453  28.503  34.489  1.00  0.00     0.064 A 
ATOM     86  C   UNL A   1      45.759  29.001  34.370  1.00  0.00     0.173 A 
ATOM     87  C   UNL A   1      44.262  27.336  35.245  1.00  0.00     0.173 A 
ATOM     88  F   UNL A   1      45.996  30.107  33.648  1.00  0.00    -0.203 F 
ATOM     89  C   UNL A   1      46.831  28.345  34.968  1.00  0.00     0.198 A 
ATOM     90  C   UNL A   1      45.332  26.702  35.870  1.00  0.00     0.198 A 
ATOM     91  F   UNL A   1      43.031  26.823  35.399  1.00  0.00    -0.203 F 
ATOM     92  F   UNL A   1      48.076  28.815  34.804  1.00  0.00    -0.200 F 
ATOM     93  C   UNL A   1      46.616  27.203  35.726  1.00  0.00     0.200 A 
ATOM     94  F   UNL A   1      45.119  25.611  36.619  1.00  0.00    -0.200 F 
ATOM     95  F   UNL A   1      47.649  26.584  36.314  1.00  0.00    -0.200 F 
ENDBRANCH  62  85
ENDBRANCH  36  37
ENDBRANCH  28  31
ENDBRANCH  26  27
ENDBRANCH  25  26
ENDBRANCH   1  25
TORSDOF 14
ENDMDL
