MODEL 1
REMARK VINA RESULT:     -11.7      0.000      0.000
REMARK SMILES CCOC(=O)c1ccc(-c2ccc(C(=O)NCCCCCCNC(=O)c3ccc(-c4c5nc(c(-c6c(F)c(F)c(F)c(F)c6F)c6ccc([nH]6)c(-c6c(F)c(F)c(F)c(F)c6F)c6nc(c(-c7c(F)c(F)c(F)c(F)c7F)c7ccc4[nH]7)C=C6)C=C5)cc3)o2)cc1
REMARK SMILES IDX 18 1 17 2 16 3 14 4 15 5 13 7 10 8 11 9 89 10 12 11 9 12
REMARK SMILES IDX 6 13 7 14 91 15 8 16 90 17 4 18 5 19 3 20 2 21 1 22 19 23
REMARK SMILES IDX 20 24 21 25 22 26 23 27 24 28 25 30 26 31 27 32 88 33 28 34
REMARK SMILES IDX 87 35 29 36 30 37 31 38 81 39 32 40 86 41 80 42 82 43 33 44
REMARK SMILES IDX 85 45 79 46 78 47 34 49 66 50 46 51 65 52 47 53 50 54 64 55
REMARK SMILES IDX 83 56 48 57 49 58 63 60 84 61 51 62 35 63 36 64 44 65 37 66
REMARK SMILES IDX 38 67 42 68 45 69 39 70 40 71 43 72 41 73 67 74 68 75 76 76
REMARK SMILES IDX 69 77 70 78 74 79 77 80 71 81 72 82 75 83 73 84 52 85 53 86
REMARK SMILES IDX 61 87 54 88 55 89 59 90 62 91 56 92 57 93 60 94 58 95
REMARK H PARENT 16 6 23 29 82 48 50 59
REMARK Flexibility Score: inf
ROOT
ATOM      1  C   UNL A   1      31.160  28.608  22.785  1.00  0.00     0.021 C 
ENDROOT
BRANCH   1   2
ATOM      2  C   UNL A   1      30.881  27.136  22.478  1.00  0.00     0.116 C 
BRANCH   2   3
ATOM      3  N   UNL A   1      31.628  26.693  21.320  1.00  0.00    -0.349 N 
ATOM      4  C   UNL A   1      32.645  25.777  21.175  1.00  0.00     0.287 C 
ATOM      5  O   UNL A   1      33.024  25.591  20.015  1.00  0.00    -0.266 OA
ATOM      6  H   UNL A   1      31.357  27.127  20.479  1.00  0.00     0.163 HD
BRANCH   4   7
ATOM      7  C   UNL A   1      33.214  25.072  22.312  1.00  0.00     0.192 A 
ATOM      8  C   UNL A   1      33.570  23.235  23.500  1.00  0.00     0.135 A 
ATOM      9  C   UNL A   1      34.177  24.259  24.187  1.00  0.00     0.052 A 
ATOM     10  O   UNL A   1      32.989  23.710  22.367  1.00  0.00    -0.451 OA
ATOM     11  C   UNL A   1      33.998  25.422  23.400  1.00  0.00     0.057 A 
BRANCH   8  12
ATOM     12  C   UNL A   1      33.515  21.803  23.723  1.00  0.00     0.017 A 
ATOM     13  C   UNL A   1      33.177  19.141  24.530  1.00  0.00     0.060 A 
ATOM     14  C   UNL A   1      34.281  19.875  24.980  1.00  0.00     0.016 A 
ATOM     15  C   UNL A   1      32.276  19.716  23.626  1.00  0.00     0.016 A 
ATOM     16  C   UNL A   1      34.457  21.196  24.563  1.00  0.00     0.013 A 
ATOM     17  C   UNL A   1      32.442  21.048  23.233  1.00  0.00     0.013 A 
BRANCH  13  18
ATOM     18  C   UNL A   1      32.921  17.816  25.137  1.00  0.00     0.338 C 
ATOM     19  O   UNL A   1      32.284  17.672  26.167  1.00  0.00    -0.246 OA
BRANCH  18  20
ATOM     20  O   UNL A   1      33.466  16.834  24.378  1.00  0.00    -0.462 OA
BRANCH  20  21
ATOM     21  C   UNL A   1      34.035  15.736  25.107  1.00  0.00     0.230 C 
ATOM     22  C   UNL A   1      35.516  15.932  25.386  1.00  0.00     0.049 C 
ENDBRANCH  20  21
ENDBRANCH  18  20
ENDBRANCH  13  18
ENDBRANCH   8  12
ENDBRANCH   4   7
ENDBRANCH   2   3
ENDBRANCH   1   2
BRANCH   1  23
ATOM     23  C   UNL A   1      31.047  28.956  24.277  1.00  0.00     0.002 C 
BRANCH  23  24
ATOM     24  C   UNL A   1      32.373  29.283  24.978  1.00  0.00     0.002 C 
BRANCH  24  25
ATOM     25  C   UNL A   1      33.111  28.086  25.586  1.00  0.00     0.021 C 
BRANCH  25  26
ATOM     26  C   UNL A   1      34.086  28.436  26.708  1.00  0.00     0.116 C 
BRANCH  26  27
ATOM     27  N   UNL A   1      33.883  29.787  27.205  1.00  0.00    -0.352 N 
ATOM     28  C   UNL A   1      34.678  30.547  28.024  1.00  0.00     0.251 C 
ATOM     29  H   UNL A   1      33.051  30.221  26.908  1.00  0.00     0.163 HD
ATOM     30  O   UNL A   1      34.248  31.597  28.494  1.00  0.00    -0.269 OA
BRANCH  28  31
ATOM     31  C   UNL A   1      36.050  30.107  28.360  1.00  0.00     0.039 A 
ATOM     32  C   UNL A   1      37.052  30.233  27.393  1.00  0.00     0.014 A 
ATOM     33  C   UNL A   1      36.342  29.532  29.601  1.00  0.00     0.014 A 
ATOM     34  C   UNL A   1      38.356  29.828  27.685  1.00  0.00     0.010 A 
ATOM     35  C   UNL A   1      37.655  29.179  29.911  1.00  0.00     0.010 A 
ATOM     36  C   UNL A   1      38.672  29.318  28.954  1.00  0.00    -0.014 A 
BRANCH  36  37
ATOM     37  C   UNL A   1      40.060  28.918  29.293  1.00  0.00     0.031 A 
ATOM     38  C   UNL A   1      40.930  29.826  30.115  1.00  0.00     0.074 A 
ATOM     39  C   UNL A   1      40.556  27.762  28.812  1.00  0.00     0.049 A 
ATOM     40  N   UNL A   1      42.184  29.679  30.464  1.00  0.00    -0.248 NA
ATOM     41  C   UNL A   1      40.317  31.076  30.589  1.00  0.00     0.031 C 
ATOM     42  C   UNL A   1      39.826  26.816  27.967  1.00  0.00     0.029 A 
ATOM     43  N   UNL A   1      41.796  27.191  28.958  1.00  0.00    -0.354 N 
ATOM     44  C   UNL A   1      42.513  30.822  31.180  1.00  0.00     0.074 A 
ATOM     45  C   UNL A   1      41.341  31.671  31.184  1.00  0.00     0.031 C 
ATOM     46  C   UNL A   1      40.625  25.776  27.682  1.00  0.00     0.029 A 
ATOM     47  C   UNL A   1      41.930  25.994  28.299  1.00  0.00     0.049 A 
ATOM     48  H   UNL A   1      42.520  27.602  29.484  1.00  0.00     0.167 HD
ATOM     49  C   UNL A   1      43.681  31.126  31.796  1.00  0.00     0.037 A 
ATOM     50  C   UNL A   1      42.988  25.166  28.204  1.00  0.00     0.037 A 
ATOM     51  C   UNL A   1      44.835  30.266  31.822  1.00  0.00     0.049 A 
ATOM     52  C   UNL A   1      44.266  25.519  28.912  1.00  0.00     0.074 A 
ATOM     53  C   UNL A   1      46.040  30.457  32.475  1.00  0.00     0.029 A 
ATOM     54  N   UNL A   1      44.924  29.049  31.165  1.00  0.00    -0.354 N 
ATOM     55  N   UNL A   1      44.545  26.574  29.638  1.00  0.00    -0.248 NA
ATOM     56  C   UNL A   1      45.375  24.562  28.792  1.00  0.00     0.031 C 
ATOM     57  C   UNL A   1      46.871  29.369  32.187  1.00  0.00     0.029 A 
ATOM     58  C   UNL A   1      46.170  28.483  31.383  1.00  0.00     0.049 A 
ATOM     59  H   UNL A   1      44.208  28.645  30.624  1.00  0.00     0.167 HD
ATOM     60  C   UNL A   1      45.850  26.399  30.078  1.00  0.00     0.074 A 
ATOM     61  C   UNL A   1      46.304  25.130  29.549  1.00  0.00     0.031 C 
ATOM     62  C   UNL A   1      46.603  27.218  30.852  1.00  0.00     0.037 A 
BRANCH  49  63
ATOM     63  C   UNL A   1      43.767  32.447  32.502  1.00  0.00     0.064 A 
ATOM     64  C   UNL A   1      44.236  33.597  31.851  1.00  0.00     0.173 A 
ATOM     65  C   UNL A   1      43.343  32.571  33.834  1.00  0.00     0.173 A 
ATOM     66  F   UNL A   1      44.664  33.526  30.581  1.00  0.00    -0.203 F 
ATOM     67  C   UNL A   1      44.301  34.819  32.515  1.00  0.00     0.198 A 
ATOM     68  C   UNL A   1      43.386  33.799  34.486  1.00  0.00     0.198 A 
ATOM     69  F   UNL A   1      42.883  31.501  34.499  1.00  0.00    -0.203 F 
ATOM     70  F   UNL A   1      44.793  35.896  31.886  1.00  0.00    -0.200 F 
ATOM     71  C   UNL A   1      43.870  34.921  33.829  1.00  0.00     0.200 A 
ATOM     72  F   UNL A   1      42.961  33.899  35.754  1.00  0.00    -0.200 F 
ATOM     73  F   UNL A   1      43.930  36.099  34.466  1.00  0.00    -0.200 F 
ENDBRANCH  49  63
BRANCH  50  74
ATOM     74  C   UNL A   1      42.870  23.905  27.431  1.00  0.00     0.064 A 
ATOM     75  C   UNL A   1      42.374  22.740  28.031  1.00  0.00     0.173 A 
ATOM     76  C   UNL A   1      43.245  23.839  26.082  1.00  0.00     0.173 A 
ATOM     77  F   UNL A   1      42.022  22.752  29.325  1.00  0.00    -0.203 F 
ATOM     78  C   UNL A   1      42.270  21.550  27.314  1.00  0.00     0.198 A 
ATOM     79  C   UNL A   1      43.120  22.655  25.360  1.00  0.00     0.198 A 
ATOM     80  F   UNL A   1      43.722  24.928  25.463  1.00  0.00    -0.203 F 
ATOM     81  F   UNL A   1      41.826  20.441  27.922  1.00  0.00    -0.200 F 
ATOM     82  C   UNL A   1      42.639  21.510  25.977  1.00  0.00     0.200 A 
ATOM     83  F   UNL A   1      43.465  22.621  24.066  1.00  0.00    -0.200 F 
ATOM     84  F   UNL A   1      42.534  20.366  25.286  1.00  0.00    -0.200 F 
ENDBRANCH  50  74
BRANCH  62  85
ATOM     85  C   UNL A   1      47.989  26.755  31.190  1.00  0.00     0.064 A 
ATOM     86  C   UNL A   1      48.232  25.923  32.292  1.00  0.00     0.173 A 
ATOM     87  C   UNL A   1      49.078  27.119  30.385  1.00  0.00     0.173 A 
ATOM     88  F   UNL A   1      47.225  25.562  33.101  1.00  0.00    -0.203 F 
ATOM     89  C   UNL A   1      49.521  25.487  32.587  1.00  0.00     0.198 A 
ATOM     90  C   UNL A   1      50.361  26.663  30.669  1.00  0.00     0.198 A 
ATOM     91  F   UNL A   1      48.894  27.911  29.318  1.00  0.00    -0.203 F 
ATOM     92  F   UNL A   1      49.738  24.724  33.667  1.00  0.00    -0.200 F 
ATOM     93  C   UNL A   1      50.583  25.852  31.772  1.00  0.00     0.200 A 
ATOM     94  F   UNL A   1      51.385  27.009  29.877  1.00  0.00    -0.200 F 
ATOM     95  F   UNL A   1      51.822  25.428  32.055  1.00  0.00    -0.200 F 
ENDBRANCH  62  85
ENDBRANCH  36  37
ENDBRANCH  28  31
ENDBRANCH  26  27
ENDBRANCH  25  26
ENDBRANCH  24  25
ENDBRANCH  23  24
ENDBRANCH   1  23
TORSDOF 17
ENDMDL
MODEL 2
REMARK VINA RESULT:     -11.5      4.491      7.702
REMARK SMILES CCOC(=O)c1ccc(-c2ccc(C(=O)NCCCCCCNC(=O)c3ccc(-c4c5nc(c(-c6c(F)c(F)c(F)c(F)c6F)c6ccc([nH]6)c(-c6c(F)c(F)c(F)c(F)c6F)c6nc(c(-c7c(F)c(F)c(F)c(F)c7F)c7ccc4[nH]7)C=C6)C=C5)cc3)o2)cc1
REMARK SMILES IDX 18 1 17 2 16 3 14 4 15 5 13 7 10 8 11 9 89 10 12 11 9 12
REMARK SMILES IDX 6 13 7 14 91 15 8 16 90 17 4 18 5 19 3 20 2 21 1 22 19 23
REMARK SMILES IDX 20 24 21 25 22 26 23 27 24 28 25 30 26 31 27 32 88 33 28 34
REMARK SMILES IDX 87 35 29 36 30 37 31 38 81 39 32 40 86 41 80 42 82 43 33 44
REMARK SMILES IDX 85 45 79 46 78 47 34 49 66 50 46 51 65 52 47 53 50 54 64 55
REMARK SMILES IDX 83 56 48 57 49 58 63 60 84 61 51 62 35 63 36 64 44 65 37 66
REMARK SMILES IDX 38 67 42 68 45 69 39 70 40 71 43 72 41 73 67 74 68 75 76 76
REMARK SMILES IDX 69 77 70 78 74 79 77 80 71 81 72 82 75 83 73 84 52 85 53 86
REMARK SMILES IDX 61 87 54 88 55 89 59 90 62 91 56 92 57 93 60 94 58 95
REMARK H PARENT 16 6 23 29 82 48 50 59
REMARK Flexibility Score: inf
ROOT
ATOM      1  C   UNL A   1      37.372  34.302  31.202  1.00  0.00     0.021 C 
ENDROOT
BRANCH   1   2
ATOM      2  C   UNL A   1      38.715  34.418  31.926  1.00  0.00     0.116 C 
BRANCH   2   3
ATOM      3  N   UNL A   1      38.531  34.493  33.360  1.00  0.00    -0.349 N 
ATOM      4  C   UNL A   1      38.420  33.520  34.327  1.00  0.00     0.287 C 
ATOM      5  O   UNL A   1      38.329  33.937  35.485  1.00  0.00    -0.266 OA
ATOM      6  H   UNL A   1      38.476  35.412  33.708  1.00  0.00     0.163 HD
BRANCH   4   7
ATOM      7  C   UNL A   1      38.426  32.103  33.998  1.00  0.00     0.192 A 
ATOM      8  C   UNL A   1      39.445  30.146  33.787  1.00  0.00     0.135 A 
ATOM      9  C   UNL A   1      38.146  29.948  33.382  1.00  0.00     0.052 A 
ATOM     10  O   UNL A   1      39.626  31.439  34.163  1.00  0.00    -0.451 OA
ATOM     11  C   UNL A   1      37.482  31.184  33.570  1.00  0.00     0.057 A 
BRANCH   8  12
ATOM     12  C   UNL A   1      40.569  29.244  33.946  1.00  0.00     0.017 A 
ATOM     13  C   UNL A   1      42.979  27.817  34.034  1.00  0.00     0.060 A 
ATOM     14  C   UNL A   1      42.115  27.667  32.943  1.00  0.00     0.016 A 
ATOM     15  C   UNL A   1      42.611  28.631  35.111  1.00  0.00     0.016 A 
ATOM     16  C   UNL A   1      40.906  28.366  32.909  1.00  0.00     0.013 A 
ATOM     17  C   UNL A   1      41.412  29.349  35.061  1.00  0.00     0.013 A 
BRANCH  13  18
ATOM     18  C   UNL A   1      44.327  27.213  33.949  1.00  0.00     0.338 C 
ATOM     19  O   UNL A   1      45.302  27.688  34.508  1.00  0.00    -0.246 OA
BRANCH  18  20
ATOM     20  O   UNL A   1      44.294  26.084  33.200  1.00  0.00    -0.462 OA
BRANCH  20  21
ATOM     21  C   UNL A   1      44.078  24.866  33.929  1.00  0.00     0.230 C 
ATOM     22  C   UNL A   1      44.874  23.703  33.362  1.00  0.00     0.049 C 
ENDBRANCH  20  21
ENDBRANCH  18  20
ENDBRANCH  13  18
ENDBRANCH   8  12
ENDBRANCH   4   7
ENDBRANCH   2   3
ENDBRANCH   1   2
BRANCH   1  23
ATOM     23  C   UNL A   1      37.295  33.105  30.242  1.00  0.00     0.002 C 
BRANCH  23  24
ATOM     24  C   UNL A   1      37.137  33.464  28.757  1.00  0.00     0.002 C 
BRANCH  24  25
ATOM     25  C   UNL A   1      35.714  33.360  28.201  1.00  0.00     0.021 C 
BRANCH  25  26
ATOM     26  C   UNL A   1      34.717  32.655  29.118  1.00  0.00     0.116 C 
BRANCH  26  27
ATOM     27  N   UNL A   1      34.041  31.557  28.446  1.00  0.00    -0.352 N 
ATOM     28  C   UNL A   1      34.552  30.381  27.960  1.00  0.00     0.251 C 
ATOM     29  H   UNL A   1      33.071  31.675  28.322  1.00  0.00     0.163 HD
ATOM     30  O   UNL A   1      33.859  29.658  27.249  1.00  0.00    -0.269 OA
BRANCH  28  31
ATOM     31  C   UNL A   1      35.940  29.978  28.274  1.00  0.00     0.039 A 
ATOM     32  C   UNL A   1      36.911  30.078  27.273  1.00  0.00     0.014 A 
ATOM     33  C   UNL A   1      36.279  29.461  29.529  1.00  0.00     0.014 A 
ATOM     34  C   UNL A   1      38.231  29.707  27.543  1.00  0.00     0.010 A 
ATOM     35  C   UNL A   1      37.606  29.142  29.814  1.00  0.00     0.010 A 
ATOM     36  C   UNL A   1      38.592  29.256  28.822  1.00  0.00    -0.014 A 
BRANCH  36  37
ATOM     37  C   UNL A   1      39.996  28.894  29.136  1.00  0.00     0.031 A 
ATOM     38  C   UNL A   1      40.874  29.850  29.894  1.00  0.00     0.074 A 
ATOM     39  C   UNL A   1      40.498  27.727  28.690  1.00  0.00     0.049 A 
ATOM     40  N   UNL A   1      42.140  29.738  30.211  1.00  0.00    -0.248 NA
ATOM     41  C   UNL A   1      40.253  31.109  30.333  1.00  0.00     0.031 C 
ATOM     42  C   UNL A   1      39.760  26.734  27.906  1.00  0.00     0.029 A 
ATOM     43  N   UNL A   1      41.751  27.183  28.822  1.00  0.00    -0.354 N 
ATOM     44  C   UNL A   1      42.469  30.915  30.869  1.00  0.00     0.074 A 
ATOM     45  C   UNL A   1      41.283  31.745  30.872  1.00  0.00     0.031 C 
ATOM     46  C   UNL A   1      40.569  25.696  27.641  1.00  0.00     0.029 A 
ATOM     47  C   UNL A   1      41.887  25.961  28.210  1.00  0.00     0.049 A 
ATOM     48  H   UNL A   1      42.483  27.627  29.309  1.00  0.00     0.167 HD
ATOM     49  C   UNL A   1      43.649  31.264  31.436  1.00  0.00     0.037 A 
ATOM     50  C   UNL A   1      42.956  25.147  28.119  1.00  0.00     0.037 A 
ATOM     51  C   UNL A   1      44.818  30.425  31.464  1.00  0.00     0.049 A 
ATOM     52  C   UNL A   1      44.248  25.550  28.773  1.00  0.00     0.074 A 
ATOM     53  C   UNL A   1      46.038  30.662  32.073  1.00  0.00     0.029 A 
ATOM     54  N   UNL A   1      44.909  29.182  30.856  1.00  0.00    -0.354 N 
ATOM     55  N   UNL A   1      44.530  26.639  29.446  1.00  0.00    -0.248 NA
ATOM     56  C   UNL A   1      45.370  24.607  28.660  1.00  0.00     0.031 C 
ATOM     57  C   UNL A   1      46.879  29.576  31.805  1.00  0.00     0.029 A 
ATOM     58  C   UNL A   1      46.171  28.647  31.060  1.00  0.00     0.049 A 
ATOM     59  H   UNL A   1      44.185  28.744  30.353  1.00  0.00     0.167 HD
ATOM     60  C   UNL A   1      45.849  26.504  29.854  1.00  0.00     0.074 A 
ATOM     61  C   UNL A   1      46.310  25.221  29.365  1.00  0.00     0.031 C 
ATOM     62  C   UNL A   1      46.610  27.367  30.570  1.00  0.00     0.037 A 
BRANCH  49  63
ATOM     63  C   UNL A   1      43.732  32.614  32.084  1.00  0.00     0.064 A 
ATOM     64  C   UNL A   1      43.588  32.773  33.470  1.00  0.00     0.173 A 
ATOM     65  C   UNL A   1      43.994  33.758  31.314  1.00  0.00     0.173 A 
ATOM     66  F   UNL A   1      43.325  31.712  34.247  1.00  0.00    -0.203 F 
ATOM     67  C   UNL A   1      43.677  34.032  34.059  1.00  0.00     0.198 A 
ATOM     68  C   UNL A   1      44.108  35.010  31.910  1.00  0.00     0.198 A 
ATOM     69  F   UNL A   1      44.144  33.658  29.985  1.00  0.00    -0.203 F 
ATOM     70  F   UNL A   1      43.494  34.166  35.380  1.00  0.00    -0.200 F 
ATOM     71  C   UNL A   1      43.943  35.147  33.280  1.00  0.00     0.200 A 
ATOM     72  F   UNL A   1      44.373  36.088  31.157  1.00  0.00    -0.200 F 
ATOM     73  F   UNL A   1      44.033  36.358  33.850  1.00  0.00    -0.200 F 
ENDBRANCH  49  63
BRANCH  50  74
ATOM     74  C   UNL A   1      42.838  23.853  27.402  1.00  0.00     0.064 A 
ATOM     75  C   UNL A   1      43.199  23.747  26.051  1.00  0.00     0.173 A 
ATOM     76  C   UNL A   1      42.370  22.701  28.048  1.00  0.00     0.173 A 
ATOM     77  F   UNL A   1      43.634  24.827  25.388  1.00  0.00    -0.203 F 
ATOM     78  C   UNL A   1      43.081  22.537  25.370  1.00  0.00     0.198 A 
ATOM     79  C   UNL A   1      42.274  21.488  27.371  1.00  0.00     0.198 A 
ATOM     80  F   UNL A   1      42.016  22.752  29.340  1.00  0.00    -0.203 F 
ATOM     81  F   UNL A   1      43.399  22.471  24.069  1.00  0.00    -0.200 F 
ATOM     82  C   UNL A   1      42.624  21.408  26.031  1.00  0.00     0.200 A 
ATOM     83  F   UNL A   1      41.842  20.395  28.016  1.00  0.00    -0.200 F 
ATOM     84  F   UNL A   1      42.515  20.244  25.376  1.00  0.00    -0.200 F 
ENDBRANCH  50  74
BRANCH  62  85
ATOM     85  C   UNL A   1      48.013  26.941  30.886  1.00  0.00     0.064 A 
ATOM     86  C   UNL A   1      48.305  26.177  32.025  1.00  0.00     0.173 A 
ATOM     87  C   UNL A   1      49.068  27.271  30.024  1.00  0.00     0.173 A 
ATOM     88  F   UNL A   1      47.331  25.852  32.888  1.00  0.00    -0.203 F 
ATOM     89  C   UNL A   1      49.609  25.775  32.300  1.00  0.00     0.198 A 
ATOM     90  C   UNL A   1      50.367  26.847  30.289  1.00  0.00     0.198 A 
ATOM     91  F   UNL A   1      48.837  27.997  28.920  1.00  0.00    -0.203 F 
ATOM     92  F   UNL A   1      49.874  25.080  33.414  1.00  0.00    -0.200 F 
ATOM     93  C   UNL A   1      50.637  26.105  31.429  1.00  0.00     0.200 A 
ATOM     94  F   UNL A   1      51.358  27.159  29.443  1.00  0.00    -0.200 F 
ATOM     95  F   UNL A   1      51.891  25.713  31.693  1.00  0.00    -0.200 F 
ENDBRANCH  62  85
ENDBRANCH  36  37
ENDBRANCH  28  31
ENDBRANCH  26  27
ENDBRANCH  25  26
ENDBRANCH  24  25
ENDBRANCH  23  24
ENDBRANCH   1  23
TORSDOF 17
ENDMDL
MODEL 3
REMARK VINA RESULT:     -11.5      3.422      8.072
REMARK SMILES CCOC(=O)c1ccc(-c2ccc(C(=O)NCCCCCCNC(=O)c3ccc(-c4c5nc(c(-c6c(F)c(F)c(F)c(F)c6F)c6ccc([nH]6)c(-c6c(F)c(F)c(F)c(F)c6F)c6nc(c(-c7c(F)c(F)c(F)c(F)c7F)c7ccc4[nH]7)C=C6)C=C5)cc3)o2)cc1
REMARK SMILES IDX 18 1 17 2 16 3 14 4 15 5 13 7 10 8 11 9 89 10 12 11 9 12
REMARK SMILES IDX 6 13 7 14 91 15 8 16 90 17 4 18 5 19 3 20 2 21 1 22 19 23
REMARK SMILES IDX 20 24 21 25 22 26 23 27 24 28 25 30 26 31 27 32 88 33 28 34
REMARK SMILES IDX 87 35 29 36 30 37 31 38 81 39 32 40 86 41 80 42 82 43 33 44
REMARK SMILES IDX 85 45 79 46 78 47 34 49 66 50 46 51 65 52 47 53 50 54 64 55
REMARK SMILES IDX 83 56 48 57 49 58 63 60 84 61 51 62 35 63 36 64 44 65 37 66
REMARK SMILES IDX 38 67 42 68 45 69 39 70 40 71 43 72 41 73 67 74 68 75 76 76
REMARK SMILES IDX 69 77 70 78 74 79 77 80 71 81 72 82 75 83 73 84 52 85 53 86
REMARK SMILES IDX 61 87 54 88 55 89 59 90 62 91 56 92 57 93 60 94 58 95
REMARK H PARENT 16 6 23 29 82 48 50 59
REMARK Flexibility Score: inf
ROOT
ATOM      1  C   UNL A   1      33.332  26.072  25.756  1.00  0.00     0.021 C 
ENDROOT
BRANCH   1   2
ATOM      2  C   UNL A   1      31.820  26.040  25.987  1.00  0.00     0.116 C 
BRANCH   2   3
ATOM      3  N   UNL A   1      31.111  26.687  24.903  1.00  0.00    -0.349 N 
ATOM      4  C   UNL A   1      31.056  26.426  23.552  1.00  0.00     0.287 C 
ATOM      5  O   UNL A   1      30.294  27.151  22.907  1.00  0.00    -0.266 OA
ATOM      6  H   UNL A   1      30.567  27.457  25.185  1.00  0.00     0.163 HD
BRANCH   4   7
ATOM      7  C   UNL A   1      31.835  25.361  22.942  1.00  0.00     0.192 A 
ATOM      8  C   UNL A   1      32.439  23.236  22.755  1.00  0.00     0.135 A 
ATOM      9  C   UNL A   1      33.196  23.932  21.843  1.00  0.00     0.052 A 
ATOM     10  O   UNL A   1      31.613  24.085  23.422  1.00  0.00    -0.451 OA
ATOM     11  C   UNL A   1      32.770  25.279  21.923  1.00  0.00     0.057 A 
BRANCH   8  12
ATOM     12  C   UNL A   1      32.322  21.823  23.055  1.00  0.00     0.017 A 
ATOM     13  C   UNL A   1      32.528  19.064  23.506  1.00  0.00     0.060 A 
ATOM     14  C   UNL A   1      32.153  19.543  22.245  1.00  0.00     0.016 A 
ATOM     15  C   UNL A   1      32.737  19.961  24.560  1.00  0.00     0.016 A 
ATOM     16  C   UNL A   1      32.034  20.917  22.027  1.00  0.00     0.013 A 
ATOM     17  C   UNL A   1      32.643  21.338  24.330  1.00  0.00     0.013 A 
BRANCH  13  18
ATOM     18  C   UNL A   1      32.826  17.622  23.649  1.00  0.00     0.338 C 
ATOM     19  O   UNL A   1      33.315  16.955  22.752  1.00  0.00    -0.246 OA
BRANCH  18  20
ATOM     20  O   UNL A   1      32.503  17.193  24.893  1.00  0.00    -0.462 OA
BRANCH  20  21
ATOM     21  C   UNL A   1      33.343  16.158  25.426  1.00  0.00     0.230 C 
ATOM     22  C   UNL A   1      32.637  14.814  25.486  1.00  0.00     0.049 C 
ENDBRANCH  20  21
ENDBRANCH  18  20
ENDBRANCH  13  18
ENDBRANCH   8  12
ENDBRANCH   4   7
ENDBRANCH   2   3
ENDBRANCH   1   2
BRANCH   1  23
ATOM     23  C   UNL A   1      33.997  24.692  25.865  1.00  0.00     0.002 C 
BRANCH  23  24
ATOM     24  C   UNL A   1      35.174  24.453  24.909  1.00  0.00     0.002 C 
BRANCH  24  25
ATOM     25  C   UNL A   1      35.743  23.031  24.904  1.00  0.00     0.021 C 
BRANCH  25  26
ATOM     26  C   UNL A   1      36.243  22.535  26.259  1.00  0.00     0.116 C 
BRANCH  26  27
ATOM     27  N   UNL A   1      37.260  21.506  26.122  1.00  0.00    -0.352 N 
ATOM     28  C   UNL A   1      38.627  21.620  26.124  1.00  0.00     0.251 C 
ATOM     29  H   UNL A   1      36.917  20.590  26.011  1.00  0.00     0.163 HD
ATOM     30  O   UNL A   1      39.323  20.661  25.799  1.00  0.00    -0.269 OA
BRANCH  28  31
ATOM     31  C   UNL A   1      39.275  22.895  26.501  1.00  0.00     0.039 A 
ATOM     32  C   UNL A   1      40.132  22.913  27.605  1.00  0.00     0.014 A 
ATOM     33  C   UNL A   1      39.008  24.077  25.802  1.00  0.00     0.014 A 
ATOM     34  C   UNL A   1      40.758  24.103  27.981  1.00  0.00     0.010 A 
ATOM     35  C   UNL A   1      39.676  25.253  26.145  1.00  0.00     0.010 A 
ATOM     36  C   UNL A   1      40.551  25.277  27.240  1.00  0.00    -0.014 A 
BRANCH  36  37
ATOM     37  C   UNL A   1      41.239  26.541  27.604  1.00  0.00     0.031 A 
ATOM     38  C   UNL A   1      42.680  26.753  27.233  1.00  0.00     0.074 A 
ATOM     39  C   UNL A   1      40.582  27.475  28.317  1.00  0.00     0.049 A 
ATOM     40  N   UNL A   1      43.467  27.762  27.512  1.00  0.00    -0.248 NA
ATOM     41  C   UNL A   1      43.329  25.679  26.466  1.00  0.00     0.031 C 
ATOM     42  C   UNL A   1      39.196  27.368  28.776  1.00  0.00     0.029 A 
ATOM     43  N   UNL A   1      40.996  28.694  28.792  1.00  0.00    -0.354 N 
ATOM     44  C   UNL A   1      44.703  27.437  26.972  1.00  0.00     0.074 A 
ATOM     45  C   UNL A   1      44.575  26.121  26.384  1.00  0.00     0.031 C 
ATOM     46  C   UNL A   1      38.870  28.481  29.451  1.00  0.00     0.029 A 
ATOM     47  C   UNL A   1      40.029  29.367  29.498  1.00  0.00     0.049 A 
ATOM     48  H   UNL A   1      41.901  29.052  28.641  1.00  0.00     0.167 HD
ATOM     49  C   UNL A   1      45.838  28.177  26.953  1.00  0.00     0.037 A 
ATOM     50  C   UNL A   1      40.075  30.563  30.114  1.00  0.00     0.037 A 
ATOM     51  C   UNL A   1      45.956  29.499  27.508  1.00  0.00     0.049 A 
ATOM     52  C   UNL A   1      41.341  31.372  30.062  1.00  0.00     0.074 A 
ATOM     53  C   UNL A   1      47.043  30.355  27.478  1.00  0.00     0.029 A 
ATOM     54  N   UNL A   1      44.947  30.159  28.193  1.00  0.00    -0.354 N 
ATOM     55  N   UNL A   1      42.486  31.080  29.495  1.00  0.00    -0.248 NA
ATOM     56  C   UNL A   1      41.318  32.681  30.730  1.00  0.00     0.031 C 
ATOM     57  C   UNL A   1      46.702  31.520  28.174  1.00  0.00     0.029 A 
ATOM     58  C   UNL A   1      45.390  31.404  28.606  1.00  0.00     0.049 A 
ATOM     59  H   UNL A   1      44.047  29.796  28.361  1.00  0.00     0.167 HD
ATOM     60  C   UNL A   1      43.311  32.173  29.718  1.00  0.00     0.074 A 
ATOM     61  C   UNL A   1      42.532  33.141  30.461  1.00  0.00     0.031 C 
ATOM     62  C   UNL A   1      44.600  32.357  29.341  1.00  0.00     0.037 A 
BRANCH  49  63
ATOM     63  C   UNL A   1      47.046  27.573  26.301  1.00  0.00     0.064 A 
ATOM     64  C   UNL A   1      47.256  27.665  24.917  1.00  0.00     0.173 A 
ATOM     65  C   UNL A   1      48.023  26.926  27.073  1.00  0.00     0.173 A 
ATOM     66  F   UNL A   1      46.344  28.263  24.135  1.00  0.00    -0.203 F 
ATOM     67  C   UNL A   1      48.386  27.108  24.326  1.00  0.00     0.198 A 
ATOM     68  C   UNL A   1      49.165  26.393  26.481  1.00  0.00     0.198 A 
ATOM     69  F   UNL A   1      47.872  26.816  28.401  1.00  0.00    -0.203 F 
ATOM     70  F   UNL A   1      48.545  27.170  22.996  1.00  0.00    -0.200 F 
ATOM     71  C   UNL A   1      49.343  26.479  25.108  1.00  0.00     0.200 A 
ATOM     72  F   UNL A   1      50.093  25.793  27.240  1.00  0.00    -0.200 F 
ATOM     73  F   UNL A   1      50.434  25.947  24.538  1.00  0.00    -0.200 F 
ENDBRANCH  49  63
BRANCH  50  74
ATOM     74  C   UNL A   1      38.870  31.081  30.808  1.00  0.00     0.064 A 
ATOM     75  C   UNL A   1      37.866  31.754  30.097  1.00  0.00     0.173 A 
ATOM     76  C   UNL A   1      38.694  30.913  32.189  1.00  0.00     0.173 A 
ATOM     77  F   UNL A   1      38.002  31.955  28.778  1.00  0.00    -0.203 F 
ATOM     78  C   UNL A   1      36.738  32.251  30.744  1.00  0.00     0.198 A 
ATOM     79  C   UNL A   1      37.554  31.391  32.830  1.00  0.00     0.198 A 
ATOM     80  F   UNL A   1      39.624  30.273  32.911  1.00  0.00    -0.203 F 
ATOM     81  F   UNL A   1      35.811  32.923  30.046  1.00  0.00    -0.200 F 
ATOM     82  C   UNL A   1      36.580  32.065  32.109  1.00  0.00     0.200 A 
ATOM     83  F   UNL A   1      37.399  31.200  34.147  1.00  0.00    -0.200 F 
ATOM     84  F   UNL A   1      35.492  32.540  32.730  1.00  0.00    -0.200 F 
ENDBRANCH  50  74
BRANCH  62  85
ATOM     85  C   UNL A   1      45.240  33.662  29.707  1.00  0.00     0.064 A 
ATOM     86  C   UNL A   1      45.155  34.779  28.863  1.00  0.00     0.173 A 
ATOM     87  C   UNL A   1      45.915  33.807  30.927  1.00  0.00     0.173 A 
ATOM     88  F   UNL A   1      44.535  34.684  27.677  1.00  0.00    -0.203 F 
ATOM     89  C   UNL A   1      45.741  35.990  29.221  1.00  0.00     0.198 A 
ATOM     90  C   UNL A   1      46.478  35.026  31.293  1.00  0.00     0.198 A 
ATOM     91  F   UNL A   1      46.019  32.768  31.769  1.00  0.00    -0.203 F 
ATOM     92  F   UNL A   1      45.682  37.035  28.383  1.00  0.00    -0.200 F 
ATOM     93  C   UNL A   1      46.396  36.115  30.437  1.00  0.00     0.200 A 
ATOM     94  F   UNL A   1      47.104  35.147  32.472  1.00  0.00    -0.200 F 
ATOM     95  F   UNL A   1      46.955  37.283  30.782  1.00  0.00    -0.200 F 
ENDBRANCH  62  85
ENDBRANCH  36  37
ENDBRANCH  28  31
ENDBRANCH  26  27
ENDBRANCH  25  26
ENDBRANCH  24  25
ENDBRANCH  23  24
ENDBRANCH   1  23
TORSDOF 17
ENDMDL
