MODEL 1
REMARK VINA RESULT:     -11.9      0.000      0.000
REMARK SMILES COc1ccc([C@H]2CC(c3ccccc3)=NN2C(=O)CCCC(=O)NCCCCCCNC(=O)c2ccc(-c3c4nc(c(-c5c(F)c(F)c(F)c(F)c5F)c5ccc([nH]5)c(-c5c(F)c(F)c(F)c(F)c5F)c5nc(c(-c6c(F)c(F)c(F)c(F)c6F)c6ccc3[nH]6)C=C5)C=C4)cc2)cc1
REMARK SMILES IDX 26 1 25 2 23 3 24 4 22 6 21 7 20 8 18 9 19 10 17 11 7 12
REMARK SMILES IDX 8 13 9 14 16 15 6 16 3 17 4 18 99 19 5 20 98 21 2 22 1 23
REMARK SMILES IDX 10 24 11 25 15 26 12 27 14 28 13 29 27 30 28 31 29 32 30 33
REMARK SMILES IDX 31 34 32 35 33 36 34 38 35 39 36 40 97 41 37 42 96 43 38 44
REMARK SMILES IDX 39 45 40 46 90 47 41 48 95 49 89 50 91 51 42 52 94 53 88 54
REMARK SMILES IDX 87 55 43 57 75 58 55 59 74 60 56 61 59 62 73 63 92 64 57 65
REMARK SMILES IDX 58 66 72 68 93 69 60 70 44 71 45 72 53 73 46 74 47 75 51 76
REMARK SMILES IDX 54 77 48 78 49 79 52 80 50 81 76 82 77 83 85 84 78 85 79 86
REMARK SMILES IDX 83 87 86 88 80 89 81 90 84 91 82 92 61 93 62 94 70 95 63 96
REMARK SMILES IDX 64 97 68 98 71 99 65 100 66 101 69 102 67 103
REMARK H PARENT 25 5 32 37 91 56 59 67
REMARK Flexibility Score: inf
ROOT
ATOM      1  C   UNL A   1      34.907  29.916  27.534  1.00  0.00     0.116 C 
ENDROOT
BRANCH   1   2
ATOM      2  N   UNL A   1      33.596  29.894  26.948  1.00  0.00    -0.356 N 
ATOM      3  C   UNL A   1      33.199  29.404  25.748  1.00  0.00     0.220 C 
ATOM      4  O   UNL A   1      32.143  29.861  25.298  1.00  0.00    -0.275 OA
ATOM      5  H   UNL A   1      32.882  30.291  27.498  1.00  0.00     0.163 HD
BRANCH   3   6
ATOM      6  C   UNL A   1      33.846  28.197  25.094  1.00  0.00     0.100 C 
BRANCH   6   7
ATOM      7  C   UNL A   1      33.416  26.754  25.104  1.00  0.00     0.020 C 
BRANCH   7   8
ATOM      8  C   UNL A   1      34.286  25.641  25.673  1.00  0.00     0.103 C 
BRANCH   8   9
ATOM      9  C   UNL A   1      34.512  24.172  25.230  1.00  0.00     0.243 C 
ATOM     10  O   UNL A   1      35.717  23.901  25.039  1.00  0.00    -0.273 OA
BRANCH   9  11
ATOM     11  N   UNL A   1      33.593  23.128  25.234  1.00  0.00    -0.225 N 
ATOM     12  C   UNL A   1      32.199  22.911  25.729  1.00  0.00     0.147 C 
ATOM     13  C   UNL A   1      31.873  21.455  25.406  1.00  0.00     0.091 C 
ATOM     14  C   UNL A   1      33.132  21.057  24.718  1.00  0.00     0.071 C 
ATOM     15  N   UNL A   1      34.059  21.953  24.643  1.00  0.00    -0.174 NA
BRANCH  12  16
ATOM     16  C   UNL A   1      31.129  23.811  25.132  1.00  0.00    -0.023 A 
ATOM     17  C   UNL A   1      29.749  25.967  24.039  1.00  0.00     0.118 A 
ATOM     18  C   UNL A   1      29.864  25.866  25.421  1.00  0.00     0.047 A 
ATOM     19  C   UNL A   1      30.201  24.944  23.208  1.00  0.00     0.047 A 
ATOM     20  C   UNL A   1      30.503  24.759  25.975  1.00  0.00     0.010 A 
ATOM     21  C   UNL A   1      30.884  23.855  23.755  1.00  0.00     0.010 A 
BRANCH  17  22
ATOM     22  O   UNL A   1      29.361  27.170  23.518  1.00  0.00    -0.497 OA
ATOM     23  C   UNL A   1      30.450  27.841  22.896  1.00  0.00     0.278 C 
ENDBRANCH  17  22
ENDBRANCH  12  16
BRANCH  14  24
ATOM     24  C   UNL A   1      33.275  19.711  24.162  1.00  0.00    -0.002 A 
ATOM     25  C   UNL A   1      32.346  19.230  23.239  1.00  0.00     0.010 A 
ATOM     26  C   UNL A   1      34.334  18.915  24.600  1.00  0.00     0.010 A 
ATOM     27  C   UNL A   1      32.490  17.935  22.740  1.00  0.00     0.001 A 
ATOM     28  C   UNL A   1      34.463  17.618  24.109  1.00  0.00     0.001 A 
ATOM     29  C   UNL A   1      33.545  17.130  23.178  1.00  0.00     0.000 A 
ENDBRANCH  14  24
ENDBRANCH   9  11
ENDBRANCH   8   9
ENDBRANCH   7   8
ENDBRANCH   6   7
ENDBRANCH   3   6
ENDBRANCH   1   2
BRANCH   1  30
ATOM     30  C   UNL A   1      34.999  31.075  28.514  1.00  0.00     0.021 C 
BRANCH  30  31
ATOM     31  C   UNL A   1      34.077  32.220  28.085  1.00  0.00     0.002 C 
BRANCH  31  32
ATOM     32  C   UNL A   1      34.403  33.554  28.771  1.00  0.00     0.002 C 
BRANCH  32  33
ATOM     33  C   UNL A   1      33.218  34.517  28.854  1.00  0.00     0.021 C 
BRANCH  33  34
ATOM     34  C   UNL A   1      33.547  35.820  29.569  1.00  0.00     0.116 C 
BRANCH  34  35
ATOM     35  N   UNL A   1      32.633  36.055  30.678  1.00  0.00    -0.352 N 
ATOM     36  C   UNL A   1      32.657  35.509  31.928  1.00  0.00     0.251 C 
ATOM     37  H   UNL A   1      31.902  36.691  30.502  1.00  0.00     0.163 HD
ATOM     38  O   UNL A   1      31.683  35.591  32.674  1.00  0.00    -0.269 OA
BRANCH  36  39
ATOM     39  C   UNL A   1      33.875  34.813  32.365  1.00  0.00     0.039 A 
ATOM     40  C   UNL A   1      33.811  33.453  32.664  1.00  0.00     0.014 A 
ATOM     41  C   UNL A   1      35.083  35.515  32.446  1.00  0.00     0.014 A 
ATOM     42  C   UNL A   1      34.978  32.782  33.018  1.00  0.00     0.010 A 
ATOM     43  C   UNL A   1      36.255  34.826  32.717  1.00  0.00     0.010 A 
ATOM     44  C   UNL A   1      36.209  33.459  33.024  1.00  0.00    -0.014 A 
BRANCH  44  45
ATOM     45  C   UNL A   1      37.461  32.752  33.373  1.00  0.00     0.031 A 
ATOM     46  C   UNL A   1      38.163  33.069  34.662  1.00  0.00     0.074 A 
ATOM     47  C   UNL A   1      37.989  31.874  32.501  1.00  0.00     0.049 A 
ATOM     48  N   UNL A   1      39.287  32.591  35.131  1.00  0.00    -0.248 NA
ATOM     49  C   UNL A   1      37.535  34.081  35.526  1.00  0.00     0.031 C 
ATOM     50  C   UNL A   1      37.423  31.542  31.192  1.00  0.00     0.029 A 
ATOM     51  N   UNL A   1      39.124  31.112  32.578  1.00  0.00    -0.354 N 
ATOM     52  C   UNL A   1      39.507  33.256  36.329  1.00  0.00     0.074 A 
ATOM     53  C   UNL A   1      38.435  34.212  36.488  1.00  0.00     0.031 C 
ATOM     54  C   UNL A   1      38.202  30.626  30.598  1.00  0.00     0.029 A 
ATOM     55  C   UNL A   1      39.341  30.339  31.464  1.00  0.00     0.049 A 
ATOM     56  H   UNL A   1      39.726  31.117  33.357  1.00  0.00     0.167 HD
ATOM     57  C   UNL A   1      40.504  33.066  37.225  1.00  0.00     0.037 A 
ATOM     58  C   UNL A   1      40.354  29.501  31.173  1.00  0.00     0.037 A 
ATOM     59  C   UNL A   1      41.553  32.096  37.061  1.00  0.00     0.049 A 
ATOM     60  C   UNL A   1      41.444  29.298  32.189  1.00  0.00     0.074 A 
ATOM     61  C   UNL A   1      42.565  31.762  37.942  1.00  0.00     0.029 A 
ATOM     62  N   UNL A   1      41.729  31.308  35.931  1.00  0.00    -0.354 N 
ATOM     63  N   UNL A   1      41.595  29.861  33.364  1.00  0.00    -0.248 NA
ATOM     64  C   UNL A   1      42.498  28.337  31.845  1.00  0.00     0.031 C 
ATOM     65  C   UNL A   1      43.393  30.822  37.319  1.00  0.00     0.029 A 
ATOM     66  C   UNL A   1      42.856  30.515  36.079  1.00  0.00     0.049 A 
ATOM     67  H   UNL A   1      41.141  31.312  35.142  1.00  0.00     0.167 HD
ATOM     68  C   UNL A   1      42.745  29.309  33.909  1.00  0.00     0.074 A 
ATOM     69  C   UNL A   1      43.242  28.349  32.942  1.00  0.00     0.031 C 
ATOM     70  C   UNL A   1      43.337  29.569  35.102  1.00  0.00     0.037 A 
BRANCH  57  71
ATOM     71  C   UNL A   1      40.512  33.935  38.451  1.00  0.00     0.064 A 
ATOM     72  C   UNL A   1      41.238  35.136  38.505  1.00  0.00     0.173 A 
ATOM     73  C   UNL A   1      39.768  33.570  39.583  1.00  0.00     0.173 A 
ATOM     74  F   UNL A   1      41.977  35.527  37.456  1.00  0.00    -0.203 F 
ATOM     75  C   UNL A   1      41.249  35.917  39.659  1.00  0.00     0.198 A 
ATOM     76  C   UNL A   1      39.752  34.372  40.721  1.00  0.00     0.198 A 
ATOM     77  F   UNL A   1      39.051  32.437  39.586  1.00  0.00    -0.203 F 
ATOM     78  F   UNL A   1      42.000  37.026  39.708  1.00  0.00    -0.200 F 
ATOM     79  C   UNL A   1      40.501  35.538  40.762  1.00  0.00     0.200 A 
ATOM     80  F   UNL A   1      39.016  34.012  41.782  1.00  0.00    -0.200 F 
ATOM     81  F   UNL A   1      40.508  36.293  41.870  1.00  0.00    -0.200 F 
ENDBRANCH  57  71
BRANCH  58  82
ATOM     82  C   UNL A   1      40.364  28.785  29.872  1.00  0.00     0.064 A 
ATOM     83  C   UNL A   1      39.671  27.579  29.702  1.00  0.00     0.173 A 
ATOM     84  C   UNL A   1      41.051  29.304  28.763  1.00  0.00     0.173 A 
ATOM     85  F   UNL A   1      39.012  27.034  30.734  1.00  0.00    -0.203 F 
ATOM     86  C   UNL A   1      39.679  26.910  28.479  1.00  0.00     0.198 A 
ATOM     87  C   UNL A   1      41.033  28.651  27.533  1.00  0.00     0.198 A 
ATOM     88  F   UNL A   1      41.722  30.460  28.871  1.00  0.00    -0.203 F 
ATOM     89  F   UNL A   1      39.041  25.738  28.355  1.00  0.00    -0.200 F 
ATOM     90  C   UNL A   1      40.353  27.451  27.394  1.00  0.00     0.200 A 
ATOM     91  F   UNL A   1      41.668  29.187  26.482  1.00  0.00    -0.200 F 
ATOM     92  F   UNL A   1      40.350  26.813  26.215  1.00  0.00    -0.200 F 
ENDBRANCH  58  82
BRANCH  70  93
ATOM     93  C   UNL A   1      44.573  28.787  35.441  1.00  0.00     0.064 A 
ATOM     94  C   UNL A   1      44.508  27.548  36.095  1.00  0.00     0.173 A 
ATOM     95  C   UNL A   1      45.839  29.266  35.066  1.00  0.00     0.173 A 
ATOM     96  F   UNL A   1      43.325  27.053  36.488  1.00  0.00    -0.203 F 
ATOM     97  C   UNL A   1      45.665  26.832  36.387  1.00  0.00     0.198 A 
ATOM     98  C   UNL A   1      46.990  28.530  35.328  1.00  0.00     0.198 A 
ATOM     99  F   UNL A   1      45.957  30.441  34.431  1.00  0.00    -0.203 F 
ATOM    100  F   UNL A   1      45.583  25.676  37.060  1.00  0.00    -0.200 F 
ATOM    101  C   UNL A   1      46.904  27.317  35.995  1.00  0.00     0.200 A 
ATOM    102  F   UNL A   1      48.184  28.993  34.932  1.00  0.00    -0.200 F 
ATOM    103  F   UNL A   1      48.015  26.621  36.268  1.00  0.00    -0.200 F 
ENDBRANCH  70  93
ENDBRANCH  44  45
ENDBRANCH  36  39
ENDBRANCH  34  35
ENDBRANCH  33  34
ENDBRANCH  32  33
ENDBRANCH  31  32
ENDBRANCH  30  31
ENDBRANCH   1  30
TORSDOF 20
ENDMDL
MODEL 2
REMARK VINA RESULT:     -11.8      1.043      2.068
REMARK SMILES COc1ccc([C@H]2CC(c3ccccc3)=NN2C(=O)CCCC(=O)NCCCCCCNC(=O)c2ccc(-c3c4nc(c(-c5c(F)c(F)c(F)c(F)c5F)c5ccc([nH]5)c(-c5c(F)c(F)c(F)c(F)c5F)c5nc(c(-c6c(F)c(F)c(F)c(F)c6F)c6ccc3[nH]6)C=C5)C=C4)cc2)cc1
REMARK SMILES IDX 26 1 25 2 23 3 24 4 22 6 21 7 20 8 18 9 19 10 17 11 7 12
REMARK SMILES IDX 8 13 9 14 16 15 6 16 3 17 4 18 99 19 5 20 98 21 2 22 1 23
REMARK SMILES IDX 10 24 11 25 15 26 12 27 14 28 13 29 27 30 28 31 29 32 30 33
REMARK SMILES IDX 31 34 32 35 33 36 34 38 35 39 36 40 97 41 37 42 96 43 38 44
REMARK SMILES IDX 39 45 40 46 90 47 41 48 95 49 89 50 91 51 42 52 94 53 88 54
REMARK SMILES IDX 87 55 43 57 75 58 55 59 74 60 56 61 59 62 73 63 92 64 57 65
REMARK SMILES IDX 58 66 72 68 93 69 60 70 44 71 45 72 53 73 46 74 47 75 51 76
REMARK SMILES IDX 54 77 48 78 49 79 52 80 50 81 76 82 77 83 85 84 78 85 79 86
REMARK SMILES IDX 83 87 86 88 80 89 81 90 84 91 82 92 61 93 62 94 70 95 63 96
REMARK SMILES IDX 64 97 68 98 71 99 65 100 66 101 69 102 67 103
REMARK H PARENT 25 5 32 37 91 56 59 67
REMARK Flexibility Score: inf
ROOT
ATOM      1  C   UNL A   1      34.710  30.323  27.662  1.00  0.00     0.116 C 
ENDROOT
BRANCH   1   2
ATOM      2  N   UNL A   1      33.304  30.051  27.546  1.00  0.00    -0.356 N 
ATOM      3  C   UNL A   1      32.675  29.033  26.910  1.00  0.00     0.220 C 
ATOM      4  O   UNL A   1      31.497  29.234  26.598  1.00  0.00    -0.275 OA
ATOM      5  H   UNL A   1      32.712  30.698  27.995  1.00  0.00     0.163 HD
BRANCH   3   6
ATOM      6  C   UNL A   1      33.265  27.639  26.798  1.00  0.00     0.100 C 
BRANCH   6   7
ATOM      7  C   UNL A   1      32.814  26.470  25.964  1.00  0.00     0.020 C 
BRANCH   7   8
ATOM      8  C   UNL A   1      31.737  25.496  26.427  1.00  0.00     0.103 C 
BRANCH   8   9
ATOM      9  C   UNL A   1      31.611  23.956  26.305  1.00  0.00     0.243 C 
ATOM     10  O   UNL A   1      31.194  23.417  27.353  1.00  0.00    -0.273 OA
BRANCH   9  11
ATOM     11  N   UNL A   1      31.698  23.180  25.153  1.00  0.00    -0.225 N 
ATOM     12  C   UNL A   1      31.284  23.310  23.723  1.00  0.00     0.147 C 
ATOM     13  C   UNL A   1      31.687  21.996  23.060  1.00  0.00     0.091 C 
ATOM     14  C   UNL A   1      32.329  21.312  24.216  1.00  0.00     0.071 C 
ATOM     15  N   UNL A   1      32.318  21.944  25.342  1.00  0.00    -0.174 NA
BRANCH  12  16
ATOM     16  C   UNL A   1      31.892  24.471  22.952  1.00  0.00    -0.023 A 
ATOM     17  C   UNL A   1      33.042  26.905  22.245  1.00  0.00     0.118 A 
ATOM     18  C   UNL A   1      31.660  26.820  22.375  1.00  0.00     0.047 A 
ATOM     19  C   UNL A   1      33.839  25.765  22.336  1.00  0.00     0.047 A 
ATOM     20  C   UNL A   1      31.075  25.591  22.672  1.00  0.00     0.010 A 
ATOM     21  C   UNL A   1      33.263  24.540  22.680  1.00  0.00     0.010 A 
BRANCH  17  22
ATOM     22  O   UNL A   1      33.605  28.150  22.218  1.00  0.00    -0.497 OA
ATOM     23  C   UNL A   1      32.988  29.019  23.158  1.00  0.00     0.278 C 
ENDBRANCH  17  22
ENDBRANCH  12  16
BRANCH  14  24
ATOM     24  C   UNL A   1      32.936  19.991  24.048  1.00  0.00    -0.002 A 
ATOM     25  C   UNL A   1      32.307  19.024  23.263  1.00  0.00     0.010 A 
ATOM     26  C   UNL A   1      34.130  19.713  24.714  1.00  0.00     0.010 A 
ATOM     27  C   UNL A   1      32.894  17.765  23.135  1.00  0.00     0.001 A 
ATOM     28  C   UNL A   1      34.701  18.448  24.595  1.00  0.00     0.001 A 
ATOM     29  C   UNL A   1      34.086  17.477  23.804  1.00  0.00     0.000 A 
ENDBRANCH  14  24
ENDBRANCH   9  11
ENDBRANCH   8   9
ENDBRANCH   7   8
ENDBRANCH   6   7
ENDBRANCH   3   6
ENDBRANCH   1   2
BRANCH   1  30
ATOM     30  C   UNL A   1      34.918  31.491  28.612  1.00  0.00     0.021 C 
BRANCH  30  31
ATOM     31  C   UNL A   1      34.354  32.783  28.013  1.00  0.00     0.002 C 
BRANCH  31  32
ATOM     32  C   UNL A   1      34.443  33.985  28.963  1.00  0.00     0.002 C 
BRANCH  32  33
ATOM     33  C   UNL A   1      33.133  34.760  29.109  1.00  0.00     0.021 C 
BRANCH  33  34
ATOM     34  C   UNL A   1      33.317  36.153  29.697  1.00  0.00     0.116 C 
BRANCH  34  35
ATOM     35  N   UNL A   1      32.522  36.322  30.905  1.00  0.00    -0.352 N 
ATOM     36  C   UNL A   1      32.653  35.683  32.104  1.00  0.00     0.251 C 
ATOM     37  H   UNL A   1      31.794  36.982  30.848  1.00  0.00     0.163 HD
ATOM     38  O   UNL A   1      31.759  35.728  32.946  1.00  0.00    -0.269 OA
BRANCH  36  39
ATOM     39  C   UNL A   1      33.890  34.935  32.367  1.00  0.00     0.039 A 
ATOM     40  C   UNL A   1      35.116  35.588  32.254  1.00  0.00     0.014 A 
ATOM     41  C   UNL A   1      33.819  33.592  32.753  1.00  0.00     0.014 A 
ATOM     42  C   UNL A   1      36.283  34.895  32.563  1.00  0.00     0.010 A 
ATOM     43  C   UNL A   1      34.975  32.932  33.141  1.00  0.00     0.010 A 
ATOM     44  C   UNL A   1      36.218  33.571  33.030  1.00  0.00    -0.014 A 
BRANCH  44  45
ATOM     45  C   UNL A   1      37.448  32.832  33.387  1.00  0.00     0.031 A 
ATOM     46  C   UNL A   1      38.159  33.142  34.672  1.00  0.00     0.074 A 
ATOM     47  C   UNL A   1      37.949  31.929  32.525  1.00  0.00     0.049 A 
ATOM     48  N   UNL A   1      39.268  32.637  35.147  1.00  0.00    -0.248 NA
ATOM     49  C   UNL A   1      37.561  34.182  35.525  1.00  0.00     0.031 C 
ATOM     50  C   UNL A   1      37.374  31.599  31.220  1.00  0.00     0.029 A 
ATOM     51  N   UNL A   1      39.062  31.134  32.611  1.00  0.00    -0.354 N 
ATOM     52  C   UNL A   1      39.508  33.309  36.338  1.00  0.00     0.074 A 
ATOM     53  C   UNL A   1      38.465  34.298  36.485  1.00  0.00     0.031 C 
ATOM     54  C   UNL A   1      38.126  30.654  30.636  1.00  0.00     0.029 A 
ATOM     55  C   UNL A   1      39.256  30.343  31.506  1.00  0.00     0.049 A 
ATOM     56  H   UNL A   1      39.664  31.130  33.390  1.00  0.00     0.167 HD
ATOM     57  C   UNL A   1      40.499  33.099  37.236  1.00  0.00     0.037 A 
ATOM     58  C   UNL A   1      40.244  29.472  31.225  1.00  0.00     0.037 A 
ATOM     59  C   UNL A   1      41.519  32.096  37.084  1.00  0.00     0.049 A 
ATOM     60  C   UNL A   1      41.327  29.249  32.243  1.00  0.00     0.074 A 
ATOM     61  C   UNL A   1      42.521  31.743  37.969  1.00  0.00     0.029 A 
ATOM     62  N   UNL A   1      41.671  31.291  35.963  1.00  0.00    -0.354 N 
ATOM     63  N   UNL A   1      41.495  29.820  33.412  1.00  0.00    -0.248 NA
ATOM     64  C   UNL A   1      42.352  28.253  31.911  1.00  0.00     0.031 C 
ATOM     65  C   UNL A   1      43.320  30.772  37.356  1.00  0.00     0.029 A 
ATOM     66  C   UNL A   1      42.775  30.467  36.119  1.00  0.00     0.049 A 
ATOM     67  H   UNL A   1      41.083  31.304  35.173  1.00  0.00     0.167 HD
ATOM     68  C   UNL A   1      42.628  29.240  33.964  1.00  0.00     0.074 A 
ATOM     69  C   UNL A   1      43.096  28.256  33.008  1.00  0.00     0.031 C 
ATOM     70  C   UNL A   1      43.227  29.496  35.153  1.00  0.00     0.037 A 
BRANCH  57  71
ATOM     71  C   UNL A   1      40.532  33.981  38.452  1.00  0.00     0.064 A 
ATOM     72  C   UNL A   1      41.295  35.160  38.494  1.00  0.00     0.173 A 
ATOM     73  C   UNL A   1      39.776  33.652  39.587  1.00  0.00     0.173 A 
ATOM     74  F   UNL A   1      42.046  35.516  37.441  1.00  0.00    -0.203 F 
ATOM     75  C   UNL A   1      41.329  35.953  39.638  1.00  0.00     0.198 A 
ATOM     76  C   UNL A   1      39.785  34.467  40.716  1.00  0.00     0.198 A 
ATOM     77  F   UNL A   1      39.025  32.541  39.602  1.00  0.00    -0.203 F 
ATOM     78  F   UNL A   1      42.113  37.039  39.676  1.00  0.00    -0.200 F 
ATOM     79  C   UNL A   1      40.568  35.610  40.746  1.00  0.00     0.200 A 
ATOM     80  F   UNL A   1      39.036  34.142  41.780  1.00  0.00    -0.200 F 
ATOM     81  F   UNL A   1      40.598  36.376  41.845  1.00  0.00    -0.200 F 
ENDBRANCH  57  71
BRANCH  58  82
ATOM     82  C   UNL A   1      40.233  28.741  29.931  1.00  0.00     0.064 A 
ATOM     83  C   UNL A   1      40.910  29.241  28.811  1.00  0.00     0.173 A 
ATOM     84  C   UNL A   1      39.562  27.517  29.795  1.00  0.00     0.173 A 
ATOM     85  F   UNL A   1      41.554  30.414  28.885  1.00  0.00    -0.203 F 
ATOM     86  C   UNL A   1      40.902  28.552  27.599  1.00  0.00     0.198 A 
ATOM     87  C   UNL A   1      39.581  26.814  28.593  1.00  0.00     0.198 A 
ATOM     88  F   UNL A   1      38.906  26.990  30.840  1.00  0.00    -0.203 F 
ATOM     89  F   UNL A   1      41.525  29.072  26.532  1.00  0.00    -0.200 F 
ATOM     90  C   UNL A   1      40.244  27.336  27.494  1.00  0.00     0.200 A 
ATOM     91  F   UNL A   1      38.961  25.629  28.501  1.00  0.00    -0.200 F 
ATOM     92  F   UNL A   1      40.247  26.668  26.331  1.00  0.00    -0.200 F 
ENDBRANCH  58  82
BRANCH  70  93
ATOM     93  C   UNL A   1      44.440  28.682  35.502  1.00  0.00     0.064 A 
ATOM     94  C   UNL A   1      45.736  29.111  35.182  1.00  0.00     0.173 A 
ATOM     95  C   UNL A   1      44.302  27.474  36.205  1.00  0.00     0.173 A 
ATOM     96  F   UNL A   1      45.920  30.250  34.497  1.00  0.00    -0.203 F 
ATOM     97  C   UNL A   1      46.848  28.348  35.527  1.00  0.00     0.198 A 
ATOM     98  C   UNL A   1      45.419  26.732  36.580  1.00  0.00     0.198 A 
ATOM     99  F   UNL A   1      43.087  27.022  36.544  1.00  0.00    -0.203 F 
ATOM    100  F   UNL A   1      48.073  28.752  35.163  1.00  0.00    -0.200 F 
ATOM    101  C   UNL A   1      46.690  27.165  36.234  1.00  0.00     0.200 A 
ATOM    102  F   UNL A   1      45.264  25.599  37.278  1.00  0.00    -0.200 F 
ATOM    103  F   UNL A   1      47.762  26.438  36.574  1.00  0.00    -0.200 F 
ENDBRANCH  70  93
ENDBRANCH  44  45
ENDBRANCH  36  39
ENDBRANCH  34  35
ENDBRANCH  33  34
ENDBRANCH  32  33
ENDBRANCH  31  32
ENDBRANCH  30  31
ENDBRANCH   1  30
TORSDOF 20
ENDMDL
MODEL 3
REMARK VINA RESULT:     -11.8      0.576      7.059
REMARK SMILES COc1ccc([C@H]2CC(c3ccccc3)=NN2C(=O)CCCC(=O)NCCCCCCNC(=O)c2ccc(-c3c4nc(c(-c5c(F)c(F)c(F)c(F)c5F)c5ccc([nH]5)c(-c5c(F)c(F)c(F)c(F)c5F)c5nc(c(-c6c(F)c(F)c(F)c(F)c6F)c6ccc3[nH]6)C=C5)C=C4)cc2)cc1
REMARK SMILES IDX 26 1 25 2 23 3 24 4 22 6 21 7 20 8 18 9 19 10 17 11 7 12
REMARK SMILES IDX 8 13 9 14 16 15 6 16 3 17 4 18 99 19 5 20 98 21 2 22 1 23
REMARK SMILES IDX 10 24 11 25 15 26 12 27 14 28 13 29 27 30 28 31 29 32 30 33
REMARK SMILES IDX 31 34 32 35 33 36 34 38 35 39 36 40 97 41 37 42 96 43 38 44
REMARK SMILES IDX 39 45 40 46 90 47 41 48 95 49 89 50 91 51 42 52 94 53 88 54
REMARK SMILES IDX 87 55 43 57 75 58 55 59 74 60 56 61 59 62 73 63 92 64 57 65
REMARK SMILES IDX 58 66 72 68 93 69 60 70 44 71 45 72 53 73 46 74 47 75 51 76
REMARK SMILES IDX 54 77 48 78 49 79 52 80 50 81 76 82 77 83 85 84 78 85 79 86
REMARK SMILES IDX 83 87 86 88 80 89 81 90 84 91 82 92 61 93 62 94 70 95 63 96
REMARK SMILES IDX 64 97 68 98 71 99 65 100 66 101 69 102 67 103
REMARK H PARENT 25 5 32 37 91 56 59 67
REMARK Flexibility Score: inf
ROOT
ATOM      1  C   UNL A   1      35.326  29.697  27.702  1.00  0.00     0.116 C 
ENDROOT
BRANCH   1   2
ATOM      2  N   UNL A   1      33.927  29.372  27.687  1.00  0.00    -0.356 N 
ATOM      3  C   UNL A   1      33.142  28.997  26.647  1.00  0.00     0.220 C 
ATOM      4  O   UNL A   1      31.929  29.176  26.792  1.00  0.00    -0.275 OA
ATOM      5  H   UNL A   1      33.472  29.429  28.559  1.00  0.00     0.163 HD
BRANCH   3   6
ATOM      6  C   UNL A   1      33.658  28.179  25.477  1.00  0.00     0.100 C 
BRANCH   6   7
ATOM      7  C   UNL A   1      33.426  26.730  25.143  1.00  0.00     0.020 C 
BRANCH   7   8
ATOM      8  C   UNL A   1      34.314  25.611  25.672  1.00  0.00     0.103 C 
BRANCH   8   9
ATOM      9  C   UNL A   1      34.530  24.148  25.204  1.00  0.00     0.243 C 
ATOM     10  O   UNL A   1      35.727  23.886  24.963  1.00  0.00    -0.273 OA
BRANCH   9  11
ATOM     11  N   UNL A   1      33.616  23.100  25.231  1.00  0.00    -0.225 N 
ATOM     12  C   UNL A   1      32.225  22.885  25.735  1.00  0.00     0.147 C 
ATOM     13  C   UNL A   1      31.905  21.422  25.441  1.00  0.00     0.091 C 
ATOM     14  C   UNL A   1      33.164  21.017  24.756  1.00  0.00     0.071 C 
ATOM     15  N   UNL A   1      34.086  21.917  24.660  1.00  0.00    -0.174 NA
BRANCH  12  16
ATOM     16  C   UNL A   1      31.147  23.768  25.125  1.00  0.00    -0.023 A 
ATOM     17  C   UNL A   1      29.753  25.896  23.996  1.00  0.00     0.118 A 
ATOM     18  C   UNL A   1      29.874  25.822  25.379  1.00  0.00     0.047 A 
ATOM     19  C   UNL A   1      30.206  24.858  23.183  1.00  0.00     0.047 A 
ATOM     20  C   UNL A   1      30.521  24.729  25.952  1.00  0.00     0.010 A 
ATOM     21  C   UNL A   1      30.897  23.784  23.748  1.00  0.00     0.010 A 
BRANCH  17  22
ATOM     22  O   UNL A   1      29.357  27.087  23.453  1.00  0.00    -0.497 OA
ATOM     23  C   UNL A   1      30.255  28.135  23.791  1.00  0.00     0.278 C 
ENDBRANCH  17  22
ENDBRANCH  12  16
BRANCH  14  24
ATOM     24  C   UNL A   1      33.312  19.661  24.225  1.00  0.00    -0.002 A 
ATOM     25  C   UNL A   1      34.391  18.869  24.619  1.00  0.00     0.010 A 
ATOM     26  C   UNL A   1      32.378  19.199  23.298  1.00  0.00     0.010 A 
ATOM     27  C   UNL A   1      34.525  17.587  24.083  1.00  0.00     0.001 A 
ATOM     28  C   UNL A   1      32.527  17.924  22.755  1.00  0.00     0.001 A 
ATOM     29  C   UNL A   1      33.596  17.119  23.150  1.00  0.00     0.000 A 
ENDBRANCH  14  24
ENDBRANCH   9  11
ENDBRANCH   8   9
ENDBRANCH   7   8
ENDBRANCH   6   7
ENDBRANCH   3   6
ENDBRANCH   1   2
BRANCH   1  30
ATOM     30  C   UNL A   1      35.538  30.963  28.515  1.00  0.00     0.021 C 
BRANCH  30  31
ATOM     31  C   UNL A   1      34.506  32.029  28.137  1.00  0.00     0.002 C 
BRANCH  31  32
ATOM     32  C   UNL A   1      34.642  33.324  28.948  1.00  0.00     0.002 C 
BRANCH  32  33
ATOM     33  C   UNL A   1      33.395  34.209  28.920  1.00  0.00     0.021 C 
BRANCH  33  34
ATOM     34  C   UNL A   1      33.618  35.587  29.528  1.00  0.00     0.116 C 
BRANCH  34  35
ATOM     35  N   UNL A   1      32.670  35.847  30.602  1.00  0.00    -0.352 N 
ATOM     36  C   UNL A   1      32.691  35.380  31.884  1.00  0.00     0.251 C 
ATOM     37  H   UNL A   1      31.915  36.436  30.372  1.00  0.00     0.163 HD
ATOM     38  O   UNL A   1      31.698  35.463  32.604  1.00  0.00    -0.269 OA
BRANCH  36  39
ATOM     39  C   UNL A   1      33.929  34.770  32.387  1.00  0.00     0.039 A 
ATOM     40  C   UNL A   1      33.924  33.425  32.752  1.00  0.00     0.014 A 
ATOM     41  C   UNL A   1      35.098  35.535  32.464  1.00  0.00     0.014 A 
ATOM     42  C   UNL A   1      35.112  32.832  33.170  1.00  0.00     0.010 A 
ATOM     43  C   UNL A   1      36.295  34.922  32.799  1.00  0.00     0.010 A 
ATOM     44  C   UNL A   1      36.308  33.571  33.174  1.00  0.00    -0.014 A 
BRANCH  44  45
ATOM     45  C   UNL A   1      37.583  32.947  33.591  1.00  0.00     0.031 A 
ATOM     46  C   UNL A   1      38.266  31.966  32.682  1.00  0.00     0.074 A 
ATOM     47  C   UNL A   1      38.086  33.222  34.808  1.00  0.00     0.049 A 
ATOM     48  N   UNL A   1      39.364  31.283  32.878  1.00  0.00    -0.248 NA
ATOM     49  C   UNL A   1      37.611  31.690  31.393  1.00  0.00     0.031 C 
ATOM     50  C   UNL A   1      37.469  34.110  35.794  1.00  0.00     0.029 A 
ATOM     51  N   UNL A   1      39.224  32.773  35.426  1.00  0.00    -0.354 N 
ATOM     52  C   UNL A   1      39.518  30.488  31.750  1.00  0.00     0.074 A 
ATOM     53  C   UNL A   1      38.374  30.727  30.902  1.00  0.00     0.031 C 
ATOM     54  C   UNL A   1      38.246  34.158  36.886  1.00  0.00     0.029 A 
ATOM     55  C   UNL A   1      39.392  33.274  36.693  1.00  0.00     0.049 A 
ATOM     56  H   UNL A   1      39.859  32.152  35.002  1.00  0.00     0.167 HD
ATOM     57  C   UNL A   1      40.538  29.652  31.445  1.00  0.00     0.037 A 
ATOM     58  C   UNL A   1      40.359  33.036  37.599  1.00  0.00     0.037 A 
ATOM     59  C   UNL A   1      41.681  29.440  32.292  1.00  0.00     0.049 A 
ATOM     60  C   UNL A   1      41.487  32.112  37.232  1.00  0.00     0.074 A 
ATOM     61  C   UNL A   1      42.810  28.681  32.045  1.00  0.00     0.029 A 
ATOM     62  N   UNL A   1      41.835  29.985  33.560  1.00  0.00    -0.354 N 
ATOM     63  N   UNL A   1      41.676  31.437  36.123  1.00  0.00    -0.248 NA
ATOM     64  C   UNL A   1      42.542  31.925  38.235  1.00  0.00     0.031 C 
ATOM     65  C   UNL A   1      43.614  28.711  33.189  1.00  0.00     0.029 A 
ATOM     66  C   UNL A   1      43.023  29.548  34.122  1.00  0.00     0.049 A 
ATOM     67  H   UNL A   1      41.193  30.592  33.996  1.00  0.00     0.167 HD
ATOM     68  C   UNL A   1      42.878  30.763  36.284  1.00  0.00     0.074 A 
ATOM     69  C   UNL A   1      43.385  31.129  37.593  1.00  0.00     0.031 C 
ATOM     70  C   UNL A   1      43.508  29.920  35.429  1.00  0.00     0.037 A 
BRANCH  57  71
ATOM     71  C   UNL A   1      40.454  28.897  30.148  1.00  0.00     0.064 A 
ATOM     72  C   UNL A   1      39.742  27.691  30.037  1.00  0.00     0.173 A 
ATOM     73  C   UNL A   1      41.078  29.395  28.995  1.00  0.00     0.173 A 
ATOM     74  F   UNL A   1      39.135  27.162  31.110  1.00  0.00    -0.203 F 
ATOM     75  C   UNL A   1      39.693  26.996  28.831  1.00  0.00     0.198 A 
ATOM     76  C   UNL A   1      40.996  28.716  27.783  1.00  0.00     0.198 A 
ATOM     77  F   UNL A   1      41.767  30.545  29.042  1.00  0.00    -0.203 F 
ATOM     78  F   UNL A   1      39.060  25.816  28.765  1.00  0.00    -0.200 F 
ATOM     79  C   UNL A   1      40.313  27.512  27.704  1.00  0.00     0.200 A 
ATOM     80  F   UNL A   1      41.584  29.225  26.691  1.00  0.00    -0.200 F 
ATOM     81  F   UNL A   1      40.262  26.844  26.543  1.00  0.00    -0.200 F 
ENDBRANCH  57  71
BRANCH  58  82
ATOM     82  C   UNL A   1      40.302  33.700  38.926  1.00  0.00     0.064 A 
ATOM     83  C   UNL A   1      39.494  33.197  39.955  1.00  0.00     0.173 A 
ATOM     84  C   UNL A   1      41.071  34.842  39.200  1.00  0.00     0.173 A 
ATOM     85  F   UNL A   1      38.729  32.118  39.738  1.00  0.00    -0.203 F 
ATOM     86  C   UNL A   1      39.444  33.819  41.201  1.00  0.00     0.198 A 
ATOM     87  C   UNL A   1      41.044  35.445  40.455  1.00  0.00     0.198 A 
ATOM     88  F   UNL A   1      41.867  35.358  38.253  1.00  0.00    -0.203 F 
ATOM     89  F   UNL A   1      38.633  33.340  42.155  1.00  0.00    -0.200 F 
ATOM     90  C   UNL A   1      40.225  34.938  41.452  1.00  0.00     0.200 A 
ATOM     91  F   UNL A   1      41.815  36.513  40.701  1.00  0.00    -0.200 F 
ATOM     92  F   UNL A   1      40.186  35.528  42.655  1.00  0.00    -0.200 F 
ENDBRANCH  58  82
BRANCH  70  93
ATOM     93  C   UNL A   1      44.828  29.355  35.868  1.00  0.00     0.064 A 
ATOM     94  C   UNL A   1      46.038  30.011  35.603  1.00  0.00     0.173 A 
ATOM     95  C   UNL A   1      44.876  28.159  36.603  1.00  0.00     0.173 A 
ATOM     96  F   UNL A   1      46.048  31.149  34.891  1.00  0.00    -0.203 F 
ATOM     97  C   UNL A   1      47.251  29.478  36.031  1.00  0.00     0.198 A 
ATOM     98  C   UNL A   1      46.087  27.648  37.060  1.00  0.00     0.198 A 
ATOM     99  F   UNL A   1      43.748  27.495  36.891  1.00  0.00    -0.203 F 
ATOM    100  F   UNL A   1      48.399  30.095  35.720  1.00  0.00    -0.200 F 
ATOM    101  C   UNL A   1      47.274  28.303  36.768  1.00  0.00     0.200 A 
ATOM    102  F   UNL A   1      46.105  26.522  37.787  1.00  0.00    -0.200 F 
ATOM    103  F   UNL A   1      48.441  27.797  37.188  1.00  0.00    -0.200 F 
ENDBRANCH  70  93
ENDBRANCH  44  45
ENDBRANCH  36  39
ENDBRANCH  34  35
ENDBRANCH  33  34
ENDBRANCH  32  33
ENDBRANCH  31  32
ENDBRANCH  30  31
ENDBRANCH   1  30
TORSDOF 20
ENDMDL
