MODEL 1
REMARK VINA RESULT:      -8.1      0.000      0.000
REMARK SMILES CC/C=C/C/C=C/C/C=C/C/C=C/CCSCCCC(=O)NCCCCCCNC(=O)c1ccc(-c2c3nc(c(-c4c(F)c(F)c(F)c(F)c4F)c4ccc([nH]4)c(-c4c(F)c(F)c(F)c(F)c4F)c4nc(c(-c5c(F)c(F)c(F)c(F)c5F)c5ccc2[nH]5)C=C4)C=C3)cc1
REMARK SMILES IDX 18 1 17 2 16 3 15 4 14 5 13 6 12 7 11 8 10 9 9 10 8 11 7 12
REMARK SMILES IDX 6 13 5 14 4 15 3 16 2 17 1 18 19 19 20 20 21 21 22 22 23 24
REMARK SMILES IDX 24 25 25 26 26 27 27 28 28 29 29 30 30 31 31 33 32 34 33 35
REMARK SMILES IDX 94 36 34 37 93 38 35 39 36 40 37 41 87 42 38 43 92 44 86 45
REMARK SMILES IDX 88 46 39 47 91 48 85 49 84 50 40 52 72 53 52 54 71 55 53 56
REMARK SMILES IDX 56 57 70 58 89 59 54 60 55 61 69 63 90 64 57 65 41 66 42 67
REMARK SMILES IDX 50 68 43 69 44 70 48 71 51 72 45 73 46 74 49 75 47 76 73 77
REMARK SMILES IDX 74 78 82 79 75 80 76 81 80 82 83 83 77 84 78 85 81 86 79 87
REMARK SMILES IDX 58 88 59 89 67 90 60 91 61 92 65 93 68 94 62 95 63 96 66 97
REMARK SMILES IDX 64 98
REMARK H PARENT 22 23 29 32 88 51 56 62
REMARK Flexibility Score: inf
ROOT
ATOM      1  C   UNL A   1      44.912  29.609  27.326  1.00  0.00     0.021 C 
ENDROOT
BRANCH   1   2
ATOM      2  C   UNL A   1      45.116  31.049  26.862  1.00  0.00     0.070 C 
BRANCH   2   3
ATOM      3  S   UNL A   1      46.428  32.251  27.377  1.00  0.00    -0.162 SA
BRANCH   3   4
ATOM      4  C   UNL A   1      46.106  32.921  29.068  1.00  0.00     0.073 C 
BRANCH   4   5
ATOM      5  C   UNL A   1      45.294  34.244  29.189  1.00  0.00     0.038 C 
BRANCH   5   6
ATOM      6  C   UNL A   1      44.702  34.783  27.914  1.00  0.00    -0.030 C 
ATOM      7  C   UNL A   1      43.466  34.583  27.421  1.00  0.00    -0.027 C 
BRANCH   7   8
ATOM      8  C   UNL A   1      42.861  35.463  26.341  1.00  0.00     0.054 C 
BRANCH   8   9
ATOM      9  C   UNL A   1      42.343  36.793  26.807  1.00  0.00    -0.027 C 
ATOM     10  C   UNL A   1      43.136  37.857  27.021  1.00  0.00    -0.027 C 
BRANCH  10  11
ATOM     11  C   UNL A   1      42.647  39.180  27.546  1.00  0.00     0.054 C 
BRANCH  11  12
ATOM     12  C   UNL A   1      43.309  40.270  26.759  1.00  0.00    -0.027 C 
ATOM     13  C   UNL A   1      42.656  41.246  26.111  1.00  0.00    -0.027 C 
BRANCH  13  14
ATOM     14  C   UNL A   1      43.322  42.175  25.138  1.00  0.00     0.054 C 
BRANCH  14  15
ATOM     15  C   UNL A   1      42.661  42.034  23.797  1.00  0.00    -0.027 C 
ATOM     16  C   UNL A   1      42.170  43.060  23.085  1.00  0.00    -0.031 C 
BRANCH  16  17
ATOM     17  C   UNL A   1      41.413  42.891  21.801  1.00  0.00     0.023 C 
ATOM     18  C   UNL A   1      42.374  42.717  20.634  1.00  0.00     0.008 C 
ENDBRANCH  16  17
ENDBRANCH  14  15
ENDBRANCH  13  14
ENDBRANCH  11  12
ENDBRANCH  10  11
ENDBRANCH   8   9
ENDBRANCH   7   8
ENDBRANCH   5   6
ENDBRANCH   4   5
ENDBRANCH   3   4
ENDBRANCH   2   3
ENDBRANCH   1   2
BRANCH   1  19
ATOM     19  C   UNL A   1      45.750  28.498  26.735  1.00  0.00     0.101 C 
BRANCH  19  20
ATOM     20  C   UNL A   1      45.668  28.221  25.242  1.00  0.00     0.220 C 
ATOM     21  O   UNL A   1      46.621  28.534  24.521  1.00  0.00    -0.275 OA
ATOM     22  N   UNL A   1      44.638  27.587  24.629  1.00  0.00    -0.356 N 
ATOM     23  H   UNL A   1      44.600  27.746  23.658  1.00  0.00     0.163 HD
BRANCH  22  24
ATOM     24  C   UNL A   1      43.582  26.723  25.119  1.00  0.00     0.116 C 
BRANCH  24  25
ATOM     25  C   UNL A   1      44.003  25.264  25.240  1.00  0.00     0.021 C 
BRANCH  25  26
ATOM     26  C   UNL A   1      43.836  24.751  26.677  1.00  0.00     0.002 C 
BRANCH  26  27
ATOM     27  C   UNL A   1      43.515  23.254  26.808  1.00  0.00     0.002 C 
BRANCH  27  28
ATOM     28  C   UNL A   1      42.386  22.739  25.916  1.00  0.00     0.021 C 
BRANCH  28  29
ATOM     29  C   UNL A   1      41.227  22.088  26.659  1.00  0.00     0.116 C 
BRANCH  29  30
ATOM     30  N   UNL A   1      39.946  22.296  26.005  1.00  0.00    -0.352 N 
ATOM     31  C   UNL A   1      39.086  23.361  26.104  1.00  0.00     0.251 C 
ATOM     32  H   UNL A   1      39.655  21.572  25.406  1.00  0.00     0.163 HD
ATOM     33  O   UNL A   1      37.984  23.315  25.573  1.00  0.00    -0.269 OA
BRANCH  31  34
ATOM     34  C   UNL A   1      39.485  24.557  26.877  1.00  0.00     0.039 A 
ATOM     35  C   UNL A   1      39.139  24.626  28.228  1.00  0.00     0.014 A 
ATOM     36  C   UNL A   1      40.176  25.610  26.272  1.00  0.00     0.014 A 
ATOM     37  C   UNL A   1      39.512  25.741  28.979  1.00  0.00     0.010 A 
ATOM     38  C   UNL A   1      40.625  26.678  27.041  1.00  0.00     0.010 A 
ATOM     39  C   UNL A   1      40.271  26.769  28.395  1.00  0.00    -0.014 A 
BRANCH  39  40
ATOM     40  C   UNL A   1      40.649  27.973  29.174  1.00  0.00     0.031 A 
ATOM     41  C   UNL A   1      42.046  28.102  29.719  1.00  0.00     0.074 A 
ATOM     42  C   UNL A   1      39.734  28.929  29.417  1.00  0.00     0.049 A 
ATOM     43  N   UNL A   1      42.574  29.066  30.431  1.00  0.00    -0.248 NA
ATOM     44  C   UNL A   1      42.967  26.985  29.454  1.00  0.00     0.031 C 
ATOM     45  C   UNL A   1      38.337  28.891  28.982  1.00  0.00     0.029 A 
ATOM     46  N   UNL A   1      39.842  30.121  30.087  1.00  0.00    -0.354 N 
ATOM     47  C   UNL A   1      43.873  28.662  30.710  1.00  0.00     0.074 A 
ATOM     48  C   UNL A   1      44.036  27.340  30.150  1.00  0.00     0.031 C 
ATOM     49  C   UNL A   1      37.728  30.026  29.363  1.00  0.00     0.029 A 
ATOM     50  C   UNL A   1      38.680  30.852  30.098  1.00  0.00     0.049 A 
ATOM     51  H   UNL A   1      40.674  30.423  30.519  1.00  0.00     0.167 HD
ATOM     52  C   UNL A   1      44.851  29.344  31.352  1.00  0.00     0.037 A 
ATOM     53  C   UNL A   1      38.418  32.058  30.639  1.00  0.00     0.037 A 
ATOM     54  C   UNL A   1      44.689  30.672  31.881  1.00  0.00     0.049 A 
ATOM     55  C   UNL A   1      39.524  32.796  31.345  1.00  0.00     0.074 A 
ATOM     56  C   UNL A   1      45.631  31.480  32.491  1.00  0.00     0.029 A 
ATOM     57  N   UNL A   1      43.500  31.388  31.863  1.00  0.00    -0.354 N 
ATOM     58  N   UNL A   1      40.772  32.440  31.535  1.00  0.00    -0.248 NA
ATOM     59  C   UNL A   1      39.186  34.113  31.901  1.00  0.00     0.031 C 
ATOM     60  C   UNL A   1      44.999  32.660  32.897  1.00  0.00     0.029 A 
ATOM     61  C   UNL A   1      43.679  32.618  32.476  1.00  0.00     0.049 A 
ATOM     62  H   UNL A   1      42.654  31.069  31.473  1.00  0.00     0.167 HD
ATOM     63  C   UNL A   1      41.377  33.503  32.192  1.00  0.00     0.074 A 
ATOM     64  C   UNL A   1      40.362  34.521  32.358  1.00  0.00     0.031 C 
ATOM     65  C   UNL A   1      42.659  33.626  32.618  1.00  0.00     0.037 A 
BRANCH  52  66
ATOM     66  C   UNL A   1      46.181  28.663  31.520  1.00  0.00     0.064 A 
ATOM     67  C   UNL A   1      47.240  28.871  30.622  1.00  0.00     0.173 A 
ATOM     68  C   UNL A   1      46.406  27.807  32.609  1.00  0.00     0.173 A 
ATOM     69  F   UNL A   1      47.076  29.670  29.556  1.00  0.00    -0.203 F 
ATOM     70  C   UNL A   1      48.460  28.220  30.787  1.00  0.00     0.198 A 
ATOM     71  C   UNL A   1      47.640  27.186  32.791  1.00  0.00     0.198 A 
ATOM     72  F   UNL A   1      45.432  27.575  33.501  1.00  0.00    -0.203 F 
ATOM     73  F   UNL A   1      49.435  28.387  29.883  1.00  0.00    -0.200 F 
ATOM     74  C   UNL A   1      48.661  27.384  31.876  1.00  0.00     0.200 A 
ATOM     75  F   UNL A   1      47.837  26.392  33.852  1.00  0.00    -0.200 F 
ATOM     76  F   UNL A   1      49.838  26.764  32.036  1.00  0.00    -0.200 F 
ENDBRANCH  52  66
BRANCH  53  77
ATOM     77  C   UNL A   1      37.067  32.663  30.496  1.00  0.00     0.064 A 
ATOM     78  C   UNL A   1      36.741  33.440  29.376  1.00  0.00     0.173 A 
ATOM     79  C   UNL A   1      36.081  32.491  31.479  1.00  0.00     0.173 A 
ATOM     80  F   UNL A   1      37.656  33.649  28.417  1.00  0.00    -0.203 F 
ATOM     81  C   UNL A   1      35.492  34.046  29.257  1.00  0.00     0.198 A 
ATOM     82  C   UNL A   1      34.821  33.071  31.343  1.00  0.00     0.198 A 
ATOM     83  F   UNL A   1      36.338  31.752  32.568  1.00  0.00    -0.203 F 
ATOM     84  F   UNL A   1      35.228  34.829  28.202  1.00  0.00    -0.200 F 
ATOM     85  C   UNL A   1      34.531  33.857  30.239  1.00  0.00     0.200 A 
ATOM     86  F   UNL A   1      33.890  32.872  32.286  1.00  0.00    -0.200 F 
ATOM     87  F   UNL A   1      33.329  34.439  30.123  1.00  0.00    -0.200 F 
ENDBRANCH  53  77
BRANCH  65  88
ATOM     88  C   UNL A   1      43.052  34.932  33.249  1.00  0.00     0.064 A 
ATOM     89  C   UNL A   1      43.360  36.066  32.482  1.00  0.00     0.173 A 
ATOM     90  C   UNL A   1      43.093  35.055  34.648  1.00  0.00     0.173 A 
ATOM     91  F   UNL A   1      43.348  35.999  31.142  1.00  0.00    -0.203 F 
ATOM     92  C   UNL A   1      43.732  37.262  33.092  1.00  0.00     0.198 A 
ATOM     93  C   UNL A   1      43.427  36.263  35.252  1.00  0.00     0.198 A 
ATOM     94  F   UNL A   1      42.797  34.006  35.428  1.00  0.00    -0.203 F 
ATOM     95  F   UNL A   1      44.083  38.313  32.338  1.00  0.00    -0.200 F 
ATOM     96  C   UNL A   1      43.757  37.361  34.475  1.00  0.00     0.200 A 
ATOM     97  F   UNL A   1      43.432  36.362  36.589  1.00  0.00    -0.200 F 
ATOM     98  F   UNL A   1      44.111  38.515  35.058  1.00  0.00    -0.200 F 
ENDBRANCH  65  88
ENDBRANCH  39  40
ENDBRANCH  31  34
ENDBRANCH  29  30
ENDBRANCH  28  29
ENDBRANCH  27  28
ENDBRANCH  26  27
ENDBRANCH  25  26
ENDBRANCH  24  25
ENDBRANCH  22  24
ENDBRANCH  19  20
ENDBRANCH   1  19
TORSDOF 26
ENDMDL
MODEL 2
REMARK VINA RESULT:      -7.8      0.863      7.340
REMARK SMILES CC/C=C/C/C=C/C/C=C/C/C=C/CCSCCCC(=O)NCCCCCCNC(=O)c1ccc(-c2c3nc(c(-c4c(F)c(F)c(F)c(F)c4F)c4ccc([nH]4)c(-c4c(F)c(F)c(F)c(F)c4F)c4nc(c(-c5c(F)c(F)c(F)c(F)c5F)c5ccc2[nH]5)C=C4)C=C3)cc1
REMARK SMILES IDX 18 1 17 2 16 3 15 4 14 5 13 6 12 7 11 8 10 9 9 10 8 11 7 12
REMARK SMILES IDX 6 13 5 14 4 15 3 16 2 17 1 18 19 19 20 20 21 21 22 22 23 24
REMARK SMILES IDX 24 25 25 26 26 27 27 28 28 29 29 30 30 31 31 33 32 34 33 35
REMARK SMILES IDX 94 36 34 37 93 38 35 39 36 40 37 41 87 42 38 43 92 44 86 45
REMARK SMILES IDX 88 46 39 47 91 48 85 49 84 50 40 52 72 53 52 54 71 55 53 56
REMARK SMILES IDX 56 57 70 58 89 59 54 60 55 61 69 63 90 64 57 65 41 66 42 67
REMARK SMILES IDX 50 68 43 69 44 70 48 71 51 72 45 73 46 74 49 75 47 76 73 77
REMARK SMILES IDX 74 78 82 79 75 80 76 81 80 82 83 83 77 84 78 85 81 86 79 87
REMARK SMILES IDX 58 88 59 89 67 90 60 91 61 92 65 93 68 94 62 95 63 96 66 97
REMARK SMILES IDX 64 98
REMARK H PARENT 22 23 29 32 88 51 56 62
REMARK Flexibility Score: inf
ROOT
ATOM      1  C   UNL A   1      43.727  30.395  26.895  1.00  0.00     0.021 C 
ENDROOT
BRANCH   1   2
ATOM      2  C   UNL A   1      44.527  31.642  26.528  1.00  0.00     0.070 C 
BRANCH   2   3
ATOM      3  S   UNL A   1      45.067  33.031  27.628  1.00  0.00    -0.162 SA
BRANCH   3   4
ATOM      4  C   UNL A   1      44.713  34.675  26.864  1.00  0.00     0.073 C 
BRANCH   4   5
ATOM      5  C   UNL A   1      43.274  34.941  26.332  1.00  0.00     0.038 C 
BRANCH   5   6
ATOM      6  C   UNL A   1      42.579  36.165  26.869  1.00  0.00    -0.030 C 
ATOM      7  C   UNL A   1      42.810  36.812  28.026  1.00  0.00    -0.027 C 
BRANCH   7   8
ATOM      8  C   UNL A   1      42.320  38.226  28.288  1.00  0.00     0.054 C 
BRANCH   8   9
ATOM      9  C   UNL A   1      41.652  38.901  27.126  1.00  0.00    -0.027 C 
ATOM     10  C   UNL A   1      41.950  40.152  26.731  1.00  0.00    -0.027 C 
BRANCH  10  11
ATOM     11  C   UNL A   1      41.252  40.870  25.608  1.00  0.00     0.054 C 
BRANCH  11  12
ATOM     12  C   UNL A   1      42.230  41.813  24.976  1.00  0.00    -0.027 C 
ATOM     13  C   UNL A   1      42.280  42.092  23.665  1.00  0.00    -0.027 C 
BRANCH  13  14
ATOM     14  C   UNL A   1      43.412  42.844  23.028  1.00  0.00     0.054 C 
BRANCH  14  15
ATOM     15  C   UNL A   1      42.935  43.447  21.739  1.00  0.00    -0.027 C 
ATOM     16  C   UNL A   1      41.918  42.963  21.009  1.00  0.00    -0.031 C 
BRANCH  16  17
ATOM     17  C   UNL A   1      41.526  43.509  19.668  1.00  0.00     0.023 C 
ATOM     18  C   UNL A   1      42.749  44.026  18.925  1.00  0.00     0.008 C 
ENDBRANCH  16  17
ENDBRANCH  14  15
ENDBRANCH  13  14
ENDBRANCH  11  12
ENDBRANCH  10  11
ENDBRANCH   8   9
ENDBRANCH   7   8
ENDBRANCH   5   6
ENDBRANCH   4   5
ENDBRANCH   3   4
ENDBRANCH   2   3
ENDBRANCH   1   2
BRANCH   1  19
ATOM     19  C   UNL A   1      44.423  29.059  27.023  1.00  0.00     0.101 C 
BRANCH  19  20
ATOM     20  C   UNL A   1      45.089  28.450  25.800  1.00  0.00     0.220 C 
ATOM     21  O   UNL A   1      46.287  28.675  25.595  1.00  0.00    -0.275 OA
ATOM     22  N   UNL A   1      44.481  27.610  24.927  1.00  0.00    -0.356 N 
ATOM     23  H   UNL A   1      44.941  27.544  24.059  1.00  0.00     0.163 HD
BRANCH  22  24
ATOM     24  C   UNL A   1      43.290  26.790  25.017  1.00  0.00     0.116 C 
BRANCH  24  25
ATOM     25  C   UNL A   1      43.586  25.318  25.276  1.00  0.00     0.021 C 
BRANCH  25  26
ATOM     26  C   UNL A   1      43.687  25.023  26.779  1.00  0.00     0.002 C 
BRANCH  26  27
ATOM     27  C   UNL A   1      43.028  23.713  27.238  1.00  0.00     0.002 C 
BRANCH  27  28
ATOM     28  C   UNL A   1      42.115  23.037  26.214  1.00  0.00     0.021 C 
BRANCH  28  29
ATOM     29  C   UNL A   1      40.933  22.284  26.809  1.00  0.00     0.116 C 
BRANCH  29  30
ATOM     30  N   UNL A   1      39.680  22.573  26.130  1.00  0.00    -0.352 N 
ATOM     31  C   UNL A   1      38.867  23.673  26.242  1.00  0.00     0.251 C 
ATOM     32  H   UNL A   1      39.371  21.881  25.501  1.00  0.00     0.163 HD
ATOM     33  O   UNL A   1      37.779  23.695  25.683  1.00  0.00    -0.269 OA
BRANCH  31  34
ATOM     34  C   UNL A   1      39.301  24.825  27.061  1.00  0.00     0.039 A 
ATOM     35  C   UNL A   1      40.008  25.858  26.441  1.00  0.00     0.014 A 
ATOM     36  C   UNL A   1      39.033  24.879  28.431  1.00  0.00     0.014 A 
ATOM     37  C   UNL A   1      40.420  26.958  27.192  1.00  0.00     0.010 A 
ATOM     38  C   UNL A   1      39.365  26.015  29.159  1.00  0.00     0.010 A 
ATOM     39  C   UNL A   1      40.089  27.054  28.554  1.00  0.00    -0.014 A 
BRANCH  39  40
ATOM     40  C   UNL A   1      40.546  28.204  29.370  1.00  0.00     0.031 A 
ATOM     41  C   UNL A   1      39.598  29.337  29.662  1.00  0.00     0.074 A 
ATOM     42  C   UNL A   1      41.814  28.245  29.820  1.00  0.00     0.049 A 
ATOM     43  N   UNL A   1      39.804  30.435  30.344  1.00  0.00    -0.248 NA
ATOM     44  C   UNL A   1      38.248  29.237  29.085  1.00  0.00     0.031 C 
ATOM     45  C   UNL A   1      42.836  27.230  29.561  1.00  0.00     0.029 A 
ATOM     46  N   UNL A   1      42.458  29.177  30.593  1.00  0.00    -0.354 N 
ATOM     47  C   UNL A   1      38.620  31.157  30.262  1.00  0.00     0.074 A 
ATOM     48  C   UNL A   1      37.724  30.408  29.411  1.00  0.00     0.031 C 
ATOM     49  C   UNL A   1      43.968  27.575  30.196  1.00  0.00     0.029 A 
ATOM     50  C   UNL A   1      43.762  28.851  30.875  1.00  0.00     0.049 A 
ATOM     51  H   UNL A   1      42.028  30.002  30.914  1.00  0.00     0.167 HD
ATOM     52  C   UNL A   1      38.299  32.327  30.865  1.00  0.00     0.037 A 
ATOM     53  C   UNL A   1      44.683  29.508  31.605  1.00  0.00     0.037 A 
ATOM     54  C   UNL A   1      39.187  33.052  31.735  1.00  0.00     0.049 A 
ATOM     55  C   UNL A   1      44.300  30.805  32.266  1.00  0.00     0.074 A 
ATOM     56  C   UNL A   1      38.942  34.211  32.447  1.00  0.00     0.029 A 
ATOM     57  N   UNL A   1      40.497  32.683  32.006  1.00  0.00    -0.354 N 
ATOM     58  N   UNL A   1      43.153  31.440  32.248  1.00  0.00    -0.248 NA
ATOM     59  C   UNL A   1      45.339  31.470  33.064  1.00  0.00     0.031 C 
ATOM     60  C   UNL A   1      40.121  34.578  33.104  1.00  0.00     0.029 A 
ATOM     61  C   UNL A   1      41.081  33.609  32.857  1.00  0.00     0.049 A 
ATOM     62  H   UNL A   1      40.946  31.884  31.649  1.00  0.00     0.167 HD
ATOM     63  C   UNL A   1      43.319  32.553  33.060  1.00  0.00     0.074 A 
ATOM     64  C   UNL A   1      44.674  32.500  33.567  1.00  0.00     0.031 C 
ATOM     65  C   UNL A   1      42.428  33.531  33.364  1.00  0.00     0.037 A 
BRANCH  52  66
ATOM     66  C   UNL A   1      36.933  32.895  30.599  1.00  0.00     0.064 A 
ATOM     67  C   UNL A   1      35.894  32.800  31.539  1.00  0.00     0.173 A 
ATOM     68  C   UNL A   1      36.666  33.567  29.397  1.00  0.00     0.173 A 
ATOM     69  F   UNL A   1      36.090  32.158  32.701  1.00  0.00    -0.203 F 
ATOM     70  C   UNL A   1      34.631  33.321  31.269  1.00  0.00     0.198 A 
ATOM     71  C   UNL A   1      35.412  34.120  29.145  1.00  0.00     0.198 A 
ATOM     72  F   UNL A   1      37.622  33.693  28.465  1.00  0.00    -0.203 F 
ATOM     73  F   UNL A   1      33.639  33.163  32.156  1.00  0.00    -0.200 F 
ATOM     74  C   UNL A   1      34.394  33.987  30.076  1.00  0.00     0.200 A 
ATOM     75  F   UNL A   1      35.189  34.777  27.999  1.00  0.00    -0.200 F 
ATOM     76  F   UNL A   1      33.179  34.494  29.821  1.00  0.00    -0.200 F 
ENDBRANCH  52  66
BRANCH  53  77
ATOM     77  C   UNL A   1      46.042  28.931  31.788  1.00  0.00     0.064 A 
ATOM     78  C   UNL A   1      46.348  28.152  32.913  1.00  0.00     0.173 A 
ATOM     79  C   UNL A   1      47.065  29.156  30.854  1.00  0.00     0.173 A 
ATOM     80  F   UNL A   1      45.410  27.923  33.843  1.00  0.00    -0.203 F 
ATOM     81  C   UNL A   1      47.631  27.645  33.112  1.00  0.00     0.198 A 
ATOM     82  C   UNL A   1      48.339  28.622  31.039  1.00  0.00     0.198 A 
ATOM     83  F   UNL A   1      46.824  29.890  29.757  1.00  0.00    -0.203 F 
ATOM     84  F   UNL A   1      47.909  26.951  34.224  1.00  0.00    -0.200 F 
ATOM     85  C   UNL A   1      48.624  27.877  32.172  1.00  0.00     0.200 A 
ATOM     86  F   UNL A   1      49.290  28.834  30.120  1.00  0.00    -0.200 F 
ATOM     87  F   UNL A   1      49.857  27.388  32.364  1.00  0.00    -0.200 F 
ENDBRANCH  53  77
BRANCH  65  88
ATOM     88  C   UNL A   1      42.872  34.589  34.334  1.00  0.00     0.064 A 
ATOM     89  C   UNL A   1      43.444  35.797  33.908  1.00  0.00     0.173 A 
ATOM     90  C   UNL A   1      42.693  34.399  35.714  1.00  0.00     0.173 A 
ATOM     91  F   UNL A   1      43.647  36.024  32.601  1.00  0.00    -0.203 F 
ATOM     92  C   UNL A   1      43.856  36.757  34.829  1.00  0.00     0.198 A 
ATOM     93  C   UNL A   1      43.071  35.376  36.628  1.00  0.00     0.198 A 
ATOM     94  F   UNL A   1      42.141  33.267  36.175  1.00  0.00    -0.203 F 
ATOM     95  F   UNL A   1      44.459  37.876  34.401  1.00  0.00    -0.200 F 
ATOM     96  C   UNL A   1      43.663  36.549  36.187  1.00  0.00     0.200 A 
ATOM     97  F   UNL A   1      42.866  35.182  37.938  1.00  0.00    -0.200 F 
ATOM     98  F   UNL A   1      44.057  37.477  37.070  1.00  0.00    -0.200 F 
ENDBRANCH  65  88
ENDBRANCH  39  40
ENDBRANCH  31  34
ENDBRANCH  29  30
ENDBRANCH  28  29
ENDBRANCH  27  28
ENDBRANCH  26  27
ENDBRANCH  25  26
ENDBRANCH  24  25
ENDBRANCH  22  24
ENDBRANCH  19  20
ENDBRANCH   1  19
TORSDOF 26
ENDMDL
MODEL 3
REMARK VINA RESULT:      -7.5      4.258     12.217
REMARK SMILES CC/C=C/C/C=C/C/C=C/C/C=C/CCSCCCC(=O)NCCCCCCNC(=O)c1ccc(-c2c3nc(c(-c4c(F)c(F)c(F)c(F)c4F)c4ccc([nH]4)c(-c4c(F)c(F)c(F)c(F)c4F)c4nc(c(-c5c(F)c(F)c(F)c(F)c5F)c5ccc2[nH]5)C=C4)C=C3)cc1
REMARK SMILES IDX 18 1 17 2 16 3 15 4 14 5 13 6 12 7 11 8 10 9 9 10 8 11 7 12
REMARK SMILES IDX 6 13 5 14 4 15 3 16 2 17 1 18 19 19 20 20 21 21 22 22 23 24
REMARK SMILES IDX 24 25 25 26 26 27 27 28 28 29 29 30 30 31 31 33 32 34 33 35
REMARK SMILES IDX 94 36 34 37 93 38 35 39 36 40 37 41 87 42 38 43 92 44 86 45
REMARK SMILES IDX 88 46 39 47 91 48 85 49 84 50 40 52 72 53 52 54 71 55 53 56
REMARK SMILES IDX 56 57 70 58 89 59 54 60 55 61 69 63 90 64 57 65 41 66 42 67
REMARK SMILES IDX 50 68 43 69 44 70 48 71 51 72 45 73 46 74 49 75 47 76 73 77
REMARK SMILES IDX 74 78 82 79 75 80 76 81 80 82 83 83 77 84 78 85 81 86 79 87
REMARK SMILES IDX 58 88 59 89 67 90 60 91 61 92 65 93 68 94 62 95 63 96 66 97
REMARK SMILES IDX 64 98
REMARK H PARENT 22 23 29 32 88 51 56 62
REMARK Flexibility Score: inf
ROOT
ATOM      1  C   UNL A   1      37.417  32.151  34.709  1.00  0.00     0.021 C 
ENDROOT
BRANCH   1   2
ATOM      2  C   UNL A   1      37.140  33.625  34.427  1.00  0.00     0.070 C 
BRANCH   2   3
ATOM      3  S   UNL A   1      35.565  34.413  33.855  1.00  0.00    -0.162 SA
BRANCH   3   4
ATOM      4  C   UNL A   1      34.482  33.201  32.976  1.00  0.00     0.073 C 
BRANCH   4   5
ATOM      5  C   UNL A   1      35.015  32.563  31.661  1.00  0.00     0.038 C 
BRANCH   5   6
ATOM      6  C   UNL A   1      36.098  33.321  30.941  1.00  0.00    -0.030 C 
ATOM      7  C   UNL A   1      36.785  32.951  29.844  1.00  0.00    -0.027 C 
BRANCH   7   8
ATOM      8  C   UNL A   1      37.574  33.936  28.998  1.00  0.00     0.054 C 
BRANCH   8   9
ATOM      9  C   UNL A   1      38.755  34.566  29.677  1.00  0.00    -0.027 C 
ATOM     10  C   UNL A   1      39.985  34.021  29.672  1.00  0.00    -0.027 C 
BRANCH  10  11
ATOM     11  C   UNL A   1      41.168  34.603  30.396  1.00  0.00     0.054 C 
BRANCH  11  12
ATOM     12  C   UNL A   1      41.967  35.408  29.416  1.00  0.00    -0.027 C 
ATOM     13  C   UNL A   1      41.520  35.814  28.219  1.00  0.00    -0.027 C 
BRANCH  13  14
ATOM     14  C   UNL A   1      42.412  36.403  27.165  1.00  0.00     0.054 C 
BRANCH  14  15
ATOM     15  C   UNL A   1      43.002  35.292  26.346  1.00  0.00    -0.027 C 
ATOM     16  C   UNL A   1      43.808  34.338  26.835  1.00  0.00    -0.031 C 
BRANCH  16  17
ATOM     17  C   UNL A   1      44.479  33.301  25.983  1.00  0.00     0.023 C 
ATOM     18  C   UNL A   1      44.273  31.913  26.572  1.00  0.00     0.008 C 
ENDBRANCH  16  17
ENDBRANCH  14  15
ENDBRANCH  13  14
ENDBRANCH  11  12
ENDBRANCH  10  11
ENDBRANCH   8   9
ENDBRANCH   7   8
ENDBRANCH   5   6
ENDBRANCH   4   5
ENDBRANCH   3   4
ENDBRANCH   2   3
ENDBRANCH   1   2
BRANCH   1  19
ATOM     19  C   UNL A   1      38.824  31.610  34.600  1.00  0.00     0.101 C 
BRANCH  19  20
ATOM     20  C   UNL A   1      39.632  31.895  33.344  1.00  0.00     0.220 C 
ATOM     21  O   UNL A   1      39.098  31.745  32.240  1.00  0.00    -0.275 OA
ATOM     22  N   UNL A   1      40.902  32.371  33.333  1.00  0.00    -0.356 N 
ATOM     23  H   UNL A   1      41.370  32.224  32.480  1.00  0.00     0.163 HD
BRANCH  22  24
ATOM     24  C   UNL A   1      41.706  33.052  34.328  1.00  0.00     0.116 C 
BRANCH  24  25
ATOM     25  C   UNL A   1      41.059  34.325  34.859  1.00  0.00     0.021 C 
BRANCH  25  26
ATOM     26  C   UNL A   1      41.515  35.558  34.067  1.00  0.00     0.002 C 
BRANCH  26  27
ATOM     27  C   UNL A   1      42.004  36.742  34.915  1.00  0.00     0.002 C 
BRANCH  27  28
ATOM     28  C   UNL A   1      43.473  37.125  34.732  1.00  0.00     0.021 C 
BRANCH  28  29
ATOM     29  C   UNL A   1      44.282  36.168  33.867  1.00  0.00     0.116 C 
BRANCH  29  30
ATOM     30  N   UNL A   1      45.353  36.829  33.141  1.00  0.00    -0.352 N 
ATOM     31  C   UNL A   1      46.168  36.331  32.156  1.00  0.00     0.251 C 
ATOM     32  H   UNL A   1      45.516  37.767  33.390  1.00  0.00     0.163 HD
ATOM     33  O   UNL A   1      47.106  36.996  31.736  1.00  0.00    -0.269 OA
BRANCH  31  34
ATOM     34  C   UNL A   1      45.925  34.975  31.619  1.00  0.00     0.039 A 
ATOM     35  C   UNL A   1      45.901  33.898  32.508  1.00  0.00     0.014 A 
ATOM     36  C   UNL A   1      45.741  34.762  30.250  1.00  0.00     0.014 A 
ATOM     37  C   UNL A   1      45.665  32.611  32.025  1.00  0.00     0.010 A 
ATOM     38  C   UNL A   1      45.417  33.494  29.782  1.00  0.00     0.010 A 
ATOM     39  C   UNL A   1      45.406  32.400  30.661  1.00  0.00    -0.014 A 
BRANCH  39  40
ATOM     40  C   UNL A   1      45.182  31.033  30.130  1.00  0.00     0.031 A 
ATOM     41  C   UNL A   1      43.779  30.551  29.875  1.00  0.00     0.074 A 
ATOM     42  C   UNL A   1      46.232  30.220  29.909  1.00  0.00     0.049 A 
ATOM     43  N   UNL A   1      43.369  29.392  29.424  1.00  0.00    -0.248 NA
ATOM     44  C   UNL A   1      42.689  31.485  30.196  1.00  0.00     0.031 C 
ATOM     45  C   UNL A   1      47.632  30.560  30.164  1.00  0.00     0.029 A 
ATOM     46  N   UNL A   1      46.283  28.941  29.416  1.00  0.00    -0.354 N 
ATOM     47  C   UNL A   1      41.982  29.455  29.427  1.00  0.00     0.074 A 
ATOM     48  C   UNL A   1      41.616  30.738  29.984  1.00  0.00     0.031 C 
ATOM     49  C   UNL A   1      48.408  29.529  29.790  1.00  0.00     0.029 A 
ATOM     50  C   UNL A   1      47.559  28.446  29.304  1.00  0.00     0.049 A 
ATOM     51  H   UNL A   1      45.481  28.427  29.167  1.00  0.00     0.167 HD
ATOM     52  C   UNL A   1      41.092  28.537  28.978  1.00  0.00     0.037 A 
ATOM     53  C   UNL A   1      47.991  27.253  28.853  1.00  0.00     0.037 A 
ATOM     54  C   UNL A   1      41.466  27.275  28.398  1.00  0.00     0.049 A 
ATOM     55  C   UNL A   1      46.982  26.251  28.359  1.00  0.00     0.074 A 
ATOM     56  C   UNL A   1      40.650  26.300  27.853  1.00  0.00     0.029 A 
ATOM     57  N   UNL A   1      42.770  26.813  28.290  1.00  0.00    -0.354 N 
ATOM     58  N   UNL A   1      45.676  26.351  28.291  1.00  0.00    -0.248 NA
ATOM     59  C   UNL A   1      47.510  24.973  27.863  1.00  0.00     0.031 C 
ATOM     60  C   UNL A   1      41.454  25.222  27.470  1.00  0.00     0.029 A 
ATOM     61  C   UNL A   1      42.779  25.554  27.710  1.00  0.00     0.049 A 
ATOM     62  H   UNL A   1      43.571  27.306  28.581  1.00  0.00     0.167 HD
ATOM     63  C   UNL A   1      45.231  25.172  27.710  1.00  0.00     0.074 A 
ATOM     64  C   UNL A   1      46.408  24.376  27.432  1.00  0.00     0.031 C 
ATOM     65  C   UNL A   1      43.962  24.782  27.427  1.00  0.00     0.037 A 
BRANCH  52  66
ATOM     66  C   UNL A   1      39.631  28.865  29.104  1.00  0.00     0.064 A 
ATOM     67  C   UNL A   1      38.950  28.768  30.328  1.00  0.00     0.173 A 
ATOM     68  C   UNL A   1      38.905  29.308  27.987  1.00  0.00     0.173 A 
ATOM     69  F   UNL A   1      39.592  28.339  31.426  1.00  0.00    -0.203 F 
ATOM     70  C   UNL A   1      37.593  29.063  30.422  1.00  0.00     0.198 A 
ATOM     71  C   UNL A   1      37.556  29.638  28.092  1.00  0.00     0.198 A 
ATOM     72  F   UNL A   1      39.504  29.425  26.793  1.00  0.00    -0.203 F 
ATOM     73  F   UNL A   1      36.952  28.903  31.588  1.00  0.00    -0.200 F 
ATOM     74  C   UNL A   1      36.899  29.506  29.305  1.00  0.00     0.200 A 
ATOM     75  F   UNL A   1      36.891  30.080  27.016  1.00  0.00    -0.200 F 
ATOM     76  F   UNL A   1      35.594  29.796  29.398  1.00  0.00    -0.200 F 
ENDBRANCH  52  66
BRANCH  53  77
ATOM     77  C   UNL A   1      49.447  26.955  28.806  1.00  0.00     0.064 A 
ATOM     78  C   UNL A   1      50.172  27.091  27.613  1.00  0.00     0.173 A 
ATOM     79  C   UNL A   1      50.142  26.515  29.943  1.00  0.00     0.173 A 
ATOM     80  F   UNL A   1      49.549  27.491  26.494  1.00  0.00    -0.203 F 
ATOM     81  C   UNL A   1      51.527  26.771  27.551  1.00  0.00     0.198 A 
ATOM     82  C   UNL A   1      51.505  26.227  29.887  1.00  0.00     0.198 A 
ATOM     83  F   UNL A   1      49.498  26.374  31.111  1.00  0.00    -0.203 F 
ATOM     84  F   UNL A   1      52.180  26.858  26.385  1.00  0.00    -0.200 F 
ATOM     85  C   UNL A   1      52.193  26.344  28.690  1.00  0.00     0.200 A 
ATOM     86  F   UNL A   1      52.148  25.830  30.994  1.00  0.00    -0.200 F 
ATOM     87  F   UNL A   1      53.496  26.038  28.630  1.00  0.00    -0.200 F 
ENDBRANCH  53  77
BRANCH  65  88
ATOM     88  C   UNL A   1      43.786  23.463  26.729  1.00  0.00     0.064 A 
ATOM     89  C   UNL A   1      44.214  23.258  25.409  1.00  0.00     0.173 A 
ATOM     90  C   UNL A   1      43.204  22.380  27.407  1.00  0.00     0.173 A 
ATOM     91  F   UNL A   1      44.766  24.263  24.713  1.00  0.00    -0.203 F 
ATOM     92  C   UNL A   1      44.030  22.028  24.781  1.00  0.00     0.198 A 
ATOM     93  C   UNL A   1      43.057  21.142  26.789  1.00  0.00     0.198 A 
ATOM     94  F   UNL A   1      42.788  22.519  28.674  1.00  0.00    -0.203 F 
ATOM     95  F   UNL A   1      44.388  21.874  23.499  1.00  0.00    -0.200 F 
ATOM     96  C   UNL A   1      43.458  20.971  25.473  1.00  0.00     0.200 A 
ATOM     97  F   UNL A   1      42.523  20.116  27.465  1.00  0.00    -0.200 F 
ATOM     98  F   UNL A   1      43.287  19.787  24.868  1.00  0.00    -0.200 F 
ENDBRANCH  65  88
ENDBRANCH  39  40
ENDBRANCH  31  34
ENDBRANCH  29  30
ENDBRANCH  28  29
ENDBRANCH  27  28
ENDBRANCH  26  27
ENDBRANCH  25  26
ENDBRANCH  24  25
ENDBRANCH  22  24
ENDBRANCH  19  20
ENDBRANCH   1  19
TORSDOF 26
ENDMDL
