MODEL 1
REMARK VINA RESULT:     -11.6      0.000      0.000
REMARK SMILES CC[C@H](C)N(C)C(=O)N1[C@@H](C(=O)NCCCCCCNC(=O)c2ccc(-c3c4nc(c(-c5c(F)c(F)c(F)c(F)c5F)c5ccc([nH]5)c(-c5c(F)c(F)c(F)c(F)c5F)c5nc(c(-c6c(F)c(F)c(F)c(F)c6F)c6ccc3[nH]6)C=C5)C=C4)cc2)CC[C@H]2CCCC[C@@H]21
REMARK SMILES IDX 15 1 14 2 13 3 11 4 12 5 10 7 9 8 93 9 86 10 88 11 92 12
REMARK SMILES IDX 87 13 89 14 91 15 90 16 7 17 8 18 5 19 6 20 3 21 4 22 2 23
REMARK SMILES IDX 1 24 16 25 17 26 18 27 19 28 20 29 21 30 22 32 23 33 24 34
REMARK SMILES IDX 85 35 25 36 84 37 26 38 27 39 28 40 78 41 29 42 83 43 77 44
REMARK SMILES IDX 79 45 30 46 82 47 76 48 75 49 31 51 63 52 43 53 62 54 44 55
REMARK SMILES IDX 47 56 61 57 80 58 45 59 46 60 60 62 81 63 48 64 32 65 33 66
REMARK SMILES IDX 41 67 34 68 35 69 39 70 42 71 36 72 37 73 40 74 38 75 64 76
REMARK SMILES IDX 65 77 73 78 66 79 67 80 71 81 74 82 68 83 69 84 72 85 70 86
REMARK SMILES IDX 49 87 50 88 58 89 51 90 52 91 56 92 59 93 53 94 54 95 57 96
REMARK SMILES IDX 55 97
REMARK H PARENT 13 6 20 31 79 50 47 61
REMARK Flexibility Score: inf
ROOT
ATOM      1  C   UNL A   1      32.973  29.060  27.297  1.00  0.00     0.021 C 
ENDROOT
BRANCH   1   2
ATOM      2  C   UNL A   1      33.166  27.668  26.691  1.00  0.00     0.116 C 
BRANCH   2   3
ATOM      3  N   UNL A   1      32.010  26.825  26.936  1.00  0.00    -0.354 N 
ATOM      4  C   UNL A   1      31.636  25.600  26.472  1.00  0.00     0.242 C 
ATOM      5  O   UNL A   1      30.413  25.457  26.338  1.00  0.00    -0.273 OA
ATOM      6  H   UNL A   1      31.364  27.220  27.567  1.00  0.00     0.163 HD
BRANCH   4   7
ATOM      7  C   UNL A   1      32.615  24.409  26.162  1.00  0.00     0.176 C 
ATOM      8  N   UNL A   1      33.386  24.361  24.885  1.00  0.00    -0.309 N 
ATOM      9  C   UNL A   1      34.469  23.348  24.830  1.00  0.00     0.091 C 
ATOM     10  C   UNL A   1      32.011  23.013  26.372  1.00  0.00     0.036 C 
ATOM     11  C   UNL A   1      34.392  22.329  25.994  1.00  0.00     0.012 C 
ATOM     12  C   UNL A   1      35.882  23.951  24.823  1.00  0.00     0.025 C 
ATOM     13  C   UNL A   1      32.964  21.840  26.149  1.00  0.00     0.008 C 
ATOM     14  C   UNL A   1      35.370  21.179  25.761  1.00  0.00     0.006 C 
ATOM     15  C   UNL A   1      36.935  22.847  24.654  1.00  0.00     0.002 C 
ATOM     16  C   UNL A   1      36.796  21.718  25.677  1.00  0.00     0.000 C 
BRANCH   8  17
ATOM     17  C   UNL A   1      33.255  25.371  23.941  1.00  0.00     0.320 C 
ATOM     18  O   UNL A   1      33.979  26.363  23.964  1.00  0.00    -0.248 OA
BRANCH  17  19
ATOM     19  N   UNL A   1      32.256  25.251  22.978  1.00  0.00    -0.325 N 
ATOM     20  C   UNL A   1      31.182  24.271  23.035  1.00  0.00     0.149 C 
BRANCH  19  21
ATOM     21  C   UNL A   1      32.053  26.345  21.994  1.00  0.00     0.083 C 
ATOM     22  C   UNL A   1      32.083  25.821  20.552  1.00  0.00     0.031 C 
BRANCH  21  23
ATOM     23  C   UNL A   1      30.817  27.214  22.297  1.00  0.00     0.021 C 
ATOM     24  C   UNL A   1      31.179  28.643  22.688  1.00  0.00     0.006 C 
ENDBRANCH  21  23
ENDBRANCH  19  21
ENDBRANCH  17  19
ENDBRANCH   8  17
ENDBRANCH   4   7
ENDBRANCH   2   3
ENDBRANCH   1   2
BRANCH   1  25
ATOM     25  C   UNL A   1      32.871  30.183  26.262  1.00  0.00     0.002 C 
BRANCH  25  26
ATOM     26  C   UNL A   1      31.475  30.799  26.107  1.00  0.00     0.002 C 
BRANCH  26  27
ATOM     27  C   UNL A   1      31.355  32.267  26.528  1.00  0.00     0.021 C 
BRANCH  27  28
ATOM     28  C   UNL A   1      32.586  32.832  27.227  1.00  0.00     0.116 C 
BRANCH  28  29
ATOM     29  N   UNL A   1      32.398  34.215  27.627  1.00  0.00    -0.352 N 
ATOM     30  C   UNL A   1      33.005  34.923  28.633  1.00  0.00     0.251 C 
ATOM     31  H   UNL A   1      31.738  34.719  27.099  1.00  0.00     0.163 HD
ATOM     32  O   UNL A   1      32.575  36.023  28.963  1.00  0.00    -0.269 OA
BRANCH  30  33
ATOM     33  C   UNL A   1      34.176  34.353  29.330  1.00  0.00     0.039 A 
ATOM     34  C   UNL A   1      33.968  33.603  30.491  1.00  0.00     0.014 A 
ATOM     35  C   UNL A   1      35.472  34.576  28.858  1.00  0.00     0.014 A 
ATOM     36  C   UNL A   1      35.059  33.034  31.151  1.00  0.00     0.010 A 
ATOM     37  C   UNL A   1      36.552  33.951  29.476  1.00  0.00     0.010 A 
ATOM     38  C   UNL A   1      36.356  33.182  30.633  1.00  0.00    -0.014 A 
BRANCH  38  39
ATOM     39  C   UNL A   1      37.519  32.540  31.292  1.00  0.00     0.031 A 
ATOM     40  C   UNL A   1      38.223  31.390  30.631  1.00  0.00     0.074 A 
ATOM     41  C   UNL A   1      37.899  32.952  32.515  1.00  0.00     0.049 A 
ATOM     42  N   UNL A   1      39.217  30.661  31.072  1.00  0.00    -0.248 NA
ATOM     43  C   UNL A   1      37.724  30.984  29.308  1.00  0.00     0.031 C 
ATOM     44  C   UNL A   1      37.262  34.023  33.281  1.00  0.00     0.029 A 
ATOM     45  N   UNL A   1      38.906  32.509  33.337  1.00  0.00    -0.354 N 
ATOM     46  C   UNL A   1      39.448  29.705  30.092  1.00  0.00     0.074 A 
ATOM     47  C   UNL A   1      38.457  29.911  29.059  1.00  0.00     0.031 C 
ATOM     48  C   UNL A   1      37.902  34.168  34.452  1.00  0.00     0.029 A 
ATOM     49  C   UNL A   1      38.973  33.177  34.534  1.00  0.00     0.049 A 
ATOM     50  H   UNL A   1      39.521  31.781  33.091  1.00  0.00     0.167 HD
ATOM     51  C   UNL A   1      40.414  28.756  30.049  1.00  0.00     0.037 A 
ATOM     52  C   UNL A   1      39.798  33.007  35.583  1.00  0.00     0.037 A 
ATOM     53  C   UNL A   1      41.411  28.572  31.072  1.00  0.00     0.049 A 
ATOM     54  C   UNL A   1      40.866  31.950  35.511  1.00  0.00     0.074 A 
ATOM     55  C   UNL A   1      42.477  27.689  31.091  1.00  0.00     0.029 A 
ATOM     56  N   UNL A   1      41.461  29.282  32.263  1.00  0.00    -0.354 N 
ATOM     57  N   UNL A   1      41.126  31.102  34.547  1.00  0.00    -0.248 NA
ATOM     58  C   UNL A   1      41.760  31.834  36.672  1.00  0.00     0.031 C 
ATOM     59  C   UNL A   1      43.139  27.829  32.315  1.00  0.00     0.029 A 
ATOM     60  C   UNL A   1      42.521  28.837  33.037  1.00  0.00     0.049 A 
ATOM     61  H   UNL A   1      40.834  29.997  32.521  1.00  0.00     0.167 HD
ATOM     62  C   UNL A   1      42.225  30.367  34.970  1.00  0.00     0.074 A 
ATOM     63  C   UNL A   1      42.591  30.880  36.274  1.00  0.00     0.031 C 
ATOM     64  C   UNL A   1      42.870  29.357  34.335  1.00  0.00     0.037 A 
BRANCH  51  65
ATOM     65  C   UNL A   1      40.432  27.841  28.858  1.00  0.00     0.064 A 
ATOM     66  C   UNL A   1      41.184  28.137  27.710  1.00  0.00     0.173 A 
ATOM     67  C   UNL A   1      39.698  26.645  28.869  1.00  0.00     0.173 A 
ATOM     68  F   UNL A   1      41.895  29.272  27.643  1.00  0.00    -0.203 F 
ATOM     69  C   UNL A   1      41.168  27.291  26.603  1.00  0.00     0.198 A 
ATOM     70  C   UNL A   1      39.711  25.785  27.773  1.00  0.00     0.198 A 
ATOM     71  F   UNL A   1      38.966  26.309  29.943  1.00  0.00    -0.203 F 
ATOM     72  F   UNL A   1      41.845  27.626  25.497  1.00  0.00    -0.200 F 
ATOM     73  C   UNL A   1      40.437  26.114  26.638  1.00  0.00     0.200 A 
ATOM     74  F   UNL A   1      39.014  24.641  27.813  1.00  0.00    -0.200 F 
ATOM     75  F   UNL A   1      40.423  25.300  25.573  1.00  0.00    -0.200 F 
ENDBRANCH  51  65
BRANCH  52  76
ATOM     76  C   UNL A   1      39.659  33.881  36.775  1.00  0.00     0.064 A 
ATOM     77  C   UNL A   1      40.309  35.121  36.838  1.00  0.00     0.173 A 
ATOM     78  C   UNL A   1      38.854  33.509  37.862  1.00  0.00     0.173 A 
ATOM     79  F   UNL A   1      41.104  35.511  35.832  1.00  0.00    -0.203 F 
ATOM     80  C   UNL A   1      40.167  35.952  37.948  1.00  0.00     0.198 A 
ATOM     81  C   UNL A   1      38.692  34.352  38.959  1.00  0.00     0.198 A 
ATOM     82  F   UNL A   1      38.205  32.335  37.847  1.00  0.00    -0.203 F 
ATOM     83  F   UNL A   1      40.826  37.117  37.998  1.00  0.00    -0.200 F 
ATOM     84  C   UNL A   1      39.353  35.571  39.004  1.00  0.00     0.200 A 
ATOM     85  F   UNL A   1      37.891  33.987  39.969  1.00  0.00    -0.200 F 
ATOM     86  F   UNL A   1      39.207  36.375  40.065  1.00  0.00    -0.200 F 
ENDBRANCH  52  76
BRANCH  64  87
ATOM     87  C   UNL A   1      44.057  28.756  35.032  1.00  0.00     0.064 A 
ATOM     88  C   UNL A   1      45.348  29.279  34.869  1.00  0.00     0.173 A 
ATOM     89  C   UNL A   1      43.893  27.671  35.906  1.00  0.00     0.173 A 
ATOM     90  F   UNL A   1      45.561  30.306  34.033  1.00  0.00    -0.203 F 
ATOM     91  C   UNL A   1      46.435  28.719  35.537  1.00  0.00     0.198 A 
ATOM     92  C   UNL A   1      44.976  27.134  36.595  1.00  0.00     0.198 A 
ATOM     93  F   UNL A   1      42.676  27.138  36.101  1.00  0.00    -0.203 F 
ATOM     94  F   UNL A   1      47.668  29.204  35.330  1.00  0.00    -0.200 F 
ATOM     95  C   UNL A   1      46.247  27.654  36.405  1.00  0.00     0.200 A 
ATOM     96  F   UNL A   1      44.791  26.113  37.444  1.00  0.00    -0.200 F 
ATOM     97  F   UNL A   1      47.294  27.123  37.053  1.00  0.00    -0.200 F 
ENDBRANCH  64  87
ENDBRANCH  38  39
ENDBRANCH  30  33
ENDBRANCH  28  29
ENDBRANCH  27  28
ENDBRANCH  26  27
ENDBRANCH  25  26
ENDBRANCH   1  25
TORSDOF 17
ENDMDL
MODEL 2
REMARK VINA RESULT:     -11.5      3.978      8.317
REMARK SMILES CC[C@H](C)N(C)C(=O)N1[C@@H](C(=O)NCCCCCCNC(=O)c2ccc(-c3c4nc(c(-c5c(F)c(F)c(F)c(F)c5F)c5ccc([nH]5)c(-c5c(F)c(F)c(F)c(F)c5F)c5nc(c(-c6c(F)c(F)c(F)c(F)c6F)c6ccc3[nH]6)C=C5)C=C4)cc2)CC[C@H]2CCCC[C@@H]21
REMARK SMILES IDX 15 1 14 2 13 3 11 4 12 5 10 7 9 8 93 9 86 10 88 11 92 12
REMARK SMILES IDX 87 13 89 14 91 15 90 16 7 17 8 18 5 19 6 20 3 21 4 22 2 23
REMARK SMILES IDX 1 24 16 25 17 26 18 27 19 28 20 29 21 30 22 32 23 33 24 34
REMARK SMILES IDX 85 35 25 36 84 37 26 38 27 39 28 40 78 41 29 42 83 43 77 44
REMARK SMILES IDX 79 45 30 46 82 47 76 48 75 49 31 51 63 52 43 53 62 54 44 55
REMARK SMILES IDX 47 56 61 57 80 58 45 59 46 60 60 62 81 63 48 64 32 65 33 66
REMARK SMILES IDX 41 67 34 68 35 69 39 70 42 71 36 72 37 73 40 74 38 75 64 76
REMARK SMILES IDX 65 77 73 78 66 79 67 80 71 81 74 82 68 83 69 84 72 85 70 86
REMARK SMILES IDX 49 87 50 88 58 89 51 90 52 91 56 92 59 93 53 94 54 95 57 96
REMARK SMILES IDX 55 97
REMARK H PARENT 13 6 20 31 79 50 47 61
REMARK Flexibility Score: inf
ROOT
ATOM      1  C   UNL A   1      33.845  22.290  23.646  1.00  0.00     0.021 C 
ENDROOT
BRANCH   1   2
ATOM      2  C   UNL A   1      32.880  23.477  23.691  1.00  0.00     0.116 C 
BRANCH   2   3
ATOM      3  N   UNL A   1      33.475  24.659  23.094  1.00  0.00    -0.354 N 
ATOM      4  C   UNL A   1      32.950  25.754  22.476  1.00  0.00     0.242 C 
ATOM      5  O   UNL A   1      33.653  26.210  21.563  1.00  0.00    -0.273 OA
ATOM      6  H   UNL A   1      34.458  24.673  23.148  1.00  0.00     0.163 HD
BRANCH   4   7
ATOM      7  C   UNL A   1      31.600  26.458  22.867  1.00  0.00     0.176 C 
ATOM      8  N   UNL A   1      31.581  27.610  23.816  1.00  0.00    -0.309 N 
ATOM      9  C   UNL A   1      30.300  28.356  23.889  1.00  0.00     0.091 C 
ATOM     10  C   UNL A   1      30.482  25.500  23.306  1.00  0.00     0.036 C 
ATOM     11  C   UNL A   1      29.134  27.609  23.196  1.00  0.00     0.012 C 
ATOM     12  C   UNL A   1      30.373  29.772  23.298  1.00  0.00     0.025 C 
ATOM     13  C   UNL A   1      29.137  26.152  23.620  1.00  0.00     0.008 C 
ATOM     14  C   UNL A   1      27.804  28.294  23.505  1.00  0.00     0.006 C 
ATOM     15  C   UNL A   1      29.045  30.511  23.513  1.00  0.00     0.002 C 
ATOM     16  C   UNL A   1      27.831  29.734  23.000  1.00  0.00     0.000 C 
BRANCH   8  17
ATOM     17  C   UNL A   1      32.759  28.087  24.373  1.00  0.00     0.320 C 
ATOM     18  O   UNL A   1      33.471  28.888  23.773  1.00  0.00    -0.248 OA
BRANCH  17  19
ATOM     19  N   UNL A   1      33.140  27.610  25.625  1.00  0.00    -0.325 N 
ATOM     20  C   UNL A   1      33.892  26.382  25.835  1.00  0.00     0.149 C 
BRANCH  19  21
ATOM     21  C   UNL A   1      33.070  28.511  26.804  1.00  0.00     0.083 C 
ATOM     22  C   UNL A   1      34.345  29.353  26.946  1.00  0.00     0.031 C 
BRANCH  21  23
ATOM     23  C   UNL A   1      31.780  29.352  26.852  1.00  0.00     0.021 C 
ATOM     24  C   UNL A   1      32.033  30.837  26.617  1.00  0.00     0.006 C 
ENDBRANCH  21  23
ENDBRANCH  19  21
ENDBRANCH  17  19
ENDBRANCH   8  17
ENDBRANCH   4   7
ENDBRANCH   2   3
ENDBRANCH   1   2
BRANCH   1  25
ATOM     25  C   UNL A   1      33.786  21.391  24.883  1.00  0.00     0.002 C 
BRANCH  25  26
ATOM     26  C   UNL A   1      34.974  21.529  25.843  1.00  0.00     0.002 C 
BRANCH  26  27
ATOM     27  C   UNL A   1      35.300  22.959  26.284  1.00  0.00     0.021 C 
BRANCH  27  28
ATOM     28  C   UNL A   1      36.641  23.488  25.787  1.00  0.00     0.116 C 
BRANCH  28  29
ATOM     29  N   UNL A   1      37.723  22.552  26.038  1.00  0.00    -0.352 N 
ATOM     30  C   UNL A   1      39.006  22.793  26.458  1.00  0.00     0.251 C 
ATOM     31  H   UNL A   1      37.503  21.605  25.881  1.00  0.00     0.163 HD
ATOM     32  O   UNL A   1      39.848  21.902  26.417  1.00  0.00    -0.269 OA
BRANCH  30  33
ATOM     33  C   UNL A   1      39.379  24.134  26.952  1.00  0.00     0.039 A 
ATOM     34  C   UNL A   1      39.116  24.456  28.286  1.00  0.00     0.014 A 
ATOM     35  C   UNL A   1      39.962  25.076  26.101  1.00  0.00     0.014 A 
ATOM     36  C   UNL A   1      39.484  25.709  28.780  1.00  0.00     0.010 A 
ATOM     37  C   UNL A   1      40.392  26.298  26.612  1.00  0.00     0.010 A 
ATOM     38  C   UNL A   1      40.149  26.629  27.953  1.00  0.00    -0.014 A 
BRANCH  38  39
ATOM     39  C   UNL A   1      40.595  27.943  28.476  1.00  0.00     0.031 A 
ATOM     40  C   UNL A   1      42.040  28.172  28.814  1.00  0.00     0.074 A 
ATOM     41  C   UNL A   1      39.685  28.908  28.708  1.00  0.00     0.049 A 
ATOM     42  N   UNL A   1      42.612  29.227  29.337  1.00  0.00    -0.248 NA
ATOM     43  C   UNL A   1      42.961  27.055  28.559  1.00  0.00     0.031 C 
ATOM     44  C   UNL A   1      38.246  28.787  28.469  1.00  0.00     0.029 A 
ATOM     45  N   UNL A   1      39.833  30.177  29.209  1.00  0.00    -0.354 N 
ATOM     46  C   UNL A   1      43.952  28.894  29.487  1.00  0.00     0.074 A 
ATOM     47  C   UNL A   1      44.097  27.522  29.052  1.00  0.00     0.031 C 
ATOM     48  C   UNL A   1      37.646  29.939  28.806  1.00  0.00     0.029 A 
ATOM     49  C   UNL A   1      38.652  30.867  29.316  1.00  0.00     0.049 A 
ATOM     50  H   UNL A   1      40.705  30.556  29.467  1.00  0.00     0.167 HD
ATOM     51  C   UNL A   1      44.971  29.671  29.927  1.00  0.00     0.037 A 
ATOM     52  C   UNL A   1      38.405  32.106  29.780  1.00  0.00     0.037 A 
ATOM     53  C   UNL A   1      44.822  31.043  30.337  1.00  0.00     0.049 A 
ATOM     54  C   UNL A   1      39.552  32.952  30.259  1.00  0.00     0.074 A 
ATOM     55  C   UNL A   1      45.801  31.939  30.729  1.00  0.00     0.029 A 
ATOM     56  N   UNL A   1      43.611  31.717  30.413  1.00  0.00    -0.354 N 
ATOM     57  N   UNL A   1      40.827  32.655  30.324  1.00  0.00    -0.248 NA
ATOM     58  C   UNL A   1      39.227  34.309  30.721  1.00  0.00     0.031 C 
ATOM     59  C   UNL A   1      45.177  33.137  31.092  1.00  0.00     0.029 A 
ATOM     60  C   UNL A   1      43.815  33.008  30.874  1.00  0.00     0.049 A 
ATOM     61  H   UNL A   1      42.736  31.334  30.175  1.00  0.00     0.167 HD
ATOM     62  C   UNL A   1      41.460  33.791  30.811  1.00  0.00     0.074 A 
ATOM     63  C   UNL A   1      40.429  34.788  31.011  1.00  0.00     0.031 C 
ATOM     64  C   UNL A   1      42.776  33.988  31.070  1.00  0.00     0.037 A 
BRANCH  51  65
ATOM     65  C   UNL A   1      46.336  29.047  29.991  1.00  0.00     0.064 A 
ATOM     66  C   UNL A   1      46.725  28.227  31.062  1.00  0.00     0.173 A 
ATOM     67  C   UNL A   1      47.265  29.262  28.961  1.00  0.00     0.173 A 
ATOM     68  F   UNL A   1      45.880  27.998  32.078  1.00  0.00    -0.203 F 
ATOM     69  C   UNL A   1      48.004  27.679  31.119  1.00  0.00     0.198 A 
ATOM     70  C   UNL A   1      48.532  28.684  29.005  1.00  0.00     0.198 A 
ATOM     71  F   UNL A   1      46.945  30.032  27.910  1.00  0.00    -0.203 F 
ATOM     72  F   UNL A   1      48.372  26.950  32.182  1.00  0.00    -0.200 F 
ATOM     73  C   UNL A   1      48.904  27.903  30.089  1.00  0.00     0.200 A 
ATOM     74  F   UNL A   1      49.396  28.891  28.002  1.00  0.00    -0.200 F 
ATOM     75  F   UNL A   1      50.134  27.374  30.145  1.00  0.00    -0.200 F 
ENDBRANCH  51  65
BRANCH  52  76
ATOM     76  C   UNL A   1      37.013  32.624  29.783  1.00  0.00     0.064 A 
ATOM     77  C   UNL A   1      36.188  32.465  30.904  1.00  0.00     0.173 A 
ATOM     78  C   UNL A   1      36.489  33.311  28.678  1.00  0.00     0.173 A 
ATOM     79  F   UNL A   1      36.639  31.798  31.976  1.00  0.00    -0.203 F 
ATOM     80  C   UNL A   1      34.887  32.964  30.917  1.00  0.00     0.198 A 
ATOM     81  C   UNL A   1      35.197  33.834  28.702  1.00  0.00     0.198 A 
ATOM     82  F   UNL A   1      37.241  33.496  27.583  1.00  0.00    -0.203 F 
ATOM     83  F   UNL A   1      34.108  32.769  31.989  1.00  0.00    -0.200 F 
ATOM     84  C   UNL A   1      34.396  33.655  29.820  1.00  0.00     0.200 A 
ATOM     85  F   UNL A   1      34.733  34.514  27.646  1.00  0.00    -0.200 F 
ATOM     86  F   UNL A   1      33.150  34.146  29.837  1.00  0.00    -0.200 F 
ENDBRANCH  52  76
BRANCH  64  87
ATOM     87  C   UNL A   1      43.181  35.343  31.575  1.00  0.00     0.064 A 
ATOM     88  C   UNL A   1      43.154  35.656  32.942  1.00  0.00     0.173 A 
ATOM     89  C   UNL A   1      43.640  36.325  30.685  1.00  0.00     0.173 A 
ATOM     90  F   UNL A   1      42.708  34.758  33.833  1.00  0.00    -0.203 F 
ATOM     91  C   UNL A   1      43.549  36.913  33.395  1.00  0.00     0.198 A 
ATOM     92  C   UNL A   1      44.064  37.568  31.143  1.00  0.00     0.198 A 
ATOM     93  F   UNL A   1      43.691  36.073  29.367  1.00  0.00    -0.203 F 
ATOM     94  F   UNL A   1      43.472  37.207  34.700  1.00  0.00    -0.200 F 
ATOM     95  C   UNL A   1      44.011  37.864  32.497  1.00  0.00     0.200 A 
ATOM     96  F   UNL A   1      44.522  38.482  30.277  1.00  0.00    -0.200 F 
ATOM     97  F   UNL A   1      44.399  39.069  32.937  1.00  0.00    -0.200 F 
ENDBRANCH  64  87
ENDBRANCH  38  39
ENDBRANCH  30  33
ENDBRANCH  28  29
ENDBRANCH  27  28
ENDBRANCH  26  27
ENDBRANCH  25  26
ENDBRANCH   1  25
TORSDOF 17
ENDMDL
MODEL 3
REMARK VINA RESULT:     -11.4      2.052      7.808
REMARK SMILES CC[C@H](C)N(C)C(=O)N1[C@@H](C(=O)NCCCCCCNC(=O)c2ccc(-c3c4nc(c(-c5c(F)c(F)c(F)c(F)c5F)c5ccc([nH]5)c(-c5c(F)c(F)c(F)c(F)c5F)c5nc(c(-c6c(F)c(F)c(F)c(F)c6F)c6ccc3[nH]6)C=C5)C=C4)cc2)CC[C@H]2CCCC[C@@H]21
REMARK SMILES IDX 15 1 14 2 13 3 11 4 12 5 10 7 9 8 93 9 86 10 88 11 92 12
REMARK SMILES IDX 87 13 89 14 91 15 90 16 7 17 8 18 5 19 6 20 3 21 4 22 2 23
REMARK SMILES IDX 1 24 16 25 17 26 18 27 19 28 20 29 21 30 22 32 23 33 24 34
REMARK SMILES IDX 85 35 25 36 84 37 26 38 27 39 28 40 78 41 29 42 83 43 77 44
REMARK SMILES IDX 79 45 30 46 82 47 76 48 75 49 31 51 63 52 43 53 62 54 44 55
REMARK SMILES IDX 47 56 61 57 80 58 45 59 46 60 60 62 81 63 48 64 32 65 33 66
REMARK SMILES IDX 41 67 34 68 35 69 39 70 42 71 36 72 37 73 40 74 38 75 64 76
REMARK SMILES IDX 65 77 73 78 66 79 67 80 71 81 74 82 68 83 69 84 72 85 70 86
REMARK SMILES IDX 49 87 50 88 58 89 51 90 52 91 56 92 59 93 53 94 54 95 57 96
REMARK SMILES IDX 55 97
REMARK H PARENT 13 6 20 31 79 50 47 61
REMARK Flexibility Score: inf
ROOT
ATOM      1  C   UNL A   1      33.756  27.001  25.764  1.00  0.00     0.021 C 
ENDROOT
BRANCH   1   2
ATOM      2  C   UNL A   1      33.080  25.748  25.204  1.00  0.00     0.116 C 
BRANCH   2   3
ATOM      3  N   UNL A   1      32.652  24.862  26.271  1.00  0.00    -0.354 N 
ATOM      4  C   UNL A   1      32.007  23.661  26.281  1.00  0.00     0.242 C 
ATOM      5  O   UNL A   1      31.251  23.497  27.249  1.00  0.00    -0.273 OA
ATOM      6  H   UNL A   1      32.874  25.196  27.171  1.00  0.00     0.163 HD
BRANCH   4   7
ATOM      7  C   UNL A   1      32.196  22.520  25.216  1.00  0.00     0.176 C 
ATOM      8  N   UNL A   1      33.479  21.763  25.121  1.00  0.00    -0.309 N 
ATOM      9  C   UNL A   1      33.439  20.543  24.278  1.00  0.00     0.091 C 
ATOM     10  C   UNL A   1      31.799  22.908  23.784  1.00  0.00     0.036 C 
ATOM     11  C   UNL A   1      32.158  20.457  23.413  1.00  0.00     0.012 C 
ATOM     12  C   UNL A   1      33.561  19.235  25.075  1.00  0.00     0.025 C 
ATOM     13  C   UNL A   1      31.903  21.794  22.744  1.00  0.00     0.008 C 
ATOM     14  C   UNL A   1      32.276  19.321  22.398  1.00  0.00     0.006 C 
ATOM     15  C   UNL A   1      33.623  18.032  24.124  1.00  0.00     0.002 C 
ATOM     16  C   UNL A   1      32.465  17.992  23.124  1.00  0.00     0.000 C 
BRANCH   8  17
ATOM     17  C   UNL A   1      34.536  22.051  25.974  1.00  0.00     0.320 C 
ATOM     18  O   UNL A   1      34.464  21.824  27.179  1.00  0.00    -0.248 OA
BRANCH  17  19
ATOM     19  N   UNL A   1      35.679  22.639  25.437  1.00  0.00    -0.325 N 
ATOM     20  C   UNL A   1      36.426  23.707  26.084  1.00  0.00     0.149 C 
BRANCH  19  21
ATOM     21  C   UNL A   1      36.383  21.977  24.310  1.00  0.00     0.083 C 
ATOM     22  C   UNL A   1      36.645  22.953  23.155  1.00  0.00     0.031 C 
BRANCH  21  23
ATOM     23  C   UNL A   1      37.643  21.206  24.749  1.00  0.00     0.021 C 
ATOM     24  C   UNL A   1      37.374  19.726  25.001  1.00  0.00     0.006 C 
ENDBRANCH  21  23
ENDBRANCH  19  21
ENDBRANCH  17  19
ENDBRANCH   8  17
ENDBRANCH   4   7
ENDBRANCH   2   3
ENDBRANCH   1   2
BRANCH   1  25
ATOM     25  C   UNL A   1      33.716  28.207  24.823  1.00  0.00     0.002 C 
BRANCH  25  26
ATOM     26  C   UNL A   1      32.310  28.683  24.437  1.00  0.00     0.002 C 
BRANCH  26  27
ATOM     27  C   UNL A   1      31.680  29.707  25.386  1.00  0.00     0.021 C 
BRANCH  27  28
ATOM     28  C   UNL A   1      32.584  30.157  26.529  1.00  0.00     0.116 C 
BRANCH  28  29
ATOM     29  N   UNL A   1      32.591  31.601  26.682  1.00  0.00    -0.352 N 
ATOM     30  C   UNL A   1      33.396  32.392  27.461  1.00  0.00     0.251 C 
ATOM     31  H   UNL A   1      31.919  32.083  26.149  1.00  0.00     0.163 HD
ATOM     32  O   UNL A   1      33.127  33.576  27.627  1.00  0.00    -0.269 OA
BRANCH  30  33
ATOM     33  C   UNL A   1      34.588  31.812  28.114  1.00  0.00     0.039 A 
ATOM     34  C   UNL A   1      35.733  32.601  28.246  1.00  0.00     0.014 A 
ATOM     35  C   UNL A   1      34.585  30.492  28.572  1.00  0.00     0.014 A 
ATOM     36  C   UNL A   1      36.862  32.081  28.882  1.00  0.00     0.010 A 
ATOM     37  C   UNL A   1      35.685  29.998  29.269  1.00  0.00     0.010 A 
ATOM     38  C   UNL A   1      36.836  30.785  29.422  1.00  0.00    -0.014 A 
BRANCH  38  39
ATOM     39  C   UNL A   1      38.007  30.236  30.148  1.00  0.00     0.031 A 
ATOM     40  C   UNL A   1      38.288  30.662  31.560  1.00  0.00     0.074 A 
ATOM     41  C   UNL A   1      38.853  29.405  29.511  1.00  0.00     0.049 A 
ATOM     42  N   UNL A   1      39.291  30.343  32.339  1.00  0.00    -0.248 NA
ATOM     43  C   UNL A   1      37.331  31.597  32.170  1.00  0.00     0.031 C 
ATOM     44  C   UNL A   1      38.714  28.960  28.124  1.00  0.00     0.029 A 
ATOM     45  N   UNL A   1      40.005  28.796  29.943  1.00  0.00    -0.354 N 
ATOM     46  C   UNL A   1      39.093  31.048  33.519  1.00  0.00     0.074 A 
ATOM     47  C   UNL A   1      37.906  31.853  33.335  1.00  0.00     0.031 C 
ATOM     48  C   UNL A   1      39.730  28.136  27.824  1.00  0.00     0.029 A 
ATOM     49  C   UNL A   1      40.609  28.021  28.985  1.00  0.00     0.049 A 
ATOM     50  H   UNL A   1      40.363  28.905  30.854  1.00  0.00     0.167 HD
ATOM     51  C   UNL A   1      39.824  31.008  34.659  1.00  0.00     0.037 A 
ATOM     52  C   UNL A   1      41.747  27.305  29.033  1.00  0.00     0.037 A 
ATOM     53  C   UNL A   1      40.992  30.186  34.842  1.00  0.00     0.049 A 
ATOM     54  C   UNL A   1      42.540  27.273  30.311  1.00  0.00     0.074 A 
ATOM     55  C   UNL A   1      41.760  30.018  35.981  1.00  0.00     0.029 A 
ATOM     56  N   UNL A   1      41.564  29.397  33.855  1.00  0.00    -0.354 N 
ATOM     57  N   UNL A   1      42.302  27.882  31.447  1.00  0.00    -0.248 NA
ATOM     58  C   UNL A   1      43.754  26.445  30.315  1.00  0.00     0.031 C 
ATOM     59  C   UNL A   1      42.826  29.168  35.667  1.00  0.00     0.029 A 
ATOM     60  C   UNL A   1      42.692  28.763  34.349  1.00  0.00     0.049 A 
ATOM     61  H   UNL A   1      41.219  29.302  32.937  1.00  0.00     0.167 HD
ATOM     62  C   UNL A   1      43.320  27.497  32.307  1.00  0.00     0.074 A 
ATOM     63  C   UNL A   1      44.170  26.588  31.566  1.00  0.00     0.031 C 
ATOM     64  C   UNL A   1      43.531  27.863  33.596  1.00  0.00     0.037 A 
BRANCH  51  65
ATOM     65  C   UNL A   1      39.380  31.886  35.794  1.00  0.00     0.064 A 
ATOM     66  C   UNL A   1      38.402  31.471  36.712  1.00  0.00     0.173 A 
ATOM     67  C   UNL A   1      39.950  33.156  35.976  1.00  0.00     0.173 A 
ATOM     68  F   UNL A   1      37.818  30.271  36.578  1.00  0.00    -0.203 F 
ATOM     69  C   UNL A   1      37.983  32.308  37.743  1.00  0.00     0.198 A 
ATOM     70  C   UNL A   1      39.552  33.977  37.029  1.00  0.00     0.198 A 
ATOM     71  F   UNL A   1      40.894  33.601  35.132  1.00  0.00    -0.203 F 
ATOM     72  F   UNL A   1      37.004  31.913  38.568  1.00  0.00    -0.200 F 
ATOM     73  C   UNL A   1      38.562  33.558  37.904  1.00  0.00     0.200 A 
ATOM     74  F   UNL A   1      40.122  35.179  37.191  1.00  0.00    -0.200 F 
ATOM     75  F   UNL A   1      38.158  34.362  38.897  1.00  0.00    -0.200 F 
ENDBRANCH  51  65
BRANCH  52  76
ATOM     76  C   UNL A   1      42.183  26.539  27.837  1.00  0.00     0.064 A 
ATOM     77  C   UNL A   1      43.139  27.063  26.956  1.00  0.00     0.173 A 
ATOM     78  C   UNL A   1      41.676  25.260  27.566  1.00  0.00     0.173 A 
ATOM     79  F   UNL A   1      43.638  28.290  27.164  1.00  0.00    -0.203 F 
ATOM     80  C   UNL A   1      43.563  26.341  25.842  1.00  0.00     0.198 A 
ATOM     81  C   UNL A   1      42.120  24.528  26.467  1.00  0.00     0.198 A 
ATOM     82  F   UNL A   1      40.764  24.712  28.383  1.00  0.00    -0.203 F 
ATOM     83  F   UNL A   1      44.452  26.878  24.997  1.00  0.00    -0.200 F 
ATOM     84  C   UNL A   1      43.059  25.071  25.603  1.00  0.00     0.200 A 
ATOM     85  F   UNL A   1      41.643  23.295  26.250  1.00  0.00    -0.200 F 
ATOM     86  F   UNL A   1      43.476  24.372  24.540  1.00  0.00    -0.200 F 
ENDBRANCH  52  76
BRANCH  64  87
ATOM     87  C   UNL A   1      44.716  27.262  34.295  1.00  0.00     0.064 A 
ATOM     88  C   UNL A   1      45.960  27.909  34.323  1.00  0.00     0.173 A 
ATOM     89  C   UNL A   1      44.593  26.045  34.982  1.00  0.00     0.173 A 
ATOM     90  F   UNL A   1      46.133  29.068  33.668  1.00  0.00    -0.203 F 
ATOM     91  C   UNL A   1      47.044  27.346  34.991  1.00  0.00     0.198 A 
ATOM     92  C   UNL A   1      45.670  25.500  35.675  1.00  0.00     0.198 A 
ATOM     93  F   UNL A   1      43.422  25.389  34.992  1.00  0.00    -0.203 F 
ATOM     94  F   UNL A   1      48.236  27.958  34.965  1.00  0.00    -0.200 F 
ATOM     95  C   UNL A   1      46.896  26.147  35.673  1.00  0.00     0.200 A 
ATOM     96  F   UNL A   1      45.522  24.349  36.344  1.00  0.00    -0.200 F 
ATOM     97  F   UNL A   1      47.939  25.612  36.322  1.00  0.00    -0.200 F 
ENDBRANCH  64  87
ENDBRANCH  38  39
ENDBRANCH  30  33
ENDBRANCH  28  29
ENDBRANCH  27  28
ENDBRANCH  26  27
ENDBRANCH  25  26
ENDBRANCH   1  25
TORSDOF 17
ENDMDL
