MODEL 1
REMARK VINA RESULT:     -12.0      0.000      0.000
REMARK SMILES CC1(C)S[C@H](c2ccc([N+](=O)[O-])cc2)[NH2+][C@@H]1C(=O)NCCCCCCNC(=O)c1ccc(-c2c3nc(c(-c4c(F)c(F)c(F)c(F)c4F)c4ccc([nH]4)c(-c4c(F)c(F)c(F)c(F)c4F)c4nc(c(-c5c(F)c(F)c(F)c(F)c5F)c5ccc2[nH]5)C=C4)C=C3)cc1
REMARK SMILES IDX 22 1 21 2 20 3 19 4 17 5 18 6 16 8 1 9 2 10 3 11 4 12 5 13
REMARK SMILES IDX 15 14 6 17 7 18 14 19 8 20 13 21 9 22 10 23 11 24 12 25
REMARK SMILES IDX 23 26 24 27 25 28 26 29 27 30 28 32 29 33 30 34 91 35 31 36
REMARK SMILES IDX 90 37 32 38 33 39 34 40 84 41 35 42 89 43 83 44 85 45 36 46
REMARK SMILES IDX 88 47 82 48 81 49 37 51 69 52 49 53 68 54 50 55 53 56 67 57
REMARK SMILES IDX 86 58 51 59 52 60 66 62 87 63 54 64 38 65 39 66 47 67 40 68
REMARK SMILES IDX 41 69 45 70 48 71 42 72 43 73 46 74 44 75 70 76 71 77 79 78
REMARK SMILES IDX 72 79 73 80 77 81 80 82 74 83 75 84 78 85 76 86 55 87 56 88
REMARK SMILES IDX 64 89 57 90 58 91 62 92 65 93 59 94 60 95 63 96 61 97
REMARK H PARENT 19 7 15 15 15 16 26 31 85 50 53 61
REMARK Flexibility Score: inf
ROOT
ATOM      1  C   UNL A   1      33.084  30.157  27.424  1.00  0.00     0.002 C 
ENDROOT
BRANCH   1   2
ATOM      2  C   UNL A   1      33.497  28.686  27.247  1.00  0.00     0.021 C 
BRANCH   2   3
ATOM      3  C   UNL A   1      34.520  28.361  26.154  1.00  0.00     0.116 C 
BRANCH   3   4
ATOM      4  N   UNL A   1      34.182  28.909  24.854  1.00  0.00    -0.351 N 
ATOM      5  C   UNL A   1      33.157  28.566  24.006  1.00  0.00     0.279 C 
ATOM      6  O   UNL A   1      32.959  29.328  23.061  1.00  0.00    -0.268 OA
ATOM      7  H   UNL A   1      34.771  29.629  24.534  1.00  0.00     0.163 HD
BRANCH   5   8
ATOM      8  C   UNL A   1      32.376  27.245  24.233  1.00  0.00     0.289 C 
ATOM      9  C   UNL A   1      32.134  24.801  23.592  1.00  0.00     0.030 C 
ATOM     10  C   UNL A   1      32.291  26.239  23.054  1.00  0.00     0.077 C 
ATOM     11  C   UNL A   1      33.444  26.239  22.045  1.00  0.00     0.030 C 
ATOM     12  S   UNL A   1      30.747  26.691  22.197  1.00  0.00    -0.081 SA
ATOM     13  C   UNL A   1      30.061  27.614  23.590  1.00  0.00     0.274 C 
ATOM     14  N   UNL A   1      30.988  27.511  24.736  1.00  0.00    -0.320 N 
ATOM     15  H   UNL A   1      30.693  26.747  25.344  1.00  0.00     0.348 HD
ATOM     16  H   UNL A   1      30.978  28.386  25.262  1.00  0.00     0.348 HD
BRANCH  13  17
ATOM     17  C   UNL A   1      29.620  29.025  23.214  1.00  0.00     0.021 A 
ATOM     18  C   UNL A   1      29.821  30.125  24.056  1.00  0.00     0.018 A 
ATOM     19  C   UNL A   1      28.951  29.264  21.998  1.00  0.00     0.018 A 
ATOM     20  C   UNL A   1      29.396  31.410  23.723  1.00  0.00     0.086 A 
ATOM     21  C   UNL A   1      28.509  30.549  21.647  1.00  0.00     0.086 A 
ATOM     22  C   UNL A   1      28.736  31.620  22.518  1.00  0.00     0.269 A 
BRANCH  22  23
ATOM     23  N   UNL A   1      28.270  32.970  22.183  1.00  0.00     0.062 N 
ATOM     24  O   UNL A   1      28.489  33.873  23.005  1.00  0.00    -0.258 OA
ATOM     25  O   UNL A   1      27.675  33.125  21.109  1.00  0.00    -0.258 OA
ENDBRANCH  22  23
ENDBRANCH  13  17
ENDBRANCH   5   8
ENDBRANCH   3   4
ENDBRANCH   2   3
ENDBRANCH   1   2
BRANCH   1  26
ATOM     26  C   UNL A   1      31.709  30.577  26.902  1.00  0.00     0.002 C 
BRANCH  26  27
ATOM     27  C   UNL A   1      31.425  32.079  26.841  1.00  0.00     0.021 C 
BRANCH  27  28
ATOM     28  C   UNL A   1      32.655  32.979  26.880  1.00  0.00     0.116 C 
BRANCH  28  29
ATOM     29  N   UNL A   1      32.423  34.245  27.552  1.00  0.00    -0.352 N 
ATOM     30  C   UNL A   1      33.045  34.774  28.654  1.00  0.00     0.251 C 
ATOM     31  H   UNL A   1      31.715  34.807  27.159  1.00  0.00     0.163 HD
ATOM     32  O   UNL A   1      32.632  35.831  29.135  1.00  0.00    -0.269 OA
BRANCH  30  33
ATOM     33  C   UNL A   1      34.191  34.086  29.295  1.00  0.00     0.039 A 
ATOM     34  C   UNL A   1      35.482  34.556  29.031  1.00  0.00     0.014 A 
ATOM     35  C   UNL A   1      34.021  32.960  30.107  1.00  0.00     0.014 A 
ATOM     36  C   UNL A   1      36.590  33.920  29.596  1.00  0.00     0.010 A 
ATOM     37  C   UNL A   1      35.121  32.374  30.734  1.00  0.00     0.010 A 
ATOM     38  C   UNL A   1      36.418  32.831  30.466  1.00  0.00    -0.014 A 
BRANCH  38  39
ATOM     39  C   UNL A   1      37.592  32.141  31.062  1.00  0.00     0.031 A 
ATOM     40  C   UNL A   1      38.059  32.500  32.448  1.00  0.00     0.074 A 
ATOM     41  C   UNL A   1      38.252  31.210  30.349  1.00  0.00     0.049 A 
ATOM     42  N   UNL A   1      39.058  32.011  33.140  1.00  0.00    -0.248 NA
ATOM     43  C   UNL A   1      37.322  33.570  33.139  1.00  0.00     0.031 C 
ATOM     44  C   UNL A   1      37.932  30.813  28.978  1.00  0.00     0.029 A 
ATOM     45  N   UNL A   1      39.331  30.427  30.678  1.00  0.00    -0.354 N 
ATOM     46  C   UNL A   1      39.073  32.717  34.337  1.00  0.00     0.074 A 
ATOM     47  C   UNL A   1      38.026  33.711  34.252  1.00  0.00     0.031 C 
ATOM     48  C   UNL A   1      38.773  29.839  28.594  1.00  0.00     0.029 A 
ATOM     49  C   UNL A   1      39.709  29.562  29.680  1.00  0.00     0.049 A 
ATOM     50  H   UNL A   1      39.790  30.480  31.547  1.00  0.00     0.167 HD
ATOM     51  C   UNL A   1      39.866  32.534  35.419  1.00  0.00     0.037 A 
ATOM     52  C   UNL A   1      40.696  28.648  29.648  1.00  0.00     0.037 A 
ATOM     53  C   UNL A   1      40.891  31.527  35.509  1.00  0.00     0.049 A 
ATOM     54  C   UNL A   1      41.557  28.457  30.869  1.00  0.00     0.074 A 
ATOM     55  C   UNL A   1      41.711  31.220  36.581  1.00  0.00     0.029 A 
ATOM     56  N   UNL A   1      41.235  30.659  34.482  1.00  0.00    -0.354 N 
ATOM     57  N   UNL A   1      41.513  29.079  32.021  1.00  0.00    -0.248 NA
ATOM     58  C   UNL A   1      42.598  27.424  30.785  1.00  0.00     0.031 C 
ATOM     59  C   UNL A   1      42.585  30.200  36.186  1.00  0.00     0.029 A 
ATOM     60  C   UNL A   1      42.272  29.833  34.887  1.00  0.00     0.049 A 
ATOM     61  H   UNL A   1      40.808  30.634  33.596  1.00  0.00     0.167 HD
ATOM     62  C   UNL A   1      42.498  28.498  32.808  1.00  0.00     0.074 A 
ATOM     63  C   UNL A   1      43.107  27.457  32.007  1.00  0.00     0.031 C 
ATOM     64  C   UNL A   1      42.869  28.802  34.077  1.00  0.00     0.037 A 
BRANCH  51  65
ATOM     65  C   UNL A   1      39.655  33.443  36.597  1.00  0.00     0.064 A 
ATOM     66  C   UNL A   1      38.803  33.091  37.657  1.00  0.00     0.173 A 
ATOM     67  C   UNL A   1      40.332  34.668  36.684  1.00  0.00     0.173 A 
ATOM     68  F   UNL A   1      38.122  31.935  37.620  1.00  0.00    -0.203 F 
ATOM     69  C   UNL A   1      38.612  33.945  38.740  1.00  0.00     0.198 A 
ATOM     70  C   UNL A   1      40.163  35.506  37.785  1.00  0.00     0.198 A 
ATOM     71  F   UNL A   1      41.162  35.055  35.704  1.00  0.00    -0.203 F 
ATOM     72  F   UNL A   1      37.751  33.611  39.711  1.00  0.00    -0.200 F 
ATOM     73  C   UNL A   1      39.297  35.149  38.806  1.00  0.00     0.200 A 
ATOM     74  F   UNL A   1      40.837  36.663  37.853  1.00  0.00    -0.200 F 
ATOM     75  F   UNL A   1      39.115  35.968  39.851  1.00  0.00    -0.200 F 
ENDBRANCH  51  65
BRANCH  52  76
ATOM     76  C   UNL A   1      40.900  27.816  28.432  1.00  0.00     0.064 A 
ATOM     77  C   UNL A   1      41.779  28.225  27.419  1.00  0.00     0.173 A 
ATOM     78  C   UNL A   1      40.217  26.606  28.253  1.00  0.00     0.173 A 
ATOM     79  F   UNL A   1      42.440  29.387  27.535  1.00  0.00    -0.203 F 
ATOM     80  C   UNL A   1      41.947  27.468  26.262  1.00  0.00     0.198 A 
ATOM     81  C   UNL A   1      40.409  25.833  27.109  1.00  0.00     0.198 A 
ATOM     82  F   UNL A   1      39.368  26.167  29.194  1.00  0.00    -0.203 F 
ATOM     83  F   UNL A   1      42.753  27.908  25.287  1.00  0.00    -0.200 F 
ATOM     84  C   UNL A   1      41.266  26.269  26.110  1.00  0.00     0.200 A 
ATOM     85  F   UNL A   1      39.759  24.669  26.972  1.00  0.00    -0.200 F 
ATOM     86  F   UNL A   1      41.428  25.540  24.998  1.00  0.00    -0.200 F 
ENDBRANCH  52  76
BRANCH  64  87
ATOM     87  C   UNL A   1      43.968  27.976  34.682  1.00  0.00     0.064 A 
ATOM     88  C   UNL A   1      43.702  26.777  35.362  1.00  0.00     0.173 A 
ATOM     89  C   UNL A   1      45.306  28.382  34.571  1.00  0.00     0.173 A 
ATOM     90  F   UNL A   1      42.438  26.350  35.508  1.00  0.00    -0.203 F 
ATOM     91  C   UNL A   1      44.730  26.038  35.940  1.00  0.00     0.198 A 
ATOM     92  C   UNL A   1      46.335  27.623  35.121  1.00  0.00     0.198 A 
ATOM     93  F   UNL A   1      45.618  29.516  33.925  1.00  0.00    -0.203 F 
ATOM     94  F   UNL A   1      44.445  24.930  36.639  1.00  0.00    -0.200 F 
ATOM     95  C   UNL A   1      46.046  26.458  35.815  1.00  0.00     0.200 A 
ATOM     96  F   UNL A   1      47.607  28.021  34.985  1.00  0.00    -0.200 F 
ATOM     97  F   UNL A   1      47.034  25.745  36.373  1.00  0.00    -0.200 F 
ENDBRANCH  64  87
ENDBRANCH  38  39
ENDBRANCH  30  33
ENDBRANCH  28  29
ENDBRANCH  27  28
ENDBRANCH  26  27
ENDBRANCH   1  26
TORSDOF 15
ENDMDL
MODEL 2
REMARK VINA RESULT:     -12.0      0.288      2.100
REMARK SMILES CC1(C)S[C@H](c2ccc([N+](=O)[O-])cc2)[NH2+][C@@H]1C(=O)NCCCCCCNC(=O)c1ccc(-c2c3nc(c(-c4c(F)c(F)c(F)c(F)c4F)c4ccc([nH]4)c(-c4c(F)c(F)c(F)c(F)c4F)c4nc(c(-c5c(F)c(F)c(F)c(F)c5F)c5ccc2[nH]5)C=C4)C=C3)cc1
REMARK SMILES IDX 22 1 21 2 20 3 19 4 17 5 18 6 16 8 1 9 2 10 3 11 4 12 5 13
REMARK SMILES IDX 15 14 6 17 7 18 14 19 8 20 13 21 9 22 10 23 11 24 12 25
REMARK SMILES IDX 23 26 24 27 25 28 26 29 27 30 28 32 29 33 30 34 91 35 31 36
REMARK SMILES IDX 90 37 32 38 33 39 34 40 84 41 35 42 89 43 83 44 85 45 36 46
REMARK SMILES IDX 88 47 82 48 81 49 37 51 69 52 49 53 68 54 50 55 53 56 67 57
REMARK SMILES IDX 86 58 51 59 52 60 66 62 87 63 54 64 38 65 39 66 47 67 40 68
REMARK SMILES IDX 41 69 45 70 48 71 42 72 43 73 46 74 44 75 70 76 71 77 79 78
REMARK SMILES IDX 72 79 73 80 77 81 80 82 74 83 75 84 78 85 76 86 55 87 56 88
REMARK SMILES IDX 64 89 57 90 58 91 62 92 65 93 59 94 60 95 63 96 61 97
REMARK H PARENT 19 7 15 15 15 16 26 31 85 50 53 61
REMARK Flexibility Score: inf
ROOT
ATOM      1  C   UNL A   1      33.930  30.929  27.626  1.00  0.00     0.002 C 
ENDROOT
BRANCH   1   2
ATOM      2  C   UNL A   1      34.718  29.623  27.433  1.00  0.00     0.021 C 
BRANCH   2   3
ATOM      3  C   UNL A   1      34.149  28.585  26.460  1.00  0.00     0.116 C 
BRANCH   3   4
ATOM      4  N   UNL A   1      34.048  29.059  25.092  1.00  0.00    -0.351 N 
ATOM      5  C   UNL A   1      33.236  28.618  24.077  1.00  0.00     0.279 C 
ATOM      6  O   UNL A   1      33.190  29.328  23.073  1.00  0.00    -0.268 OA
ATOM      7  H   UNL A   1      34.649  29.803  24.859  1.00  0.00     0.163 HD
BRANCH   5   8
ATOM      8  C   UNL A   1      32.500  27.258  24.211  1.00  0.00     0.289 C 
ATOM      9  C   UNL A   1      32.364  24.847  23.431  1.00  0.00     0.030 C 
ATOM     10  C   UNL A   1      32.480  26.317  22.977  1.00  0.00     0.077 C 
ATOM     11  C   UNL A   1      33.653  26.416  21.998  1.00  0.00     0.030 C 
ATOM     12  S   UNL A   1      30.939  26.761  22.108  1.00  0.00    -0.081 SA
ATOM     13  C   UNL A   1      30.188  27.578  23.533  1.00  0.00     0.274 C 
ATOM     14  N   UNL A   1      31.092  27.445  24.694  1.00  0.00    -0.320 N 
ATOM     15  H   UNL A   1      30.813  26.638  25.252  1.00  0.00     0.348 HD
ATOM     16  H   UNL A   1      31.038  28.288  25.267  1.00  0.00     0.348 HD
BRANCH  13  17
ATOM     17  C   UNL A   1      29.703  28.992  23.226  1.00  0.00     0.021 A 
ATOM     18  C   UNL A   1      29.094  29.331  22.012  1.00  0.00     0.018 A 
ATOM     19  C   UNL A   1      29.890  30.029  24.160  1.00  0.00     0.018 A 
ATOM     20  C   UNL A   1      28.674  30.628  21.723  1.00  0.00     0.086 A 
ATOM     21  C   UNL A   1      29.480  31.343  23.885  1.00  0.00     0.086 A 
ATOM     22  C   UNL A   1      28.871  31.635  22.661  1.00  0.00     0.269 A 
BRANCH  22  23
ATOM     23  N   UNL A   1      28.448  33.002  22.341  1.00  0.00     0.062 N 
ATOM     24  O   UNL A   1      27.799  33.174  21.298  1.00  0.00    -0.258 OA
ATOM     25  O   UNL A   1      28.774  33.905  23.123  1.00  0.00    -0.258 OA
ENDBRANCH  22  23
ENDBRANCH  13  17
ENDBRANCH   5   8
ENDBRANCH   3   4
ENDBRANCH   2   3
ENDBRANCH   1   2
BRANCH   1  26
ATOM     26  C   UNL A   1      32.441  30.919  27.277  1.00  0.00     0.002 C 
BRANCH  26  27
ATOM     27  C   UNL A   1      31.783  32.277  27.027  1.00  0.00     0.021 C 
BRANCH  27  28
ATOM     28  C   UNL A   1      32.743  33.451  26.878  1.00  0.00     0.116 C 
BRANCH  28  29
ATOM     29  N   UNL A   1      32.427  34.570  27.748  1.00  0.00    -0.352 N 
ATOM     30  C   UNL A   1      33.015  34.950  28.927  1.00  0.00     0.251 C 
ATOM     31  H   UNL A   1      31.682  35.139  27.447  1.00  0.00     0.163 HD
ATOM     32  O   UNL A   1      32.532  35.883  29.573  1.00  0.00    -0.269 OA
BRANCH  30  33
ATOM     33  C   UNL A   1      34.207  34.245  29.456  1.00  0.00     0.039 A 
ATOM     34  C   UNL A   1      34.023  33.288  30.461  1.00  0.00     0.014 A 
ATOM     35  C   UNL A   1      35.500  34.544  29.019  1.00  0.00     0.014 A 
ATOM     36  C   UNL A   1      35.123  32.620  31.004  1.00  0.00     0.010 A 
ATOM     37  C   UNL A   1      36.590  33.821  29.505  1.00  0.00     0.010 A 
ATOM     38  C   UNL A   1      36.417  32.870  30.519  1.00  0.00    -0.014 A 
BRANCH  38  39
ATOM     39  C   UNL A   1      37.594  32.171  31.099  1.00  0.00     0.031 A 
ATOM     40  C   UNL A   1      38.071  32.512  32.486  1.00  0.00     0.074 A 
ATOM     41  C   UNL A   1      38.248  31.248  30.369  1.00  0.00     0.049 A 
ATOM     42  N   UNL A   1      39.074  32.014  33.165  1.00  0.00    -0.248 NA
ATOM     43  C   UNL A   1      37.340  33.574  33.195  1.00  0.00     0.031 C 
ATOM     44  C   UNL A   1      37.918  30.868  28.996  1.00  0.00     0.029 A 
ATOM     45  N   UNL A   1      39.329  30.461  30.681  1.00  0.00    -0.354 N 
ATOM     46  C   UNL A   1      39.098  32.706  34.370  1.00  0.00     0.074 A 
ATOM     47  C   UNL A   1      38.052  33.702  34.305  1.00  0.00     0.031 C 
ATOM     48  C   UNL A   1      38.755  29.898  28.594  1.00  0.00     0.029 A 
ATOM     49  C   UNL A   1      39.698  29.608  29.670  1.00  0.00     0.049 A 
ATOM     50  H   UNL A   1      39.794  30.502  31.548  1.00  0.00     0.167 HD
ATOM     51  C   UNL A   1      39.898  32.508  35.444  1.00  0.00     0.037 A 
ATOM     52  C   UNL A   1      40.684  28.692  29.621  1.00  0.00     0.037 A 
ATOM     53  C   UNL A   1      40.922  31.499  35.515  1.00  0.00     0.049 A 
ATOM     54  C   UNL A   1      41.553  28.486  30.833  1.00  0.00     0.074 A 
ATOM     55  C   UNL A   1      41.749  31.178  36.577  1.00  0.00     0.029 A 
ATOM     56  N   UNL A   1      41.259  30.643  34.475  1.00  0.00    -0.354 N 
ATOM     57  N   UNL A   1      41.517  29.094  31.993  1.00  0.00    -0.248 NA
ATOM     58  C   UNL A   1      42.593  27.453  30.730  1.00  0.00     0.031 C 
ATOM     59  C   UNL A   1      42.619  30.162  36.164  1.00  0.00     0.029 A 
ATOM     60  C   UNL A   1      42.298  29.811  34.862  1.00  0.00     0.049 A 
ATOM     61  H   UNL A   1      40.825  30.630  33.592  1.00  0.00     0.167 HD
ATOM     62  C   UNL A   1      42.508  28.502  32.766  1.00  0.00     0.074 A 
ATOM     63  C   UNL A   1      43.110  27.470  31.949  1.00  0.00     0.031 C 
ATOM     64  C   UNL A   1      42.887  28.790  34.036  1.00  0.00     0.037 A 
BRANCH  51  65
ATOM     65  C   UNL A   1      39.696  33.403  36.635  1.00  0.00     0.064 A 
ATOM     66  C   UNL A   1      40.381  34.622  36.766  1.00  0.00     0.173 A 
ATOM     67  C   UNL A   1      38.787  33.054  37.644  1.00  0.00     0.173 A 
ATOM     68  F   UNL A   1      41.271  35.000  35.835  1.00  0.00    -0.203 F 
ATOM     69  C   UNL A   1      40.188  35.439  37.877  1.00  0.00     0.198 A 
ATOM     70  C   UNL A   1      38.572  33.889  38.739  1.00  0.00     0.198 A 
ATOM     71  F   UNL A   1      38.100  31.904  37.570  1.00  0.00    -0.203 F 
ATOM     72  F   UNL A   1      40.896  36.570  38.006  1.00  0.00    -0.200 F 
ATOM     73  C   UNL A   1      39.279  35.076  38.859  1.00  0.00     0.200 A 
ATOM     74  F   UNL A   1      37.682  33.543  39.680  1.00  0.00    -0.200 F 
ATOM     75  F   UNL A   1      39.091  35.865  39.925  1.00  0.00    -0.200 F 
ENDBRANCH  51  65
BRANCH  52  76
ATOM     76  C   UNL A   1      40.879  27.876  28.393  1.00  0.00     0.064 A 
ATOM     77  C   UNL A   1      40.256  26.628  28.251  1.00  0.00     0.173 A 
ATOM     78  C   UNL A   1      41.698  28.318  27.346  1.00  0.00     0.173 A 
ATOM     79  F   UNL A   1      39.480  26.151  29.236  1.00  0.00    -0.203 F 
ATOM     80  C   UNL A   1      40.465  25.842  27.119  1.00  0.00     0.198 A 
ATOM     81  C   UNL A   1      41.882  27.547  26.199  1.00  0.00     0.198 A 
ATOM     82  F   UNL A   1      42.314  29.507  27.429  1.00  0.00    -0.203 F 
ATOM     83  F   UNL A   1      39.899  24.632  27.033  1.00  0.00    -0.200 F 
ATOM     84  C   UNL A   1      41.273  26.305  26.091  1.00  0.00     0.200 A 
ATOM     85  F   UNL A   1      42.652  28.003  25.203  1.00  0.00    -0.200 F 
ATOM     86  F   UNL A   1      41.472  25.551  25.002  1.00  0.00    -0.200 F 
ENDBRANCH  52  76
BRANCH  64  87
ATOM     87  C   UNL A   1      43.990  27.955  34.624  1.00  0.00     0.064 A 
ATOM     88  C   UNL A   1      45.334  28.350  34.547  1.00  0.00     0.173 A 
ATOM     89  C   UNL A   1      43.697  26.752  35.282  1.00  0.00     0.173 A 
ATOM     90  F   UNL A   1      45.670  29.486  33.916  1.00  0.00    -0.203 F 
ATOM     91  C   UNL A   1      46.346  27.551  35.073  1.00  0.00     0.198 A 
ATOM     92  C   UNL A   1      44.708  25.972  35.838  1.00  0.00     0.198 A 
ATOM     93  F   UNL A   1      42.427  26.331  35.392  1.00  0.00    -0.203 F 
ATOM     94  F   UNL A   1      47.628  27.917  34.931  1.00  0.00    -0.200 F 
ATOM     95  C   UNL A   1      46.032  26.366  35.722  1.00  0.00     0.200 A 
ATOM     96  F   UNL A   1      44.402  24.836  36.479  1.00  0.00    -0.200 F 
ATOM     97  F   UNL A   1      47.008  25.599  36.228  1.00  0.00    -0.200 F 
ENDBRANCH  64  87
ENDBRANCH  38  39
ENDBRANCH  30  33
ENDBRANCH  28  29
ENDBRANCH  27  28
ENDBRANCH  26  27
ENDBRANCH   1  26
TORSDOF 15
ENDMDL
MODEL 3
REMARK VINA RESULT:     -11.8      0.594      7.362
REMARK SMILES CC1(C)S[C@H](c2ccc([N+](=O)[O-])cc2)[NH2+][C@@H]1C(=O)NCCCCCCNC(=O)c1ccc(-c2c3nc(c(-c4c(F)c(F)c(F)c(F)c4F)c4ccc([nH]4)c(-c4c(F)c(F)c(F)c(F)c4F)c4nc(c(-c5c(F)c(F)c(F)c(F)c5F)c5ccc2[nH]5)C=C4)C=C3)cc1
REMARK SMILES IDX 22 1 21 2 20 3 19 4 17 5 18 6 16 8 1 9 2 10 3 11 4 12 5 13
REMARK SMILES IDX 15 14 6 17 7 18 14 19 8 20 13 21 9 22 10 23 11 24 12 25
REMARK SMILES IDX 23 26 24 27 25 28 26 29 27 30 28 32 29 33 30 34 91 35 31 36
REMARK SMILES IDX 90 37 32 38 33 39 34 40 84 41 35 42 89 43 83 44 85 45 36 46
REMARK SMILES IDX 88 47 82 48 81 49 37 51 69 52 49 53 68 54 50 55 53 56 67 57
REMARK SMILES IDX 86 58 51 59 52 60 66 62 87 63 54 64 38 65 39 66 47 67 40 68
REMARK SMILES IDX 41 69 45 70 48 71 42 72 43 73 46 74 44 75 70 76 71 77 79 78
REMARK SMILES IDX 72 79 73 80 77 81 80 82 74 83 75 84 78 85 76 86 55 87 56 88
REMARK SMILES IDX 64 89 57 90 58 91 62 92 65 93 59 94 60 95 63 96 61 97
REMARK H PARENT 19 7 15 15 15 16 26 31 85 50 53 61
REMARK Flexibility Score: inf
ROOT
ATOM      1  C   UNL A   1      33.937  30.879  27.769  1.00  0.00     0.002 C 
ENDROOT
BRANCH   1   2
ATOM      2  C   UNL A   1      34.788  29.639  27.447  1.00  0.00     0.021 C 
BRANCH   2   3
ATOM      3  C   UNL A   1      34.197  28.600  26.488  1.00  0.00     0.116 C 
BRANCH   3   4
ATOM      4  N   UNL A   1      34.106  29.058  25.114  1.00  0.00    -0.351 N 
ATOM      5  C   UNL A   1      33.275  28.630  24.108  1.00  0.00     0.279 C 
ATOM      6  O   UNL A   1      33.247  29.327  23.095  1.00  0.00    -0.268 OA
ATOM      7  H   UNL A   1      34.729  29.779  24.867  1.00  0.00     0.163 HD
BRANCH   5   8
ATOM      8  C   UNL A   1      32.497  27.297  24.264  1.00  0.00     0.289 C 
ATOM      9  C   UNL A   1      32.285  24.878  23.523  1.00  0.00     0.030 C 
ATOM     10  C   UNL A   1      32.446  26.337  23.045  1.00  0.00     0.077 C 
ATOM     11  C   UNL A   1      33.623  26.381  22.066  1.00  0.00     0.030 C 
ATOM     12  S   UNL A   1      30.920  26.814  22.169  1.00  0.00    -0.081 SA
ATOM     13  C   UNL A   1      30.195  27.679  23.579  1.00  0.00     0.274 C 
ATOM     14  N   UNL A   1      31.095  27.536  24.743  1.00  0.00    -0.320 N 
ATOM     15  H   UNL A   1      30.790  26.747  25.314  1.00  0.00     0.348 HD
ATOM     16  H   UNL A   1      31.067  28.390  25.302  1.00  0.00     0.348 HD
BRANCH  13  17
ATOM     17  C   UNL A   1      29.755  29.101  23.248  1.00  0.00     0.021 A 
ATOM     18  C   UNL A   1      29.717  30.120  24.207  1.00  0.00     0.018 A 
ATOM     19  C   UNL A   1      29.330  29.431  21.946  1.00  0.00     0.018 A 
ATOM     20  C   UNL A   1      29.291  31.413  23.909  1.00  0.00     0.086 A 
ATOM     21  C   UNL A   1      28.892  30.726  21.627  1.00  0.00     0.086 A 
ATOM     22  C   UNL A   1      28.875  31.714  22.617  1.00  0.00     0.269 A 
BRANCH  22  23
ATOM     23  N   UNL A   1      28.406  33.070  22.315  1.00  0.00     0.062 N 
ATOM     24  O   UNL A   1      27.653  33.214  21.340  1.00  0.00    -0.258 OA
ATOM     25  O   UNL A   1      28.799  33.992  23.042  1.00  0.00    -0.258 OA
ENDBRANCH  22  23
ENDBRANCH  13  17
ENDBRANCH   5   8
ENDBRANCH   3   4
ENDBRANCH   2   3
ENDBRANCH   1   2
BRANCH   1  26
ATOM     26  C   UNL A   1      32.478  30.877  27.313  1.00  0.00     0.002 C 
BRANCH  26  27
ATOM     27  C   UNL A   1      31.828  32.242  27.078  1.00  0.00     0.021 C 
BRANCH  27  28
ATOM     28  C   UNL A   1      32.797  33.399  26.864  1.00  0.00     0.116 C 
BRANCH  28  29
ATOM     29  N   UNL A   1      32.469  34.579  27.645  1.00  0.00    -0.352 N 
ATOM     30  C   UNL A   1      33.010  35.020  28.825  1.00  0.00     0.251 C 
ATOM     31  H   UNL A   1      31.754  35.144  27.273  1.00  0.00     0.163 HD
ATOM     32  O   UNL A   1      32.522  36.004  29.386  1.00  0.00    -0.269 OA
BRANCH  30  33
ATOM     33  C   UNL A   1      34.158  34.324  29.454  1.00  0.00     0.039 A 
ATOM     34  C   UNL A   1      33.898  33.400  30.472  1.00  0.00     0.014 A 
ATOM     35  C   UNL A   1      35.481  34.601  29.097  1.00  0.00     0.014 A 
ATOM     36  C   UNL A   1      34.953  32.741  31.108  1.00  0.00     0.010 A 
ATOM     37  C   UNL A   1      36.529  33.886  29.677  1.00  0.00     0.010 A 
ATOM     38  C   UNL A   1      36.279  32.967  30.705  1.00  0.00    -0.014 A 
BRANCH  38  39
ATOM     39  C   UNL A   1      37.408  32.279  31.385  1.00  0.00     0.031 A 
ATOM     40  C   UNL A   1      38.127  31.146  30.701  1.00  0.00     0.074 A 
ATOM     41  C   UNL A   1      37.771  32.657  32.625  1.00  0.00     0.049 A 
ATOM     42  N   UNL A   1      39.133  30.424  31.127  1.00  0.00    -0.248 NA
ATOM     43  C   UNL A   1      37.631  30.752  29.373  1.00  0.00     0.031 C 
ATOM     44  C   UNL A   1      37.120  33.703  33.413  1.00  0.00     0.029 A 
ATOM     45  N   UNL A   1      38.778  32.204  33.440  1.00  0.00    -0.354 N 
ATOM     46  C   UNL A   1      39.383  29.492  30.128  1.00  0.00     0.074 A 
ATOM     47  C   UNL A   1      38.383  29.696  29.103  1.00  0.00     0.031 C 
ATOM     48  C   UNL A   1      37.763  33.836  34.584  1.00  0.00     0.029 A 
ATOM     49  C   UNL A   1      38.853  32.866  34.642  1.00  0.00     0.049 A 
ATOM     50  H   UNL A   1      39.390  31.475  33.188  1.00  0.00     0.167 HD
ATOM     51  C   UNL A   1      40.373  28.571  30.056  1.00  0.00     0.037 A 
ATOM     52  C   UNL A   1      39.707  32.710  35.670  1.00  0.00     0.037 A 
ATOM     53  C   UNL A   1      41.381  28.388  31.066  1.00  0.00     0.049 A 
ATOM     54  C   UNL A   1      40.805  31.685  35.560  1.00  0.00     0.074 A 
ATOM     55  C   UNL A   1      42.462  27.522  31.064  1.00  0.00     0.029 A 
ATOM     56  N   UNL A   1      41.433  29.087  32.264  1.00  0.00    -0.354 N 
ATOM     57  N   UNL A   1      41.076  30.861  34.578  1.00  0.00    -0.248 NA
ATOM     58  C   UNL A   1      41.725  31.580  36.701  1.00  0.00     0.031 C 
ATOM     59  C   UNL A   1      43.138  27.662  32.282  1.00  0.00     0.029 A 
ATOM     60  C   UNL A   1      42.512  28.655  33.020  1.00  0.00     0.049 A 
ATOM     61  H   UNL A   1      40.796  29.785  32.539  1.00  0.00     0.167 HD
ATOM     62  C   UNL A   1      42.209  30.160  34.968  1.00  0.00     0.074 A 
ATOM     63  C   UNL A   1      42.588  30.674  36.268  1.00  0.00     0.031 C 
ATOM     64  C   UNL A   1      42.875  29.176  34.312  1.00  0.00     0.037 A 
BRANCH  51  65
ATOM     65  C   UNL A   1      40.415  27.689  28.839  1.00  0.00     0.064 A 
ATOM     66  C   UNL A   1      39.662  26.506  28.759  1.00  0.00     0.173 A 
ATOM     67  C   UNL A   1      41.193  28.043  27.727  1.00  0.00     0.173 A 
ATOM     68  F   UNL A   1      38.908  26.114  29.798  1.00  0.00    -0.203 F 
ATOM     69  C   UNL A   1      39.714  25.696  27.628  1.00  0.00     0.198 A 
ATOM     70  C   UNL A   1      41.218  27.247  26.584  1.00  0.00     0.198 A 
ATOM     71  F   UNL A   1      41.929  29.165  27.745  1.00  0.00    -0.203 F 
ATOM     72  F   UNL A   1      39.031  24.544  27.599  1.00  0.00    -0.200 F 
ATOM     73  C   UNL A   1      40.486  26.070  26.539  1.00  0.00     0.200 A 
ATOM     74  F   UNL A   1      41.954  27.618  25.527  1.00  0.00    -0.200 F 
ATOM     75  F   UNL A   1      40.533  25.292  25.449  1.00  0.00    -0.200 F 
ENDBRANCH  51  65
BRANCH  52  76
ATOM     76  C   UNL A   1      39.583  33.568  36.878  1.00  0.00     0.064 A 
ATOM     77  C   UNL A   1      38.760  33.190  37.949  1.00  0.00     0.173 A 
ATOM     78  C   UNL A   1      40.271  34.785  36.982  1.00  0.00     0.173 A 
ATOM     79  F   UNL A   1      38.064  32.045  37.887  1.00  0.00    -0.203 F 
ATOM     80  C   UNL A   1      38.612  34.008  39.067  1.00  0.00     0.198 A 
ATOM     81  C   UNL A   1      40.146  35.588  38.115  1.00  0.00     0.198 A 
ATOM     82  F   UNL A   1      41.074  35.190  35.988  1.00  0.00    -0.203 F 
ATOM     83  F   UNL A   1      37.779  33.647  40.052  1.00  0.00    -0.200 F 
ATOM     84  C   UNL A   1      39.309  35.204  39.152  1.00  0.00     0.200 A 
ATOM     85  F   UNL A   1      40.832  36.736  38.199  1.00  0.00    -0.200 F 
ATOM     86  F   UNL A   1      39.168  35.989  40.228  1.00  0.00    -0.200 F 
ENDBRANCH  52  76
BRANCH  64  87
ATOM     87  C   UNL A   1      44.095  28.614  34.984  1.00  0.00     0.064 A 
ATOM     88  C   UNL A   1      45.369  29.169  34.785  1.00  0.00     0.173 A 
ATOM     89  C   UNL A   1      43.988  27.513  35.846  1.00  0.00     0.173 A 
ATOM     90  F   UNL A   1      45.528  30.215  33.959  1.00  0.00    -0.203 F 
ATOM     91  C   UNL A   1      46.493  28.619  35.394  1.00  0.00     0.198 A 
ATOM     92  C   UNL A   1      45.110  26.986  36.481  1.00  0.00     0.198 A 
ATOM     93  F   UNL A   1      42.793  26.948  36.079  1.00  0.00    -0.203 F 
ATOM     94  F   UNL A   1      47.707  29.127  35.139  1.00  0.00    -0.200 F 
ATOM     95  C   UNL A   1      46.362  27.531  36.245  1.00  0.00     0.200 A 
ATOM     96  F   UNL A   1      44.980  25.945  37.315  1.00  0.00    -0.200 F 
ATOM     97  F   UNL A   1      47.447  27.002  36.829  1.00  0.00    -0.200 F 
ENDBRANCH  64  87
ENDBRANCH  38  39
ENDBRANCH  30  33
ENDBRANCH  28  29
ENDBRANCH  27  28
ENDBRANCH  26  27
ENDBRANCH   1  26
TORSDOF 15
ENDMDL
