MODEL 1
REMARK VINA RESULT:     -14.0      0.000      0.000
REMARK SMILES O=C(NCCCCCCNC(=O)c1nn(Cc2ccc(F)cc2)c2c1CN(C(=O)[C@H]1CC1(F)F)CC2)c1ccc(-c2c3nc(c(-c4c(F)c(F)c(F)c(F)c4F)c4ccc([nH]4)c(-c4c(F)c(F)c(F)c(F)c4F)c4nc(c(-c5c(F)c(F)c(F)c(F)c5F)c5ccc2[nH]5)C=C4)C=C3)cc1
REMARK SMILES IDX 6 1 5 2 4 3 3 4 1 5 2 6 37 8 38 9 99 10 39 11 98 12 40 13
REMARK SMILES IDX 41 14 42 15 92 16 43 17 97 18 91 19 93 20 44 21 96 22 90 23
REMARK SMILES IDX 89 24 45 26 77 27 57 28 76 29 58 30 61 31 75 32 94 33 59 34
REMARK SMILES IDX 60 35 74 37 95 38 62 39 46 40 47 41 55 42 48 43 49 44 53 45
REMARK SMILES IDX 56 46 50 47 51 48 54 49 52 50 78 51 79 52 87 53 80 54 81 55
REMARK SMILES IDX 85 56 88 57 82 58 83 59 86 60 84 61 63 62 64 63 72 64 65 65
REMARK SMILES IDX 66 66 70 67 73 68 67 69 68 70 71 71 69 72 7 73 8 74 9 75
REMARK SMILES IDX 10 76 11 77 12 79 13 80 14 81 25 82 15 83 24 84 26 85 36 86
REMARK SMILES IDX 27 87 35 88 16 89 17 90 18 91 23 92 19 93 22 94 20 95 21 96
REMARK SMILES IDX 28 97 29 98 30 99 31 100 32 101 33 102 34 103
REMARK H PARENT 3 7 93 25 61 36 10 78
REMARK Flexibility Score: inf
ROOT
ATOM      1  C   UNL A   1      36.207  20.750  25.148  1.00  0.00     0.002 C 
ENDROOT
BRANCH   1   2
ATOM      2  C   UNL A   1      37.736  20.821  25.006  1.00  0.00     0.021 C 
BRANCH   2   3
ATOM      3  C   UNL A   1      38.406  21.970  25.761  1.00  0.00     0.116 C 
BRANCH   3   4
ATOM      4  N   UNL A   1      39.837  21.817  25.918  1.00  0.00    -0.352 N 
ATOM      5  O   UNL A   1      41.948  21.999  26.524  1.00  0.00    -0.269 OA
ATOM      6  C   UNL A   1      40.843  22.548  26.487  1.00  0.00     0.251 C 
ATOM      7  H   UNL A   1      40.168  20.981  25.515  1.00  0.00     0.163 HD
BRANCH   6   8
ATOM      8  C   UNL A   1      40.729  23.939  27.010  1.00  0.00     0.039 A 
ATOM      9  C   UNL A   1      39.787  24.894  26.628  1.00  0.00     0.014 A 
ATOM     10  C   UNL A   1      41.690  24.307  27.977  1.00  0.00     0.014 A 
ATOM     11  C   UNL A   1      39.840  26.190  27.150  1.00  0.00     0.010 A 
ATOM     12  C   UNL A   1      41.742  25.594  28.506  1.00  0.00     0.010 A 
ATOM     13  C   UNL A   1      40.833  26.550  28.068  1.00  0.00    -0.014 A 
BRANCH  13  14
ATOM     14  C   UNL A   1      40.816  27.906  28.625  1.00  0.00     0.031 A 
ATOM     15  C   UNL A   1      41.893  28.825  28.138  1.00  0.00     0.074 A 
ATOM     16  C   UNL A   1      39.837  28.388  29.417  1.00  0.00     0.049 A 
ATOM     17  N   UNL A   1      42.781  29.470  28.826  1.00  0.00    -0.248 NA
ATOM     18  C   UNL A   1      42.017  29.011  26.683  1.00  0.00     0.031 C 
ATOM     19  C   UNL A   1      38.551  27.776  29.762  1.00  0.00     0.029 A 
ATOM     20  N   UNL A   1      39.768  29.608  30.026  1.00  0.00    -0.354 N 
ATOM     21  C   UNL A   1      43.509  30.234  27.912  1.00  0.00     0.074 A 
ATOM     22  C   UNL A   1      43.044  29.858  26.601  1.00  0.00     0.031 C 
ATOM     23  C   UNL A   1      37.755  28.704  30.346  1.00  0.00     0.029 A 
ATOM     24  C   UNL A   1      38.521  29.923  30.547  1.00  0.00     0.049 A 
ATOM     25  H   UNL A   1      40.540  30.215  30.091  1.00  0.00     0.167 HD
ATOM     26  C   UNL A   1      44.367  31.223  28.292  1.00  0.00     0.037 A 
ATOM     27  C   UNL A   1      38.140  31.120  31.057  1.00  0.00     0.037 A 
ATOM     28  C   UNL A   1      44.746  31.107  29.671  1.00  0.00     0.049 A 
ATOM     29  C   UNL A   1      39.367  31.862  31.428  1.00  0.00     0.074 A 
ATOM     30  C   UNL A   1      45.456  30.174  30.401  1.00  0.00     0.029 A 
ATOM     31  N   UNL A   1      44.112  31.890  30.601  1.00  0.00    -0.354 N 
ATOM     32  N   UNL A   1      40.167  31.526  32.399  1.00  0.00    -0.248 NA
ATOM     33  C   UNL A   1      39.925  32.775  30.442  1.00  0.00     0.031 C 
ATOM     34  C   UNL A   1      44.805  30.125  31.667  1.00  0.00     0.029 A 
ATOM     35  C   UNL A   1      43.773  31.064  31.641  1.00  0.00     0.049 A 
ATOM     36  H   UNL A   1      43.935  32.857  30.535  1.00  0.00     0.167 HD
ATOM     37  C   UNL A   1      41.434  31.838  31.935  1.00  0.00     0.074 A 
ATOM     38  C   UNL A   1      41.216  32.686  30.767  1.00  0.00     0.031 C 
ATOM     39  C   UNL A   1      42.534  31.163  32.375  1.00  0.00     0.037 A 
BRANCH  26  40
ATOM     40  C   UNL A   1      44.694  32.439  27.470  1.00  0.00     0.064 A 
ATOM     41  C   UNL A   1      43.921  33.618  27.516  1.00  0.00     0.173 A 
ATOM     42  C   UNL A   1      45.940  32.550  26.822  1.00  0.00     0.173 A 
ATOM     43  F   UNL A   1      42.773  33.676  28.205  1.00  0.00    -0.203 F 
ATOM     44  C   UNL A   1      44.352  34.814  26.942  1.00  0.00     0.198 A 
ATOM     45  C   UNL A   1      46.390  33.762  26.290  1.00  0.00     0.198 A 
ATOM     46  F   UNL A   1      46.771  31.499  26.755  1.00  0.00    -0.203 F 
ATOM     47  F   UNL A   1      43.579  35.905  27.031  1.00  0.00    -0.200 F 
ATOM     48  C   UNL A   1      45.596  34.893  26.350  1.00  0.00     0.200 A 
ATOM     49  F   UNL A   1      47.622  33.845  25.768  1.00  0.00    -0.200 F 
ATOM     50  F   UNL A   1      46.044  36.065  25.881  1.00  0.00    -0.200 F 
ENDBRANCH  26  40
BRANCH  27  51
ATOM     51  C   UNL A   1      36.829  31.803  30.928  1.00  0.00     0.064 A 
ATOM     52  C   UNL A   1      36.467  32.455  29.735  1.00  0.00     0.173 A 
ATOM     53  C   UNL A   1      36.054  32.099  32.063  1.00  0.00     0.173 A 
ATOM     54  F   UNL A   1      37.191  32.295  28.618  1.00  0.00    -0.203 F 
ATOM     55  C   UNL A   1      35.415  33.371  29.686  1.00  0.00     0.198 A 
ATOM     56  C   UNL A   1      35.005  33.022  32.014  1.00  0.00     0.198 A 
ATOM     57  F   UNL A   1      36.360  31.554  33.250  1.00  0.00    -0.203 F 
ATOM     58  F   UNL A   1      35.151  34.018  28.542  1.00  0.00    -0.200 F 
ATOM     59  C   UNL A   1      34.695  33.668  30.828  1.00  0.00     0.200 A 
ATOM     60  F   UNL A   1      34.335  33.334  33.133  1.00  0.00    -0.200 F 
ATOM     61  F   UNL A   1      33.738  34.605  30.796  1.00  0.00    -0.200 F 
ENDBRANCH  27  51
BRANCH  39  62
ATOM     62  C   UNL A   1      42.375  30.242  33.554  1.00  0.00     0.064 A 
ATOM     63  C   UNL A   1      41.922  28.937  33.324  1.00  0.00     0.173 A 
ATOM     64  C   UNL A   1      42.484  30.662  34.892  1.00  0.00     0.173 A 
ATOM     65  F   UNL A   1      41.746  28.498  32.067  1.00  0.00    -0.203 F 
ATOM     66  C   UNL A   1      41.583  28.093  34.378  1.00  0.00     0.198 A 
ATOM     67  C   UNL A   1      42.180  29.803  35.947  1.00  0.00     0.198 A 
ATOM     68  F   UNL A   1      42.817  31.923  35.196  1.00  0.00    -0.203 F 
ATOM     69  F   UNL A   1      41.087  26.874  34.122  1.00  0.00    -0.200 F 
ATOM     70  C   UNL A   1      41.717  28.524  35.688  1.00  0.00     0.200 A 
ATOM     71  F   UNL A   1      42.288  30.229  37.214  1.00  0.00    -0.200 F 
ATOM     72  F   UNL A   1      41.369  27.717  36.700  1.00  0.00    -0.200 F 
ENDBRANCH  39  62
ENDBRANCH  13  14
ENDBRANCH   6   8
ENDBRANCH   3   4
ENDBRANCH   2   3
ENDBRANCH   1   2
BRANCH   1  73
ATOM     73  C   UNL A   1      35.541  21.881  25.942  1.00  0.00     0.002 C 
BRANCH  73  74
ATOM     74  C   UNL A   1      34.510  21.449  26.992  1.00  0.00     0.021 C 
BRANCH  74  75
ATOM     75  C   UNL A   1      34.035  22.554  27.941  1.00  0.00     0.116 C 
BRANCH  75  76
ATOM     76  N   UNL A   1      32.584  22.669  27.950  1.00  0.00    -0.351 N 
ATOM     77  C   UNL A   1      31.728  23.096  26.956  1.00  0.00     0.272 C 
ATOM     78  H   UNL A   1      32.149  22.400  28.792  1.00  0.00     0.163 HD
ATOM     79  O   UNL A   1      30.560  23.341  27.263  1.00  0.00    -0.267 OA
BRANCH  77  80
ATOM     80  C   UNL A   1      32.219  23.296  25.581  1.00  0.00     0.155 A 
ATOM     81  N   UNL A   1      32.750  24.460  25.151  1.00  0.00    -0.167 NA
ATOM     82  C   UNL A   1      32.263  22.322  24.544  1.00  0.00     0.026 A 
ATOM     83  N   UNL A   1      33.011  24.268  23.839  1.00  0.00    -0.264 N 
ATOM     84  C   UNL A   1      32.686  23.014  23.426  1.00  0.00     0.046 A 
ATOM     85  C   UNL A   1      31.872  20.878  24.539  1.00  0.00     0.159 C 
ATOM     86  C   UNL A   1      32.756  22.438  22.059  1.00  0.00     0.078 C 
ATOM     87  N   UNL A   1      32.132  20.312  23.192  1.00  0.00    -0.337 N 
ATOM     88  C   UNL A   1      31.847  21.188  22.037  1.00  0.00     0.126 C 
BRANCH  83  89
ATOM     89  C   UNL A   1      33.653  25.326  23.070  1.00  0.00     0.180 C 
BRANCH  89  90
ATOM     90  C   UNL A   1      32.765  26.538  22.920  1.00  0.00    -0.026 A 
ATOM     91  C   UNL A   1      33.276  27.822  23.186  1.00  0.00     0.008 A 
ATOM     92  C   UNL A   1      31.425  26.407  22.524  1.00  0.00     0.008 A 
ATOM     93  C   UNL A   1      32.466  28.948  23.059  1.00  0.00     0.039 A 
ATOM     94  C   UNL A   1      30.617  27.539  22.393  1.00  0.00     0.039 A 
ATOM     95  C   UNL A   1      31.144  28.797  22.662  1.00  0.00     0.123 A 
ATOM     96  F   UNL A   1      30.364  29.879  22.539  1.00  0.00    -0.207 F 
ENDBRANCH  89  90
ENDBRANCH  83  89
BRANCH  87  97
ATOM     97  C   UNL A   1      32.586  19.006  23.096  1.00  0.00     0.232 C 
ATOM     98  O   UNL A   1      32.401  18.295  22.109  1.00  0.00    -0.274 OA
BRANCH  97  99
ATOM     99  C   UNL A   1      33.394  18.482  24.216  1.00  0.00     0.154 C 
ATOM    100  C   UNL A   1      33.092  17.131  24.842  1.00  0.00     0.097 C 
ATOM    101  C   UNL A   1      34.305  17.330  24.014  1.00  0.00     0.260 C 
ATOM    102  F   UNL A   1      34.411  16.635  22.834  1.00  0.00    -0.206 F 
ATOM    103  F   UNL A   1      35.536  17.288  24.628  1.00  0.00    -0.206 F 
ENDBRANCH  97  99
ENDBRANCH  87  97
ENDBRANCH  77  80
ENDBRANCH  75  76
ENDBRANCH  74  75
ENDBRANCH  73  74
ENDBRANCH   1  73
TORSDOF 17
ENDMDL
MODEL 2
REMARK VINA RESULT:     -13.9      3.378      8.647
REMARK SMILES O=C(NCCCCCCNC(=O)c1nn(Cc2ccc(F)cc2)c2c1CN(C(=O)[C@H]1CC1(F)F)CC2)c1ccc(-c2c3nc(c(-c4c(F)c(F)c(F)c(F)c4F)c4ccc([nH]4)c(-c4c(F)c(F)c(F)c(F)c4F)c4nc(c(-c5c(F)c(F)c(F)c(F)c5F)c5ccc2[nH]5)C=C4)C=C3)cc1
REMARK SMILES IDX 6 1 5 2 4 3 3 4 1 5 2 6 37 8 38 9 99 10 39 11 98 12 40 13
REMARK SMILES IDX 41 14 42 15 92 16 43 17 97 18 91 19 93 20 44 21 96 22 90 23
REMARK SMILES IDX 89 24 45 26 77 27 57 28 76 29 58 30 61 31 75 32 94 33 59 34
REMARK SMILES IDX 60 35 74 37 95 38 62 39 46 40 47 41 55 42 48 43 49 44 53 45
REMARK SMILES IDX 56 46 50 47 51 48 54 49 52 50 78 51 79 52 87 53 80 54 81 55
REMARK SMILES IDX 85 56 88 57 82 58 83 59 86 60 84 61 63 62 64 63 72 64 65 65
REMARK SMILES IDX 66 66 70 67 73 68 67 69 68 70 71 71 69 72 7 73 8 74 9 75
REMARK SMILES IDX 10 76 11 77 12 79 13 80 14 81 25 82 15 83 24 84 26 85 36 86
REMARK SMILES IDX 27 87 35 88 16 89 17 90 18 91 23 92 19 93 22 94 20 95 21 96
REMARK SMILES IDX 28 97 29 98 30 99 31 100 32 101 33 102 34 103
REMARK H PARENT 3 7 93 25 61 36 10 78
REMARK Flexibility Score: inf
ROOT
ATOM      1  C   UNL A   1      32.901  29.931  26.597  1.00  0.00     0.002 C 
ENDROOT
BRANCH   1   2
ATOM      2  C   UNL A   1      34.185  30.187  27.402  1.00  0.00     0.021 C 
BRANCH   2   3
ATOM      3  C   UNL A   1      34.451  31.651  27.751  1.00  0.00     0.116 C 
BRANCH   3   4
ATOM      4  N   UNL A   1      34.409  31.935  29.171  1.00  0.00    -0.352 N 
ATOM      5  O   UNL A   1      34.896  32.296  31.289  1.00  0.00    -0.269 OA
ATOM      6  C   UNL A   1      35.277  31.810  30.220  1.00  0.00     0.251 C 
ATOM      7  H   UNL A   1      33.542  32.309  29.449  1.00  0.00     0.163 HD
BRANCH   6   8
ATOM      8  C   UNL A   1      36.593  31.110  30.193  1.00  0.00     0.039 A 
ATOM      9  C   UNL A   1      37.845  31.706  30.047  1.00  0.00     0.014 A 
ATOM     10  C   UNL A   1      36.538  29.705  30.313  1.00  0.00     0.014 A 
ATOM     11  C   UNL A   1      38.998  30.921  29.965  1.00  0.00     0.010 A 
ATOM     12  C   UNL A   1      37.685  28.918  30.239  1.00  0.00     0.010 A 
ATOM     13  C   UNL A   1      38.918  29.524  30.033  1.00  0.00    -0.014 A 
BRANCH  13  14
ATOM     14  C   UNL A   1      40.160  28.747  29.994  1.00  0.00     0.031 A 
ATOM     15  C   UNL A   1      40.854  28.558  31.306  1.00  0.00     0.074 A 
ATOM     16  C   UNL A   1      40.615  28.101  28.900  1.00  0.00     0.049 A 
ATOM     17  N   UNL A   1      42.066  28.877  31.635  1.00  0.00    -0.248 NA
ATOM     18  C   UNL A   1      40.073  27.973  32.408  1.00  0.00     0.031 C 
ATOM     19  C   UNL A   1      39.948  27.894  27.613  1.00  0.00     0.029 A 
ATOM     20  N   UNL A   1      41.783  27.409  28.754  1.00  0.00    -0.354 N 
ATOM     21  C   UNL A   1      42.247  28.437  32.948  1.00  0.00     0.074 A 
ATOM     22  C   UNL A   1      40.966  27.953  33.398  1.00  0.00     0.031 C 
ATOM     23  C   UNL A   1      40.629  26.966  26.899  1.00  0.00     0.029 A 
ATOM     24  C   UNL A   1      41.849  26.625  27.611  1.00  0.00     0.049 A 
ATOM     25  H   UNL A   1      42.517  27.461  29.407  1.00  0.00     0.167 HD
ATOM     26  C   UNL A   1      43.470  28.381  33.547  1.00  0.00     0.037 A 
ATOM     27  C   UNL A   1      42.817  25.726  27.306  1.00  0.00     0.037 A 
ATOM     28  C   UNL A   1      44.441  29.190  32.868  1.00  0.00     0.049 A 
ATOM     29  C   UNL A   1      44.015  26.064  28.110  1.00  0.00     0.074 A 
ATOM     30  C   UNL A   1      44.582  30.545  32.646  1.00  0.00     0.029 A 
ATOM     31  N   UNL A   1      45.316  28.586  32.001  1.00  0.00    -0.354 N 
ATOM     32  N   UNL A   1      44.738  27.135  27.941  1.00  0.00    -0.248 NA
ATOM     33  C   UNL A   1      44.180  25.390  29.387  1.00  0.00     0.031 C 
ATOM     34  C   UNL A   1      45.127  30.648  31.334  1.00  0.00     0.029 A 
ATOM     35  C   UNL A   1      45.326  29.350  30.863  1.00  0.00     0.049 A 
ATOM     36  H   UNL A   1      45.835  27.765  32.165  1.00  0.00     0.167 HD
ATOM     37  C   UNL A   1      45.124  27.502  29.219  1.00  0.00     0.074 A 
ATOM     38  C   UNL A   1      44.831  26.344  30.056  1.00  0.00     0.031 C 
ATOM     39  C   UNL A   1      45.394  28.803  29.529  1.00  0.00     0.037 A 
BRANCH  26  40
ATOM     40  C   UNL A   1      43.851  27.410  34.631  1.00  0.00     0.064 A 
ATOM     41  C   UNL A   1      43.949  27.787  35.987  1.00  0.00     0.173 A 
ATOM     42  C   UNL A   1      43.862  26.025  34.379  1.00  0.00     0.173 A 
ATOM     43  F   UNL A   1      43.830  29.065  36.369  1.00  0.00    -0.203 F 
ATOM     44  C   UNL A   1      44.068  26.850  37.013  1.00  0.00     0.198 A 
ATOM     45  C   UNL A   1      43.933  25.086  35.413  1.00  0.00     0.198 A 
ATOM     46  F   UNL A   1      43.735  25.557  33.128  1.00  0.00    -0.203 F 
ATOM     47  F   UNL A   1      44.143  27.268  38.284  1.00  0.00    -0.200 F 
ATOM     48  C   UNL A   1      44.036  25.499  36.729  1.00  0.00     0.200 A 
ATOM     49  F   UNL A   1      43.844  23.779  35.135  1.00  0.00    -0.200 F 
ATOM     50  F   UNL A   1      44.059  24.603  37.724  1.00  0.00    -0.200 F 
ENDBRANCH  26  40
BRANCH  27  51
ATOM     51  C   UNL A   1      42.675  24.406  26.643  1.00  0.00     0.064 A 
ATOM     52  C   UNL A   1      42.146  23.301  27.336  1.00  0.00     0.173 A 
ATOM     53  C   UNL A   1      43.341  24.129  25.437  1.00  0.00     0.173 A 
ATOM     54  F   UNL A   1      41.560  23.457  28.531  1.00  0.00    -0.203 F 
ATOM     55  C   UNL A   1      42.303  21.995  26.869  1.00  0.00     0.198 A 
ATOM     56  C   UNL A   1      43.503  22.819  24.973  1.00  0.00     0.198 A 
ATOM     57  F   UNL A   1      43.911  25.121  24.737  1.00  0.00    -0.203 F 
ATOM     58  F   UNL A   1      41.842  20.970  27.599  1.00  0.00    -0.200 F 
ATOM     59  C   UNL A   1      42.996  21.752  25.697  1.00  0.00     0.200 A 
ATOM     60  F   UNL A   1      44.207  22.587  23.856  1.00  0.00    -0.200 F 
ATOM     61  F   UNL A   1      43.212  20.493  25.292  1.00  0.00    -0.200 F 
ENDBRANCH  27  51
BRANCH  39  62
ATOM     62  C   UNL A   1      45.503  29.791  28.401  1.00  0.00     0.064 A 
ATOM     63  C   UNL A   1      46.780  30.194  27.989  1.00  0.00     0.173 A 
ATOM     64  C   UNL A   1      44.402  30.471  27.850  1.00  0.00     0.173 A 
ATOM     65  F   UNL A   1      47.871  29.620  28.521  1.00  0.00    -0.203 F 
ATOM     66  C   UNL A   1      46.951  31.234  27.079  1.00  0.00     0.198 A 
ATOM     67  C   UNL A   1      44.574  31.486  26.911  1.00  0.00     0.198 A 
ATOM     68  F   UNL A   1      43.154  30.213  28.262  1.00  0.00    -0.203 F 
ATOM     69  F   UNL A   1      48.188  31.641  26.758  1.00  0.00    -0.200 F 
ATOM     70  C   UNL A   1      45.849  31.875  26.535  1.00  0.00     0.200 A 
ATOM     71  F   UNL A   1      43.508  32.122  26.403  1.00  0.00    -0.200 F 
ATOM     72  F   UNL A   1      46.018  32.890  25.676  1.00  0.00    -0.200 F 
ENDBRANCH  39  62
ENDBRANCH  13  14
ENDBRANCH   6   8
ENDBRANCH   3   4
ENDBRANCH   2   3
ENDBRANCH   1   2
BRANCH   1  73
ATOM     73  C   UNL A   1      32.877  28.664  25.733  1.00  0.00     0.002 C 
BRANCH  73  74
ATOM     74  C   UNL A   1      34.037  28.504  24.742  1.00  0.00     0.021 C 
BRANCH  74  75
ATOM     75  C   UNL A   1      33.848  29.197  23.389  1.00  0.00     0.116 C 
BRANCH  75  76
ATOM     76  N   UNL A   1      33.959  28.259  22.283  1.00  0.00    -0.351 N 
ATOM     77  C   UNL A   1      33.101  27.249  21.896  1.00  0.00     0.272 C 
ATOM     78  H   UNL A   1      34.764  28.361  21.726  1.00  0.00     0.163 HD
ATOM     79  O   UNL A   1      33.510  26.424  21.077  1.00  0.00    -0.267 OA
BRANCH  77  80
ATOM     80  C   UNL A   1      31.756  27.144  22.487  1.00  0.00     0.155 A 
ATOM     81  N   UNL A   1      30.727  27.938  22.123  1.00  0.00    -0.167 NA
ATOM     82  C   UNL A   1      31.324  26.193  23.455  1.00  0.00     0.026 A 
ATOM     83  N   UNL A   1      29.701  27.583  22.927  1.00  0.00    -0.264 N 
ATOM     84  C   UNL A   1      30.036  26.573  23.775  1.00  0.00     0.046 A 
ATOM     85  C   UNL A   1      32.052  25.063  24.111  1.00  0.00     0.159 C 
ATOM     86  C   UNL A   1      29.219  25.953  24.849  1.00  0.00     0.078 C 
ATOM     87  N   UNL A   1      31.130  24.370  25.043  1.00  0.00    -0.337 N 
ATOM     88  C   UNL A   1      30.190  25.220  25.802  1.00  0.00     0.126 C 
BRANCH  83  89
ATOM     89  C   UNL A   1      28.400  28.216  22.758  1.00  0.00     0.180 C 
BRANCH  89  90
ATOM     90  C   UNL A   1      28.500  29.723  22.738  1.00  0.00    -0.026 A 
ATOM     91  C   UNL A   1      29.060  30.405  23.832  1.00  0.00     0.008 A 
ATOM     92  C   UNL A   1      28.033  30.463  21.640  1.00  0.00     0.008 A 
ATOM     93  C   UNL A   1      29.153  31.796  23.831  1.00  0.00     0.039 A 
ATOM     94  C   UNL A   1      28.131  31.856  21.639  1.00  0.00     0.039 A 
ATOM     95  C   UNL A   1      28.689  32.509  22.733  1.00  0.00     0.123 A 
ATOM     96  F   UNL A   1      28.778  33.845  22.730  1.00  0.00    -0.207 F 
ENDBRANCH  89  90
ENDBRANCH  83  89
BRANCH  87  97
ATOM     97  C   UNL A   1      31.224  22.992  25.171  1.00  0.00     0.232 C 
ATOM     98  O   UNL A   1      30.676  22.356  26.070  1.00  0.00    -0.274 OA
BRANCH  97  99
ATOM     99  C   UNL A   1      31.965  22.261  24.123  1.00  0.00     0.154 C 
ATOM    100  C   UNL A   1      33.430  21.898  24.302  1.00  0.00     0.097 C 
ATOM    101  C   UNL A   1      32.379  20.854  24.337  1.00  0.00     0.260 C 
ATOM    102  F   UNL A   1      32.181  20.166  25.508  1.00  0.00    -0.206 F 
ATOM    103  F   UNL A   1      32.325  19.940  23.309  1.00  0.00    -0.206 F 
ENDBRANCH  97  99
ENDBRANCH  87  97
ENDBRANCH  77  80
ENDBRANCH  75  76
ENDBRANCH  74  75
ENDBRANCH  73  74
ENDBRANCH   1  73
TORSDOF 17
ENDMDL
MODEL 3
REMARK VINA RESULT:     -13.9      2.377      5.301
REMARK SMILES O=C(NCCCCCCNC(=O)c1nn(Cc2ccc(F)cc2)c2c1CN(C(=O)[C@H]1CC1(F)F)CC2)c1ccc(-c2c3nc(c(-c4c(F)c(F)c(F)c(F)c4F)c4ccc([nH]4)c(-c4c(F)c(F)c(F)c(F)c4F)c4nc(c(-c5c(F)c(F)c(F)c(F)c5F)c5ccc2[nH]5)C=C4)C=C3)cc1
REMARK SMILES IDX 6 1 5 2 4 3 3 4 1 5 2 6 37 8 38 9 99 10 39 11 98 12 40 13
REMARK SMILES IDX 41 14 42 15 92 16 43 17 97 18 91 19 93 20 44 21 96 22 90 23
REMARK SMILES IDX 89 24 45 26 77 27 57 28 76 29 58 30 61 31 75 32 94 33 59 34
REMARK SMILES IDX 60 35 74 37 95 38 62 39 46 40 47 41 55 42 48 43 49 44 53 45
REMARK SMILES IDX 56 46 50 47 51 48 54 49 52 50 78 51 79 52 87 53 80 54 81 55
REMARK SMILES IDX 85 56 88 57 82 58 83 59 86 60 84 61 63 62 64 63 72 64 65 65
REMARK SMILES IDX 66 66 70 67 73 68 67 69 68 70 71 71 69 72 7 73 8 74 9 75
REMARK SMILES IDX 10 76 11 77 12 79 13 80 14 81 25 82 15 83 24 84 26 85 36 86
REMARK SMILES IDX 27 87 35 88 16 89 17 90 18 91 23 92 19 93 22 94 20 95 21 96
REMARK SMILES IDX 28 97 29 98 30 99 31 100 32 101 33 102 34 103
REMARK H PARENT 3 7 93 25 61 36 10 78
REMARK Flexibility Score: inf
ROOT
ATOM      1  C   UNL A   1      40.512  21.095  26.555  1.00  0.00     0.002 C 
ENDROOT
BRANCH   1   2
ATOM      2  C   UNL A   1      40.931  19.688  26.101  1.00  0.00     0.021 C 
BRANCH   2   3
ATOM      3  C   UNL A   1      42.411  19.358  26.292  1.00  0.00     0.116 C 
BRANCH   3   4
ATOM      4  N   UNL A   1      43.264  19.837  25.224  1.00  0.00    -0.352 N 
ATOM      5  O   UNL A   1      44.670  20.975  23.964  1.00  0.00    -0.269 OA
ATOM      6  C   UNL A   1      43.918  21.005  24.943  1.00  0.00     0.251 C 
ATOM      7  H   UNL A   1      43.408  19.155  24.529  1.00  0.00     0.163 HD
BRANCH   6   8
ATOM      8  C   UNL A   1      43.766  22.295  25.676  1.00  0.00     0.039 A 
ATOM      9  C   UNL A   1      44.408  22.655  26.861  1.00  0.00     0.014 A 
ATOM     10  C   UNL A   1      42.867  23.219  25.102  1.00  0.00     0.014 A 
ATOM     11  C   UNL A   1      44.117  23.873  27.481  1.00  0.00     0.010 A 
ATOM     12  C   UNL A   1      42.579  24.437  25.713  1.00  0.00     0.010 A 
ATOM     13  C   UNL A   1      43.183  24.754  26.924  1.00  0.00    -0.014 A 
BRANCH  13  14
ATOM     14  C   UNL A   1      42.949  26.041  27.585  1.00  0.00     0.031 A 
ATOM     15  C   UNL A   1      43.928  27.127  27.264  1.00  0.00     0.074 A 
ATOM     16  C   UNL A   1      41.860  26.325  28.329  1.00  0.00     0.049 A 
ATOM     17  N   UNL A   1      44.672  27.812  28.073  1.00  0.00    -0.248 NA
ATOM     18  C   UNL A   1      44.130  27.459  25.845  1.00  0.00     0.031 C 
ATOM     19  C   UNL A   1      40.645  25.529  28.517  1.00  0.00     0.029 A 
ATOM     20  N   UNL A   1      41.590  27.466  29.028  1.00  0.00    -0.354 N 
ATOM     21  C   UNL A   1      45.358  28.741  27.287  1.00  0.00     0.074 A 
ATOM     22  C   UNL A   1      45.041  28.430  25.916  1.00  0.00     0.031 C 
ATOM     23  C   UNL A   1      39.695  26.294  29.106  1.00  0.00     0.029 A 
ATOM     24  C   UNL A   1      40.278  27.575  29.467  1.00  0.00     0.049 A 
ATOM     25  H   UNL A   1      42.269  28.155  29.204  1.00  0.00     0.167 HD
ATOM     26  C   UNL A   1      46.050  29.790  27.816  1.00  0.00     0.037 A 
ATOM     27  C   UNL A   1      39.708  28.664  30.039  1.00  0.00     0.037 A 
ATOM     28  C   UNL A   1      46.342  29.597  29.207  1.00  0.00     0.049 A 
ATOM     29  C   UNL A   1      40.799  29.516  30.569  1.00  0.00     0.074 A 
ATOM     30  C   UNL A   1      47.113  28.697  29.915  1.00  0.00     0.029 A 
ATOM     31  N   UNL A   1      45.546  30.208  30.142  1.00  0.00    -0.354 N 
ATOM     32  N   UNL A   1      41.564  29.195  31.573  1.00  0.00    -0.248 NA
ATOM     33  C   UNL A   1      41.301  30.577  29.710  1.00  0.00     0.031 C 
ATOM     34  C   UNL A   1      46.385  28.453  31.115  1.00  0.00     0.029 A 
ATOM     35  C   UNL A   1      45.244  29.255  31.080  1.00  0.00     0.049 A 
ATOM     36  H   UNL A   1      45.249  31.147  30.139  1.00  0.00     0.167 HD
ATOM     37  C   UNL A   1      42.809  29.703  31.241  1.00  0.00     0.074 A 
ATOM     38  C   UNL A   1      42.566  30.620  30.132  1.00  0.00     0.031 C 
ATOM     39  C   UNL A   1      43.954  29.132  31.715  1.00  0.00     0.037 A 
BRANCH  26  40
ATOM     40  C   UNL A   1      46.273  31.106  27.124  1.00  0.00     0.064 A 
ATOM     41  C   UNL A   1      45.223  32.004  26.843  1.00  0.00     0.173 A 
ATOM     42  C   UNL A   1      47.575  31.621  26.969  1.00  0.00     0.173 A 
ATOM     43  F   UNL A   1      43.943  31.676  27.066  1.00  0.00    -0.203 F 
ATOM     44  C   UNL A   1      45.455  33.313  26.421  1.00  0.00     0.198 A 
ATOM     45  C   UNL A   1      47.806  32.948  26.593  1.00  0.00     0.198 A 
ATOM     46  F   UNL A   1      48.647  30.863  27.248  1.00  0.00    -0.203 F 
ATOM     47  F   UNL A   1      44.415  34.125  26.183  1.00  0.00    -0.200 F 
ATOM     48  C   UNL A   1      46.746  33.793  26.319  1.00  0.00     0.200 A 
ATOM     49  F   UNL A   1      49.058  33.422  26.551  1.00  0.00    -0.200 F 
ATOM     50  F   UNL A   1      46.962  35.076  26.002  1.00  0.00    -0.200 F 
ENDBRANCH  26  40
BRANCH  27  51
ATOM     51  C   UNL A   1      38.332  29.189  29.858  1.00  0.00     0.064 A 
ATOM     52  C   UNL A   1      37.889  29.639  28.601  1.00  0.00     0.173 A 
ATOM     53  C   UNL A   1      37.545  29.550  30.966  1.00  0.00     0.173 A 
ATOM     54  F   UNL A   1      38.611  29.409  27.495  1.00  0.00    -0.203 F 
ATOM     55  C   UNL A   1      36.747  30.430  28.463  1.00  0.00     0.198 A 
ATOM     56  C   UNL A   1      36.405  30.347  30.826  1.00  0.00     0.198 A 
ATOM     57  F   UNL A   1      37.921  29.197  32.204  1.00  0.00    -0.203 F 
ATOM     58  F   UNL A   1      36.402  30.892  27.253  1.00  0.00    -0.200 F 
ATOM     59  C   UNL A   1      36.015  30.799  29.576  1.00  0.00     0.200 A 
ATOM     60  F   UNL A   1      35.721  30.733  31.913  1.00  0.00    -0.200 F 
ATOM     61  F   UNL A   1      34.965  31.621  29.449  1.00  0.00    -0.200 F 
ENDBRANCH  27  51
BRANCH  39  62
ATOM     62  C   UNL A   1      43.832  28.096  32.798  1.00  0.00     0.064 A 
ATOM     63  C   UNL A   1      43.967  28.507  34.131  1.00  0.00     0.173 A 
ATOM     64  C   UNL A   1      43.767  26.713  32.551  1.00  0.00     0.173 A 
ATOM     65  F   UNL A   1      44.090  29.812  34.423  1.00  0.00    -0.203 F 
ATOM     66  C   UNL A   1      44.045  27.581  35.168  1.00  0.00     0.198 A 
ATOM     67  C   UNL A   1      43.808  25.789  33.594  1.00  0.00     0.198 A 
ATOM     68  F   UNL A   1      43.735  26.235  31.301  1.00  0.00    -0.203 F 
ATOM     69  F   UNL A   1      44.243  28.004  36.424  1.00  0.00    -0.200 F 
ATOM     70  C   UNL A   1      43.959  26.224  34.901  1.00  0.00     0.200 A 
ATOM     71  F   UNL A   1      43.748  24.476  33.332  1.00  0.00    -0.200 F 
ATOM     72  F   UNL A   1      44.056  25.335  35.899  1.00  0.00    -0.200 F 
ENDBRANCH  39  62
ENDBRANCH  13  14
ENDBRANCH   6   8
ENDBRANCH   3   4
ENDBRANCH   2   3
ENDBRANCH   1   2
BRANCH   1  73
ATOM     73  C   UNL A   1      39.223  21.656  25.941  1.00  0.00     0.002 C 
BRANCH  73  74
ATOM     74  C   UNL A   1      38.732  22.992  26.511  1.00  0.00     0.021 C 
BRANCH  74  75
ATOM     75  C   UNL A   1      37.381  23.479  25.976  1.00  0.00     0.116 C 
BRANCH  75  76
ATOM     76  N   UNL A   1      37.367  23.540  24.522  1.00  0.00    -0.351 N 
ATOM     77  C   UNL A   1      36.349  23.245  23.639  1.00  0.00     0.272 C 
ATOM     78  H   UNL A   1      38.209  23.836  24.108  1.00  0.00     0.163 HD
ATOM     79  O   UNL A   1      36.632  23.134  22.445  1.00  0.00    -0.267 OA
BRANCH  77  80
ATOM     80  C   UNL A   1      34.976  23.025  24.127  1.00  0.00     0.155 A 
ATOM     81  N   UNL A   1      34.457  21.797  24.337  1.00  0.00    -0.167 NA
ATOM     82  C   UNL A   1      34.033  24.027  24.492  1.00  0.00     0.026 A 
ATOM     83  N   UNL A   1      33.175  22.011  24.709  1.00  0.00    -0.264 N 
ATOM     84  C   UNL A   1      32.869  23.335  24.765  1.00  0.00     0.046 A 
ATOM     85  C   UNL A   1      34.147  25.518  24.517  1.00  0.00     0.159 C 
ATOM     86  C   UNL A   1      31.562  23.975  25.063  1.00  0.00     0.078 C 
ATOM     87  N   UNL A   1      32.865  26.094  24.993  1.00  0.00    -0.337 N 
ATOM     88  C   UNL A   1      31.628  25.427  24.538  1.00  0.00     0.126 C 
BRANCH  83  89
ATOM     89  C   UNL A   1      32.332  20.880  25.072  1.00  0.00     0.180 C 
BRANCH  89  90
ATOM     90  C   UNL A   1      32.803  19.593  24.438  1.00  0.00    -0.026 A 
ATOM     91  C   UNL A   1      33.747  18.788  25.100  1.00  0.00     0.008 A 
ATOM     92  C   UNL A   1      32.318  19.186  23.185  1.00  0.00     0.008 A 
ATOM     93  C   UNL A   1      34.196  17.601  24.524  1.00  0.00     0.039 A 
ATOM     94  C   UNL A   1      32.767  17.994  22.612  1.00  0.00     0.039 A 
ATOM     95  C   UNL A   1      33.700  17.214  23.285  1.00  0.00     0.123 A 
ATOM     96  F   UNL A   1      34.131  16.073  22.730  1.00  0.00    -0.207 F 
ENDBRANCH  89  90
ENDBRANCH  83  89
BRANCH  87  97
ATOM     97  C   UNL A   1      32.901  27.224  25.796  1.00  0.00     0.232 C 
ATOM     98  O   UNL A   1      33.875  27.544  26.475  1.00  0.00    -0.274 OA
BRANCH  97  99
ATOM     99  C   UNL A   1      31.724  28.117  25.764  1.00  0.00     0.154 C 
ATOM    100  C   UNL A   1      31.864  29.613  25.985  1.00  0.00     0.097 C 
ATOM    101  C   UNL A   1      31.533  29.072  24.647  1.00  0.00     0.260 C 
ATOM    102  F   UNL A   1      32.436  29.250  23.628  1.00  0.00    -0.206 F 
ATOM    103  F   UNL A   1      30.279  29.311  24.131  1.00  0.00    -0.206 F 
ENDBRANCH  97  99
ENDBRANCH  87  97
ENDBRANCH  77  80
ENDBRANCH  75  76
ENDBRANCH  74  75
ENDBRANCH  73  74
ENDBRANCH   1  73
TORSDOF 17
ENDMDL
