MODEL 1
REMARK VINA RESULT:     -13.7      0.000      0.000
REMARK SMILES Cn1ccc(-c2n[nH]c(=O)n2-c2ccc(C(=O)NCCCCCCNC(=O)c3ccc(-c4c5nc(c(-c6c(F)c(F)c(F)c(F)c6F)c6ccc([nH]6)c(-c6c(F)c(F)c(F)c(F)c6F)c6nc(c(-c7c(F)c(F)c(F)c(F)c7F)c7ccc4[nH]7)C=C6)C=C5)cc3)cc2)n1
REMARK SMILES IDX 21 1 20 2 19 3 18 4 16 5 17 6 15 8 12 9 13 10 92 11 14 12
REMARK SMILES IDX 91 13 11 14 6 15 7 16 8 17 9 18 10 20 5 21 1 22 2 23 3 24
REMARK SMILES IDX 93 25 4 26 22 27 23 28 24 29 25 30 26 31 27 33 28 34 29 35
REMARK SMILES IDX 90 36 30 37 89 38 31 39 32 40 33 41 83 42 34 43 88 44 82 45
REMARK SMILES IDX 84 46 35 47 87 48 81 49 80 50 36 52 68 53 48 54 67 55 49 56
REMARK SMILES IDX 52 57 66 58 85 59 50 60 51 61 65 63 86 64 53 65 37 66 38 67
REMARK SMILES IDX 46 68 39 69 40 70 44 71 47 72 41 73 42 74 45 75 43 76 69 77
REMARK SMILES IDX 70 78 78 79 71 80 72 81 76 82 79 83 73 84 74 85 77 86 75 87
REMARK SMILES IDX 54 88 55 89 63 90 56 91 57 92 61 93 64 94 58 95 59 96 62 97
REMARK SMILES IDX 60 98
REMARK H PARENT 18 7 8 19 25 32 84 51 52 62
REMARK Flexibility Score: inf
ROOT
ATOM      1  C   UNL A   1      31.109  28.648  24.816  1.00  0.00     0.002 C 
ENDROOT
BRANCH   1   2
ATOM      2  C   UNL A   1      30.913  28.906  23.316  1.00  0.00     0.021 C 
BRANCH   2   3
ATOM      3  C   UNL A   1      30.492  27.653  22.541  1.00  0.00     0.116 C 
BRANCH   3   4
ATOM      4  N   UNL A   1      31.549  27.254  21.633  1.00  0.00    -0.352 N 
ATOM      5  C   UNL A   1      32.625  26.411  21.754  1.00  0.00     0.251 C 
ATOM      6  O   UNL A   1      33.365  26.299  20.777  1.00  0.00    -0.269 OA
ATOM      7  H   UNL A   1      31.482  27.674  20.745  1.00  0.00     0.163 HD
BRANCH   5   8
ATOM      8  C   UNL A   1      32.896  25.587  22.966  1.00  0.00     0.039 A 
ATOM      9  C   UNL A   1      33.135  23.971  25.260  1.00  0.00     0.052 A 
ATOM     10  C   UNL A   1      32.501  23.472  24.123  1.00  0.00     0.028 A 
ATOM     11  C   UNL A   1      33.725  25.238  25.216  1.00  0.00     0.028 A 
ATOM     12  C   UNL A   1      32.353  24.291  22.997  1.00  0.00     0.016 A 
ATOM     13  C   UNL A   1      33.658  26.011  24.054  1.00  0.00     0.016 A 
BRANCH   9  14
ATOM     14  N   UNL A   1      33.256  23.196  26.420  1.00  0.00    -0.242 N 
ATOM     15  C   UNL A   1      34.207  22.269  26.724  1.00  0.00     0.189 A 
ATOM     16  N   UNL A   1      33.886  21.448  27.687  1.00  0.00    -0.150 NA
ATOM     17  N   UNL A   1      32.647  21.882  28.078  1.00  0.00    -0.226 N 
ATOM     18  C   UNL A   1      32.234  22.971  27.309  1.00  0.00     0.348 A 
ATOM     19  H   UNL A   1      32.118  21.480  28.804  1.00  0.00     0.195 HD
ATOM     20  O   UNL A   1      31.142  23.514  27.394  1.00  0.00    -0.246 OA
BRANCH  15  21
ATOM     21  C   UNL A   1      35.517  22.232  26.094  1.00  0.00     0.130 A 
ATOM     22  C   UNL A   1      38.849  23.304  25.984  1.00  0.00     0.173 C 
ATOM     23  N   UNL A   1      37.567  22.684  25.744  1.00  0.00    -0.275 N 
ATOM     24  C   UNL A   1      37.307  21.633  24.917  1.00  0.00     0.109 A 
ATOM     25  N   UNL A   1      36.485  23.110  26.418  1.00  0.00    -0.170 NA
ATOM     26  C   UNL A   1      35.995  21.290  25.146  1.00  0.00     0.054 A 
ENDBRANCH  15  21
ENDBRANCH   9  14
ENDBRANCH   5   8
ENDBRANCH   3   4
ENDBRANCH   2   3
ENDBRANCH   1   2
BRANCH   1  27
ATOM     27  C   UNL A   1      32.046  29.634  25.532  1.00  0.00     0.002 C 
BRANCH  27  28
ATOM     28  C   UNL A   1      32.343  29.316  27.005  1.00  0.00     0.021 C 
BRANCH  28  29
ATOM     29  C   UNL A   1      33.789  29.589  27.395  1.00  0.00     0.116 C 
BRANCH  29  30
ATOM     30  N   UNL A   1      34.146  30.985  27.168  1.00  0.00    -0.352 N 
ATOM     31  C   UNL A   1      35.230  31.687  27.635  1.00  0.00     0.251 C 
ATOM     32  H   UNL A   1      33.523  31.494  26.602  1.00  0.00     0.163 HD
ATOM     33  O   UNL A   1      35.219  32.914  27.651  1.00  0.00    -0.269 OA
BRANCH  31  34
ATOM     34  C   UNL A   1      36.405  30.957  28.134  1.00  0.00     0.039 A 
ATOM     35  C   UNL A   1      36.580  29.610  27.801  1.00  0.00     0.014 A 
ATOM     36  C   UNL A   1      37.329  31.618  28.942  1.00  0.00     0.014 A 
ATOM     37  C   UNL A   1      37.732  28.952  28.219  1.00  0.00     0.010 A 
ATOM     38  C   UNL A   1      38.514  30.998  29.273  1.00  0.00     0.010 A 
ATOM     39  C   UNL A   1      38.709  29.658  28.935  1.00  0.00    -0.014 A 
BRANCH  39  40
ATOM     40  C   UNL A   1      40.002  29.033  29.209  1.00  0.00     0.031 A 
ATOM     41  C   UNL A   1      40.316  28.818  30.652  1.00  0.00     0.074 A 
ATOM     42  C   UNL A   1      40.762  28.474  28.246  1.00  0.00     0.049 A 
ATOM     43  N   UNL A   1      41.352  29.232  31.307  1.00  0.00    -0.248 NA
ATOM     44  C   UNL A   1      39.324  28.127  31.491  1.00  0.00     0.031 C 
ATOM     45  C   UNL A   1      40.461  28.348  26.817  1.00  0.00     0.029 A 
ATOM     46  N   UNL A   1      41.926  27.775  28.371  1.00  0.00    -0.354 N 
ATOM     47  C   UNL A   1      41.227  28.735  32.604  1.00  0.00     0.074 A 
ATOM     48  C   UNL A   1      39.903  28.174  32.693  1.00  0.00     0.031 C 
ATOM     49  C   UNL A   1      41.281  27.428  26.266  1.00  0.00     0.029 A 
ATOM     50  C   UNL A   1      42.252  27.009  27.261  1.00  0.00     0.049 A 
ATOM     51  H   UNL A   1      42.486  27.812  29.180  1.00  0.00     0.167 HD
ATOM     52  C   UNL A   1      42.302  28.653  33.437  1.00  0.00     0.037 A 
ATOM     53  C   UNL A   1      43.223  26.067  27.175  1.00  0.00     0.037 A 
ATOM     54  C   UNL A   1      43.377  29.494  32.975  1.00  0.00     0.049 A 
ATOM     55  C   UNL A   1      44.187  26.326  28.273  1.00  0.00     0.074 A 
ATOM     56  C   UNL A   1      43.510  30.848  32.733  1.00  0.00     0.029 A 
ATOM     57  N   UNL A   1      44.445  28.901  32.346  1.00  0.00    -0.354 N 
ATOM     58  N   UNL A   1      44.985  27.357  28.307  1.00  0.00    -0.248 NA
ATOM     59  C   UNL A   1      43.961  25.671  29.553  1.00  0.00     0.031 C 
ATOM     60  C   UNL A   1      44.332  30.934  31.571  1.00  0.00     0.029 A 
ATOM     61  C   UNL A   1      44.702  29.636  31.219  1.00  0.00     0.049 A 
ATOM     62  H   UNL A   1      44.932  28.101  32.648  1.00  0.00     0.167 HD
ATOM     63  C   UNL A   1      44.988  27.748  29.637  1.00  0.00     0.074 A 
ATOM     64  C   UNL A   1      44.438  26.613  30.370  1.00  0.00     0.031 C 
ATOM     65  C   UNL A   1      45.160  29.058  29.980  1.00  0.00     0.037 A 
BRANCH  52  66
ATOM     66  C   UNL A   1      42.530  27.565  34.463  1.00  0.00     0.064 A 
ATOM     67  C   UNL A   1      43.087  26.337  34.044  1.00  0.00     0.173 A 
ATOM     68  C   UNL A   1      41.941  27.555  35.744  1.00  0.00     0.173 A 
ATOM     69  F   UNL A   1      43.678  26.226  32.844  1.00  0.00    -0.203 F 
ATOM     70  C   UNL A   1      42.956  25.168  34.798  1.00  0.00     0.198 A 
ATOM     71  C   UNL A   1      41.861  26.397  36.518  1.00  0.00     0.198 A 
ATOM     72  F   UNL A   1      41.321  28.624  36.254  1.00  0.00    -0.203 F 
ATOM     73  F   UNL A   1      43.371  23.999  34.291  1.00  0.00    -0.200 F 
ATOM     74  C   UNL A   1      42.332  25.197  36.030  1.00  0.00     0.200 A 
ATOM     75  F   UNL A   1      41.242  26.443  37.707  1.00  0.00    -0.200 F 
ATOM     76  F   UNL A   1      42.139  24.067  36.722  1.00  0.00    -0.200 F 
ENDBRANCH  52  66
BRANCH  53  77
ATOM     77  C   UNL A   1      43.267  24.839  26.345  1.00  0.00     0.064 A 
ATOM     78  C   UNL A   1      44.192  24.706  25.296  1.00  0.00     0.173 A 
ATOM     79  C   UNL A   1      42.583  23.666  26.723  1.00  0.00     0.173 A 
ATOM     80  F   UNL A   1      44.918  25.761  24.897  1.00  0.00    -0.203 F 
ATOM     81  C   UNL A   1      44.441  23.472  24.687  1.00  0.00     0.198 A 
ATOM     82  C   UNL A   1      42.822  22.438  26.104  1.00  0.00     0.198 A 
ATOM     83  F   UNL A   1      41.737  23.663  27.763  1.00  0.00    -0.203 F 
ATOM     84  F   UNL A   1      45.383  23.373  23.738  1.00  0.00    -0.200 F 
ATOM     85  C   UNL A   1      43.763  22.337  25.098  1.00  0.00     0.200 A 
ATOM     86  F   UNL A   1      42.181  21.342  26.536  1.00  0.00    -0.200 F 
ATOM     87  F   UNL A   1      44.046  21.144  24.558  1.00  0.00    -0.200 F 
ENDBRANCH  53  77
BRANCH  65  88
ATOM     88  C   UNL A   1      45.614  30.014  28.914  1.00  0.00     0.064 A 
ATOM     89  C   UNL A   1      44.744  30.692  28.043  1.00  0.00     0.173 A 
ATOM     90  C   UNL A   1      46.969  30.368  28.874  1.00  0.00     0.173 A 
ATOM     91  F   UNL A   1      43.422  30.494  28.092  1.00  0.00    -0.203 F 
ATOM     92  C   UNL A   1      45.218  31.641  27.140  1.00  0.00     0.198 A 
ATOM     93  C   UNL A   1      47.435  31.345  27.999  1.00  0.00     0.198 A 
ATOM     94  F   UNL A   1      47.838  29.796  29.723  1.00  0.00    -0.203 F 
ATOM     95  F   UNL A   1      44.368  32.261  26.308  1.00  0.00    -0.200 F 
ATOM     96  C   UNL A   1      46.563  31.972  27.124  1.00  0.00     0.200 A 
ATOM     97  F   UNL A   1      48.727  31.699  28.024  1.00  0.00    -0.200 F 
ATOM     98  F   UNL A   1      47.013  32.914  26.285  1.00  0.00    -0.200 F 
ENDBRANCH  65  88
ENDBRANCH  39  40
ENDBRANCH  31  34
ENDBRANCH  29  30
ENDBRANCH  28  29
ENDBRANCH  27  28
ENDBRANCH   1  27
TORSDOF 15
ENDMDL
MODEL 2
REMARK VINA RESULT:     -13.6      2.909      8.686
REMARK SMILES Cn1ccc(-c2n[nH]c(=O)n2-c2ccc(C(=O)NCCCCCCNC(=O)c3ccc(-c4c5nc(c(-c6c(F)c(F)c(F)c(F)c6F)c6ccc([nH]6)c(-c6c(F)c(F)c(F)c(F)c6F)c6nc(c(-c7c(F)c(F)c(F)c(F)c7F)c7ccc4[nH]7)C=C6)C=C5)cc3)cc2)n1
REMARK SMILES IDX 21 1 20 2 19 3 18 4 16 5 17 6 15 8 12 9 13 10 92 11 14 12
REMARK SMILES IDX 91 13 11 14 6 15 7 16 8 17 9 18 10 20 5 21 1 22 2 23 3 24
REMARK SMILES IDX 93 25 4 26 22 27 23 28 24 29 25 30 26 31 27 33 28 34 29 35
REMARK SMILES IDX 90 36 30 37 89 38 31 39 32 40 33 41 83 42 34 43 88 44 82 45
REMARK SMILES IDX 84 46 35 47 87 48 81 49 80 50 36 52 68 53 48 54 67 55 49 56
REMARK SMILES IDX 52 57 66 58 85 59 50 60 51 61 65 63 86 64 53 65 37 66 38 67
REMARK SMILES IDX 46 68 39 69 40 70 44 71 47 72 41 73 42 74 45 75 43 76 69 77
REMARK SMILES IDX 70 78 78 79 71 80 72 81 76 82 79 83 73 84 74 85 77 86 75 87
REMARK SMILES IDX 54 88 55 89 63 90 56 91 57 92 61 93 64 94 58 95 59 96 62 97
REMARK SMILES IDX 60 98
REMARK H PARENT 18 7 8 19 25 32 84 51 52 62
REMARK Flexibility Score: inf
ROOT
ATOM      1  C   UNL A   1      40.190  21.731  26.521  1.00  0.00     0.002 C 
ENDROOT
BRANCH   1   2
ATOM      2  C   UNL A   1      38.880  21.198  25.925  1.00  0.00     0.021 C 
BRANCH   2   3
ATOM      3  C   UNL A   1      37.812  22.283  25.754  1.00  0.00     0.116 C 
BRANCH   3   4
ATOM      4  N   UNL A   1      37.611  22.564  24.347  1.00  0.00    -0.352 N 
ATOM      5  C   UNL A   1      36.520  22.951  23.610  1.00  0.00     0.251 C 
ATOM      6  O   UNL A   1      36.681  23.092  22.398  1.00  0.00    -0.269 OA
ATOM      7  H   UNL A   1      38.427  22.455  23.806  1.00  0.00     0.163 HD
BRANCH   5   8
ATOM      8  C   UNL A   1      35.192  23.269  24.207  1.00  0.00     0.039 A 
ATOM      9  C   UNL A   1      32.596  23.927  25.077  1.00  0.00     0.052 A 
ATOM     10  C   UNL A   1      32.769  23.008  24.043  1.00  0.00     0.028 A 
ATOM     11  C   UNL A   1      33.719  24.442  25.731  1.00  0.00     0.028 A 
ATOM     12  C   UNL A   1      34.060  22.710  23.590  1.00  0.00     0.016 A 
ATOM     13  C   UNL A   1      35.004  24.064  25.337  1.00  0.00     0.016 A 
BRANCH   9  14
ATOM     14  N   UNL A   1      31.317  24.285  25.521  1.00  0.00    -0.242 N 
ATOM     15  C   UNL A   1      30.689  25.489  25.414  1.00  0.00     0.189 A 
ATOM     16  N   UNL A   1      29.674  25.653  26.219  1.00  0.00    -0.150 NA
ATOM     17  N   UNL A   1      29.595  24.457  26.882  1.00  0.00    -0.226 N 
ATOM     18  C   UNL A   1      30.603  23.587  26.463  1.00  0.00     0.348 A 
ATOM     19  H   UNL A   1      28.919  24.240  27.564  1.00  0.00     0.195 HD
ATOM     20  O   UNL A   1      30.813  22.479  26.937  1.00  0.00    -0.246 OA
BRANCH  15  21
ATOM     21  C   UNL A   1      31.055  26.497  24.432  1.00  0.00     0.130 A 
ATOM     22  C   UNL A   1      33.173  29.092  23.410  1.00  0.00     0.173 C 
ATOM     23  N   UNL A   1      32.134  28.096  23.534  1.00  0.00    -0.275 N 
ATOM     24  C   UNL A   1      31.291  27.665  22.554  1.00  0.00     0.109 A 
ATOM     25  N   UNL A   1      31.966  27.451  24.701  1.00  0.00    -0.170 NA
ATOM     26  C   UNL A   1      30.602  26.604  23.091  1.00  0.00     0.054 A 
ENDBRANCH  15  21
ENDBRANCH   9  14
ENDBRANCH   5   8
ENDBRANCH   3   4
ENDBRANCH   2   3
ENDBRANCH   1   2
BRANCH   1  27
ATOM     27  C   UNL A   1      41.139  20.658  27.078  1.00  0.00     0.002 C 
BRANCH  27  28
ATOM     28  C   UNL A   1      41.590  19.587  26.074  1.00  0.00     0.021 C 
BRANCH  28  29
ATOM     29  C   UNL A   1      42.989  19.054  26.357  1.00  0.00     0.116 C 
BRANCH  29  30
ATOM     30  N   UNL A   1      43.808  19.046  25.150  1.00  0.00    -0.352 N 
ATOM     31  C   UNL A   1      44.277  20.108  24.417  1.00  0.00     0.251 C 
ATOM     32  H   UNL A   1      44.058  18.155  24.815  1.00  0.00     0.163 HD
ATOM     33  O   UNL A   1      44.651  19.950  23.259  1.00  0.00    -0.269 OA
BRANCH  31  34
ATOM     34  C   UNL A   1      44.314  21.447  25.024  1.00  0.00     0.039 A 
ATOM     35  C   UNL A   1      43.383  22.414  24.633  1.00  0.00     0.014 A 
ATOM     36  C   UNL A   1      45.287  21.739  25.979  1.00  0.00     0.014 A 
ATOM     37  C   UNL A   1      43.383  23.651  25.267  1.00  0.00     0.010 A 
ATOM     38  C   UNL A   1      45.226  22.926  26.676  1.00  0.00     0.010 A 
ATOM     39  C   UNL A   1      44.292  23.895  26.306  1.00  0.00    -0.014 A 
BRANCH  39  40
ATOM     40  C   UNL A   1      44.173  25.114  27.105  1.00  0.00     0.031 A 
ATOM     41  C   UNL A   1      45.197  26.163  26.827  1.00  0.00     0.074 A 
ATOM     42  C   UNL A   1      43.095  25.384  27.869  1.00  0.00     0.049 A 
ATOM     43  N   UNL A   1      46.004  26.725  27.668  1.00  0.00    -0.248 NA
ATOM     44  C   UNL A   1      45.407  26.588  25.434  1.00  0.00     0.031 C 
ATOM     45  C   UNL A   1      41.876  24.586  28.025  1.00  0.00     0.029 A 
ATOM     46  N   UNL A   1      42.810  26.514  28.577  1.00  0.00    -0.354 N 
ATOM     47  C   UNL A   1      46.724  27.679  26.951  1.00  0.00     0.074 A 
ATOM     48  C   UNL A   1      46.408  27.461  25.563  1.00  0.00     0.031 C 
ATOM     49  C   UNL A   1      40.907  25.352  28.572  1.00  0.00     0.029 A 
ATOM     50  C   UNL A   1      41.475  26.638  28.934  1.00  0.00     0.049 A 
ATOM     51  H   UNL A   1      43.492  27.182  28.813  1.00  0.00     0.167 HD
ATOM     52  C   UNL A   1      47.372  28.698  27.582  1.00  0.00     0.037 A 
ATOM     53  C   UNL A   1      40.866  27.734  29.451  1.00  0.00     0.037 A 
ATOM     54  C   UNL A   1      47.555  28.405  28.981  1.00  0.00     0.049 A 
ATOM     55  C   UNL A   1      41.928  28.597  30.028  1.00  0.00     0.074 A 
ATOM     56  C   UNL A   1      48.192  27.399  29.683  1.00  0.00     0.029 A 
ATOM     57  N   UNL A   1      46.732  29.024  29.890  1.00  0.00    -0.354 N 
ATOM     58  N   UNL A   1      42.609  28.288  31.096  1.00  0.00    -0.248 NA
ATOM     59  C   UNL A   1      42.535  29.602  29.169  1.00  0.00     0.031 C 
ATOM     60  C   UNL A   1      47.352  27.147  30.807  1.00  0.00     0.029 A 
ATOM     61  C   UNL A   1      46.295  28.056  30.756  1.00  0.00     0.049 A 
ATOM     62  H   UNL A   1      46.501  29.980  29.915  1.00  0.00     0.167 HD
ATOM     63  C   UNL A   1      43.902  28.702  30.812  1.00  0.00     0.074 A 
ATOM     64  C   UNL A   1      43.773  29.602  29.670  1.00  0.00     0.031 C 
ATOM     65  C   UNL A   1      44.977  28.049  31.341  1.00  0.00     0.037 A 
BRANCH  52  66
ATOM     66  C   UNL A   1      47.530  30.101  27.038  1.00  0.00     0.064 A 
ATOM     67  C   UNL A   1      48.783  30.741  27.153  1.00  0.00     0.173 A 
ATOM     68  C   UNL A   1      46.449  30.944  26.711  1.00  0.00     0.173 A 
ATOM     69  F   UNL A   1      49.887  30.040  27.458  1.00  0.00    -0.203 F 
ATOM     70  C   UNL A   1      48.917  32.129  27.065  1.00  0.00     0.198 A 
ATOM     71  C   UNL A   1      46.597  32.324  26.569  1.00  0.00     0.198 A 
ATOM     72  F   UNL A   1      45.192  30.496  26.625  1.00  0.00    -0.203 F 
ATOM     73  F   UNL A   1      50.100  32.702  27.327  1.00  0.00    -0.200 F 
ATOM     74  C   UNL A   1      47.820  32.921  26.785  1.00  0.00     0.200 A 
ATOM     75  F   UNL A   1      45.518  33.077  26.307  1.00  0.00    -0.200 F 
ATOM     76  F   UNL A   1      47.929  34.256  26.772  1.00  0.00    -0.200 F 
ENDBRANCH  52  66
BRANCH  53  77
ATOM     77  C   UNL A   1      39.462  28.186  29.299  1.00  0.00     0.064 A 
ATOM     78  C   UNL A   1      38.609  28.287  30.411  1.00  0.00     0.173 A 
ATOM     79  C   UNL A   1      39.000  28.777  28.106  1.00  0.00     0.173 A 
ATOM     80  F   UNL A   1      38.985  27.790  31.599  1.00  0.00    -0.203 F 
ATOM     81  C   UNL A   1      37.388  28.966  30.342  1.00  0.00     0.198 A 
ATOM     82  C   UNL A   1      37.775  29.440  28.035  1.00  0.00     0.198 A 
ATOM     83  F   UNL A   1      39.768  28.807  27.007  1.00  0.00    -0.203 F 
ATOM     84  F   UNL A   1      36.635  29.101  31.443  1.00  0.00    -0.200 F 
ATOM     85  C   UNL A   1      36.976  29.550  29.156  1.00  0.00     0.200 A 
ATOM     86  F   UNL A   1      37.405  30.029  26.888  1.00  0.00    -0.200 F 
ATOM     87  F   UNL A   1      35.836  30.252  29.106  1.00  0.00    -0.200 F 
ENDBRANCH  53  77
BRANCH  65  88
ATOM     88  C   UNL A   1      44.730  27.056  32.440  1.00  0.00     0.064 A 
ATOM     89  C   UNL A   1      44.575  27.402  33.793  1.00  0.00     0.173 A 
ATOM     90  C   UNL A   1      44.497  25.720  32.087  1.00  0.00     0.173 A 
ATOM     91  F   UNL A   1      44.672  28.673  34.198  1.00  0.00    -0.203 F 
ATOM     92  C   UNL A   1      44.250  26.446  34.753  1.00  0.00     0.198 A 
ATOM     93  C   UNL A   1      44.134  24.773  33.041  1.00  0.00     0.198 A 
ATOM     94  F   UNL A   1      44.574  25.341  30.802  1.00  0.00    -0.203 F 
ATOM     95  F   UNL A   1      44.123  26.802  36.040  1.00  0.00    -0.200 F 
ATOM     96  C   UNL A   1      44.022  25.134  34.375  1.00  0.00     0.200 A 
ATOM     97  F   UNL A   1      43.864  23.517  32.663  1.00  0.00    -0.200 F 
ATOM     98  F   UNL A   1      43.670  24.222  35.291  1.00  0.00    -0.200 F 
ENDBRANCH  65  88
ENDBRANCH  39  40
ENDBRANCH  31  34
ENDBRANCH  29  30
ENDBRANCH  28  29
ENDBRANCH  27  28
ENDBRANCH   1  27
TORSDOF 15
ENDMDL
MODEL 3
REMARK VINA RESULT:     -13.4      2.860      8.767
REMARK SMILES Cn1ccc(-c2n[nH]c(=O)n2-c2ccc(C(=O)NCCCCCCNC(=O)c3ccc(-c4c5nc(c(-c6c(F)c(F)c(F)c(F)c6F)c6ccc([nH]6)c(-c6c(F)c(F)c(F)c(F)c6F)c6nc(c(-c7c(F)c(F)c(F)c(F)c7F)c7ccc4[nH]7)C=C6)C=C5)cc3)cc2)n1
REMARK SMILES IDX 21 1 20 2 19 3 18 4 16 5 17 6 15 8 12 9 13 10 92 11 14 12
REMARK SMILES IDX 91 13 11 14 6 15 7 16 8 17 9 18 10 20 5 21 1 22 2 23 3 24
REMARK SMILES IDX 93 25 4 26 22 27 23 28 24 29 25 30 26 31 27 33 28 34 29 35
REMARK SMILES IDX 90 36 30 37 89 38 31 39 32 40 33 41 83 42 34 43 88 44 82 45
REMARK SMILES IDX 84 46 35 47 87 48 81 49 80 50 36 52 68 53 48 54 67 55 49 56
REMARK SMILES IDX 52 57 66 58 85 59 50 60 51 61 65 63 86 64 53 65 37 66 38 67
REMARK SMILES IDX 46 68 39 69 40 70 44 71 47 72 41 73 42 74 45 75 43 76 69 77
REMARK SMILES IDX 70 78 78 79 71 80 72 81 76 82 79 83 73 84 74 85 77 86 75 87
REMARK SMILES IDX 54 88 55 89 63 90 56 91 57 92 61 93 64 94 58 95 59 96 62 97
REMARK SMILES IDX 60 98
REMARK H PARENT 18 7 8 19 25 32 84 51 52 62
REMARK Flexibility Score: inf
ROOT
ATOM      1  C   UNL A   1      35.344  21.720  24.188  1.00  0.00     0.002 C 
ENDROOT
BRANCH   1   2
ATOM      2  C   UNL A   1      34.918  20.609  25.158  1.00  0.00     0.021 C 
BRANCH   2   3
ATOM      3  C   UNL A   1      33.403  20.550  25.376  1.00  0.00     0.116 C 
BRANCH   3   4
ATOM      4  N   UNL A   1      33.067  21.097  26.676  1.00  0.00    -0.352 N 
ATOM      5  C   UNL A   1      32.957  22.376  27.158  1.00  0.00     0.251 C 
ATOM      6  O   UNL A   1      32.666  22.506  28.348  1.00  0.00    -0.269 OA
ATOM      7  H   UNL A   1      32.879  20.407  27.353  1.00  0.00     0.163 HD
BRANCH   5   8
ATOM      8  C   UNL A   1      33.104  23.593  26.312  1.00  0.00     0.039 A 
ATOM      9  C   UNL A   1      33.251  25.752  24.509  1.00  0.00     0.052 A 
ATOM     10  C   UNL A   1      32.025  25.134  24.752  1.00  0.00     0.028 A 
ATOM     11  C   UNL A   1      34.377  25.350  25.233  1.00  0.00     0.028 A 
ATOM     12  C   UNL A   1      31.963  24.039  25.623  1.00  0.00     0.016 A 
ATOM     13  C   UNL A   1      34.286  24.320  26.172  1.00  0.00     0.016 A 
BRANCH   9  14
ATOM     14  N   UNL A   1      33.357  26.818  23.608  1.00  0.00    -0.242 N 
ATOM     15  C   UNL A   1      33.030  28.127  23.801  1.00  0.00     0.189 A 
ATOM     16  N   UNL A   1      32.885  28.824  22.706  1.00  0.00    -0.150 NA
ATOM     17  N   UNL A   1      33.172  27.925  21.714  1.00  0.00    -0.226 N 
ATOM     18  C   UNL A   1      33.473  26.672  22.248  1.00  0.00     0.348 A 
ATOM     19  H   UNL A   1      33.166  28.134  20.752  1.00  0.00     0.195 HD
ATOM     20  O   UNL A   1      33.699  25.666  21.589  1.00  0.00    -0.246 OA
BRANCH  15  21
ATOM     21  C   UNL A   1      32.927  28.739  25.116  1.00  0.00     0.130 A 
ATOM     22  C   UNL A   1      34.459  30.292  27.855  1.00  0.00     0.173 C 
ATOM     23  N   UNL A   1      33.540  29.688  26.919  1.00  0.00    -0.275 N 
ATOM     24  C   UNL A   1      32.179  29.754  26.948  1.00  0.00     0.109 A 
ATOM     25  N   UNL A   1      34.017  29.020  25.854  1.00  0.00    -0.170 NA
ATOM     26  C   UNL A   1      31.751  29.181  25.775  1.00  0.00     0.054 A 
ENDBRANCH  15  21
ENDBRANCH   9  14
ENDBRANCH   5   8
ENDBRANCH   3   4
ENDBRANCH   2   3
ENDBRANCH   1   2
BRANCH   1  27
ATOM     27  C   UNL A   1      36.823  22.128  24.270  1.00  0.00     0.002 C 
BRANCH  27  28
ATOM     28  C   UNL A   1      37.693  21.278  25.208  1.00  0.00     0.021 C 
BRANCH  28  29
ATOM     29  C   UNL A   1      38.634  22.111  26.069  1.00  0.00     0.116 C 
BRANCH  29  30
ATOM     30  N   UNL A   1      40.029  21.774  25.809  1.00  0.00    -0.352 N 
ATOM     31  C   UNL A   1      41.145  22.566  25.923  1.00  0.00     0.251 C 
ATOM     32  H   UNL A   1      40.193  20.850  25.511  1.00  0.00     0.163 HD
ATOM     33  O   UNL A   1      42.187  22.261  25.351  1.00  0.00    -0.269 OA
BRANCH  31  34
ATOM     34  C   UNL A   1      41.081  23.797  26.724  1.00  0.00     0.039 A 
ATOM     35  C   UNL A   1      41.718  23.852  27.968  1.00  0.00     0.014 A 
ATOM     36  C   UNL A   1      40.376  24.896  26.235  1.00  0.00     0.014 A 
ATOM     37  C   UNL A   1      41.711  25.045  28.681  1.00  0.00     0.010 A 
ATOM     38  C   UNL A   1      40.451  26.104  26.893  1.00  0.00     0.010 A 
ATOM     39  C   UNL A   1      41.096  26.178  28.128  1.00  0.00    -0.014 A 
BRANCH  39  40
ATOM     40  C   UNL A   1      41.250  27.478  28.778  1.00  0.00     0.031 A 
ATOM     41  C   UNL A   1      42.367  28.323  28.263  1.00  0.00     0.074 A 
ATOM     42  C   UNL A   1      40.324  27.990  29.615  1.00  0.00     0.049 A 
ATOM     43  N   UNL A   1      43.343  28.840  28.936  1.00  0.00    -0.248 NA
ATOM     44  C   UNL A   1      42.458  28.559  26.813  1.00  0.00     0.031 C 
ATOM     45  C   UNL A   1      39.035  27.410  30.000  1.00  0.00     0.029 A 
ATOM     46  N   UNL A   1      40.291  29.219  30.204  1.00  0.00    -0.354 N 
ATOM     47  C   UNL A   1      44.094  29.591  28.032  1.00  0.00     0.074 A 
ATOM     48  C   UNL A   1      43.580  29.278  26.724  1.00  0.00     0.031 C 
ATOM     49  C   UNL A   1      38.258  28.369  30.549  1.00  0.00     0.029 A 
ATOM     50  C   UNL A   1      39.041  29.584  30.686  1.00  0.00     0.049 A 
ATOM     51  H   UNL A   1      41.084  29.797  30.281  1.00  0.00     0.167 HD
ATOM     52  C   UNL A   1      44.952  30.560  28.459  1.00  0.00     0.037 A 
ATOM     53  C   UNL A   1      38.662  30.809  31.126  1.00  0.00     0.037 A 
ATOM     54  C   UNL A   1      45.266  30.393  29.855  1.00  0.00     0.049 A 
ATOM     55  C   UNL A   1      39.897  31.555  31.474  1.00  0.00     0.074 A 
ATOM     56  C   UNL A   1      45.839  29.381  30.603  1.00  0.00     0.029 A 
ATOM     57  N   UNL A   1      44.659  31.224  30.765  1.00  0.00    -0.354 N 
ATOM     58  N   UNL A   1      40.657  31.261  32.491  1.00  0.00    -0.248 NA
ATOM     59  C   UNL A   1      40.526  32.359  30.436  1.00  0.00     0.031 C 
ATOM     60  C   UNL A   1      45.119  29.382  31.834  1.00  0.00     0.029 A 
ATOM     61  C   UNL A   1      44.202  30.432  31.786  1.00  0.00     0.049 A 
ATOM     62  H   UNL A   1      44.568  32.201  30.696  1.00  0.00     0.167 HD
ATOM     63  C   UNL A   1      41.949  31.440  32.020  1.00  0.00     0.074 A 
ATOM     64  C   UNL A   1      41.805  32.222  30.796  1.00  0.00     0.031 C 
ATOM     65  C   UNL A   1      42.980  30.689  32.506  1.00  0.00     0.037 A 
BRANCH  52  66
ATOM     66  C   UNL A   1      45.235  31.856  27.732  1.00  0.00     0.064 A 
ATOM     67  C   UNL A   1      46.475  32.014  27.075  1.00  0.00     0.173 A 
ATOM     68  C   UNL A   1      44.496  33.042  27.920  1.00  0.00     0.173 A 
ATOM     69  F   UNL A   1      47.265  30.955  26.837  1.00  0.00    -0.203 F 
ATOM     70  C   UNL A   1      46.983  33.273  26.743  1.00  0.00     0.198 A 
ATOM     71  C   UNL A   1      44.983  34.291  27.538  1.00  0.00     0.198 A 
ATOM     72  F   UNL A   1      43.332  33.062  28.578  1.00  0.00    -0.203 F 
ATOM     73  F   UNL A   1      48.226  33.382  26.257  1.00  0.00    -0.200 F 
ATOM     74  C   UNL A   1      46.241  34.413  26.987  1.00  0.00     0.200 A 
ATOM     75  F   UNL A   1      44.252  35.387  27.792  1.00  0.00    -0.200 F 
ATOM     76  F   UNL A   1      46.753  35.625  26.739  1.00  0.00    -0.200 F 
ENDBRANCH  52  66
BRANCH  53  77
ATOM     77  C   UNL A   1      37.327  31.452  31.073  1.00  0.00     0.064 A 
ATOM     78  C   UNL A   1      36.549  31.606  32.233  1.00  0.00     0.173 A 
ATOM     79  C   UNL A   1      36.893  32.164  29.935  1.00  0.00     0.173 A 
ATOM     80  F   UNL A   1      36.909  30.998  33.373  1.00  0.00    -0.203 F 
ATOM     81  C   UNL A   1      35.429  32.444  32.262  1.00  0.00     0.198 A 
ATOM     82  C   UNL A   1      35.768  32.988  29.962  1.00  0.00     0.198 A 
ATOM     83  F   UNL A   1      37.605  32.151  28.799  1.00  0.00    -0.203 F 
ATOM     84  F   UNL A   1      34.755  32.618  33.408  1.00  0.00    -0.200 F 
ATOM     85  C   UNL A   1      35.045  33.142  31.130  1.00  0.00     0.200 A 
ATOM     86  F   UNL A   1      35.428  33.682  28.866  1.00  0.00    -0.200 F 
ATOM     87  F   UNL A   1      34.010  33.992  31.174  1.00  0.00    -0.200 F 
ENDBRANCH  53  77
BRANCH  65  88
ATOM     88  C   UNL A   1      42.737  29.868  33.740  1.00  0.00     0.064 A 
ATOM     89  C   UNL A   1      42.191  28.573  33.729  1.00  0.00     0.173 A 
ATOM     90  C   UNL A   1      43.211  30.356  34.965  1.00  0.00     0.173 A 
ATOM     91  F   UNL A   1      41.814  27.990  32.585  1.00  0.00    -0.203 F 
ATOM     92  C   UNL A   1      42.080  27.824  34.898  1.00  0.00     0.198 A 
ATOM     93  C   UNL A   1      43.136  29.590  36.125  1.00  0.00     0.198 A 
ATOM     94  F   UNL A   1      43.796  31.562  35.027  1.00  0.00    -0.203 F 
ATOM     95  F   UNL A   1      41.540  26.596  34.861  1.00  0.00    -0.200 F 
ATOM     96  C   UNL A   1      42.560  28.330  36.094  1.00  0.00     0.200 A 
ATOM     97  F   UNL A   1      43.649  30.063  37.269  1.00  0.00    -0.200 F 
ATOM     98  F   UNL A   1      42.492  27.593  37.211  1.00  0.00    -0.200 F 
ENDBRANCH  65  88
ENDBRANCH  39  40
ENDBRANCH  31  34
ENDBRANCH  29  30
ENDBRANCH  28  29
ENDBRANCH  27  28
ENDBRANCH   1  27
TORSDOF 15
ENDMDL
