MODEL 1
REMARK VINA RESULT:     -10.9      0.000      0.000
REMARK SMILES Cc1ccc(C)c(CC(=O)N(CC(=O)NCCCCCCNC(=O)c2ccc(-c3c4nc(c(-c5c(F)c(F)c(F)c(F)c5F)c5ccc([nH]5)c(-c5c(F)c(F)c(F)c(F)c5F)c5nc(c(-c6c(F)c(F)c(F)c(F)c6F)c6ccc3[nH]6)C=C5)C=C4)cc2)CC(F)(F)F)c1
REMARK SMILES IDX 17 1 16 2 15 3 13 4 14 5 12 7 11 8 9 9 10 10 8 11 7 12 1 13
REMARK SMILES IDX 2 14 3 15 93 16 4 17 5 18 6 19 88 20 89 21 90 22 91 23 92 24
REMARK SMILES IDX 18 25 19 26 20 27 21 28 22 29 23 30 24 32 25 33 26 34 87 35
REMARK SMILES IDX 27 36 86 37 28 38 29 39 30 40 80 41 31 42 85 43 79 44 81 45
REMARK SMILES IDX 32 46 84 47 78 48 77 49 33 51 65 52 45 53 64 54 46 55 49 56
REMARK SMILES IDX 63 57 82 58 47 59 48 60 62 62 83 63 50 64 34 65 35 66 43 67
REMARK SMILES IDX 36 68 37 69 41 70 44 71 38 72 39 73 42 74 40 75 66 76 67 77
REMARK SMILES IDX 75 78 68 79 69 80 73 81 76 82 70 83 71 84 74 85 72 86 51 87
REMARK SMILES IDX 52 88 60 89 53 90 54 91 58 92 61 93 55 94 56 95 59 96 57 97
REMARK H PARENT 15 6 22 31 81 50 49 61
REMARK Flexibility Score: inf
ROOT
ATOM      1  C   UNL A   1      43.400  29.773  28.472  1.00  0.00     0.021 C 
ENDROOT
BRANCH   1   2
ATOM      2  C   UNL A   1      43.429  28.393  27.819  1.00  0.00     0.116 C 
BRANCH   2   3
ATOM      3  N   UNL A   1      43.359  28.409  26.373  1.00  0.00    -0.355 N 
ATOM      4  C   UNL A   1      42.773  27.509  25.530  1.00  0.00     0.239 C 
ATOM      5  O   UNL A   1      42.646  27.822  24.343  1.00  0.00    -0.273 OA
ATOM      6  H   UNL A   1      43.794  29.176  25.937  1.00  0.00     0.163 HD
BRANCH   4   7
ATOM      7  C   UNL A   1      42.170  26.184  26.042  1.00  0.00     0.219 C 
BRANCH   7   8
ATOM      8  N   UNL A   1      43.094  25.130  26.476  1.00  0.00    -0.324 N 
BRANCH   8   9
ATOM      9  C   UNL A   1      43.089  24.493  27.712  1.00  0.00     0.227 C 
ATOM     10  O   UNL A   1      44.145  24.339  28.334  1.00  0.00    -0.275 OA
BRANCH   9  11
ATOM     11  C   UNL A   1      41.803  23.876  28.263  1.00  0.00     0.136 C 
BRANCH  11  12
ATOM     12  C   UNL A   1      41.262  22.648  27.558  1.00  0.00    -0.035 A 
ATOM     13  C   UNL A   1      42.562  19.118  26.881  1.00  0.00     0.044 C 
ATOM     14  C   UNL A   1      41.639  20.301  26.940  1.00  0.00    -0.051 A 
ATOM     15  C   UNL A   1      40.438  20.302  26.237  1.00  0.00     0.004 A 
ATOM     16  C   UNL A   1      42.016  21.458  27.628  1.00  0.00     0.008 A 
ATOM     17  C   UNL A   1      39.638  21.446  26.217  1.00  0.00     0.004 A 
ATOM     18  C   UNL A   1      40.046  22.636  26.845  1.00  0.00    -0.047 A 
ATOM     19  C   UNL A   1      39.198  23.866  26.666  1.00  0.00     0.044 C 
ENDBRANCH  11  12
ENDBRANCH   9  11
ENDBRANCH   8   9
BRANCH   8  20
ATOM     20  C   UNL A   1      44.085  24.666  25.477  1.00  0.00     0.235 C 
BRANCH  20  21
ATOM     21  C   UNL A   1      43.935  23.240  24.942  1.00  0.00     0.406 C 
ATOM     22  F   UNL A   1      42.660  22.902  24.675  1.00  0.00    -0.169 F 
ATOM     23  F   UNL A   1      44.653  23.090  23.802  1.00  0.00    -0.169 F 
ATOM     24  F   UNL A   1      44.427  22.329  25.809  1.00  0.00    -0.169 F 
ENDBRANCH  20  21
ENDBRANCH   8  20
ENDBRANCH   7   8
ENDBRANCH   4   7
ENDBRANCH   2   3
ENDBRANCH   1   2
BRANCH   1  25
ATOM     25  C   UNL A   1      44.364  30.816  27.899  1.00  0.00     0.002 C 
BRANCH  25  26
ATOM     26  C   UNL A   1      43.770  31.961  27.062  1.00  0.00     0.002 C 
BRANCH  26  27
ATOM     27  C   UNL A   1      44.702  32.756  26.140  1.00  0.00     0.021 C 
BRANCH  27  28
ATOM     28  C   UNL A   1      44.132  34.026  25.536  1.00  0.00     0.116 C 
BRANCH  28  29
ATOM     29  N   UNL A   1      44.881  35.238  25.862  1.00  0.00    -0.352 N 
ATOM     30  C   UNL A   1      44.840  36.108  26.944  1.00  0.00     0.251 C 
ATOM     31  H   UNL A   1      45.545  35.486  25.179  1.00  0.00     0.163 HD
ATOM     32  O   UNL A   1      45.405  37.180  26.871  1.00  0.00    -0.269 OA
BRANCH  30  33
ATOM     33  C   UNL A   1      44.132  35.744  28.199  1.00  0.00     0.039 A 
ATOM     34  C   UNL A   1      44.721  34.937  29.179  1.00  0.00     0.014 A 
ATOM     35  C   UNL A   1      42.775  35.993  28.300  1.00  0.00     0.014 A 
ATOM     36  C   UNL A   1      43.884  34.306  30.109  1.00  0.00     0.010 A 
ATOM     37  C   UNL A   1      42.121  35.788  29.473  1.00  0.00     0.010 A 
ATOM     38  C   UNL A   1      42.540  34.680  30.165  1.00  0.00    -0.014 A 
BRANCH  38  39
ATOM     39  C   UNL A   1      41.510  33.986  30.908  1.00  0.00     0.031 A 
ATOM     40  C   UNL A   1      41.837  33.689  32.311  1.00  0.00     0.074 A 
ATOM     41  C   UNL A   1      40.221  33.925  30.505  1.00  0.00     0.049 A 
ATOM     42  N   UNL A   1      42.086  32.537  32.832  1.00  0.00    -0.248 NA
ATOM     43  C   UNL A   1      42.015  34.824  33.227  1.00  0.00     0.031 C 
ATOM     44  C   UNL A   1      39.567  34.581  29.366  1.00  0.00     0.029 A 
ATOM     45  N   UNL A   1      39.186  33.304  31.134  1.00  0.00    -0.354 N 
ATOM     46  C   UNL A   1      42.309  32.782  34.180  1.00  0.00     0.074 A 
ATOM     47  C   UNL A   1      42.461  34.206  34.320  1.00  0.00     0.031 C 
ATOM     48  C   UNL A   1      38.223  34.463  29.491  1.00  0.00     0.029 A 
ATOM     49  C   UNL A   1      37.931  33.611  30.633  1.00  0.00     0.049 A 
ATOM     50  H   UNL A   1      39.318  32.685  31.889  1.00  0.00     0.167 HD
ATOM     51  C   UNL A   1      42.120  31.819  35.121  1.00  0.00     0.037 A 
ATOM     52  C   UNL A   1      36.745  33.221  31.162  1.00  0.00     0.037 A 
ATOM     53  C   UNL A   1      41.957  30.518  34.522  1.00  0.00     0.049 A 
ATOM     54  C   UNL A   1      37.009  32.087  32.085  1.00  0.00     0.074 A 
ATOM     55  C   UNL A   1      42.733  29.727  33.697  1.00  0.00     0.029 A 
ATOM     56  N   UNL A   1      40.684  30.006  34.428  1.00  0.00    -0.354 N 
ATOM     57  N   UNL A   1      37.393  30.901  31.705  1.00  0.00    -0.248 NA
ATOM     58  C   UNL A   1      37.243  32.396  33.488  1.00  0.00     0.031 C 
ATOM     59  C   UNL A   1      41.814  29.110  32.796  1.00  0.00     0.029 A 
ATOM     60  C   UNL A   1      40.531  29.534  33.148  1.00  0.00     0.049 A 
ATOM     61  H   UNL A   1      40.009  29.984  35.144  1.00  0.00     0.167 HD
ATOM     62  C   UNL A   1      38.280  30.483  32.687  1.00  0.00     0.074 A 
ATOM     63  C   UNL A   1      38.061  31.390  33.808  1.00  0.00     0.031 C 
ATOM     64  C   UNL A   1      39.302  29.627  32.395  1.00  0.00     0.037 A 
BRANCH  51  65
ATOM     65  C   UNL A   1      41.770  32.097  36.556  1.00  0.00     0.064 A 
ATOM     66  C   UNL A   1      40.592  32.808  36.847  1.00  0.00     0.173 A 
ATOM     67  C   UNL A   1      42.656  31.909  37.638  1.00  0.00     0.173 A 
ATOM     68  F   UNL A   1      39.698  33.073  35.883  1.00  0.00    -0.203 F 
ATOM     69  C   UNL A   1      40.344  33.330  38.119  1.00  0.00     0.198 A 
ATOM     70  C   UNL A   1      42.374  32.373  38.921  1.00  0.00     0.198 A 
ATOM     71  F   UNL A   1      43.873  31.372  37.477  1.00  0.00    -0.203 F 
ATOM     72  F   UNL A   1      39.267  34.099  38.322  1.00  0.00    -0.200 F 
ATOM     73  C   UNL A   1      41.233  33.108  39.155  1.00  0.00     0.200 A 
ATOM     74  F   UNL A   1      43.258  32.162  39.907  1.00  0.00    -0.200 F 
ATOM     75  F   UNL A   1      41.019  33.645  40.363  1.00  0.00    -0.200 F 
ENDBRANCH  51  65
BRANCH  52  76
ATOM     76  C   UNL A   1      35.448  33.929  31.137  1.00  0.00     0.064 A 
ATOM     77  C   UNL A   1      35.120  34.905  32.089  1.00  0.00     0.173 A 
ATOM     78  C   UNL A   1      34.608  33.840  30.013  1.00  0.00     0.173 A 
ATOM     79  F   UNL A   1      35.907  35.097  33.158  1.00  0.00    -0.203 F 
ATOM     80  C   UNL A   1      34.010  35.741  31.926  1.00  0.00     0.198 A 
ATOM     81  C   UNL A   1      33.498  34.671  29.852  1.00  0.00     0.198 A 
ATOM     82  F   UNL A   1      34.898  32.999  29.010  1.00  0.00    -0.203 F 
ATOM     83  F   UNL A   1      33.753  36.697  32.831  1.00  0.00    -0.200 F 
ATOM     84  C   UNL A   1      33.201  35.624  30.808  1.00  0.00     0.200 A 
ATOM     85  F   UNL A   1      32.737  34.563  28.753  1.00  0.00    -0.200 F 
ATOM     86  F   UNL A   1      32.160  36.450  30.630  1.00  0.00    -0.200 F 
ENDBRANCH  52  76
BRANCH  64  87
ATOM     87  C   UNL A   1      39.264  28.933  31.061  1.00  0.00     0.064 A 
ATOM     88  C   UNL A   1      39.746  29.504  29.869  1.00  0.00     0.173 A 
ATOM     89  C   UNL A   1      38.845  27.598  31.008  1.00  0.00     0.173 A 
ATOM     90  F   UNL A   1      40.265  30.737  29.858  1.00  0.00    -0.203 F 
ATOM     91  C   UNL A   1      39.755  28.789  28.673  1.00  0.00     0.198 A 
ATOM     92  C   UNL A   1      38.890  26.872  29.820  1.00  0.00     0.198 A 
ATOM     93  F   UNL A   1      38.430  26.979  32.125  1.00  0.00    -0.203 F 
ATOM     94  F   UNL A   1      40.204  29.366  27.548  1.00  0.00    -0.200 F 
ATOM     95  C   UNL A   1      39.332  27.471  28.651  1.00  0.00     0.200 A 
ATOM     96  F   UNL A   1      38.527  25.582  29.813  1.00  0.00    -0.200 F 
ATOM     97  F   UNL A   1      39.376  26.769  27.510  1.00  0.00    -0.200 F 
ENDBRANCH  64  87
ENDBRANCH  38  39
ENDBRANCH  30  33
ENDBRANCH  28  29
ENDBRANCH  27  28
ENDBRANCH  26  27
ENDBRANCH  25  26
ENDBRANCH   1  25
TORSDOF 19
ENDMDL
MODEL 2
REMARK VINA RESULT:     -10.6      4.545      9.580
REMARK SMILES Cc1ccc(C)c(CC(=O)N(CC(=O)NCCCCCCNC(=O)c2ccc(-c3c4nc(c(-c5c(F)c(F)c(F)c(F)c5F)c5ccc([nH]5)c(-c5c(F)c(F)c(F)c(F)c5F)c5nc(c(-c6c(F)c(F)c(F)c(F)c6F)c6ccc3[nH]6)C=C5)C=C4)cc2)CC(F)(F)F)c1
REMARK SMILES IDX 17 1 16 2 15 3 13 4 14 5 12 7 11 8 9 9 10 10 8 11 7 12 1 13
REMARK SMILES IDX 2 14 3 15 93 16 4 17 5 18 6 19 88 20 89 21 90 22 91 23 92 24
REMARK SMILES IDX 18 25 19 26 20 27 21 28 22 29 23 30 24 32 25 33 26 34 87 35
REMARK SMILES IDX 27 36 86 37 28 38 29 39 30 40 80 41 31 42 85 43 79 44 81 45
REMARK SMILES IDX 32 46 84 47 78 48 77 49 33 51 65 52 45 53 64 54 46 55 49 56
REMARK SMILES IDX 63 57 82 58 47 59 48 60 62 62 83 63 50 64 34 65 35 66 43 67
REMARK SMILES IDX 36 68 37 69 41 70 44 71 38 72 39 73 42 74 40 75 66 76 67 77
REMARK SMILES IDX 75 78 68 79 69 80 73 81 76 82 70 83 71 84 74 85 72 86 51 87
REMARK SMILES IDX 52 88 60 89 53 90 54 91 58 92 61 93 55 94 56 95 59 96 57 97
REMARK H PARENT 15 6 22 31 81 50 49 61
REMARK Flexibility Score: inf
ROOT
ATOM      1  C   UNL A   1      31.920  27.866  25.132  1.00  0.00     0.021 C 
ENDROOT
BRANCH   1   2
ATOM      2  C   UNL A   1      33.368  27.450  24.883  1.00  0.00     0.116 C 
BRANCH   2   3
ATOM      3  N   UNL A   1      33.661  27.077  23.516  1.00  0.00    -0.355 N 
ATOM      4  C   UNL A   1      33.519  25.865  22.904  1.00  0.00     0.239 C 
ATOM      5  O   UNL A   1      33.628  25.818  21.676  1.00  0.00    -0.273 OA
ATOM      6  H   UNL A   1      34.012  27.800  22.946  1.00  0.00     0.163 HD
BRANCH   4   7
ATOM      7  C   UNL A   1      33.114  24.599  23.688  1.00  0.00     0.219 C 
BRANCH   7   8
ATOM      8  N   UNL A   1      34.108  23.529  23.828  1.00  0.00    -0.324 N 
BRANCH   8   9
ATOM      9  C   UNL A   1      35.490  23.684  23.795  1.00  0.00     0.227 C 
ATOM     10  O   UNL A   1      36.108  23.510  22.739  1.00  0.00    -0.275 OA
BRANCH   9  11
ATOM     11  C   UNL A   1      36.272  23.955  25.080  1.00  0.00     0.136 C 
BRANCH  11  12
ATOM     12  C   UNL A   1      37.388  22.992  25.433  1.00  0.00    -0.035 A 
ATOM     13  C   UNL A   1      37.986  19.247  24.959  1.00  0.00     0.044 C 
ATOM     14  C   UNL A   1      38.226  20.686  25.311  1.00  0.00    -0.051 A 
ATOM     15  C   UNL A   1      39.335  21.059  26.065  1.00  0.00     0.004 A 
ATOM     16  C   UNL A   1      37.289  21.665  24.967  1.00  0.00     0.008 A 
ATOM     17  C   UNL A   1      39.493  22.385  26.473  1.00  0.00     0.004 A 
ATOM     18  C   UNL A   1      38.517  23.358  26.193  1.00  0.00    -0.047 A 
ATOM     19  C   UNL A   1      38.689  24.733  26.780  1.00  0.00     0.044 C 
ENDBRANCH  11  12
ENDBRANCH   9  11
ENDBRANCH   8   9
BRANCH   8  20
ATOM     20  C   UNL A   1      33.583  22.167  24.082  1.00  0.00     0.235 C 
BRANCH  20  21
ATOM     21  C   UNL A   1      33.266  21.793  25.532  1.00  0.00     0.406 C 
ATOM     22  F   UNL A   1      31.975  21.467  25.729  1.00  0.00    -0.169 F 
ATOM     23  F   UNL A   1      34.024  20.737  25.920  1.00  0.00    -0.169 F 
ATOM     24  F   UNL A   1      33.569  22.797  26.383  1.00  0.00    -0.169 F 
ENDBRANCH  20  21
ENDBRANCH   8  20
ENDBRANCH   7   8
ENDBRANCH   4   7
ENDBRANCH   2   3
ENDBRANCH   1   2
BRANCH   1  25
ATOM     25  C   UNL A   1      31.536  29.283  24.698  1.00  0.00     0.002 C 
BRANCH  25  26
ATOM     26  C   UNL A   1      31.636  30.407  25.743  1.00  0.00     0.002 C 
BRANCH  26  27
ATOM     27  C   UNL A   1      32.344  30.113  27.071  1.00  0.00     0.021 C 
BRANCH  27  28
ATOM     28  C   UNL A   1      33.768  30.618  27.203  1.00  0.00     0.116 C 
BRANCH  28  29
ATOM     29  N   UNL A   1      34.013  31.429  28.393  1.00  0.00    -0.352 N 
ATOM     30  C   UNL A   1      35.114  31.566  29.229  1.00  0.00     0.251 C 
ATOM     31  H   UNL A   1      33.246  31.989  28.655  1.00  0.00     0.163 HD
ATOM     32  O   UNL A   1      34.988  32.134  30.295  1.00  0.00    -0.269 OA
BRANCH  30  33
ATOM     33  C   UNL A   1      36.450  31.048  28.836  1.00  0.00     0.039 A 
ATOM     34  C   UNL A   1      36.601  29.969  27.957  1.00  0.00     0.014 A 
ATOM     35  C   UNL A   1      37.566  31.469  29.537  1.00  0.00     0.014 A 
ATOM     36  C   UNL A   1      37.823  29.283  27.954  1.00  0.00     0.010 A 
ATOM     37  C   UNL A   1      38.812  31.112  29.129  1.00  0.00     0.010 A 
ATOM     38  C   UNL A   1      38.902  29.831  28.648  1.00  0.00    -0.014 A 
BRANCH  38  39
ATOM     39  C   UNL A   1      40.152  29.154  28.920  1.00  0.00     0.031 A 
ATOM     40  C   UNL A   1      40.426  28.884  30.340  1.00  0.00     0.074 A 
ATOM     41  C   UNL A   1      40.854  28.489  27.975  1.00  0.00     0.049 A 
ATOM     42  N   UNL A   1      41.311  29.446  31.090  1.00  0.00    -0.248 NA
ATOM     43  C   UNL A   1      39.536  27.951  31.043  1.00  0.00     0.031 C 
ATOM     44  C   UNL A   1      40.507  28.212  26.577  1.00  0.00     0.029 A 
ATOM     45  N   UNL A   1      42.030  27.822  28.135  1.00  0.00    -0.354 N 
ATOM     46  C   UNL A   1      41.190  28.831  32.328  1.00  0.00     0.074 A 
ATOM     47  C   UNL A   1      39.960  28.085  32.298  1.00  0.00     0.031 C 
ATOM     48  C   UNL A   1      41.366  27.291  26.075  1.00  0.00     0.029 A 
ATOM     49  C   UNL A   1      42.397  27.024  27.064  1.00  0.00     0.049 A 
ATOM     50  H   UNL A   1      42.578  27.900  28.950  1.00  0.00     0.167 HD
ATOM     51  C   UNL A   1      42.225  28.790  33.208  1.00  0.00     0.037 A 
ATOM     52  C   UNL A   1      43.452  26.172  27.030  1.00  0.00     0.037 A 
ATOM     53  C   UNL A   1      43.291  29.676  32.814  1.00  0.00     0.049 A 
ATOM     54  C   UNL A   1      44.374  26.545  28.133  1.00  0.00     0.074 A 
ATOM     55  C   UNL A   1      43.386  31.035  32.584  1.00  0.00     0.029 A 
ATOM     56  N   UNL A   1      44.401  29.125  32.216  1.00  0.00    -0.354 N 
ATOM     57  N   UNL A   1      45.077  27.643  28.167  1.00  0.00    -0.248 NA
ATOM     58  C   UNL A   1      44.203  25.877  29.415  1.00  0.00     0.031 C 
ATOM     59  C   UNL A   1      44.265  31.165  31.466  1.00  0.00     0.029 A 
ATOM     60  C   UNL A   1      44.680  29.882  31.105  1.00  0.00     0.049 A 
ATOM     61  H   UNL A   1      44.900  28.335  32.526  1.00  0.00     0.167 HD
ATOM     62  C   UNL A   1      45.077  28.023  29.502  1.00  0.00     0.074 A 
ATOM     63  C   UNL A   1      44.624  26.845  30.233  1.00  0.00     0.031 C 
ATOM     64  C   UNL A   1      45.169  29.337  29.860  1.00  0.00     0.037 A 
BRANCH  51  65
ATOM     65  C   UNL A   1      42.407  27.721  34.249  1.00  0.00     0.064 A 
ATOM     66  C   UNL A   1      42.989  26.496  33.877  1.00  0.00     0.173 A 
ATOM     67  C   UNL A   1      41.817  27.755  35.531  1.00  0.00     0.173 A 
ATOM     68  F   UNL A   1      43.546  26.344  32.666  1.00  0.00    -0.203 F 
ATOM     69  C   UNL A   1      42.944  25.377  34.712  1.00  0.00     0.198 A 
ATOM     70  C   UNL A   1      41.833  26.657  36.387  1.00  0.00     0.198 A 
ATOM     71  F   UNL A   1      41.109  28.808  35.961  1.00  0.00    -0.203 F 
ATOM     72  F   UNL A   1      43.407  24.200  34.270  1.00  0.00    -0.200 F 
ATOM     73  C   UNL A   1      42.369  25.460  35.967  1.00  0.00     0.200 A 
ATOM     74  F   UNL A   1      41.256  26.754  37.594  1.00  0.00    -0.200 F 
ATOM     75  F   UNL A   1      42.286  24.377  36.750  1.00  0.00    -0.200 F 
ENDBRANCH  51  65
BRANCH  52  76
ATOM     76  C   UNL A   1      43.585  24.900  26.290  1.00  0.00     0.064 A 
ATOM     77  C   UNL A   1      44.513  24.742  25.251  1.00  0.00     0.173 A 
ATOM     78  C   UNL A   1      42.975  23.727  26.771  1.00  0.00     0.173 A 
ATOM     79  F   UNL A   1      45.186  25.803  24.781  1.00  0.00    -0.203 F 
ATOM     80  C   UNL A   1      44.810  23.482  24.720  1.00  0.00     0.198 A 
ATOM     81  C   UNL A   1      43.267  22.471  26.238  1.00  0.00     0.198 A 
ATOM     82  F   UNL A   1      42.144  23.774  27.822  1.00  0.00    -0.203 F 
ATOM     83  F   UNL A   1      45.739  23.361  23.761  1.00  0.00    -0.200 F 
ATOM     84  C   UNL A   1      44.187  22.348  25.215  1.00  0.00     0.200 A 
ATOM     85  F   UNL A   1      42.675  21.378  26.743  1.00  0.00    -0.200 F 
ATOM     86  F   UNL A   1      44.499  21.135  24.735  1.00  0.00    -0.200 F 
ENDBRANCH  52  76
BRANCH  64  87
ATOM     87  C   UNL A   1      45.559  30.320  28.790  1.00  0.00     0.064 A 
ATOM     88  C   UNL A   1      44.637  30.944  27.930  1.00  0.00     0.173 A 
ATOM     89  C   UNL A   1      46.891  30.743  28.717  1.00  0.00     0.173 A 
ATOM     90  F   UNL A   1      43.329  30.675  28.011  1.00  0.00    -0.203 F 
ATOM     91  C   UNL A   1      45.042  31.904  27.005  1.00  0.00     0.198 A 
ATOM     92  C   UNL A   1      47.288  31.731  27.818  1.00  0.00     0.198 A 
ATOM     93  F   UNL A   1      47.807  30.228  29.554  1.00  0.00    -0.203 F 
ATOM     94  F   UNL A   1      44.143  32.469  26.185  1.00  0.00    -0.200 F 
ATOM     95  C   UNL A   1      46.368  32.301  26.954  1.00  0.00     0.200 A 
ATOM     96  F   UNL A   1      48.562  32.148  27.806  1.00  0.00    -0.200 F 
ATOM     97  F   UNL A   1      46.752  33.252  26.092  1.00  0.00    -0.200 F 
ENDBRANCH  64  87
ENDBRANCH  38  39
ENDBRANCH  30  33
ENDBRANCH  28  29
ENDBRANCH  27  28
ENDBRANCH  26  27
ENDBRANCH  25  26
ENDBRANCH   1  25
TORSDOF 19
ENDMDL
MODEL 3
REMARK VINA RESULT:     -10.6      4.733      8.598
REMARK SMILES Cc1ccc(C)c(CC(=O)N(CC(=O)NCCCCCCNC(=O)c2ccc(-c3c4nc(c(-c5c(F)c(F)c(F)c(F)c5F)c5ccc([nH]5)c(-c5c(F)c(F)c(F)c(F)c5F)c5nc(c(-c6c(F)c(F)c(F)c(F)c6F)c6ccc3[nH]6)C=C5)C=C4)cc2)CC(F)(F)F)c1
REMARK SMILES IDX 17 1 16 2 15 3 13 4 14 5 12 7 11 8 9 9 10 10 8 11 7 12 1 13
REMARK SMILES IDX 2 14 3 15 93 16 4 17 5 18 6 19 88 20 89 21 90 22 91 23 92 24
REMARK SMILES IDX 18 25 19 26 20 27 21 28 22 29 23 30 24 32 25 33 26 34 87 35
REMARK SMILES IDX 27 36 86 37 28 38 29 39 30 40 80 41 31 42 85 43 79 44 81 45
REMARK SMILES IDX 32 46 84 47 78 48 77 49 33 51 65 52 45 53 64 54 46 55 49 56
REMARK SMILES IDX 63 57 82 58 47 59 48 60 62 62 83 63 50 64 34 65 35 66 43 67
REMARK SMILES IDX 36 68 37 69 41 70 44 71 38 72 39 73 42 74 40 75 66 76 67 77
REMARK SMILES IDX 75 78 68 79 69 80 73 81 76 82 70 83 71 84 74 85 72 86 51 87
REMARK SMILES IDX 52 88 60 89 53 90 54 91 58 92 61 93 55 94 56 95 59 96 57 97
REMARK H PARENT 15 6 22 31 81 50 49 61
REMARK Flexibility Score: inf
ROOT
ATOM      1  C   UNL A   1      34.027  31.379  28.128  1.00  0.00     0.021 C 
ENDROOT
BRANCH   1   2
ATOM      2  C   UNL A   1      33.701  30.165  27.261  1.00  0.00     0.116 C 
BRANCH   2   3
ATOM      3  N   UNL A   1      32.480  29.476  27.623  1.00  0.00    -0.355 N 
ATOM      4  C   UNL A   1      31.979  28.301  27.140  1.00  0.00     0.239 C 
ATOM      5  O   UNL A   1      31.030  27.786  27.737  1.00  0.00    -0.273 OA
ATOM      6  H   UNL A   1      31.935  29.916  28.314  1.00  0.00     0.163 HD
BRANCH   4   7
ATOM      7  C   UNL A   1      32.638  27.558  25.960  1.00  0.00     0.219 C 
BRANCH   7   8
ATOM      8  N   UNL A   1      32.047  26.284  25.532  1.00  0.00    -0.324 N 
BRANCH   8   9
ATOM      9  C   UNL A   1      32.238  25.047  26.138  1.00  0.00     0.227 C 
ATOM     10  O   UNL A   1      31.428  24.636  26.976  1.00  0.00    -0.275 OA
BRANCH   9  11
ATOM     11  C   UNL A   1      33.504  24.235  25.865  1.00  0.00     0.136 C 
BRANCH  11  12
ATOM     12  C   UNL A   1      33.325  22.811  25.377  1.00  0.00    -0.035 A 
ATOM     13  C   UNL A   1      31.935  21.185  22.210  1.00  0.00     0.044 C 
ATOM     14  C   UNL A   1      32.598  21.343  23.548  1.00  0.00    -0.051 A 
ATOM     15  C   UNL A   1      32.867  20.233  24.343  1.00  0.00     0.004 A 
ATOM     16  C   UNL A   1      32.871  22.615  24.056  1.00  0.00     0.008 A 
ATOM     17  C   UNL A   1      33.390  20.400  25.627  1.00  0.00     0.004 A 
ATOM     18  C   UNL A   1      33.598  21.679  26.172  1.00  0.00    -0.047 A 
ATOM     19  C   UNL A   1      34.034  21.782  27.609  1.00  0.00     0.044 C 
ENDBRANCH  11  12
ENDBRANCH   9  11
ENDBRANCH   8   9
BRANCH   8  20
ATOM     20  C   UNL A   1      31.116  26.340  24.381  1.00  0.00     0.235 C 
BRANCH  20  21
ATOM     21  C   UNL A   1      31.702  26.094  22.988  1.00  0.00     0.406 C 
ATOM     22  F   UNL A   1      33.038  25.930  22.992  1.00  0.00    -0.169 F 
ATOM     23  F   UNL A   1      31.149  24.985  22.437  1.00  0.00    -0.169 F 
ATOM     24  F   UNL A   1      31.416  27.107  22.142  1.00  0.00    -0.169 F 
ENDBRANCH  20  21
ENDBRANCH   8  20
ENDBRANCH   7   8
ENDBRANCH   4   7
ENDBRANCH   2   3
ENDBRANCH   1   2
BRANCH   1  25
ATOM     25  C   UNL A   1      35.166  32.277  27.638  1.00  0.00     0.002 C 
BRANCH  25  26
ATOM     26  C   UNL A   1      35.129  33.763  28.031  1.00  0.00     0.002 C 
BRANCH  26  27
ATOM     27  C   UNL A   1      33.807  34.356  28.533  1.00  0.00     0.021 C 
BRANCH  27  28
ATOM     28  C   UNL A   1      33.908  35.619  29.369  1.00  0.00     0.116 C 
BRANCH  28  29
ATOM     29  N   UNL A   1      33.103  35.600  30.589  1.00  0.00    -0.352 N 
ATOM     30  C   UNL A   1      33.261  34.959  31.811  1.00  0.00     0.251 C 
ATOM     31  H   UNL A   1      32.288  36.150  30.533  1.00  0.00     0.163 HD
ATOM     32  O   UNL A   1      32.329  34.916  32.589  1.00  0.00    -0.269 OA
BRANCH  30  33
ATOM     33  C   UNL A   1      34.556  34.339  32.195  1.00  0.00     0.039 A 
ATOM     34  C   UNL A   1      35.635  35.096  32.662  1.00  0.00     0.014 A 
ATOM     35  C   UNL A   1      34.795  33.020  31.852  1.00  0.00     0.014 A 
ATOM     36  C   UNL A   1      36.916  34.530  32.609  1.00  0.00     0.010 A 
ATOM     37  C   UNL A   1      35.913  32.385  32.290  1.00  0.00     0.010 A 
ATOM     38  C   UNL A   1      37.037  33.171  32.311  1.00  0.00    -0.014 A 
BRANCH  38  39
ATOM     39  C   UNL A   1      38.277  32.489  32.010  1.00  0.00     0.031 A 
ATOM     40  C   UNL A   1      39.131  32.192  33.172  1.00  0.00     0.074 A 
ATOM     41  C   UNL A   1      38.501  31.841  30.846  1.00  0.00     0.049 A 
ATOM     42  N   UNL A   1      40.256  32.740  33.479  1.00  0.00    -0.248 NA
ATOM     43  C   UNL A   1      38.619  31.247  34.173  1.00  0.00     0.031 C 
ATOM     44  C   UNL A   1      37.586  31.590  29.726  1.00  0.00     0.029 A 
ATOM     45  N   UNL A   1      39.627  31.170  30.476  1.00  0.00    -0.354 N 
ATOM     46  C   UNL A   1      40.671  32.103  34.640  1.00  0.00     0.074 A 
ATOM     47  C   UNL A   1      39.541  31.359  35.128  1.00  0.00     0.031 C 
ATOM     48  C   UNL A   1      38.140  30.678  28.890  1.00  0.00     0.029 A 
ATOM     49  C   UNL A   1      39.494  30.392  29.338  1.00  0.00     0.049 A 
ATOM     50  H   UNL A   1      40.471  31.233  30.978  1.00  0.00     0.167 HD
ATOM     51  C   UNL A   1      41.984  32.045  34.991  1.00  0.00     0.037 A 
ATOM     52  C   UNL A   1      40.425  29.540  28.841  1.00  0.00     0.037 A 
ATOM     53  C   UNL A   1      42.786  32.938  34.193  1.00  0.00     0.049 A 
ATOM     54  C   UNL A   1      41.734  29.893  29.449  1.00  0.00     0.074 A 
ATOM     55  C   UNL A   1      42.784  34.301  33.966  1.00  0.00     0.029 A 
ATOM     56  N   UNL A   1      43.527  32.398  33.168  1.00  0.00    -0.354 N 
ATOM     57  N   UNL A   1      42.392  30.990  29.197  1.00  0.00    -0.248 NA
ATOM     58  C   UNL A   1      42.123  29.202  30.669  1.00  0.00     0.031 C 
ATOM     59  C   UNL A   1      43.100  34.451  32.582  1.00  0.00     0.029 A 
ATOM     60  C   UNL A   1      43.310  33.174  32.058  1.00  0.00     0.049 A 
ATOM     61  H   UNL A   1      44.105  31.602  33.222  1.00  0.00     0.167 HD
ATOM     62  C   UNL A   1      42.967  31.345  30.409  1.00  0.00     0.074 A 
ATOM     63  C   UNL A   1      42.861  30.154  31.244  1.00  0.00     0.031 C 
ATOM     64  C   UNL A   1      43.215  32.652  30.714  1.00  0.00     0.037 A 
BRANCH  51  65
ATOM     65  C   UNL A   1      42.585  30.957  35.836  1.00  0.00     0.064 A 
ATOM     66  C   UNL A   1      43.361  31.310  36.954  1.00  0.00     0.173 A 
ATOM     67  C   UNL A   1      42.635  29.598  35.458  1.00  0.00     0.173 A 
ATOM     68  F   UNL A   1      43.412  32.582  37.376  1.00  0.00    -0.203 F 
ATOM     69  C   UNL A   1      44.161  30.376  37.618  1.00  0.00     0.198 A 
ATOM     70  C   UNL A   1      43.382  28.657  36.163  1.00  0.00     0.198 A 
ATOM     71  F   UNL A   1      42.059  29.148  34.336  1.00  0.00    -0.203 F 
ATOM     72  F   UNL A   1      44.971  30.780  38.605  1.00  0.00    -0.200 F 
ATOM     73  C   UNL A   1      44.167  29.050  37.224  1.00  0.00     0.200 A 
ATOM     74  F   UNL A   1      43.387  27.379  35.754  1.00  0.00    -0.200 F 
ATOM     75  F   UNL A   1      44.967  28.164  37.831  1.00  0.00    -0.200 F 
ENDBRANCH  51  65
BRANCH  52  76
ATOM     76  C   UNL A   1      40.218  28.282  28.095  1.00  0.00     0.064 A 
ATOM     77  C   UNL A   1      40.859  28.033  26.873  1.00  0.00     0.173 A 
ATOM     78  C   UNL A   1      39.581  27.187  28.706  1.00  0.00     0.173 A 
ATOM     79  F   UNL A   1      41.543  29.008  26.258  1.00  0.00    -0.203 F 
ATOM     80  C   UNL A   1      40.858  26.759  26.293  1.00  0.00     0.198 A 
ATOM     81  C   UNL A   1      39.576  25.917  28.125  1.00  0.00     0.198 A 
ATOM     82  F   UNL A   1      39.022  27.312  29.917  1.00  0.00    -0.203 F 
ATOM     83  F   UNL A   1      41.523  26.543  25.148  1.00  0.00    -0.200 F 
ATOM     84  C   UNL A   1      40.218  25.703  26.920  1.00  0.00     0.200 A 
ATOM     85  F   UNL A   1      38.973  24.898  28.754  1.00  0.00    -0.200 F 
ATOM     86  F   UNL A   1      40.249  24.473  26.386  1.00  0.00    -0.200 F 
ENDBRANCH  52  76
BRANCH  64  87
ATOM     87  C   UNL A   1      43.116  33.655  29.597  1.00  0.00     0.064 A 
ATOM     88  C   UNL A   1      41.962  34.410  29.325  1.00  0.00     0.173 A 
ATOM     89  C   UNL A   1      44.268  33.956  28.859  1.00  0.00     0.173 A 
ATOM     90  F   UNL A   1      40.853  34.259  30.057  1.00  0.00    -0.203 F 
ATOM     91  C   UNL A   1      41.947  35.380  28.323  1.00  0.00     0.198 A 
ATOM     92  C   UNL A   1      44.263  34.951  27.885  1.00  0.00     0.198 A 
ATOM     93  F   UNL A   1      45.418  33.311  29.114  1.00  0.00    -0.203 F 
ATOM     94  F   UNL A   1      40.826  36.071  28.074  1.00  0.00    -0.200 F 
ATOM     95  C   UNL A   1      43.100  35.653  27.608  1.00  0.00     0.200 A 
ATOM     96  F   UNL A   1      45.393  35.248  27.230  1.00  0.00    -0.200 F 
ATOM     97  F   UNL A   1      43.099  36.612  26.672  1.00  0.00    -0.200 F 
ENDBRANCH  64  87
ENDBRANCH  38  39
ENDBRANCH  30  33
ENDBRANCH  28  29
ENDBRANCH  27  28
ENDBRANCH  26  27
ENDBRANCH  25  26
ENDBRANCH   1  25
TORSDOF 19
ENDMDL
