MODEL 1
REMARK VINA RESULT:     -12.3      0.000      0.000
REMARK SMILES O=C(COCC(=O)N1CCC([NH+]2CCN(c3ccc(F)cc3)CC2)CC1)NCCCCCCNC(=O)c1ccc(-c2c3nc(c(-c4c(F)c(F)c(F)c(F)c4F)c4ccc([nH]4)c(-c4c(F)c(F)c(F)c(F)c4F)c4nc(c(-c5c(F)c(F)c(F)c(F)c5F)c5ccc2[nH]5)C=C4)C=C3)cc1
REMARK SMILES IDX 29 1 28 2 27 3 1 4 2 5 3 7 4 8 5 9 6 10 7 11 8 12 9 13 26 14
REMARK SMILES IDX 10 15 25 16 11 17 12 18 13 19 24 20 14 22 23 23 15 24 16 25
REMARK SMILES IDX 17 26 22 27 18 28 21 29 19 30 20 31 30 32 31 33 32 34 33 35
REMARK SMILES IDX 34 36 35 37 36 39 37 40 38 41 99 42 39 43 98 44 40 45 41 46
REMARK SMILES IDX 42 47 92 48 43 49 97 50 91 51 93 52 44 53 96 54 90 55 89 56
REMARK SMILES IDX 45 58 77 59 57 60 76 61 58 62 61 63 75 64 94 65 59 66 60 67
REMARK SMILES IDX 74 69 95 70 62 71 46 72 47 73 55 74 48 75 49 76 53 77 56 78
REMARK SMILES IDX 50 79 51 80 54 81 52 82 78 83 79 84 87 85 80 86 81 87 85 88
REMARK SMILES IDX 88 89 82 90 83 91 86 92 84 93 63 94 64 95 72 96 65 97 66 98
REMARK SMILES IDX 70 99 73 100 67 101 68 102 71 103 69 104
REMARK H PARENT 27 6 12 21 34 38 93 57 61 68
REMARK Flexibility Score: inf
ROOT
ATOM      1  C   UNL A   1      40.938  22.719  27.971  1.00  0.00     0.021 C 
ENDROOT
BRANCH   1   2
ATOM      2  C   UNL A   1      40.025  23.343  26.918  1.00  0.00     0.116 C 
BRANCH   2   3
ATOM      3  N   UNL A   1      39.438  22.338  26.060  1.00  0.00    -0.354 N 
ATOM      4  O   UNL A   1      37.291  23.164  26.127  1.00  0.00    -0.272 OA
ATOM      5  C   UNL A   1      38.100  22.331  25.733  1.00  0.00     0.246 C 
ATOM      6  H   UNL A   1      40.018  21.631  25.697  1.00  0.00     0.163 HD
BRANCH   5   7
ATOM      7  C   UNL A   1      37.687  21.128  24.880  1.00  0.00     0.260 C 
BRANCH   7   8
ATOM      8  O   UNL A   1      36.701  20.273  25.440  1.00  0.00    -0.362 OA
BRANCH   8   9
ATOM      9  C   UNL A   1      35.480  20.269  24.726  1.00  0.00     0.260 C 
BRANCH   9  10
ATOM     10  C   UNL A   1      34.252  21.096  25.163  1.00  0.00     0.248 C 
ATOM     11  O   UNL A   1      33.371  20.566  25.844  1.00  0.00    -0.272 OA
ATOM     12  N   UNL A   1      34.248  22.458  24.896  1.00  0.00    -0.340 N 
ATOM     13  C   UNL A   1      33.364  23.322  25.659  1.00  0.00     0.125 C 
ATOM     14  C   UNL A   1      34.775  23.074  23.686  1.00  0.00     0.125 C 
ATOM     15  C   UNL A   1      32.154  23.736  24.833  1.00  0.00     0.086 C 
ATOM     16  C   UNL A   1      33.604  23.402  22.754  1.00  0.00     0.086 C 
ATOM     17  C   UNL A   1      32.551  24.300  23.455  1.00  0.00     0.187 C 
BRANCH  17  18
ATOM     18  N   UNL A   1      31.439  24.668  22.555  1.00  0.00    -0.329 N 
ATOM     19  C   UNL A   1      30.080  24.760  23.126  1.00  0.00     0.284 C 
ATOM     20  C   UNL A   1      31.692  25.852  21.704  1.00  0.00     0.284 C 
ATOM     21  H   UNL A   1      31.434  23.826  21.979  1.00  0.00     0.348 HD
ATOM     22  C   UNL A   1      29.698  26.094  23.808  1.00  0.00     0.178 C 
ATOM     23  C   UNL A   1      31.314  27.240  22.288  1.00  0.00     0.178 C 
ATOM     24  N   UNL A   1      29.985  27.214  22.909  1.00  0.00    -0.360 N 
BRANCH  24  25
ATOM     25  C   UNL A   1      29.336  28.425  23.084  1.00  0.00     0.037 A 
ATOM     26  C   UNL A   1      27.935  28.464  23.000  1.00  0.00     0.029 A 
ATOM     27  C   UNL A   1      30.013  29.619  23.369  1.00  0.00     0.029 A 
ATOM     28  C   UNL A   1      27.228  29.647  23.217  1.00  0.00     0.041 A 
ATOM     29  C   UNL A   1      29.311  30.812  23.571  1.00  0.00     0.041 A 
ATOM     30  C   UNL A   1      27.924  30.811  23.501  1.00  0.00     0.123 A 
ATOM     31  F   UNL A   1      27.249  31.948  23.715  1.00  0.00    -0.207 F 
ENDBRANCH  24  25
ENDBRANCH  17  18
ENDBRANCH   9  10
ENDBRANCH   8   9
ENDBRANCH   7   8
ENDBRANCH   5   7
ENDBRANCH   2   3
ENDBRANCH   1   2
BRANCH   1  32
ATOM     32  C   UNL A   1      41.730  21.500  27.481  1.00  0.00     0.002 C 
BRANCH  32  33
ATOM     33  C   UNL A   1      43.142  21.797  26.965  1.00  0.00     0.002 C 
BRANCH  33  34
ATOM     34  C   UNL A   1      43.254  22.014  25.455  1.00  0.00     0.021 C 
BRANCH  34  35
ATOM     35  C   UNL A   1      43.055  23.456  24.997  1.00  0.00     0.116 C 
BRANCH  35  36
ATOM     36  N   UNL A   1      44.314  24.127  24.713  1.00  0.00    -0.352 N 
ATOM     37  C   UNL A   1      44.789  25.327  25.184  1.00  0.00     0.251 C 
ATOM     38  H   UNL A   1      44.913  23.652  24.093  1.00  0.00     0.163 HD
ATOM     39  O   UNL A   1      45.801  25.822  24.704  1.00  0.00    -0.269 OA
BRANCH  37  40
ATOM     40  C   UNL A   1      44.059  26.040  26.255  1.00  0.00     0.039 A 
ATOM     41  C   UNL A   1      43.388  25.294  27.227  1.00  0.00     0.014 A 
ATOM     42  C   UNL A   1      44.034  27.437  26.303  1.00  0.00     0.014 A 
ATOM     43  C   UNL A   1      42.751  25.947  28.285  1.00  0.00     0.010 A 
ATOM     44  C   UNL A   1      43.464  28.083  27.397  1.00  0.00     0.010 A 
ATOM     45  C   UNL A   1      42.819  27.345  28.400  1.00  0.00    -0.014 A 
BRANCH  45  46
ATOM     46  C   UNL A   1      42.235  28.050  29.570  1.00  0.00     0.031 A 
ATOM     47  C   UNL A   1      40.933  28.788  29.439  1.00  0.00     0.074 A 
ATOM     48  C   UNL A   1      42.910  28.077  30.736  1.00  0.00     0.049 A 
ATOM     49  N   UNL A   1      40.304  29.520  30.326  1.00  0.00    -0.248 NA
ATOM     50  C   UNL A   1      40.255  28.715  28.135  1.00  0.00     0.031 C 
ATOM     51  C   UNL A   1      44.200  27.430  30.978  1.00  0.00     0.029 A 
ATOM     52  N   UNL A   1      42.609  28.675  31.936  1.00  0.00    -0.354 N 
ATOM     53  C   UNL A   1      39.169  29.998  29.685  1.00  0.00     0.074 A 
ATOM     54  C   UNL A   1      39.218  29.520  28.321  1.00  0.00     0.031 C 
ATOM     55  C   UNL A   1      44.567  27.642  32.251  1.00  0.00     0.029 A 
ATOM     56  C   UNL A   1      43.563  28.477  32.905  1.00  0.00     0.049 A 
ATOM     57  H   UNL A   1      41.788  29.196  32.086  1.00  0.00     0.167 HD
ATOM     58  C   UNL A   1      38.164  30.745  30.199  1.00  0.00     0.037 A 
ATOM     59  C   UNL A   1      43.628  28.926  34.174  1.00  0.00     0.037 A 
ATOM     60  C   UNL A   1      38.106  31.198  31.564  1.00  0.00     0.049 A 
ATOM     61  C   UNL A   1      42.510  29.777  34.712  1.00  0.00     0.074 A 
ATOM     62  C   UNL A   1      37.101  31.915  32.189  1.00  0.00     0.029 A 
ATOM     63  N   UNL A   1      39.094  30.981  32.513  1.00  0.00    -0.354 N 
ATOM     64  N   UNL A   1      41.415  30.176  34.113  1.00  0.00    -0.248 NA
ATOM     65  C   UNL A   1      42.636  30.241  36.101  1.00  0.00     0.031 C 
ATOM     66  C   UNL A   1      37.506  32.180  33.500  1.00  0.00     0.029 A 
ATOM     67  C   UNL A   1      38.734  31.575  33.712  1.00  0.00     0.049 A 
ATOM     68  H   UNL A   1      39.927  30.479  32.358  1.00  0.00     0.167 HD
ATOM     69  C   UNL A   1      40.710  30.914  35.055  1.00  0.00     0.074 A 
ATOM     70  C   UNL A   1      41.496  30.897  36.271  1.00  0.00     0.031 C 
ATOM     71  C   UNL A   1      39.520  31.546  34.919  1.00  0.00     0.037 A 
BRANCH  58  72
ATOM     72  C   UNL A   1      37.027  31.116  29.290  1.00  0.00     0.064 A 
ATOM     73  C   UNL A   1      36.892  32.430  28.816  1.00  0.00     0.173 A 
ATOM     74  C   UNL A   1      36.024  30.193  28.956  1.00  0.00     0.173 A 
ATOM     75  F   UNL A   1      37.820  33.354  29.112  1.00  0.00    -0.203 F 
ATOM     76  C   UNL A   1      35.789  32.810  28.057  1.00  0.00     0.198 A 
ATOM     77  C   UNL A   1      34.938  30.567  28.171  1.00  0.00     0.198 A 
ATOM     78  F   UNL A   1      36.111  28.922  29.376  1.00  0.00    -0.203 F 
ATOM     79  F   UNL A   1      35.662  34.080  27.649  1.00  0.00    -0.200 F 
ATOM     80  C   UNL A   1      34.814  31.877  27.732  1.00  0.00     0.200 A 
ATOM     81  F   UNL A   1      34.011  29.660  27.837  1.00  0.00    -0.200 F 
ATOM     82  F   UNL A   1      33.757  32.241  26.995  1.00  0.00    -0.200 F 
ENDBRANCH  58  72
BRANCH  59  83
ATOM     83  C   UNL A   1      44.785  28.546  35.027  1.00  0.00     0.064 A 
ATOM     84  C   UNL A   1      45.926  29.357  35.118  1.00  0.00     0.173 A 
ATOM     85  C   UNL A   1      44.783  27.342  35.744  1.00  0.00     0.173 A 
ATOM     86  F   UNL A   1      45.979  30.518  34.448  1.00  0.00    -0.203 F 
ATOM     87  C   UNL A   1      47.028  28.967  35.874  1.00  0.00     0.198 A 
ATOM     88  C   UNL A   1      45.876  26.966  36.524  1.00  0.00     0.198 A 
ATOM     89  F   UNL A   1      43.708  26.541  35.706  1.00  0.00    -0.203 F 
ATOM     90  F   UNL A   1      48.121  29.742  35.912  1.00  0.00    -0.200 F 
ATOM     91  C   UNL A   1      47.001  27.774  36.580  1.00  0.00     0.200 A 
ATOM     92  F   UNL A   1      45.835  25.824  37.223  1.00  0.00    -0.200 F 
ATOM     93  F   UNL A   1      48.058  27.404  37.316  1.00  0.00    -0.200 F 
ENDBRANCH  59  83
BRANCH  71  94
ATOM     94  C   UNL A   1      38.965  32.261  36.118  1.00  0.00     0.064 A 
ATOM     95  C   UNL A   1      39.337  33.587  36.388  1.00  0.00     0.173 A 
ATOM     96  C   UNL A   1      38.146  31.606  37.048  1.00  0.00     0.173 A 
ATOM     97  F   UNL A   1      40.126  34.256  35.534  1.00  0.00    -0.203 F 
ATOM     98  C   UNL A   1      38.928  34.223  37.557  1.00  0.00     0.198 A 
ATOM     99  C   UNL A   1      37.713  32.256  38.201  1.00  0.00     0.198 A 
ATOM    100  F   UNL A   1      37.752  30.342  36.830  1.00  0.00    -0.203 F 
ATOM    101  F   UNL A   1      39.333  35.475  37.814  1.00  0.00    -0.200 F 
ATOM    102  C   UNL A   1      38.114  33.558  38.460  1.00  0.00     0.200 A 
ATOM    103  F   UNL A   1      36.906  31.620  39.063  1.00  0.00    -0.200 F 
ATOM    104  F   UNL A   1      37.717  34.172  39.583  1.00  0.00    -0.200 F 
ENDBRANCH  71  94
ENDBRANCH  45  46
ENDBRANCH  37  40
ENDBRANCH  35  36
ENDBRANCH  34  35
ENDBRANCH  33  34
ENDBRANCH  32  33
ENDBRANCH   1  32
TORSDOF 18
ENDMDL
MODEL 2
REMARK VINA RESULT:     -11.6      0.821      7.089
REMARK SMILES O=C(COCC(=O)N1CCC([NH+]2CCN(c3ccc(F)cc3)CC2)CC1)NCCCCCCNC(=O)c1ccc(-c2c3nc(c(-c4c(F)c(F)c(F)c(F)c4F)c4ccc([nH]4)c(-c4c(F)c(F)c(F)c(F)c4F)c4nc(c(-c5c(F)c(F)c(F)c(F)c5F)c5ccc2[nH]5)C=C4)C=C3)cc1
REMARK SMILES IDX 29 1 28 2 27 3 1 4 2 5 3 7 4 8 5 9 6 10 7 11 8 12 9 13 26 14
REMARK SMILES IDX 10 15 25 16 11 17 12 18 13 19 24 20 14 22 23 23 15 24 16 25
REMARK SMILES IDX 17 26 22 27 18 28 21 29 19 30 20 31 30 32 31 33 32 34 33 35
REMARK SMILES IDX 34 36 35 37 36 39 37 40 38 41 99 42 39 43 98 44 40 45 41 46
REMARK SMILES IDX 42 47 92 48 43 49 97 50 91 51 93 52 44 53 96 54 90 55 89 56
REMARK SMILES IDX 45 58 77 59 57 60 76 61 58 62 61 63 75 64 94 65 59 66 60 67
REMARK SMILES IDX 74 69 95 70 62 71 46 72 47 73 55 74 48 75 49 76 53 77 56 78
REMARK SMILES IDX 50 79 51 80 54 81 52 82 78 83 79 84 87 85 80 86 81 87 85 88
REMARK SMILES IDX 88 89 82 90 83 91 86 92 84 93 63 94 64 95 72 96 65 97 66 98
REMARK SMILES IDX 70 99 73 100 67 101 68 102 71 103 69 104
REMARK H PARENT 27 6 12 21 34 38 93 57 61 68
REMARK Flexibility Score: inf
ROOT
ATOM      1  C   UNL A   1      40.833  23.754  27.919  1.00  0.00     0.021 C 
ENDROOT
BRANCH   1   2
ATOM      2  C   UNL A   1      39.899  24.255  26.819  1.00  0.00     0.116 C 
BRANCH   2   3
ATOM      3  N   UNL A   1      39.435  23.171  25.982  1.00  0.00    -0.354 N 
ATOM      4  O   UNL A   1      37.191  23.473  26.391  1.00  0.00    -0.272 OA
ATOM      5  C   UNL A   1      38.100  22.865  25.838  1.00  0.00     0.246 C 
ATOM      6  H   UNL A   1      40.100  22.631  25.498  1.00  0.00     0.163 HD
BRANCH   5   7
ATOM      7  C   UNL A   1      37.848  21.629  24.969  1.00  0.00     0.260 C 
BRANCH   7   8
ATOM      8  O   UNL A   1      36.969  20.653  25.510  1.00  0.00    -0.362 OA
BRANCH   8   9
ATOM      9  C   UNL A   1      35.719  20.589  24.853  1.00  0.00     0.260 C 
BRANCH   9  10
ATOM     10  C   UNL A   1      34.489  21.402  25.312  1.00  0.00     0.248 C 
ATOM     11  O   UNL A   1      33.653  20.877  26.052  1.00  0.00    -0.272 OA
ATOM     12  N   UNL A   1      34.438  22.752  24.993  1.00  0.00    -0.340 N 
ATOM     13  C   UNL A   1      33.565  23.622  25.761  1.00  0.00     0.125 C 
ATOM     14  C   UNL A   1      34.895  23.332  23.738  1.00  0.00     0.125 C 
ATOM     15  C   UNL A   1      32.310  23.973  24.975  1.00  0.00     0.086 C 
ATOM     16  C   UNL A   1      33.676  23.593  22.848  1.00  0.00     0.086 C 
ATOM     17  C   UNL A   1      32.631  24.492  23.560  1.00  0.00     0.187 C 
BRANCH  17  18
ATOM     18  N   UNL A   1      31.471  24.796  22.696  1.00  0.00    -0.329 N 
ATOM     19  C   UNL A   1      30.141  24.914  23.329  1.00  0.00     0.284 C 
ATOM     20  C   UNL A   1      31.669  25.928  21.763  1.00  0.00     0.284 C 
ATOM     21  H   UNL A   1      31.446  23.920  22.174  1.00  0.00     0.348 HD
ATOM     22  C   UNL A   1      29.782  26.285  23.947  1.00  0.00     0.178 C 
ATOM     23  C   UNL A   1      31.307  27.346  22.280  1.00  0.00     0.178 C 
ATOM     24  N   UNL A   1      30.012  27.350  22.969  1.00  0.00    -0.360 N 
BRANCH  24  25
ATOM     25  C   UNL A   1      29.360  28.564  23.102  1.00  0.00     0.037 A 
ATOM     26  C   UNL A   1      30.038  29.639  23.699  1.00  0.00     0.029 A 
ATOM     27  C   UNL A   1      28.054  28.783  22.641  1.00  0.00     0.029 A 
ATOM     28  C   UNL A   1      29.447  30.897  23.814  1.00  0.00     0.041 A 
ATOM     29  C   UNL A   1      27.449  30.038  22.768  1.00  0.00     0.041 A 
ATOM     30  C   UNL A   1      28.155  31.084  23.345  1.00  0.00     0.123 A 
ATOM     31  F   UNL A   1      27.585  32.292  23.448  1.00  0.00    -0.207 F 
ENDBRANCH  24  25
ENDBRANCH  17  18
ENDBRANCH   9  10
ENDBRANCH   8   9
ENDBRANCH   7   8
ENDBRANCH   5   7
ENDBRANCH   2   3
ENDBRANCH   1   2
BRANCH   1  32
ATOM     32  C   UNL A   1      41.379  22.338  27.692  1.00  0.00     0.002 C 
BRANCH  32  33
ATOM     33  C   UNL A   1      42.860  22.258  27.306  1.00  0.00     0.002 C 
BRANCH  33  34
ATOM     34  C   UNL A   1      43.139  22.184  25.804  1.00  0.00     0.021 C 
BRANCH  34  35
ATOM     35  C   UNL A   1      43.125  23.528  25.081  1.00  0.00     0.116 C 
BRANCH  35  36
ATOM     36  N   UNL A   1      44.451  23.943  24.654  1.00  0.00    -0.352 N 
ATOM     37  C   UNL A   1      45.221  24.993  25.092  1.00  0.00     0.251 C 
ATOM     38  H   UNL A   1      44.857  23.391  23.947  1.00  0.00     0.163 HD
ATOM     39  O   UNL A   1      46.248  25.298  24.498  1.00  0.00    -0.269 OA
BRANCH  37  40
ATOM     40  C   UNL A   1      44.792  25.780  26.270  1.00  0.00     0.039 A 
ATOM     41  C   UNL A   1      44.913  27.171  26.234  1.00  0.00     0.014 A 
ATOM     42  C   UNL A   1      44.274  25.150  27.406  1.00  0.00     0.014 A 
ATOM     43  C   UNL A   1      44.450  27.935  27.307  1.00  0.00     0.010 A 
ATOM     44  C   UNL A   1      43.745  25.916  28.442  1.00  0.00     0.010 A 
ATOM     45  C   UNL A   1      43.825  27.316  28.403  1.00  0.00    -0.014 A 
BRANCH  45  46
ATOM     46  C   UNL A   1      43.236  28.117  29.507  1.00  0.00     0.031 A 
ATOM     47  C   UNL A   1      43.960  28.251  30.817  1.00  0.00     0.074 A 
ATOM     48  C   UNL A   1      42.019  28.674  29.349  1.00  0.00     0.049 A 
ATOM     49  N   UNL A   1      43.573  28.846  31.917  1.00  0.00    -0.248 NA
ATOM     50  C   UNL A   1      45.283  27.614  30.913  1.00  0.00     0.031 C 
ATOM     51  C   UNL A   1      41.201  28.584  28.139  1.00  0.00     0.029 A 
ATOM     52  N   UNL A   1      41.253  29.420  30.211  1.00  0.00    -0.354 N 
ATOM     53  C   UNL A   1      44.597  28.648  32.834  1.00  0.00     0.074 A 
ATOM     54  C   UNL A   1      45.598  27.833  32.182  1.00  0.00     0.031 C 
ATOM     55  C   UNL A   1      40.064  29.271  28.325  1.00  0.00     0.029 A 
ATOM     56  C   UNL A   1      40.048  29.811  29.681  1.00  0.00     0.049 A 
ATOM     57  H   UNL A   1      41.542  29.653  31.124  1.00  0.00     0.167 HD
ATOM     58  C   UNL A   1      44.702  29.127  34.096  1.00  0.00     0.037 A 
ATOM     59  C   UNL A   1      39.038  30.517  30.228  1.00  0.00     0.037 A 
ATOM     60  C   UNL A   1      43.714  29.958  34.732  1.00  0.00     0.049 A 
ATOM     61  C   UNL A   1      39.169  31.015  31.642  1.00  0.00     0.074 A 
ATOM     62  C   UNL A   1      43.758  30.535  35.989  1.00  0.00     0.029 A 
ATOM     63  N   UNL A   1      42.504  30.328  34.163  1.00  0.00    -0.354 N 
ATOM     64  N   UNL A   1      40.167  30.868  32.479  1.00  0.00    -0.248 NA
ATOM     65  C   UNL A   1      38.036  31.776  32.187  1.00  0.00     0.031 C 
ATOM     66  C   UNL A   1      42.552  31.208  36.203  1.00  0.00     0.029 A 
ATOM     67  C   UNL A   1      41.782  31.104  35.056  1.00  0.00     0.049 A 
ATOM     68  H   UNL A   1      42.204  30.078  33.260  1.00  0.00     0.167 HD
ATOM     69  C   UNL A   1      39.795  31.537  33.638  1.00  0.00     0.074 A 
ATOM     70  C   UNL A   1      38.485  32.102  33.393  1.00  0.00     0.031 C 
ATOM     71  C   UNL A   1      40.481  31.667  34.799  1.00  0.00     0.037 A 
BRANCH  58  72
ATOM     72  C   UNL A   1      45.935  28.780  34.880  1.00  0.00     0.064 A 
ATOM     73  C   UNL A   1      45.939  27.682  35.753  1.00  0.00     0.173 A 
ATOM     74  C   UNL A   1      47.084  29.583  34.832  1.00  0.00     0.173 A 
ATOM     75  F   UNL A   1      44.863  26.885  35.843  1.00  0.00    -0.203 F 
ATOM     76  C   UNL A   1      47.041  27.410  36.560  1.00  0.00     0.198 A 
ATOM     77  C   UNL A   1      48.196  29.292  35.616  1.00  0.00     0.198 A 
ATOM     78  F   UNL A   1      47.135  30.640  34.006  1.00  0.00    -0.203 F 
ATOM     79  F   UNL A   1      47.007  26.379  37.415  1.00  0.00    -0.200 F 
ATOM     80  C   UNL A   1      48.170  28.213  36.489  1.00  0.00     0.200 A 
ATOM     81  F   UNL A   1      49.295  30.054  35.528  1.00  0.00    -0.200 F 
ATOM     82  F   UNL A   1      49.232  27.948  37.260  1.00  0.00    -0.200 F 
ENDBRANCH  58  72
BRANCH  59  83
ATOM     83  C   UNL A   1      37.830  30.818  29.415  1.00  0.00     0.064 A 
ATOM     84  C   UNL A   1      37.592  32.101  28.902  1.00  0.00     0.173 A 
ATOM     85  C   UNL A   1      36.869  29.828  29.165  1.00  0.00     0.173 A 
ATOM     86  F   UNL A   1      38.479  33.085  29.116  1.00  0.00    -0.203 F 
ATOM     87  C   UNL A   1      36.430  32.388  28.190  1.00  0.00     0.198 A 
ATOM     88  C   UNL A   1      35.720  30.109  28.428  1.00  0.00     0.198 A 
ATOM     89  F   UNL A   1      37.060  28.579  29.618  1.00  0.00    -0.203 F 
ATOM     90  F   UNL A   1      36.209  33.633  27.745  1.00  0.00    -0.200 F 
ATOM     91  C   UNL A   1      35.497  31.391  27.950  1.00  0.00     0.200 A 
ATOM     92  F   UNL A   1      34.833  29.137  28.178  1.00  0.00    -0.200 F 
ATOM     93  F   UNL A   1      34.383  31.666  27.256  1.00  0.00    -0.200 F 
ENDBRANCH  59  83
BRANCH  71  94
ATOM     94  C   UNL A   1      39.851  32.472  35.899  1.00  0.00     0.064 A 
ATOM     95  C   UNL A   1      38.845  31.911  36.702  1.00  0.00     0.173 A 
ATOM     96  C   UNL A   1      40.171  33.823  36.097  1.00  0.00     0.173 A 
ATOM     97  F   UNL A   1      38.495  30.625  36.547  1.00  0.00    -0.203 F 
ATOM     98  C   UNL A   1      38.168  32.679  37.644  1.00  0.00     0.198 A 
ATOM     99  C   UNL A   1      39.513  34.579  37.062  1.00  0.00     0.198 A 
ATOM    100  F   UNL A   1      41.135  34.402  35.363  1.00  0.00    -0.203 F 
ATOM    101  F   UNL A   1      37.180  32.133  38.367  1.00  0.00    -0.200 F 
ATOM    102  C   UNL A   1      38.504  34.011  37.825  1.00  0.00     0.200 A 
ATOM    103  F   UNL A   1      39.856  35.862  37.253  1.00  0.00    -0.200 F 
ATOM    104  F   UNL A   1      37.855  34.749  38.736  1.00  0.00    -0.200 F 
ENDBRANCH  71  94
ENDBRANCH  45  46
ENDBRANCH  37  40
ENDBRANCH  35  36
ENDBRANCH  34  35
ENDBRANCH  33  34
ENDBRANCH  32  33
ENDBRANCH   1  32
TORSDOF 18
ENDMDL
MODEL 3
REMARK VINA RESULT:     -11.1      3.713      8.629
REMARK SMILES O=C(COCC(=O)N1CCC([NH+]2CCN(c3ccc(F)cc3)CC2)CC1)NCCCCCCNC(=O)c1ccc(-c2c3nc(c(-c4c(F)c(F)c(F)c(F)c4F)c4ccc([nH]4)c(-c4c(F)c(F)c(F)c(F)c4F)c4nc(c(-c5c(F)c(F)c(F)c(F)c5F)c5ccc2[nH]5)C=C4)C=C3)cc1
REMARK SMILES IDX 29 1 28 2 27 3 1 4 2 5 3 7 4 8 5 9 6 10 7 11 8 12 9 13 26 14
REMARK SMILES IDX 10 15 25 16 11 17 12 18 13 19 24 20 14 22 23 23 15 24 16 25
REMARK SMILES IDX 17 26 22 27 18 28 21 29 19 30 20 31 30 32 31 33 32 34 33 35
REMARK SMILES IDX 34 36 35 37 36 39 37 40 38 41 99 42 39 43 98 44 40 45 41 46
REMARK SMILES IDX 42 47 92 48 43 49 97 50 91 51 93 52 44 53 96 54 90 55 89 56
REMARK SMILES IDX 45 58 77 59 57 60 76 61 58 62 61 63 75 64 94 65 59 66 60 67
REMARK SMILES IDX 74 69 95 70 62 71 46 72 47 73 55 74 48 75 49 76 53 77 56 78
REMARK SMILES IDX 50 79 51 80 54 81 52 82 78 83 79 84 87 85 80 86 81 87 85 88
REMARK SMILES IDX 88 89 82 90 83 91 86 92 84 93 63 94 64 95 72 96 65 97 66 98
REMARK SMILES IDX 70 99 73 100 67 101 68 102 71 103 69 104
REMARK H PARENT 27 6 12 21 34 38 93 57 61 68
REMARK Flexibility Score: inf
ROOT
ATOM      1  C   UNL A   1      39.662  29.156  28.218  1.00  0.00     0.021 C 
ENDROOT
BRANCH   1   2
ATOM      2  C   UNL A   1      40.112  28.970  26.771  1.00  0.00     0.116 C 
BRANCH   2   3
ATOM      3  N   UNL A   1      40.845  27.736  26.597  1.00  0.00    -0.354 N 
ATOM      4  O   UNL A   1      42.155  28.458  24.848  1.00  0.00    -0.272 OA
ATOM      5  C   UNL A   1      41.819  27.580  25.635  1.00  0.00     0.246 C 
ATOM      6  H   UNL A   1      40.639  26.977  27.189  1.00  0.00     0.163 HD
BRANCH   5   7
ATOM      7  C   UNL A   1      42.403  26.166  25.581  1.00  0.00     0.260 C 
BRANCH   7   8
ATOM      8  O   UNL A   1      43.445  25.883  26.503  1.00  0.00    -0.362 OA
BRANCH   8   9
ATOM      9  C   UNL A   1      43.134  24.847  27.413  1.00  0.00     0.260 C 
BRANCH   9  10
ATOM     10  C   UNL A   1      42.498  23.510  26.975  1.00  0.00     0.248 C 
ATOM     11  O   UNL A   1      43.163  22.705  26.319  1.00  0.00    -0.272 OA
ATOM     12  N   UNL A   1      41.237  23.192  27.461  1.00  0.00    -0.340 N 
ATOM     13  C   UNL A   1      40.809  21.805  27.449  1.00  0.00     0.125 C 
ATOM     14  C   UNL A   1      40.152  24.144  27.655  1.00  0.00     0.125 C 
ATOM     15  C   UNL A   1      39.815  21.548  26.325  1.00  0.00     0.086 C 
ATOM     16  C   UNL A   1      39.177  24.019  26.480  1.00  0.00     0.086 C 
ATOM     17  C   UNL A   1      38.657  22.565  26.322  1.00  0.00     0.187 C 
BRANCH  17  18
ATOM     18  N   UNL A   1      37.676  22.437  25.226  1.00  0.00    -0.329 N 
ATOM     19  C   UNL A   1      36.650  21.378  25.328  1.00  0.00     0.284 C 
ATOM     20  C   UNL A   1      37.030  23.703  24.816  1.00  0.00     0.284 C 
ATOM     21  H   UNL A   1      38.315  22.125  24.495  1.00  0.00     0.348 HD
ATOM     22  C   UNL A   1      35.383  21.711  26.149  1.00  0.00     0.178 C 
ATOM     23  C   UNL A   1      35.731  24.112  25.561  1.00  0.00     0.178 C 
ATOM     24  N   UNL A   1      34.809  22.978  25.690  1.00  0.00    -0.360 N 
BRANCH  24  25
ATOM     25  C   UNL A   1      33.475  23.261  25.930  1.00  0.00     0.037 A 
ATOM     26  C   UNL A   1      32.607  22.211  26.269  1.00  0.00     0.029 A 
ATOM     27  C   UNL A   1      32.950  24.559  25.877  1.00  0.00     0.029 A 
ATOM     28  C   UNL A   1      31.265  22.446  26.569  1.00  0.00     0.041 A 
ATOM     29  C   UNL A   1      31.601  24.801  26.161  1.00  0.00     0.041 A 
ATOM     30  C   UNL A   1      30.775  23.742  26.512  1.00  0.00     0.123 A 
ATOM     31  F   UNL A   1      29.488  23.973  26.804  1.00  0.00    -0.207 F 
ENDBRANCH  24  25
ENDBRANCH  17  18
ENDBRANCH   9  10
ENDBRANCH   8   9
ENDBRANCH   7   8
ENDBRANCH   5   7
ENDBRANCH   2   3
ENDBRANCH   1   2
BRANCH   1  32
ATOM     32  C   UNL A   1      38.318  29.880  28.376  1.00  0.00     0.002 C 
BRANCH  32  33
ATOM     33  C   UNL A   1      37.075  28.992  28.254  1.00  0.00     0.002 C 
BRANCH  33  34
ATOM     34  C   UNL A   1      35.753  29.741  28.079  1.00  0.00     0.021 C 
BRANCH  34  35
ATOM     35  C   UNL A   1      35.895  31.220  27.732  1.00  0.00     0.116 C 
BRANCH  35  36
ATOM     36  N   UNL A   1      35.013  32.064  28.523  1.00  0.00    -0.352 N 
ATOM     37  C   UNL A   1      35.076  32.383  29.858  1.00  0.00     0.251 C 
ATOM     38  H   UNL A   1      34.262  32.466  28.030  1.00  0.00     0.163 HD
ATOM     39  O   UNL A   1      34.148  32.974  30.397  1.00  0.00    -0.269 OA
BRANCH  37  40
ATOM     40  C   UNL A   1      36.257  31.984  30.656  1.00  0.00     0.039 A 
ATOM     41  C   UNL A   1      37.439  32.716  30.524  1.00  0.00     0.014 A 
ATOM     42  C   UNL A   1      36.199  30.895  31.530  1.00  0.00     0.014 A 
ATOM     43  C   UNL A   1      38.542  32.398  31.320  1.00  0.00     0.010 A 
ATOM     44  C   UNL A   1      37.273  30.627  32.375  1.00  0.00     0.010 A 
ATOM     45  C   UNL A   1      38.455  31.377  32.281  1.00  0.00    -0.014 A 
BRANCH  45  46
ATOM     46  C   UNL A   1      39.583  31.092  33.205  1.00  0.00     0.031 A 
ATOM     47  C   UNL A   1      39.719  31.852  34.494  1.00  0.00     0.074 A 
ATOM     48  C   UNL A   1      40.520  30.190  32.852  1.00  0.00     0.049 A 
ATOM     49  N   UNL A   1      40.672  31.793  35.391  1.00  0.00    -0.248 NA
ATOM     50  C   UNL A   1      38.658  32.821  34.810  1.00  0.00     0.031 C 
ATOM     51  C   UNL A   1      40.520  29.415  31.610  1.00  0.00     0.029 A 
ATOM     52  N   UNL A   1      41.659  29.776  33.500  1.00  0.00    -0.354 N 
ATOM     53  C   UNL A   1      40.329  32.720  36.366  1.00  0.00     0.074 A 
ATOM     54  C   UNL A   1      39.111  33.366  35.929  1.00  0.00     0.031 C 
ATOM     55  C   UNL A   1      41.586  28.602  31.599  1.00  0.00     0.029 A 
ATOM     56  C   UNL A   1      42.373  28.828  32.808  1.00  0.00     0.049 A 
ATOM     57  H   UNL A   1      41.936  30.126  34.377  1.00  0.00     0.167 HD
ATOM     58  C   UNL A   1      40.961  32.987  37.533  1.00  0.00     0.037 A 
ATOM     59  C   UNL A   1      43.536  28.216  33.108  1.00  0.00     0.037 A 
ATOM     60  C   UNL A   1      42.160  32.324  37.976  1.00  0.00     0.049 A 
ATOM     61  C   UNL A   1      44.232  28.550  34.399  1.00  0.00     0.074 A 
ATOM     62  C   UNL A   1      42.842  32.490  39.169  1.00  0.00     0.029 A 
ATOM     63  N   UNL A   1      42.856  31.372  37.244  1.00  0.00    -0.354 N 
ATOM     64  N   UNL A   1      43.868  29.388  35.340  1.00  0.00    -0.248 NA
ATOM     65  C   UNL A   1      45.498  27.856  34.673  1.00  0.00     0.031 C 
ATOM     66  C   UNL A   1      43.981  31.680  39.135  1.00  0.00     0.029 A 
ATOM     67  C   UNL A   1      43.976  30.963  37.950  1.00  0.00     0.049 A 
ATOM     68  H   UNL A   1      42.592  31.038  36.357  1.00  0.00     0.167 HD
ATOM     69  C   UNL A   1      44.844  29.303  36.325  1.00  0.00     0.074 A 
ATOM     70  C   UNL A   1      45.809  28.323  35.875  1.00  0.00     0.031 C 
ATOM     71  C   UNL A   1      44.927  29.980  37.495  1.00  0.00     0.037 A 
BRANCH  58  72
ATOM     72  C   UNL A   1      40.367  34.033  38.433  1.00  0.00     0.064 A 
ATOM     73  C   UNL A   1      39.375  33.692  39.364  1.00  0.00     0.173 A 
ATOM     74  C   UNL A   1      40.719  35.385  38.317  1.00  0.00     0.173 A 
ATOM     75  F   UNL A   1      38.996  32.412  39.512  1.00  0.00    -0.203 F 
ATOM     76  C   UNL A   1      38.745  34.668  40.133  1.00  0.00     0.198 A 
ATOM     77  C   UNL A   1      40.111  36.356  39.107  1.00  0.00     0.198 A 
ATOM     78  F   UNL A   1      41.670  35.763  37.448  1.00  0.00    -0.203 F 
ATOM     79  F   UNL A   1      37.773  34.322  40.987  1.00  0.00    -0.200 F 
ATOM     80  C   UNL A   1      39.117  35.998  40.006  1.00  0.00     0.200 A 
ATOM     81  F   UNL A   1      40.488  37.637  39.002  1.00  0.00    -0.200 F 
ATOM     82  F   UNL A   1      38.516  36.936  40.750  1.00  0.00    -0.200 F 
ENDBRANCH  58  72
BRANCH  59  83
ATOM     83  C   UNL A   1      44.092  27.202  32.174  1.00  0.00     0.064 A 
ATOM     84  C   UNL A   1      44.010  25.829  32.450  1.00  0.00     0.173 A 
ATOM     85  C   UNL A   1      44.750  27.592  31.000  1.00  0.00     0.173 A 
ATOM     86  F   UNL A   1      43.394  25.403  33.563  1.00  0.00    -0.203 F 
ATOM     87  C   UNL A   1      44.584  24.888  31.598  1.00  0.00     0.198 A 
ATOM     88  C   UNL A   1      45.299  26.648  30.133  1.00  0.00     0.198 A 
ATOM     89  F   UNL A   1      44.838  28.892  30.681  1.00  0.00    -0.203 F 
ATOM     90  F   UNL A   1      44.525  23.585  31.906  1.00  0.00    -0.200 F 
ATOM     91  C   UNL A   1      45.224  25.297  30.439  1.00  0.00     0.200 A 
ATOM     92  F   UNL A   1      45.895  27.047  29.002  1.00  0.00    -0.200 F 
ATOM     93  F   UNL A   1      45.767  24.391  29.615  1.00  0.00    -0.200 F 
ENDBRANCH  59  83
BRANCH  71  94
ATOM     94  C   UNL A   1      46.087  29.678  38.400  1.00  0.00     0.064 A 
ATOM     95  C   UNL A   1      46.004  28.633  39.335  1.00  0.00     0.173 A 
ATOM     96  C   UNL A   1      47.238  30.478  38.410  1.00  0.00     0.173 A 
ATOM     97  F   UNL A   1      44.920  27.844  39.372  1.00  0.00    -0.203 F 
ATOM     98  C   UNL A   1      47.020  28.417  40.260  1.00  0.00     0.198 A 
ATOM     99  C   UNL A   1      48.266  30.238  39.317  1.00  0.00     0.198 A 
ATOM    100  F   UNL A   1      47.371  31.481  37.528  1.00  0.00    -0.203 F 
ATOM    101  F   UNL A   1      46.898  27.442  41.172  1.00  0.00    -0.200 F 
ATOM    102  C   UNL A   1      48.151  29.218  40.249  1.00  0.00     0.200 A 
ATOM    103  F   UNL A   1      49.371  30.998  39.290  1.00  0.00    -0.200 F 
ATOM    104  F   UNL A   1      49.132  29.006  41.137  1.00  0.00    -0.200 F 
ENDBRANCH  71  94
ENDBRANCH  45  46
ENDBRANCH  37  40
ENDBRANCH  35  36
ENDBRANCH  34  35
ENDBRANCH  33  34
ENDBRANCH  32  33
ENDBRANCH   1  32
TORSDOF 18
ENDMDL
