MODEL 1
REMARK VINA RESULT:     -13.7      0.000      0.000
REMARK SMILES Cc1ccc([C@H](C)Nc2ccc(C(=O)NCCCCCCNC(=O)c3ccc(-c4c5nc(c(-c6c(F)c(F)c(F)c(F)c6F)c6ccc([nH]6)c(-c6c(F)c(F)c(F)c(F)c6F)c6nc(c(-c7c(F)c(F)c(F)c(F)c7F)c7ccc4[nH]7)C=C6)C=C5)cc3)cc2Cl)cc1F
REMARK SMILES IDX 18 1 17 2 16 3 15 4 13 5 14 6 12 8 9 9 10 10 89 11 11 12
REMARK SMILES IDX 88 13 90 14 8 15 6 17 7 18 5 19 1 20 2 21 3 22 92 23 4 24
REMARK SMILES IDX 91 25 93 26 19 27 20 28 21 29 22 30 23 31 24 33 25 34 26 35
REMARK SMILES IDX 87 36 27 37 86 38 28 39 29 40 30 41 80 42 31 43 85 44 79 45
REMARK SMILES IDX 81 46 32 47 84 48 78 49 77 50 33 52 65 53 45 54 64 55 46 56
REMARK SMILES IDX 49 57 63 58 82 59 47 60 48 61 62 63 83 64 50 65 34 66 35 67
REMARK SMILES IDX 43 68 36 69 37 70 41 71 44 72 38 73 39 74 42 75 40 76 66 77
REMARK SMILES IDX 67 78 75 79 68 80 69 81 73 82 76 83 70 84 71 85 74 86 72 87
REMARK SMILES IDX 51 88 52 89 60 90 53 91 54 92 58 93 61 94 55 95 56 96 59 97
REMARK SMILES IDX 57 98
REMARK H PARENT 15 7 8 16 22 32 81 51 49 62
REMARK Flexibility Score: inf
ROOT
ATOM      1  C   UNL A   1      35.343  22.983  26.003  1.00  0.00     0.002 C 
ENDROOT
BRANCH   1   2
ATOM      2  C   UNL A   1      35.125  21.503  26.345  1.00  0.00     0.021 C 
BRANCH   2   3
ATOM      3  C   UNL A   1      35.313  20.573  25.142  1.00  0.00     0.116 C 
BRANCH   3   4
ATOM      4  N   UNL A   1      34.192  19.663  25.024  1.00  0.00    -0.352 N 
ATOM      5  C   UNL A   1      32.864  19.848  24.744  1.00  0.00     0.251 C 
ATOM      6  O   UNL A   1      32.154  18.844  24.675  1.00  0.00    -0.269 OA
ATOM      7  H   UNL A   1      34.434  18.721  25.176  1.00  0.00     0.163 HD
BRANCH   5   8
ATOM      8  C   UNL A   1      32.261  21.180  24.463  1.00  0.00     0.041 A 
ATOM      9  C   UNL A   1      31.268  23.787  23.833  1.00  0.00     0.053 A 
ATOM     10  C   UNL A   1      31.966  23.007  22.892  1.00  0.00     0.028 A 
ATOM     11  C   UNL A   1      31.115  23.227  25.114  1.00  0.00     0.065 A 
ATOM     12  C   UNL A   1      32.484  21.744  23.207  1.00  0.00     0.016 A 
ATOM     13  C   UNL A   1      31.499  21.904  25.372  1.00  0.00     0.036 A 
ATOM     14  Cl  UNL A   1      30.451  24.038  26.493  1.00  0.00    -0.082 Cl
BRANCH   9  15
ATOM     15  N   UNL A   1      30.828  25.020  23.391  1.00  0.00    -0.377 N 
ATOM     16  H   UNL A   1      30.250  25.005  22.593  1.00  0.00     0.161 HD
BRANCH  15  17
ATOM     17  C   UNL A   1      31.104  26.336  23.949  1.00  0.00     0.106 C 
ATOM     18  C   UNL A   1      32.626  26.540  23.836  1.00  0.00     0.036 C 
BRANCH  17  19
ATOM     19  C   UNL A   1      30.227  27.390  23.271  1.00  0.00    -0.023 A 
ATOM     20  C   UNL A   1      27.663  30.696  22.106  1.00  0.00     0.047 C 
ATOM     21  C   UNL A   1      28.548  29.534  22.435  1.00  0.00    -0.015 A 
ATOM     22  C   UNL A   1      29.908  29.523  22.114  1.00  0.00     0.007 A 
ATOM     23  C   UNL A   1      28.029  28.448  23.128  1.00  0.00     0.126 A 
ATOM     24  C   UNL A   1      30.738  28.469  22.531  1.00  0.00     0.006 A 
ATOM     25  C   UNL A   1      28.840  27.386  23.507  1.00  0.00     0.045 A 
ATOM     26  F   UNL A   1      26.733  28.428  23.473  1.00  0.00    -0.207 F 
ENDBRANCH  17  19
ENDBRANCH  15  17
ENDBRANCH   9  15
ENDBRANCH   5   8
ENDBRANCH   3   4
ENDBRANCH   2   3
ENDBRANCH   1   2
BRANCH   1  27
ATOM     27  C   UNL A   1      36.207  23.259  24.756  1.00  0.00     0.002 C 
BRANCH  27  28
ATOM     28  C   UNL A   1      37.627  23.765  25.029  1.00  0.00     0.021 C 
BRANCH  28  29
ATOM     29  C   UNL A   1      38.163  23.273  26.353  1.00  0.00     0.116 C 
BRANCH  29  30
ATOM     30  N   UNL A   1      39.601  23.306  26.457  1.00  0.00    -0.352 N 
ATOM     31  C   UNL A   1      40.453  24.368  26.694  1.00  0.00     0.251 C 
ATOM     32  H   UNL A   1      40.046  22.435  26.339  1.00  0.00     0.163 HD
ATOM     33  O   UNL A   1      41.638  24.198  26.545  1.00  0.00    -0.269 OA
BRANCH  31  34
ATOM     34  C   UNL A   1      39.947  25.669  27.241  1.00  0.00     0.039 A 
ATOM     35  C   UNL A   1      40.319  26.840  26.556  1.00  0.00     0.014 A 
ATOM     36  C   UNL A   1      39.285  25.794  28.459  1.00  0.00     0.014 A 
ATOM     37  C   UNL A   1      40.201  28.085  27.172  1.00  0.00     0.010 A 
ATOM     38  C   UNL A   1      39.222  27.001  29.101  1.00  0.00     0.010 A 
ATOM     39  C   UNL A   1      39.729  28.128  28.478  1.00  0.00    -0.014 A 
BRANCH  39  40
ATOM     40  C   UNL A   1      39.686  29.301  29.315  1.00  0.00     0.031 A 
ATOM     41  C   UNL A   1      38.643  30.295  29.082  1.00  0.00     0.074 A 
ATOM     42  C   UNL A   1      40.461  29.320  30.416  1.00  0.00     0.049 A 
ATOM     43  N   UNL A   1      38.782  31.548  29.322  1.00  0.00    -0.248 NA
ATOM     44  C   UNL A   1      37.333  29.931  28.556  1.00  0.00     0.031 C 
ATOM     45  C   UNL A   1      40.436  30.253  31.531  1.00  0.00     0.029 A 
ATOM     46  N   UNL A   1      41.586  28.521  30.657  1.00  0.00    -0.354 N 
ATOM     47  C   UNL A   1      37.520  32.096  29.297  1.00  0.00     0.074 A 
ATOM     48  C   UNL A   1      36.675  31.084  28.701  1.00  0.00     0.031 C 
ATOM     49  C   UNL A   1      41.636  30.214  32.138  1.00  0.00     0.029 A 
ATOM     50  C   UNL A   1      42.499  29.345  31.352  1.00  0.00     0.049 A 
ATOM     51  H   UNL A   1      41.713  27.580  30.396  1.00  0.00     0.167 HD
ATOM     52  C   UNL A   1      37.300  33.268  29.959  1.00  0.00     0.037 A 
ATOM     53  C   UNL A   1      43.640  29.720  30.696  1.00  0.00     0.037 A 
ATOM     54  C   UNL A   1      38.520  33.715  30.641  1.00  0.00     0.049 A 
ATOM     55  C   UNL A   1      43.636  31.177  30.276  1.00  0.00     0.074 A 
ATOM     56  C   UNL A   1      38.969  33.629  31.950  1.00  0.00     0.029 A 
ATOM     57  N   UNL A   1      39.643  34.006  29.886  1.00  0.00    -0.354 N 
ATOM     58  N   UNL A   1      42.680  32.022  30.551  1.00  0.00    -0.248 NA
ATOM     59  C   UNL A   1      44.678  31.774  29.441  1.00  0.00     0.031 C 
ATOM     60  C   UNL A   1      40.381  33.841  31.957  1.00  0.00     0.029 A 
ATOM     61  C   UNL A   1      40.790  34.071  30.656  1.00  0.00     0.049 A 
ATOM     62  H   UNL A   1      39.626  34.151  28.913  1.00  0.00     0.167 HD
ATOM     63  C   UNL A   1      42.924  33.214  29.926  1.00  0.00     0.074 A 
ATOM     64  C   UNL A   1      44.189  33.008  29.241  1.00  0.00     0.031 C 
ATOM     65  C   UNL A   1      42.067  34.278  29.988  1.00  0.00     0.037 A 
BRANCH  52  66
ATOM     66  C   UNL A   1      35.919  33.815  30.233  1.00  0.00     0.064 A 
ATOM     67  C   UNL A   1      35.126  34.328  29.187  1.00  0.00     0.173 A 
ATOM     68  C   UNL A   1      35.329  33.889  31.511  1.00  0.00     0.173 A 
ATOM     69  F   UNL A   1      35.494  34.210  27.906  1.00  0.00    -0.203 F 
ATOM     70  C   UNL A   1      33.913  34.982  29.418  1.00  0.00     0.198 A 
ATOM     71  C   UNL A   1      34.145  34.594  31.751  1.00  0.00     0.198 A 
ATOM     72  F   UNL A   1      35.850  33.235  32.557  1.00  0.00    -0.203 F 
ATOM     73  F   UNL A   1      33.207  35.454  28.381  1.00  0.00    -0.200 F 
ATOM     74  C   UNL A   1      33.443  35.152  30.703  1.00  0.00     0.200 A 
ATOM     75  F   UNL A   1      33.689  34.724  33.005  1.00  0.00    -0.200 F 
ATOM     76  F   UNL A   1      32.303  35.820  30.928  1.00  0.00    -0.200 F 
ENDBRANCH  52  66
BRANCH  53  77
ATOM     77  C   UNL A   1      44.197  28.567  29.919  1.00  0.00     0.064 A 
ATOM     78  C   UNL A   1      44.720  27.496  30.675  1.00  0.00     0.173 A 
ATOM     79  C   UNL A   1      43.761  28.283  28.617  1.00  0.00     0.173 A 
ATOM     80  F   UNL A   1      45.187  27.719  31.914  1.00  0.00    -0.203 F 
ATOM     81  C   UNL A   1      44.593  26.178  30.242  1.00  0.00     0.198 A 
ATOM     82  C   UNL A   1      43.686  26.961  28.168  1.00  0.00     0.198 A 
ATOM     83  F   UNL A   1      43.283  29.258  27.831  1.00  0.00    -0.203 F 
ATOM     84  F   UNL A   1      44.918  25.171  31.066  1.00  0.00    -0.200 F 
ATOM     85  C   UNL A   1      44.033  25.910  29.007  1.00  0.00     0.200 A 
ATOM     86  F   UNL A   1      43.196  26.702  26.949  1.00  0.00    -0.200 F 
ATOM     87  F   UNL A   1      43.790  24.643  28.644  1.00  0.00    -0.200 F 
ENDBRANCH  53  77
BRANCH  65  88
ATOM     88  C   UNL A   1      42.389  35.622  29.393  1.00  0.00     0.064 A 
ATOM     89  C   UNL A   1      41.825  36.051  28.180  1.00  0.00     0.173 A 
ATOM     90  C   UNL A   1      43.366  36.475  29.950  1.00  0.00     0.173 A 
ATOM     91  F   UNL A   1      40.964  35.272  27.507  1.00  0.00    -0.203 F 
ATOM     92  C   UNL A   1      42.148  37.285  27.614  1.00  0.00     0.198 A 
ATOM     93  C   UNL A   1      43.735  37.677  29.350  1.00  0.00     0.198 A 
ATOM     94  F   UNL A   1      43.981  36.190  31.106  1.00  0.00    -0.203 F 
ATOM     95  F   UNL A   1      41.527  37.686  26.497  1.00  0.00    -0.200 F 
ATOM     96  C   UNL A   1      43.108  38.094  28.195  1.00  0.00     0.200 A 
ATOM     97  F   UNL A   1      44.696  38.428  29.905  1.00  0.00    -0.200 F 
ATOM     98  F   UNL A   1      43.429  39.271  27.642  1.00  0.00    -0.200 F 
ENDBRANCH  65  88
ENDBRANCH  39  40
ENDBRANCH  31  34
ENDBRANCH  29  30
ENDBRANCH  28  29
ENDBRANCH  27  28
ENDBRANCH   1  27
TORSDOF 16
ENDMDL
MODEL 2
REMARK VINA RESULT:     -13.6      3.646     10.303
REMARK SMILES Cc1ccc([C@H](C)Nc2ccc(C(=O)NCCCCCCNC(=O)c3ccc(-c4c5nc(c(-c6c(F)c(F)c(F)c(F)c6F)c6ccc([nH]6)c(-c6c(F)c(F)c(F)c(F)c6F)c6nc(c(-c7c(F)c(F)c(F)c(F)c7F)c7ccc4[nH]7)C=C6)C=C5)cc3)cc2Cl)cc1F
REMARK SMILES IDX 18 1 17 2 16 3 15 4 13 5 14 6 12 8 9 9 10 10 89 11 11 12
REMARK SMILES IDX 88 13 90 14 8 15 6 17 7 18 5 19 1 20 2 21 3 22 92 23 4 24
REMARK SMILES IDX 91 25 93 26 19 27 20 28 21 29 22 30 23 31 24 33 25 34 26 35
REMARK SMILES IDX 87 36 27 37 86 38 28 39 29 40 30 41 80 42 31 43 85 44 79 45
REMARK SMILES IDX 81 46 32 47 84 48 78 49 77 50 33 52 65 53 45 54 64 55 46 56
REMARK SMILES IDX 49 57 63 58 82 59 47 60 48 61 62 63 83 64 50 65 34 66 35 67
REMARK SMILES IDX 43 68 36 69 37 70 41 71 44 72 38 73 39 74 42 75 40 76 66 77
REMARK SMILES IDX 67 78 75 79 68 80 69 81 73 82 76 83 70 84 71 85 74 86 72 87
REMARK SMILES IDX 51 88 52 89 60 90 53 91 54 92 58 93 61 94 55 95 56 96 59 97
REMARK SMILES IDX 57 98
REMARK H PARENT 15 7 8 16 22 32 81 51 49 62
REMARK Flexibility Score: inf
ROOT
ATOM      1  C   UNL A   1      31.767  29.993  26.500  1.00  0.00     0.002 C 
ENDROOT
BRANCH   1   2
ATOM      2  C   UNL A   1      31.424  30.048  25.005  1.00  0.00     0.021 C 
BRANCH   2   3
ATOM      3  C   UNL A   1      31.450  28.674  24.329  1.00  0.00     0.116 C 
BRANCH   3   4
ATOM      4  N   UNL A   1      30.118  28.287  23.913  1.00  0.00    -0.352 N 
ATOM      5  C   UNL A   1      29.460  27.086  23.885  1.00  0.00     0.251 C 
ATOM      6  O   UNL A   1      28.290  27.090  23.502  1.00  0.00    -0.269 OA
ATOM      7  H   UNL A   1      29.577  29.040  23.583  1.00  0.00     0.163 HD
BRANCH   5   8
ATOM      8  C   UNL A   1      30.065  25.806  24.345  1.00  0.00     0.041 A 
ATOM      9  C   UNL A   1      31.318  23.449  25.370  1.00  0.00     0.053 A 
ATOM     10  C   UNL A   1      30.739  24.414  26.215  1.00  0.00     0.028 A 
ATOM     11  C   UNL A   1      31.276  23.724  23.992  1.00  0.00     0.065 A 
ATOM     12  C   UNL A   1      30.155  25.587  25.720  1.00  0.00     0.016 A 
ATOM     13  C   UNL A   1      30.555  24.820  23.499  1.00  0.00     0.036 A 
ATOM     14  Cl  UNL A   1      32.056  22.794  22.757  1.00  0.00    -0.082 Cl
BRANCH   9  15
ATOM     15  N   UNL A   1      31.873  22.349  25.996  1.00  0.00    -0.377 N 
ATOM     16  H   UNL A   1      31.243  21.780  26.495  1.00  0.00     0.161 HD
BRANCH  15  17
ATOM     17  C   UNL A   1      33.265  21.921  26.015  1.00  0.00     0.106 C 
ATOM     18  C   UNL A   1      33.683  21.882  27.496  1.00  0.00     0.036 C 
BRANCH  17  19
ATOM     19  C   UNL A   1      33.425  20.618  25.231  1.00  0.00    -0.023 A 
ATOM     20  C   UNL A   1      34.025  16.580  23.747  1.00  0.00     0.047 C 
ATOM     21  C   UNL A   1      33.807  17.994  24.187  1.00  0.00    -0.015 A 
ATOM     22  C   UNL A   1      32.536  18.572  24.224  1.00  0.00     0.007 A 
ATOM     23  C   UNL A   1      34.885  18.753  24.626  1.00  0.00     0.126 A 
ATOM     24  C   UNL A   1      32.346  19.863  24.745  1.00  0.00     0.006 A 
ATOM     25  C   UNL A   1      34.705  20.044  25.104  1.00  0.00     0.045 A 
ATOM     26  F   UNL A   1      36.119  18.229  24.626  1.00  0.00    -0.207 F 
ENDBRANCH  17  19
ENDBRANCH  15  17
ENDBRANCH   9  15
ENDBRANCH   5   8
ENDBRANCH   3   4
ENDBRANCH   2   3
ENDBRANCH   1   2
BRANCH   1  27
ATOM     27  C   UNL A   1      32.463  28.701  26.977  1.00  0.00     0.002 C 
BRANCH  27  28
ATOM     28  C   UNL A   1      33.842  28.885  27.617  1.00  0.00     0.021 C 
BRANCH  28  29
ATOM     29  C   UNL A   1      34.560  30.104  27.086  1.00  0.00     0.116 C 
BRANCH  29  30
ATOM     30  N   UNL A   1      35.077  30.977  28.109  1.00  0.00    -0.352 N 
ATOM     31  C   UNL A   1      36.130  30.797  28.986  1.00  0.00     0.251 C 
ATOM     32  H   UNL A   1      34.605  31.837  28.199  1.00  0.00     0.163 HD
ATOM     33  O   UNL A   1      36.264  31.582  29.893  1.00  0.00    -0.269 OA
BRANCH  31  34
ATOM     34  C   UNL A   1      37.162  29.732  28.760  1.00  0.00     0.039 A 
ATOM     35  C   UNL A   1      37.444  28.875  29.839  1.00  0.00     0.014 A 
ATOM     36  C   UNL A   1      37.959  29.653  27.622  1.00  0.00     0.014 A 
ATOM     37  C   UNL A   1      38.608  28.107  29.844  1.00  0.00     0.010 A 
ATOM     38  C   UNL A   1      39.135  28.955  27.639  1.00  0.00     0.010 A 
ATOM     39  C   UNL A   1      39.479  28.231  28.768  1.00  0.00    -0.014 A 
BRANCH  39  40
ATOM     40  C   UNL A   1      40.788  27.634  28.677  1.00  0.00     0.031 A 
ATOM     41  C   UNL A   1      40.894  26.206  28.397  1.00  0.00     0.074 A 
ATOM     42  C   UNL A   1      41.854  28.456  28.627  1.00  0.00     0.049 A 
ATOM     43  N   UNL A   1      41.856  25.464  28.812  1.00  0.00    -0.248 NA
ATOM     44  C   UNL A   1      39.898  25.500  27.601  1.00  0.00     0.031 C 
ATOM     45  C   UNL A   1      43.236  28.135  28.305  1.00  0.00     0.029 A 
ATOM     46  N   UNL A   1      41.894  29.796  29.033  1.00  0.00    -0.354 N 
ATOM     47  C   UNL A   1      41.789  24.294  28.091  1.00  0.00     0.074 A 
ATOM     48  C   UNL A   1      40.494  24.315  27.446  1.00  0.00     0.031 C 
ATOM     49  C   UNL A   1      44.022  29.093  28.830  1.00  0.00     0.029 A 
ATOM     50  C   UNL A   1      43.172  29.985  29.605  1.00  0.00     0.049 A 
ATOM     51  H   UNL A   1      41.179  30.466  28.939  1.00  0.00     0.167 HD
ATOM     52  C   UNL A   1      42.914  23.533  27.970  1.00  0.00     0.037 A 
ATOM     53  C   UNL A   1      43.238  30.189  30.956  1.00  0.00     0.037 A 
ATOM     54  C   UNL A   1      44.051  24.177  28.640  1.00  0.00     0.049 A 
ATOM     55  C   UNL A   1      43.783  28.995  31.716  1.00  0.00     0.074 A 
ATOM     56  C   UNL A   1      45.114  24.944  28.192  1.00  0.00     0.029 A 
ATOM     57  N   UNL A   1      43.986  24.398  30.005  1.00  0.00    -0.354 N 
ATOM     58  N   UNL A   1      44.208  27.895  31.156  1.00  0.00    -0.248 NA
ATOM     59  C   UNL A   1      43.816  28.920  33.176  1.00  0.00     0.031 C 
ATOM     60  C   UNL A   1      45.661  25.651  29.306  1.00  0.00     0.029 A 
ATOM     61  C   UNL A   1      44.941  25.302  30.434  1.00  0.00     0.049 A 
ATOM     62  H   UNL A   1      43.337  23.961  30.601  1.00  0.00     0.167 HD
ATOM     63  C   UNL A   1      44.515  26.975  32.120  1.00  0.00     0.074 A 
ATOM     64  C   UNL A   1      44.252  27.665  33.371  1.00  0.00     0.031 C 
ATOM     65  C   UNL A   1      44.938  25.707  31.833  1.00  0.00     0.037 A 
BRANCH  52  66
ATOM     66  C   UNL A   1      43.037  22.390  26.990  1.00  0.00     0.064 A 
ATOM     67  C   UNL A   1      42.291  21.207  27.165  1.00  0.00     0.173 A 
ATOM     68  C   UNL A   1      43.894  22.386  25.871  1.00  0.00     0.173 A 
ATOM     69  F   UNL A   1      41.342  21.109  28.103  1.00  0.00    -0.203 F 
ATOM     70  C   UNL A   1      42.489  20.072  26.373  1.00  0.00     0.198 A 
ATOM     71  C   UNL A   1      44.136  21.234  25.116  1.00  0.00     0.198 A 
ATOM     72  F   UNL A   1      44.481  23.511  25.440  1.00  0.00    -0.203 F 
ATOM     73  F   UNL A   1      41.753  18.974  26.594  1.00  0.00    -0.200 F 
ATOM     74  C   UNL A   1      43.442  20.072  25.376  1.00  0.00     0.200 A 
ATOM     75  F   UNL A   1      45.046  21.263  24.130  1.00  0.00    -0.200 F 
ATOM     76  F   UNL A   1      43.664  18.969  24.649  1.00  0.00    -0.200 F 
ENDBRANCH  52  66
BRANCH  53  77
ATOM     77  C   UNL A   1      42.136  31.103  31.399  1.00  0.00     0.064 A 
ATOM     78  C   UNL A   1      42.223  32.443  30.965  1.00  0.00     0.173 A 
ATOM     79  C   UNL A   1      40.864  30.612  31.724  1.00  0.00     0.173 A 
ATOM     80  F   UNL A   1      43.421  32.976  30.677  1.00  0.00    -0.203 F 
ATOM     81  C   UNL A   1      41.079  33.173  30.648  1.00  0.00     0.198 A 
ATOM     82  C   UNL A   1      39.722  31.371  31.452  1.00  0.00     0.198 A 
ATOM     83  F   UNL A   1      40.712  29.358  32.173  1.00  0.00    -0.203 F 
ATOM     84  F   UNL A   1      41.195  34.369  30.052  1.00  0.00    -0.200 F 
ATOM     85  C   UNL A   1      39.830  32.617  30.849  1.00  0.00     0.200 A 
ATOM     86  F   UNL A   1      38.510  30.857  31.699  1.00  0.00    -0.200 F 
ATOM     87  F   UNL A   1      38.734  33.264  30.424  1.00  0.00    -0.200 F 
ENDBRANCH  53  77
BRANCH  65  88
ATOM     88  C   UNL A   1      45.382  24.734  32.892  1.00  0.00     0.064 A 
ATOM     89  C   UNL A   1      46.694  24.733  33.395  1.00  0.00     0.173 A 
ATOM     90  C   UNL A   1      44.548  23.692  33.352  1.00  0.00     0.173 A 
ATOM     91  F   UNL A   1      47.603  25.613  32.949  1.00  0.00    -0.203 F 
ATOM     92  C   UNL A   1      47.112  23.811  34.355  1.00  0.00     0.198 A 
ATOM     93  C   UNL A   1      44.988  22.734  34.262  1.00  0.00     0.198 A 
ATOM     94  F   UNL A   1      43.274  23.578  32.957  1.00  0.00    -0.203 F 
ATOM     95  F   UNL A   1      48.350  23.897  34.862  1.00  0.00    -0.200 F 
ATOM     96  C   UNL A   1      46.263  22.808  34.783  1.00  0.00     0.200 A 
ATOM     97  F   UNL A   1      44.163  21.745  34.634  1.00  0.00    -0.200 F 
ATOM     98  F   UNL A   1      46.671  21.914  35.693  1.00  0.00    -0.200 F 
ENDBRANCH  65  88
ENDBRANCH  39  40
ENDBRANCH  31  34
ENDBRANCH  29  30
ENDBRANCH  28  29
ENDBRANCH  27  28
ENDBRANCH   1  27
TORSDOF 16
ENDMDL
MODEL 3
REMARK VINA RESULT:     -13.6      3.487      9.881
REMARK SMILES Cc1ccc([C@H](C)Nc2ccc(C(=O)NCCCCCCNC(=O)c3ccc(-c4c5nc(c(-c6c(F)c(F)c(F)c(F)c6F)c6ccc([nH]6)c(-c6c(F)c(F)c(F)c(F)c6F)c6nc(c(-c7c(F)c(F)c(F)c(F)c7F)c7ccc4[nH]7)C=C6)C=C5)cc3)cc2Cl)cc1F
REMARK SMILES IDX 18 1 17 2 16 3 15 4 13 5 14 6 12 8 9 9 10 10 89 11 11 12
REMARK SMILES IDX 88 13 90 14 8 15 6 17 7 18 5 19 1 20 2 21 3 22 92 23 4 24
REMARK SMILES IDX 91 25 93 26 19 27 20 28 21 29 22 30 23 31 24 33 25 34 26 35
REMARK SMILES IDX 87 36 27 37 86 38 28 39 29 40 30 41 80 42 31 43 85 44 79 45
REMARK SMILES IDX 81 46 32 47 84 48 78 49 77 50 33 52 65 53 45 54 64 55 46 56
REMARK SMILES IDX 49 57 63 58 82 59 47 60 48 61 62 63 83 64 50 65 34 66 35 67
REMARK SMILES IDX 43 68 36 69 37 70 41 71 44 72 38 73 39 74 42 75 40 76 66 77
REMARK SMILES IDX 67 78 75 79 68 80 69 81 73 82 76 83 70 84 71 85 74 86 72 87
REMARK SMILES IDX 51 88 52 89 60 90 53 91 54 92 58 93 61 94 55 95 56 96 59 97
REMARK SMILES IDX 57 98
REMARK H PARENT 15 7 8 16 22 32 81 51 49 62
REMARK Flexibility Score: inf
ROOT
ATOM      1  C   UNL A   1      31.319  29.382  24.366  1.00  0.00     0.002 C 
ENDROOT
BRANCH   1   2
ATOM      2  C   UNL A   1      30.675  27.996  24.517  1.00  0.00     0.021 C 
BRANCH   2   3
ATOM      3  C   UNL A   1      30.762  27.149  23.243  1.00  0.00     0.116 C 
BRANCH   3   4
ATOM      4  N   UNL A   1      31.947  27.493  22.485  1.00  0.00    -0.352 N 
ATOM      5  C   UNL A   1      33.239  27.040  22.513  1.00  0.00     0.251 C 
ATOM      6  O   UNL A   1      34.026  27.517  21.694  1.00  0.00    -0.269 OA
ATOM      7  H   UNL A   1      31.792  28.195  21.812  1.00  0.00     0.163 HD
BRANCH   5   8
ATOM      8  C   UNL A   1      33.716  25.972  23.435  1.00  0.00     0.041 A 
ATOM      9  C   UNL A   1      34.697  24.061  25.322  1.00  0.00     0.053 A 
ATOM     10  C   UNL A   1      34.011  25.222  25.724  1.00  0.00     0.028 A 
ATOM     11  C   UNL A   1      34.904  23.909  23.940  1.00  0.00     0.065 A 
ATOM     12  C   UNL A   1      33.559  26.178  24.805  1.00  0.00     0.016 A 
ATOM     13  C   UNL A   1      34.314  24.788  23.022  1.00  0.00     0.036 A 
ATOM     14  Cl  UNL A   1      35.857  22.668  23.196  1.00  0.00    -0.082 Cl
BRANCH   9  15
ATOM     15  N   UNL A   1      35.101  23.213  26.336  1.00  0.00    -0.377 N 
ATOM     16  H   UNL A   1      35.965  23.431  26.754  1.00  0.00     0.161 HD
BRANCH  15  17
ATOM     17  C   UNL A   1      34.416  22.043  26.867  1.00  0.00     0.106 C 
ATOM     18  C   UNL A   1      33.328  22.575  27.817  1.00  0.00     0.036 C 
BRANCH  17  19
ATOM     19  C   UNL A   1      33.938  21.148  25.723  1.00  0.00    -0.023 A 
ATOM     20  C   UNL A   1      32.479  18.039  23.065  1.00  0.00     0.047 C 
ATOM     21  C   UNL A   1      32.989  19.156  23.920  1.00  0.00    -0.015 A 
ATOM     22  C   UNL A   1      32.194  20.256  24.254  1.00  0.00     0.007 A 
ATOM     23  C   UNL A   1      34.270  19.088  24.451  1.00  0.00     0.126 A 
ATOM     24  C   UNL A   1      32.659  21.235  25.148  1.00  0.00     0.006 A 
ATOM     25  C   UNL A   1      34.747  20.075  25.304  1.00  0.00     0.045 A 
ATOM     26  F   UNL A   1      35.058  18.039  24.172  1.00  0.00    -0.207 F 
ENDBRANCH  17  19
ENDBRANCH  15  17
ENDBRANCH   9  15
ENDBRANCH   5   8
ENDBRANCH   3   4
ENDBRANCH   2   3
ENDBRANCH   1   2
BRANCH   1  27
ATOM     27  C   UNL A   1      32.630  29.596  25.148  1.00  0.00     0.002 C 
BRANCH  27  28
ATOM     28  C   UNL A   1      32.497  30.340  26.480  1.00  0.00     0.021 C 
BRANCH  28  29
ATOM     29  C   UNL A   1      33.581  29.955  27.460  1.00  0.00     0.116 C 
BRANCH  29  30
ATOM     30  N   UNL A   1      34.189  31.073  28.137  1.00  0.00    -0.352 N 
ATOM     31  C   UNL A   1      35.396  31.160  28.804  1.00  0.00     0.251 C 
ATOM     32  H   UNL A   1      33.661  31.904  28.123  1.00  0.00     0.163 HD
ATOM     33  O   UNL A   1      35.616  32.145  29.467  1.00  0.00    -0.269 OA
BRANCH  31  34
ATOM     34  C   UNL A   1      36.466  30.125  28.624  1.00  0.00     0.039 A 
ATOM     35  C   UNL A   1      36.786  29.333  29.741  1.00  0.00     0.014 A 
ATOM     36  C   UNL A   1      37.261  30.022  27.486  1.00  0.00     0.014 A 
ATOM     37  C   UNL A   1      37.978  28.611  29.776  1.00  0.00     0.010 A 
ATOM     38  C   UNL A   1      38.464  29.370  27.530  1.00  0.00     0.010 A 
ATOM     39  C   UNL A   1      38.840  28.716  28.690  1.00  0.00    -0.014 A 
BRANCH  39  40
ATOM     40  C   UNL A   1      40.170  28.165  28.620  1.00  0.00     0.031 A 
ATOM     41  C   UNL A   1      40.329  26.727  28.430  1.00  0.00     0.074 A 
ATOM     42  C   UNL A   1      41.202  29.022  28.504  1.00  0.00     0.049 A 
ATOM     43  N   UNL A   1      41.323  26.051  28.878  1.00  0.00    -0.248 NA
ATOM     44  C   UNL A   1      39.353  25.934  27.694  1.00  0.00     0.031 C 
ATOM     45  C   UNL A   1      42.592  28.735  28.185  1.00  0.00     0.029 A 
ATOM     46  N   UNL A   1      41.194  30.386  28.823  1.00  0.00    -0.354 N 
ATOM     47  C   UNL A   1      41.295  24.836  28.234  1.00  0.00     0.074 A 
ATOM     48  C   UNL A   1      39.994  24.765  27.605  1.00  0.00     0.031 C 
ATOM     49  C   UNL A   1      43.345  29.754  28.637  1.00  0.00     0.029 A 
ATOM     50  C   UNL A   1      42.469  30.660  29.365  1.00  0.00     0.049 A 
ATOM     51  H   UNL A   1      40.452  31.021  28.696  1.00  0.00     0.167 HD
ATOM     52  C   UNL A   1      42.448  24.112  28.146  1.00  0.00     0.037 A 
ATOM     53  C   UNL A   1      42.542  30.953  30.699  1.00  0.00     0.037 A 
ATOM     54  C   UNL A   1      43.565  24.841  28.759  1.00  0.00     0.049 A 
ATOM     55  C   UNL A   1      43.141  29.832  31.526  1.00  0.00     0.074 A 
ATOM     56  C   UNL A   1      44.593  25.618  28.249  1.00  0.00     0.029 A 
ATOM     57  N   UNL A   1      43.507  25.146  30.108  1.00  0.00    -0.354 N 
ATOM     58  N   UNL A   1      43.603  28.716  31.031  1.00  0.00    -0.248 NA
ATOM     59  C   UNL A   1      43.193  29.852  32.987  1.00  0.00     0.031 C 
ATOM     60  C   UNL A   1      45.123  26.415  29.309  1.00  0.00     0.029 A 
ATOM     61  C   UNL A   1      44.430  26.112  30.466  1.00  0.00     0.049 A 
ATOM     62  H   UNL A   1      42.881  24.724  30.739  1.00  0.00     0.167 HD
ATOM     63  C   UNL A   1      43.957  27.872  32.048  1.00  0.00     0.074 A 
ATOM     64  C   UNL A   1      43.680  28.630  33.256  1.00  0.00     0.031 C 
ATOM     65  C   UNL A   1      44.426  26.605  31.836  1.00  0.00     0.037 A 
BRANCH  52  66
ATOM     66  C   UNL A   1      42.605  22.914  27.239  1.00  0.00     0.064 A 
ATOM     67  C   UNL A   1      41.950  21.700  27.528  1.00  0.00     0.173 A 
ATOM     68  C   UNL A   1      43.410  22.889  26.083  1.00  0.00     0.173 A 
ATOM     69  F   UNL A   1      41.052  21.606  28.516  1.00  0.00    -0.203 F 
ATOM     70  C   UNL A   1      42.190  20.529  26.805  1.00  0.00     0.198 A 
ATOM     71  C   UNL A   1      43.697  21.705  25.395  1.00  0.00     0.198 A 
ATOM     72  F   UNL A   1      43.900  24.016  25.550  1.00  0.00    -0.203 F 
ATOM     73  F   UNL A   1      41.540  19.403  27.133  1.00  0.00    -0.200 F 
ATOM     74  C   UNL A   1      43.095  20.521  25.765  1.00  0.00     0.200 A 
ATOM     75  F   UNL A   1      44.558  21.724  24.367  1.00  0.00    -0.200 F 
ATOM     76  F   UNL A   1      43.360  19.387  25.102  1.00  0.00    -0.200 F 
ENDBRANCH  52  66
BRANCH  53  77
ATOM     77  C   UNL A   1      41.410  31.850  31.098  1.00  0.00     0.064 A 
ATOM     78  C   UNL A   1      41.454  33.171  30.603  1.00  0.00     0.173 A 
ATOM     79  C   UNL A   1      40.154  31.334  31.443  1.00  0.00     0.173 A 
ATOM     80  F   UNL A   1      42.636  33.729  30.292  1.00  0.00    -0.203 F 
ATOM     81  C   UNL A   1      40.289  33.848  30.250  1.00  0.00     0.198 A 
ATOM     82  C   UNL A   1      38.988  32.042  31.135  1.00  0.00     0.198 A 
ATOM     83  F   UNL A   1      40.041  30.098  31.950  1.00  0.00    -0.203 F 
ATOM     84  F   UNL A   1      40.368  35.018  29.600  1.00  0.00    -0.200 F 
ATOM     85  C   UNL A   1      39.057  33.262  30.475  1.00  0.00     0.200 A 
ATOM     86  F   UNL A   1      37.793  31.501  31.404  1.00  0.00    -0.200 F 
ATOM     87  F   UNL A   1      37.943  33.852  30.019  1.00  0.00    -0.200 F 
ENDBRANCH  53  77
BRANCH  65  88
ATOM     88  C   UNL A   1      44.919  25.720  32.950  1.00  0.00     0.064 A 
ATOM     89  C   UNL A   1      44.066  25.268  33.971  1.00  0.00     0.173 A 
ATOM     90  C   UNL A   1      46.284  25.395  33.102  1.00  0.00     0.173 A 
ATOM     91  F   UNL A   1      42.768  25.608  33.985  1.00  0.00    -0.203 F 
ATOM     92  C   UNL A   1      44.532  24.474  35.019  1.00  0.00     0.198 A 
ATOM     93  C   UNL A   1      46.757  24.656  34.184  1.00  0.00     0.198 A 
ATOM     94  F   UNL A   1      47.204  25.759  32.200  1.00  0.00    -0.203 F 
ATOM     95  F   UNL A   1      43.667  24.002  35.928  1.00  0.00    -0.200 F 
ATOM     96  C   UNL A   1      45.876  24.173  35.130  1.00  0.00     0.200 A 
ATOM     97  F   UNL A   1      48.069  24.409  34.296  1.00  0.00    -0.200 F 
ATOM     98  F   UNL A   1      46.324  23.423  36.145  1.00  0.00    -0.200 F 
ENDBRANCH  65  88
ENDBRANCH  39  40
ENDBRANCH  31  34
ENDBRANCH  29  30
ENDBRANCH  28  29
ENDBRANCH  27  28
ENDBRANCH   1  27
TORSDOF 16
ENDMDL
