MODEL 1
REMARK VINA RESULT:     -12.4      0.000      0.000
REMARK SMILES O=C(NCCCCCCNC(=O)c1cccc2cccc(C(=O)NC3COC3)c12)c1ccc(-c2c3nc(c(-c4c(F)c(F)c(F)c(F)c4F)c4ccc([nH]4)c(-c4c(F)c(F)c(F)c(F)c4F)c4nc(c(-c5c(F)c(F)c(F)c(F)c5F)c5ccc2[nH]5)C=C4)C=C3)cc1
REMARK SMILES IDX 6 1 5 2 4 3 3 4 1 5 2 6 30 8 31 9 92 10 32 11 91 12 33 13
REMARK SMILES IDX 34 14 35 15 85 16 36 17 90 18 84 19 86 20 37 21 89 22 83 23
REMARK SMILES IDX 82 24 38 26 70 27 50 28 69 29 51 30 54 31 68 32 87 33 52 34
REMARK SMILES IDX 53 35 67 37 88 38 55 39 39 40 40 41 48 42 41 43 42 44 46 45
REMARK SMILES IDX 49 46 43 47 44 48 47 49 45 50 71 51 72 52 80 53 73 54 74 55
REMARK SMILES IDX 78 56 81 57 75 58 76 59 79 60 77 61 56 62 57 63 65 64 58 65
REMARK SMILES IDX 59 66 63 67 66 68 60 69 61 70 64 71 62 72 7 73 8 74 9 75
REMARK SMILES IDX 10 76 11 77 12 79 13 80 14 81 29 82 15 83 17 84 21 85 16 86
REMARK SMILES IDX 18 87 20 88 19 89 22 90 23 91 24 92 25 94 26 95 28 96 27 97
REMARK H PARENT 3 7 86 25 54 36 10 78 24 93
REMARK Flexibility Score: inf
ROOT
ATOM      1  C   UNL A   1      31.707  30.726  26.108  1.00  0.00     0.002 C 
ENDROOT
BRANCH   1   2
ATOM      2  C   UNL A   1      31.418  32.137  26.611  1.00  0.00     0.021 C 
BRANCH   2   3
ATOM      3  C   UNL A   1      32.594  32.868  27.236  1.00  0.00     0.116 C 
BRANCH   3   4
ATOM      4  N   UNL A   1      32.280  34.222  27.657  1.00  0.00    -0.352 N 
ATOM      5  O   UNL A   1      32.514  36.105  28.889  1.00  0.00    -0.269 OA
ATOM      6  C   UNL A   1      32.940  34.996  28.580  1.00  0.00     0.251 C 
ATOM      7  H   UNL A   1      31.499  34.637  27.226  1.00  0.00     0.163 HD
BRANCH   6   8
ATOM      8  C   UNL A   1      34.153  34.463  29.238  1.00  0.00     0.039 A 
ATOM      9  C   UNL A   1      35.420  34.661  28.681  1.00  0.00     0.014 A 
ATOM     10  C   UNL A   1      34.006  33.735  30.421  1.00  0.00     0.014 A 
ATOM     11  C   UNL A   1      36.528  34.034  29.245  1.00  0.00     0.010 A 
ATOM     12  C   UNL A   1      35.126  33.157  31.018  1.00  0.00     0.010 A 
ATOM     13  C   UNL A   1      36.391  33.282  30.422  1.00  0.00    -0.014 A 
BRANCH  13  14
ATOM     14  C   UNL A   1      37.577  32.669  31.065  1.00  0.00     0.031 A 
ATOM     15  C   UNL A   1      38.309  31.538  30.402  1.00  0.00     0.074 A 
ATOM     16  C   UNL A   1      37.958  33.105  32.278  1.00  0.00     0.049 A 
ATOM     17  N   UNL A   1      39.285  30.800  30.869  1.00  0.00    -0.248 NA
ATOM     18  C   UNL A   1      37.883  31.183  29.042  1.00  0.00     0.031 C 
ATOM     19  C   UNL A   1      37.318  34.194  33.017  1.00  0.00     0.029 A 
ATOM     20  N   UNL A   1      38.957  32.675  33.112  1.00  0.00    -0.354 N 
ATOM     21  C   UNL A   1      39.571  29.876  29.874  1.00  0.00     0.074 A 
ATOM     22  C   UNL A   1      38.658  30.139  28.781  1.00  0.00     0.031 C 
ATOM     23  C   UNL A   1      37.936  34.343  34.197  1.00  0.00     0.029 A 
ATOM     24  C   UNL A   1      38.976  33.327  34.319  1.00  0.00     0.049 A 
ATOM     25  H   UNL A   1      39.598  31.968  32.869  1.00  0.00     0.167 HD
ATOM     26  C   UNL A   1      40.509  28.899  29.877  1.00  0.00     0.037 A 
ATOM     27  C   UNL A   1      39.718  33.106  35.420  1.00  0.00     0.037 A 
ATOM     28  C   UNL A   1      41.424  28.657  30.963  1.00  0.00     0.049 A 
ATOM     29  C   UNL A   1      40.735  32.003  35.410  1.00  0.00     0.074 A 
ATOM     30  C   UNL A   1      42.446  27.728  31.041  1.00  0.00     0.029 A 
ATOM     31  N   UNL A   1      41.419  29.347  32.168  1.00  0.00    -0.354 N 
ATOM     32  N   UNL A   1      41.021  31.156  34.452  1.00  0.00    -0.248 NA
ATOM     33  C   UNL A   1      41.531  31.825  36.631  1.00  0.00     0.031 C 
ATOM     34  C   UNL A   1      43.033  27.828  32.308  1.00  0.00     0.029 A 
ATOM     35  C   UNL A   1      42.404  28.848  33.004  1.00  0.00     0.049 A 
ATOM     36  H   UNL A   1      40.805  30.082  32.394  1.00  0.00     0.167 HD
ATOM     37  C   UNL A   1      42.039  30.354  34.944  1.00  0.00     0.074 A 
ATOM     38  C   UNL A   1      42.326  30.820  36.287  1.00  0.00     0.031 C 
ATOM     39  C   UNL A   1      42.678  29.325  34.336  1.00  0.00     0.037 A 
BRANCH  26  40
ATOM     40  C   UNL A   1      40.576  27.997  28.680  1.00  0.00     0.064 A 
ATOM     41  C   UNL A   1      41.373  28.304  27.567  1.00  0.00     0.173 A 
ATOM     42  C   UNL A   1      39.854  26.794  28.658  1.00  0.00     0.173 A 
ATOM     43  F   UNL A   1      42.075  29.447  27.534  1.00  0.00    -0.203 F 
ATOM     44  C   UNL A   1      41.422  27.453  26.465  1.00  0.00     0.198 A 
ATOM     45  C   UNL A   1      39.925  25.933  27.565  1.00  0.00     0.198 A 
ATOM     46  F   UNL A   1      39.082  26.450  29.701  1.00  0.00    -0.203 F 
ATOM     47  F   UNL A   1      42.154  27.788  25.394  1.00  0.00    -0.200 F 
ATOM     48  C   UNL A   1      40.703  26.267  26.467  1.00  0.00     0.200 A 
ATOM     49  F   UNL A   1      39.237  24.783  27.574  1.00  0.00    -0.200 F 
ATOM     50  F   UNL A   1      40.751  25.449  25.407  1.00  0.00    -0.200 F 
ENDBRANCH  26  40
BRANCH  27  51
ATOM     51  C   UNL A   1      39.494  33.951  36.617  1.00  0.00     0.064 A 
ATOM     52  C   UNL A   1      38.698  33.501  37.676  1.00  0.00     0.173 A 
ATOM     53  C   UNL A   1      40.131  35.193  36.755  1.00  0.00     0.173 A 
ATOM     54  F   UNL A   1      38.058  32.326  37.581  1.00  0.00    -0.203 F 
ATOM     55  C   UNL A   1      38.550  34.261  38.834  1.00  0.00     0.198 A 
ATOM     56  C   UNL A   1      40.001  35.942  37.922  1.00  0.00     0.198 A 
ATOM     57  F   UNL A   1      40.911  35.661  35.769  1.00  0.00    -0.203 F 
ATOM     58  F   UNL A   1      37.770  33.815  39.830  1.00  0.00    -0.200 F 
ATOM     59  C   UNL A   1      39.209  35.475  38.961  1.00  0.00     0.200 A 
ATOM     60  F   UNL A   1      40.654  37.105  38.047  1.00  0.00    -0.200 F 
ATOM     61  F   UNL A   1      39.083  36.194  40.084  1.00  0.00    -0.200 F 
ENDBRANCH  27  51
BRANCH  39  62
ATOM     62  C   UNL A   1      43.775  28.650  35.102  1.00  0.00     0.064 A 
ATOM     63  C   UNL A   1      45.107  29.077  35.003  1.00  0.00     0.173 A 
ATOM     64  C   UNL A   1      43.479  27.607  35.991  1.00  0.00     0.173 A 
ATOM     65  F   UNL A   1      45.438  30.061  34.153  1.00  0.00    -0.203 F 
ATOM     66  C   UNL A   1      46.106  28.474  35.761  1.00  0.00     0.198 A 
ATOM     67  C   UNL A   1      44.478  27.020  36.763  1.00  0.00     0.198 A 
ATOM     68  F   UNL A   1      42.219  27.167  36.121  1.00  0.00    -0.203 F 
ATOM     69  F   UNL A   1      47.378  28.877  35.631  1.00  0.00    -0.200 F 
ATOM     70  C   UNL A   1      45.790  27.453  36.645  1.00  0.00     0.200 A 
ATOM     71  F   UNL A   1      44.170  26.040  37.622  1.00  0.00    -0.200 F 
ATOM     72  F   UNL A   1      46.753  26.882  37.383  1.00  0.00    -0.200 F 
ENDBRANCH  39  62
ENDBRANCH  13  14
ENDBRANCH   6   8
ENDBRANCH   3   4
ENDBRANCH   2   3
ENDBRANCH   1   2
BRANCH   1  73
ATOM     73  C   UNL A   1      31.985  29.652  27.165  1.00  0.00     0.002 C 
BRANCH  73  74
ATOM     74  C   UNL A   1      33.428  29.170  27.370  1.00  0.00     0.021 C 
BRANCH  74  75
ATOM     75  C   UNL A   1      34.244  28.785  26.140  1.00  0.00     0.116 C 
BRANCH  75  76
ATOM     76  N   UNL A   1      34.058  27.426  25.701  1.00  0.00    -0.352 N 
ATOM     77  C   UNL A   1      33.449  27.014  24.555  1.00  0.00     0.251 C 
ATOM     78  H   UNL A   1      34.408  26.720  26.292  1.00  0.00     0.163 HD
ATOM     79  O   UNL A   1      33.846  26.005  23.982  1.00  0.00    -0.269 OA
BRANCH  77  80
ATOM     80  C   UNL A   1      32.329  27.762  23.974  1.00  0.00     0.048 A 
ATOM     81  C   UNL A   1      32.692  28.806  23.111  1.00  0.00     0.014 A 
ATOM     82  C   UNL A   1      30.984  27.282  24.082  1.00  0.00     0.007 A 
ATOM     83  C   UNL A   1      31.723  29.432  22.344  1.00  0.00     0.001 A 
ATOM     84  C   UNL A   1      30.028  27.926  23.250  1.00  0.00    -0.017 A 
ATOM     85  C   UNL A   1      30.494  26.236  24.936  1.00  0.00     0.048 A 
ATOM     86  C   UNL A   1      30.404  28.990  22.413  1.00  0.00     0.009 A 
ATOM     87  C   UNL A   1      28.682  27.517  23.258  1.00  0.00     0.009 A 
ATOM     88  C   UNL A   1      29.144  25.844  24.920  1.00  0.00     0.014 A 
ATOM     89  C   UNL A   1      28.244  26.477  24.072  1.00  0.00     0.001 A 
BRANCH  85  90
ATOM     90  C   UNL A   1      31.225  25.846  26.151  1.00  0.00     0.252 C 
ATOM     91  O   UNL A   1      31.201  26.635  27.097  1.00  0.00    -0.269 OA
ATOM     92  N   UNL A   1      31.858  24.645  26.320  1.00  0.00    -0.345 N 
ATOM     93  H   UNL A   1      32.228  24.545  27.227  1.00  0.00     0.164 HD
BRANCH  92  94
ATOM     94  C   UNL A   1      32.121  23.467  25.478  1.00  0.00     0.134 C 
ATOM     95  C   UNL A   1      30.957  22.452  25.507  1.00  0.00     0.187 C 
ATOM     96  C   UNL A   1      32.965  22.265  25.902  1.00  0.00     0.187 C 
ATOM     97  O   UNL A   1      31.888  21.344  25.560  1.00  0.00    -0.377 OA
ENDBRANCH  92  94
ENDBRANCH  85  90
ENDBRANCH  77  80
ENDBRANCH  75  76
ENDBRANCH  74  75
ENDBRANCH  73  74
ENDBRANCH   1  73
TORSDOF 15
ENDMDL
MODEL 2
REMARK VINA RESULT:     -12.3      0.313      1.596
REMARK SMILES O=C(NCCCCCCNC(=O)c1cccc2cccc(C(=O)NC3COC3)c12)c1ccc(-c2c3nc(c(-c4c(F)c(F)c(F)c(F)c4F)c4ccc([nH]4)c(-c4c(F)c(F)c(F)c(F)c4F)c4nc(c(-c5c(F)c(F)c(F)c(F)c5F)c5ccc2[nH]5)C=C4)C=C3)cc1
REMARK SMILES IDX 6 1 5 2 4 3 3 4 1 5 2 6 30 8 31 9 92 10 32 11 91 12 33 13
REMARK SMILES IDX 34 14 35 15 85 16 36 17 90 18 84 19 86 20 37 21 89 22 83 23
REMARK SMILES IDX 82 24 38 26 70 27 50 28 69 29 51 30 54 31 68 32 87 33 52 34
REMARK SMILES IDX 53 35 67 37 88 38 55 39 39 40 40 41 48 42 41 43 42 44 46 45
REMARK SMILES IDX 49 46 43 47 44 48 47 49 45 50 71 51 72 52 80 53 73 54 74 55
REMARK SMILES IDX 78 56 81 57 75 58 76 59 79 60 77 61 56 62 57 63 65 64 58 65
REMARK SMILES IDX 59 66 63 67 66 68 60 69 61 70 64 71 62 72 7 73 8 74 9 75
REMARK SMILES IDX 10 76 11 77 12 79 13 80 14 81 29 82 15 83 17 84 21 85 16 86
REMARK SMILES IDX 18 87 20 88 19 89 22 90 23 91 24 92 25 94 26 95 28 96 27 97
REMARK H PARENT 3 7 86 25 54 36 10 78 24 93
REMARK Flexibility Score: inf
ROOT
ATOM      1  C   UNL A   1      31.680  30.681  26.101  1.00  0.00     0.002 C 
ENDROOT
BRANCH   1   2
ATOM      2  C   UNL A   1      31.403  32.099  26.589  1.00  0.00     0.021 C 
BRANCH   2   3
ATOM      3  C   UNL A   1      32.573  32.809  27.251  1.00  0.00     0.116 C 
BRANCH   3   4
ATOM      4  N   UNL A   1      32.276  34.173  27.649  1.00  0.00    -0.352 N 
ATOM      5  O   UNL A   1      32.534  36.074  28.849  1.00  0.00    -0.269 OA
ATOM      6  C   UNL A   1      32.947  34.955  28.557  1.00  0.00     0.251 C 
ATOM      7  H   UNL A   1      31.498  34.590  27.214  1.00  0.00     0.163 HD
BRANCH   6   8
ATOM      8  C   UNL A   1      34.156  34.420  29.221  1.00  0.00     0.039 A 
ATOM      9  C   UNL A   1      35.426  34.618  28.672  1.00  0.00     0.014 A 
ATOM     10  C   UNL A   1      34.001  33.689  30.401  1.00  0.00     0.014 A 
ATOM     11  C   UNL A   1      36.531  33.989  29.240  1.00  0.00     0.010 A 
ATOM     12  C   UNL A   1      35.118  33.109  31.003  1.00  0.00     0.010 A 
ATOM     13  C   UNL A   1      36.386  33.234  30.415  1.00  0.00    -0.014 A 
BRANCH  13  14
ATOM     14  C   UNL A   1      37.568  32.618  31.063  1.00  0.00     0.031 A 
ATOM     15  C   UNL A   1      38.295  31.480  30.408  1.00  0.00     0.074 A 
ATOM     16  C   UNL A   1      37.951  33.060  32.274  1.00  0.00     0.049 A 
ATOM     17  N   UNL A   1      39.266  30.739  30.881  1.00  0.00    -0.248 NA
ATOM     18  C   UNL A   1      37.868  31.118  29.049  1.00  0.00     0.031 C 
ATOM     19  C   UNL A   1      37.315  34.158  33.005  1.00  0.00     0.029 A 
ATOM     20  N   UNL A   1      38.946  32.630  33.111  1.00  0.00    -0.354 N 
ATOM     21  C   UNL A   1      39.548  29.807  29.892  1.00  0.00     0.074 A 
ATOM     22  C   UNL A   1      38.638  30.068  28.796  1.00  0.00     0.031 C 
ATOM     23  C   UNL A   1      37.933  34.311  34.185  1.00  0.00     0.029 A 
ATOM     24  C   UNL A   1      38.967  33.289  34.315  1.00  0.00     0.049 A 
ATOM     25  H   UNL A   1      39.583  31.918  32.874  1.00  0.00     0.167 HD
ATOM     26  C   UNL A   1      40.480  28.825  29.903  1.00  0.00     0.037 A 
ATOM     27  C   UNL A   1      39.707  33.072  35.417  1.00  0.00     0.037 A 
ATOM     28  C   UNL A   1      41.393  28.585  30.991  1.00  0.00     0.049 A 
ATOM     29  C   UNL A   1      40.718  31.963  35.416  1.00  0.00     0.074 A 
ATOM     30  C   UNL A   1      42.410  27.652  31.076  1.00  0.00     0.029 A 
ATOM     31  N   UNL A   1      41.390  29.282  32.191  1.00  0.00    -0.354 N 
ATOM     32  N   UNL A   1      41.000  31.108  34.464  1.00  0.00    -0.248 NA
ATOM     33  C   UNL A   1      41.511  31.788  36.638  1.00  0.00     0.031 C 
ATOM     34  C   UNL A   1      42.996  27.755  32.343  1.00  0.00     0.029 A 
ATOM     35  C   UNL A   1      42.372  28.783  33.031  1.00  0.00     0.049 A 
ATOM     36  H   UNL A   1      40.780  30.023  32.412  1.00  0.00     0.167 HD
ATOM     37  C   UNL A   1      42.013  30.304  34.962  1.00  0.00     0.074 A 
ATOM     38  C   UNL A   1      42.301  30.777  36.302  1.00  0.00     0.031 C 
ATOM     39  C   UNL A   1      42.647  29.268  34.361  1.00  0.00     0.037 A 
BRANCH  26  40
ATOM     40  C   UNL A   1      40.544  27.916  28.711  1.00  0.00     0.064 A 
ATOM     41  C   UNL A   1      39.824  26.714  28.657  1.00  0.00     0.173 A 
ATOM     42  C   UNL A   1      41.317  28.268  27.593  1.00  0.00     0.173 A 
ATOM     43  F   UNL A   1      39.078  26.328  29.704  1.00  0.00    -0.203 F 
ATOM     44  C   UNL A   1      39.896  25.884  27.541  1.00  0.00     0.198 A 
ATOM     45  C   UNL A   1      41.367  27.448  26.467  1.00  0.00     0.198 A 
ATOM     46  F   UNL A   1      42.020  29.411  27.589  1.00  0.00    -0.203 F 
ATOM     47  F   UNL A   1      39.234  24.718  27.531  1.00  0.00    -0.200 F 
ATOM     48  C   UNL A   1      40.663  26.253  26.446  1.00  0.00     0.200 A 
ATOM     49  F   UNL A   1      42.100  27.812  25.407  1.00  0.00    -0.200 F 
ATOM     50  F   UNL A   1      40.731  25.454  25.373  1.00  0.00    -0.200 F 
ENDBRANCH  26  40
BRANCH  27  51
ATOM     51  C   UNL A   1      39.486  33.926  36.609  1.00  0.00     0.064 A 
ATOM     52  C   UNL A   1      38.690  33.484  37.673  1.00  0.00     0.173 A 
ATOM     53  C   UNL A   1      40.126  35.167  36.737  1.00  0.00     0.173 A 
ATOM     54  F   UNL A   1      38.048  32.309  37.586  1.00  0.00    -0.203 F 
ATOM     55  C   UNL A   1      38.545  34.252  38.826  1.00  0.00     0.198 A 
ATOM     56  C   UNL A   1      39.998  35.924  37.899  1.00  0.00     0.198 A 
ATOM     57  F   UNL A   1      40.905  35.627  35.747  1.00  0.00    -0.203 F 
ATOM     58  F   UNL A   1      37.767  33.815  39.825  1.00  0.00    -0.200 F 
ATOM     59  C   UNL A   1      39.207  35.466  38.942  1.00  0.00     0.200 A 
ATOM     60  F   UNL A   1      40.654  37.087  38.015  1.00  0.00    -0.200 F 
ATOM     61  F   UNL A   1      39.084  36.193  40.061  1.00  0.00    -0.200 F 
ENDBRANCH  27  51
BRANCH  39  62
ATOM     62  C   UNL A   1      43.739  28.592  35.132  1.00  0.00     0.064 A 
ATOM     63  C   UNL A   1      43.494  27.440  35.892  1.00  0.00     0.173 A 
ATOM     64  C   UNL A   1      45.057  29.068  35.059  1.00  0.00     0.173 A 
ATOM     65  F   UNL A   1      42.246  26.959  36.004  1.00  0.00    -0.203 F 
ATOM     66  C   UNL A   1      44.529  26.793  36.561  1.00  0.00     0.198 A 
ATOM     67  C   UNL A   1      46.093  28.406  35.712  1.00  0.00     0.198 A 
ATOM     68  F   UNL A   1      45.340  30.165  34.342  1.00  0.00    -0.203 F 
ATOM     69  F   UNL A   1      44.269  25.709  37.305  1.00  0.00    -0.200 F 
ATOM     70  C   UNL A   1      45.827  27.271  36.464  1.00  0.00     0.200 A 
ATOM     71  F   UNL A   1      47.348  28.864  35.611  1.00  0.00    -0.200 F 
ATOM     72  F   UNL A   1      46.824  26.639  37.099  1.00  0.00    -0.200 F 
ENDBRANCH  39  62
ENDBRANCH  13  14
ENDBRANCH   6   8
ENDBRANCH   3   4
ENDBRANCH   2   3
ENDBRANCH   1   2
BRANCH   1  73
ATOM     73  C   UNL A   1      31.915  29.608  27.168  1.00  0.00     0.002 C 
BRANCH  73  74
ATOM     74  C   UNL A   1      33.299  28.949  27.265  1.00  0.00     0.021 C 
BRANCH  74  75
ATOM     75  C   UNL A   1      34.030  28.611  25.970  1.00  0.00     0.116 C 
BRANCH  75  76
ATOM     76  N   UNL A   1      33.755  27.295  25.453  1.00  0.00    -0.352 N 
ATOM     77  C   UNL A   1      33.081  26.991  24.309  1.00  0.00     0.251 C 
ATOM     78  H   UNL A   1      34.088  26.535  25.984  1.00  0.00     0.163 HD
ATOM     79  O   UNL A   1      33.402  26.003  23.658  1.00  0.00    -0.269 OA
BRANCH  77  80
ATOM     80  C   UNL A   1      31.983  27.833  23.823  1.00  0.00     0.048 A 
ATOM     81  C   UNL A   1      32.374  28.940  23.056  1.00  0.00     0.014 A 
ATOM     82  C   UNL A   1      30.623  27.396  23.910  1.00  0.00     0.007 A 
ATOM     83  C   UNL A   1      31.419  29.673  22.371  1.00  0.00     0.001 A 
ATOM     84  C   UNL A   1      29.679  28.151  23.161  1.00  0.00    -0.017 A 
ATOM     85  C   UNL A   1      30.104  26.292  24.669  1.00  0.00     0.048 A 
ATOM     86  C   UNL A   1      30.085  29.276  22.422  1.00  0.00     0.009 A 
ATOM     87  C   UNL A   1      28.320  27.795  23.155  1.00  0.00     0.009 A 
ATOM     88  C   UNL A   1      28.740  25.954  24.642  1.00  0.00     0.014 A 
ATOM     89  C   UNL A   1      27.853  26.699  23.875  1.00  0.00     0.001 A 
BRANCH  85  90
ATOM     90  C   UNL A   1      30.838  25.760  25.828  1.00  0.00     0.252 C 
ATOM     91  O   UNL A   1      30.934  26.492  26.814  1.00  0.00    -0.269 OA
ATOM     92  N   UNL A   1      31.349  24.494  25.904  1.00  0.00    -0.345 N 
ATOM     93  H   UNL A   1      31.741  24.304  26.788  1.00  0.00     0.164 HD
BRANCH  92  94
ATOM     94  C   UNL A   1      31.454  23.345  24.991  1.00  0.00     0.134 C 
ATOM     95  C   UNL A   1      31.414  21.993  25.738  1.00  0.00     0.187 C 
ATOM     96  C   UNL A   1      32.764  22.804  24.419  1.00  0.00     0.187 C 
ATOM     97  O   UNL A   1      32.452  21.458  24.883  1.00  0.00    -0.377 OA
ENDBRANCH  92  94
ENDBRANCH  85  90
ENDBRANCH  77  80
ENDBRANCH  75  76
ENDBRANCH  74  75
ENDBRANCH  73  74
ENDBRANCH   1  73
TORSDOF 15
ENDMDL
MODEL 3
REMARK VINA RESULT:     -12.2      5.556     11.200
REMARK SMILES O=C(NCCCCCCNC(=O)c1cccc2cccc(C(=O)NC3COC3)c12)c1ccc(-c2c3nc(c(-c4c(F)c(F)c(F)c(F)c4F)c4ccc([nH]4)c(-c4c(F)c(F)c(F)c(F)c4F)c4nc(c(-c5c(F)c(F)c(F)c(F)c5F)c5ccc2[nH]5)C=C4)C=C3)cc1
REMARK SMILES IDX 6 1 5 2 4 3 3 4 1 5 2 6 30 8 31 9 92 10 32 11 91 12 33 13
REMARK SMILES IDX 34 14 35 15 85 16 36 17 90 18 84 19 86 20 37 21 89 22 83 23
REMARK SMILES IDX 82 24 38 26 70 27 50 28 69 29 51 30 54 31 68 32 87 33 52 34
REMARK SMILES IDX 53 35 67 37 88 38 55 39 39 40 40 41 48 42 41 43 42 44 46 45
REMARK SMILES IDX 49 46 43 47 44 48 47 49 45 50 71 51 72 52 80 53 73 54 74 55
REMARK SMILES IDX 78 56 81 57 75 58 76 59 79 60 77 61 56 62 57 63 65 64 58 65
REMARK SMILES IDX 59 66 63 67 66 68 60 69 61 70 64 71 62 72 7 73 8 74 9 75
REMARK SMILES IDX 10 76 11 77 12 79 13 80 14 81 29 82 15 83 17 84 21 85 16 86
REMARK SMILES IDX 18 87 20 88 19 89 22 90 23 91 24 92 25 94 26 95 28 96 27 97
REMARK H PARENT 3 7 86 25 54 36 10 78 24 93
REMARK Flexibility Score: inf
ROOT
ATOM      1  C   UNL A   1      36.986  20.635  25.008  1.00  0.00     0.002 C 
ENDROOT
BRANCH   1   2
ATOM      2  C   UNL A   1      38.150  19.655  24.912  1.00  0.00     0.021 C 
BRANCH   2   3
ATOM      3  C   UNL A   1      39.344  19.961  25.802  1.00  0.00     0.116 C 
BRANCH   3   4
ATOM      4  N   UNL A   1      40.382  18.947  25.751  1.00  0.00    -0.352 N 
ATOM      5  O   UNL A   1      42.504  18.163  25.811  1.00  0.00    -0.269 OA
ATOM      6  C   UNL A   1      41.731  19.105  25.960  1.00  0.00     0.251 C 
ATOM      7  H   UNL A   1      40.083  18.033  25.542  1.00  0.00     0.163 HD
BRANCH   6   8
ATOM      8  C   UNL A   1      42.256  20.438  26.325  1.00  0.00     0.039 A 
ATOM      9  C   UNL A   1      42.280  20.862  27.658  1.00  0.00     0.014 A 
ATOM     10  C   UNL A   1      42.710  21.279  25.307  1.00  0.00     0.014 A 
ATOM     11  C   UNL A   1      42.650  22.170  27.960  1.00  0.00     0.010 A 
ATOM     12  C   UNL A   1      43.138  22.570  25.619  1.00  0.00     0.010 A 
ATOM     13  C   UNL A   1      43.088  23.032  26.943  1.00  0.00    -0.014 A 
BRANCH  13  14
ATOM     14  C   UNL A   1      43.548  24.403  27.267  1.00  0.00     0.031 A 
ATOM     15  C   UNL A   1      42.587  25.432  27.788  1.00  0.00     0.074 A 
ATOM     16  C   UNL A   1      44.832  24.730  27.038  1.00  0.00     0.049 A 
ATOM     17  N   UNL A   1      42.781  26.708  28.006  1.00  0.00    -0.248 NA
ATOM     18  C   UNL A   1      41.226  24.969  28.093  1.00  0.00     0.031 C 
ATOM     19  C   UNL A   1      45.853  23.813  26.529  1.00  0.00     0.029 A 
ATOM     20  N   UNL A   1      45.492  25.923  27.179  1.00  0.00    -0.354 N 
ATOM     21  C   UNL A   1      41.563  27.207  28.446  1.00  0.00     0.074 A 
ATOM     22  C   UNL A   1      40.632  26.098  28.454  1.00  0.00     0.031 C 
ATOM     23  C   UNL A   1      47.010  24.478  26.396  1.00  0.00     0.029 A 
ATOM     24  C   UNL A   1      46.797  25.876  26.755  1.00  0.00     0.049 A 
ATOM     25  H   UNL A   1      45.072  26.734  27.547  1.00  0.00     0.167 HD
ATOM     26  C   UNL A   1      41.255  28.475  28.808  1.00  0.00     0.037 A 
ATOM     27  C   UNL A   1      47.710  26.856  26.629  1.00  0.00     0.037 A 
ATOM     28  C   UNL A   1      42.193  29.568  28.813  1.00  0.00     0.049 A 
ATOM     29  C   UNL A   1      47.340  28.258  27.013  1.00  0.00     0.074 A 
ATOM     30  C   UNL A   1      41.994  30.877  29.214  1.00  0.00     0.029 A 
ATOM     31  N   UNL A   1      43.511  29.479  28.386  1.00  0.00    -0.354 N 
ATOM     32  N   UNL A   1      46.196  28.714  27.460  1.00  0.00    -0.248 NA
ATOM     33  C   UNL A   1      48.384  29.281  26.876  1.00  0.00     0.031 C 
ATOM     34  C   UNL A   1      43.177  31.589  28.992  1.00  0.00     0.029 A 
ATOM     35  C   UNL A   1      44.128  30.714  28.491  1.00  0.00     0.049 A 
ATOM     36  H   UNL A   1      43.942  28.658  28.057  1.00  0.00     0.167 HD
ATOM     37  C   UNL A   1      46.383  30.070  27.674  1.00  0.00     0.074 A 
ATOM     38  C   UNL A   1      47.756  30.364  27.313  1.00  0.00     0.031 C 
ATOM     39  C   UNL A   1      45.496  30.988  28.130  1.00  0.00     0.037 A 
BRANCH  26  40
ATOM     40  C   UNL A   1      39.835  28.758  29.203  1.00  0.00     0.064 A 
ATOM     41  C   UNL A   1      39.398  28.634  30.530  1.00  0.00     0.173 A 
ATOM     42  C   UNL A   1      38.906  29.188  28.243  1.00  0.00     0.173 A 
ATOM     43  F   UNL A   1      40.245  28.217  31.483  1.00  0.00    -0.203 F 
ATOM     44  C   UNL A   1      38.076  28.903  30.876  1.00  0.00     0.198 A 
ATOM     45  C   UNL A   1      37.590  29.480  28.598  1.00  0.00     0.198 A 
ATOM     46  F   UNL A   1      39.274  29.330  26.961  1.00  0.00    -0.203 F 
ATOM     47  F   UNL A   1      37.669  28.734  32.142  1.00  0.00    -0.200 F 
ATOM     48  C   UNL A   1      37.175  29.329  29.912  1.00  0.00     0.200 A 
ATOM     49  F   UNL A   1      36.724  29.902  27.666  1.00  0.00    -0.200 F 
ATOM     50  F   UNL A   1      35.903  29.588  30.247  1.00  0.00    -0.200 F 
ENDBRANCH  26  40
BRANCH  27  51
ATOM     51  C   UNL A   1      49.052  26.521  26.096  1.00  0.00     0.064 A 
ATOM     52  C   UNL A   1      49.386  26.796  24.764  1.00  0.00     0.173 A 
ATOM     53  C   UNL A   1      50.048  25.987  26.927  1.00  0.00     0.173 A 
ATOM     54  F   UNL A   1      48.460  27.293  23.930  1.00  0.00    -0.203 F 
ATOM     55  C   UNL A   1      50.671  26.553  24.283  1.00  0.00     0.198 A 
ATOM     56  C   UNL A   1      51.338  25.766  26.451  1.00  0.00     0.198 A 
ATOM     57  F   UNL A   1      49.776  25.716  28.212  1.00  0.00    -0.203 F 
ATOM     58  F   UNL A   1      50.963  26.811  23.001  1.00  0.00    -0.200 F 
ATOM     59  C   UNL A   1      51.648  26.049  25.129  1.00  0.00     0.200 A 
ATOM     60  F   UNL A   1      52.283  25.296  27.276  1.00  0.00    -0.200 F 
ATOM     61  F   UNL A   1      52.889  25.837  24.671  1.00  0.00    -0.200 F 
ENDBRANCH  27  51
BRANCH  39  62
ATOM     62  C   UNL A   1      45.988  32.394  28.297  1.00  0.00     0.064 A 
ATOM     63  C   UNL A   1      46.611  32.817  29.480  1.00  0.00     0.173 A 
ATOM     64  C   UNL A   1      45.891  33.308  27.237  1.00  0.00     0.173 A 
ATOM     65  F   UNL A   1      46.711  31.980  30.525  1.00  0.00    -0.203 F 
ATOM     66  C   UNL A   1      47.110  34.110  29.600  1.00  0.00     0.198 A 
ATOM     67  C   UNL A   1      46.411  34.594  27.353  1.00  0.00     0.198 A 
ATOM     68  F   UNL A   1      45.307  32.948  26.085  1.00  0.00    -0.203 F 
ATOM     69  F   UNL A   1      47.676  34.503  30.749  1.00  0.00    -0.200 F 
ATOM     70  C   UNL A   1      47.017  34.994  28.535  1.00  0.00     0.200 A 
ATOM     71  F   UNL A   1      46.328  35.445  26.322  1.00  0.00    -0.200 F 
ATOM     72  F   UNL A   1      47.509  36.235  28.649  1.00  0.00    -0.200 F 
ENDBRANCH  39  62
ENDBRANCH  13  14
ENDBRANCH   6   8
ENDBRANCH   3   4
ENDBRANCH   2   3
ENDBRANCH   1   2
BRANCH   1  73
ATOM     73  C   UNL A   1      37.091  21.925  24.189  1.00  0.00     0.002 C 
BRANCH  73  74
ATOM     74  C   UNL A   1      37.396  23.242  24.916  1.00  0.00     0.021 C 
BRANCH  74  75
ATOM     75  C   UNL A   1      36.545  23.615  26.126  1.00  0.00     0.116 C 
BRANCH  75  76
ATOM     76  N   UNL A   1      35.309  24.280  25.805  1.00  0.00    -0.352 N 
ATOM     77  C   UNL A   1      34.057  23.744  25.851  1.00  0.00     0.251 C 
ATOM     78  H   UNL A   1      35.375  25.221  25.522  1.00  0.00     0.163 HD
ATOM     79  O   UNL A   1      33.104  24.449  26.162  1.00  0.00    -0.269 OA
BRANCH  77  80
ATOM     80  C   UNL A   1      33.821  22.328  25.551  1.00  0.00     0.048 A 
ATOM     81  C   UNL A   1      33.983  21.453  26.635  1.00  0.00     0.014 A 
ATOM     82  C   UNL A   1      33.219  21.924  24.317  1.00  0.00     0.007 A 
ATOM     83  C   UNL A   1      33.578  20.133  26.520  1.00  0.00     0.001 A 
ATOM     84  C   UNL A   1      32.781  20.573  24.253  1.00  0.00    -0.017 A 
ATOM     85  C   UNL A   1      33.013  22.723  23.140  1.00  0.00     0.048 A 
ATOM     86  C   UNL A   1      32.979  19.702  25.339  1.00  0.00     0.009 A 
ATOM     87  C   UNL A   1      32.153  20.078  23.097  1.00  0.00     0.009 A 
ATOM     88  C   UNL A   1      32.377  22.204  21.999  1.00  0.00     0.014 A 
ATOM     89  C   UNL A   1      31.938  20.886  21.985  1.00  0.00     0.001 A 
BRANCH  85  90
ATOM     90  C   UNL A   1      33.825  23.923  22.889  1.00  0.00     0.252 C 
ATOM     91  O   UNL A   1      35.004  23.747  22.581  1.00  0.00    -0.269 OA
ATOM     92  N   UNL A   1      33.339  25.202  22.906  1.00  0.00    -0.345 N 
ATOM     93  H   UNL A   1      34.021  25.861  22.643  1.00  0.00     0.164 HD
BRANCH  92  94
ATOM     94  C   UNL A   1      32.047  25.832  23.218  1.00  0.00     0.134 C 
ATOM     95  C   UNL A   1      31.443  26.570  22.001  1.00  0.00     0.187 C 
ATOM     96  C   UNL A   1      31.882  27.184  23.912  1.00  0.00     0.187 C 
ATOM     97  O   UNL A   1      31.017  27.667  22.844  1.00  0.00    -0.377 OA
ENDBRANCH  92  94
ENDBRANCH  85  90
ENDBRANCH  77  80
ENDBRANCH  75  76
ENDBRANCH  74  75
ENDBRANCH  73  74
ENDBRANCH   1  73
TORSDOF 15
ENDMDL
