MODEL 1
REMARK VINA RESULT:      -9.1      0.000      0.000
REMARK SMILES CN(C)Nc1ncnc(Nc2ccc(C(=O)NCCCCCCNC(=O)c3ccc(-c4c5nc(c(-c6c(F)c(F)c(F)c(F)c6F)c6ccc([nH]6)c(-c6c(F)c(F)c(F)c(F)c6F)c6nc(c(-c7c(F)c(F)c(F)c(F)c7F)c7ccc4[nH]7)C=C6)C=C5)cc3)cc2)c1[N+](=O)[O-]
REMARK SMILES IDX 19 1 18 2 17 3 15 4 16 5 14 7 11 8 12 9 91 10 13 11 90 12
REMARK SMILES IDX 10 13 9 15 5 16 6 17 92 18 7 19 8 20 4 21 2 23 1 24 3 25
REMARK SMILES IDX 93 26 94 27 95 28 20 29 21 30 22 31 23 32 24 33 25 34 26 36
REMARK SMILES IDX 27 37 28 38 89 39 29 40 88 41 30 42 31 43 32 44 82 45 33 46
REMARK SMILES IDX 87 47 81 48 83 49 34 50 86 51 80 52 79 53 35 55 67 56 47 57
REMARK SMILES IDX 66 58 48 59 51 60 65 61 84 62 49 63 50 64 64 66 85 67 52 68
REMARK SMILES IDX 36 69 37 70 45 71 38 72 39 73 43 74 46 75 40 76 41 77 44 78
REMARK SMILES IDX 42 79 68 80 69 81 77 82 70 83 71 84 75 85 78 86 72 87 73 88
REMARK SMILES IDX 76 89 74 90 53 91 54 92 62 93 55 94 56 95 60 96 63 97 57 98
REMARK SMILES IDX 58 99 61 100 59 101
REMARK H PARENT 17 6 10 14 4 22 24 35 83 54 51 65
REMARK Flexibility Score: inf
ROOT
ATOM      1  C   UNL A   1      44.580  23.891  28.534  1.00  0.00     0.021 C 
ENDROOT
BRANCH   1   2
ATOM      2  C   UNL A   1      45.367  24.691  27.494  1.00  0.00     0.116 C 
BRANCH   2   3
ATOM      3  N   UNL A   1      44.531  24.929  26.334  1.00  0.00    -0.352 N 
ATOM      4  C   UNL A   1      44.144  26.069  25.680  1.00  0.00     0.251 C 
ATOM      5  O   UNL A   1      43.361  25.945  24.739  1.00  0.00    -0.269 OA
ATOM      6  H   UNL A   1      44.169  24.104  25.934  1.00  0.00     0.163 HD
BRANCH   4   7
ATOM      7  C   UNL A   1      44.682  27.418  26.001  1.00  0.00     0.039 A 
ATOM      8  C   UNL A   1      45.434  30.095  26.485  1.00  0.00     0.040 A 
ATOM      9  C   UNL A   1      44.174  29.640  26.868  1.00  0.00     0.027 A 
ATOM     10  C   UNL A   1      46.354  29.171  25.975  1.00  0.00     0.027 A 
ATOM     11  C   UNL A   1      43.793  28.320  26.605  1.00  0.00     0.016 A 
ATOM     12  C   UNL A   1      45.991  27.836  25.760  1.00  0.00     0.016 A 
BRANCH   8  13
ATOM     13  N   UNL A   1      45.794  31.434  26.726  1.00  0.00    -0.334 N 
ATOM     14  H   UNL A   1      46.661  31.597  27.162  1.00  0.00     0.168 HD
BRANCH  13  15
ATOM     15  C   UNL A   1      45.018  32.563  26.393  1.00  0.00     0.215 A 
ATOM     16  C   UNL A   1      43.724  34.485  26.921  1.00  0.00     0.225 A 
ATOM     17  N   UNL A   1      43.559  34.747  25.606  1.00  0.00    -0.212 NA
ATOM     18  C   UNL A   1      44.366  33.338  27.340  1.00  0.00     0.354 A 
ATOM     19  C   UNL A   1      44.134  33.907  24.746  1.00  0.00     0.227 A 
ATOM     20  N   UNL A   1      44.889  32.858  25.079  1.00  0.00    -0.212 NA
BRANCH  16  21
ATOM     21  N   UNL A   1      43.302  35.547  27.727  1.00  0.00    -0.298 N 
ATOM     22  H   UNL A   1      43.975  35.976  28.303  1.00  0.00     0.184 HD
BRANCH  21  23
ATOM     23  N   UNL A   1      41.978  36.054  27.778  1.00  0.00    -0.228 NA
ATOM     24  C   UNL A   1      41.184  35.394  28.829  1.00  0.00     0.130 C 
ATOM     25  C   UNL A   1      42.079  37.485  28.121  1.00  0.00     0.130 C 
ENDBRANCH  21  23
ENDBRANCH  16  21
BRANCH  18  26
ATOM     26  N   UNL A   1      44.340  32.931  28.712  1.00  0.00     0.070 N 
ATOM     27  O   UNL A   1      45.435  32.836  29.292  1.00  0.00    -0.258 OA
ATOM     28  O   UNL A   1      43.252  32.588  29.191  1.00  0.00    -0.258 OA
ENDBRANCH  18  26
ENDBRANCH  13  15
ENDBRANCH   8  13
ENDBRANCH   4   7
ENDBRANCH   2   3
ENDBRANCH   1   2
BRANCH   1  29
ATOM     29  C   UNL A   1      43.086  23.777  28.196  1.00  0.00     0.002 C 
BRANCH  29  30
ATOM     30  C   UNL A   1      42.369  22.592  28.855  1.00  0.00     0.002 C 
BRANCH  30  31
ATOM     31  C   UNL A   1      41.503  21.758  27.907  1.00  0.00     0.021 C 
BRANCH  31  32
ATOM     32  C   UNL A   1      41.477  22.276  26.474  1.00  0.00     0.116 C 
BRANCH  32  33
ATOM     33  N   UNL A   1      40.123  22.334  25.948  1.00  0.00    -0.352 N 
ATOM     34  C   UNL A   1      39.127  23.240  26.212  1.00  0.00     0.251 C 
ATOM     35  H   UNL A   1      39.886  21.621  25.311  1.00  0.00     0.163 HD
ATOM     36  O   UNL A   1      37.972  23.012  25.871  1.00  0.00    -0.269 OA
BRANCH  34  37
ATOM     37  C   UNL A   1      39.451  24.493  26.924  1.00  0.00     0.039 A 
ATOM     38  C   UNL A   1      39.037  24.648  28.248  1.00  0.00     0.014 A 
ATOM     39  C   UNL A   1      40.150  25.518  26.278  1.00  0.00     0.014 A 
ATOM     40  C   UNL A   1      39.367  25.812  28.943  1.00  0.00     0.010 A 
ATOM     41  C   UNL A   1      40.541  26.646  26.993  1.00  0.00     0.010 A 
ATOM     42  C   UNL A   1      40.147  26.807  28.330  1.00  0.00    -0.014 A 
BRANCH  42  43
ATOM     43  C   UNL A   1      40.553  28.028  29.069  1.00  0.00     0.031 A 
ATOM     44  C   UNL A   1      41.933  28.131  29.654  1.00  0.00     0.074 A 
ATOM     45  C   UNL A   1      39.658  29.015  29.266  1.00  0.00     0.049 A 
ATOM     46  N   UNL A   1      42.453  29.080  30.391  1.00  0.00    -0.248 NA
ATOM     47  C   UNL A   1      42.843  27.003  29.400  1.00  0.00     0.031 C 
ATOM     48  C   UNL A   1      38.274  29.007  28.789  1.00  0.00     0.029 A 
ATOM     49  N   UNL A   1      39.775  30.209  29.931  1.00  0.00    -0.354 N 
ATOM     50  C   UNL A   1      43.741  28.660  30.694  1.00  0.00     0.074 A 
ATOM     51  C   UNL A   1      43.905  27.344  30.115  1.00  0.00     0.031 C 
ATOM     52  C   UNL A   1      37.675  30.150  29.161  1.00  0.00     0.029 A 
ATOM     53  C   UNL A   1      38.619  30.952  29.935  1.00  0.00     0.049 A 
ATOM     54  H   UNL A   1      40.607  30.505  30.365  1.00  0.00     0.167 HD
ATOM     55  C   UNL A   1      44.708  29.324  31.372  1.00  0.00     0.037 A 
ATOM     56  C   UNL A   1      38.350  32.141  30.505  1.00  0.00     0.037 A 
ATOM     57  C   UNL A   1      44.545  30.639  31.931  1.00  0.00     0.049 A 
ATOM     58  C   UNL A   1      39.438  32.854  31.261  1.00  0.00     0.074 A 
ATOM     59  C   UNL A   1      45.476  31.418  32.594  1.00  0.00     0.029 A 
ATOM     60  N   UNL A   1      43.365  31.370  31.896  1.00  0.00    -0.354 N 
ATOM     61  N   UNL A   1      40.672  32.476  31.487  1.00  0.00    -0.248 NA
ATOM     62  C   UNL A   1      39.098  34.164  31.833  1.00  0.00     0.031 C 
ATOM     63  C   UNL A   1      44.849  32.600  33.001  1.00  0.00     0.029 A 
ATOM     64  C   UNL A   1      43.541  32.583  32.544  1.00  0.00     0.049 A 
ATOM     65  H   UNL A   1      42.528  31.072  31.472  1.00  0.00     0.167 HD
ATOM     66  C   UNL A   1      41.264  33.509  32.202  1.00  0.00     0.074 A 
ATOM     67  C   UNL A   1      40.256  34.537  32.358  1.00  0.00     0.031 C 
ATOM     68  C   UNL A   1      42.527  33.597  32.687  1.00  0.00     0.037 A 
BRANCH  55  69
ATOM     69  C   UNL A   1      46.032  28.634  31.540  1.00  0.00     0.064 A 
ATOM     70  C   UNL A   1      47.052  28.755  30.583  1.00  0.00     0.173 A 
ATOM     71  C   UNL A   1      46.297  27.867  32.684  1.00  0.00     0.173 A 
ATOM     72  F   UNL A   1      46.847  29.467  29.465  1.00  0.00    -0.203 F 
ATOM     73  C   UNL A   1      48.273  28.106  30.749  1.00  0.00     0.198 A 
ATOM     74  C   UNL A   1      47.532  27.246  32.863  1.00  0.00     0.198 A 
ATOM     75  F   UNL A   1      45.361  27.722  33.635  1.00  0.00    -0.203 F 
ATOM     76  F   UNL A   1      49.210  28.191  29.794  1.00  0.00    -0.200 F 
ATOM     77  C   UNL A   1      48.514  27.358  31.891  1.00  0.00     0.200 A 
ATOM     78  F   UNL A   1      47.768  26.535  33.973  1.00  0.00    -0.200 F 
ATOM     79  F   UNL A   1      49.691  26.738  32.052  1.00  0.00    -0.200 F 
ENDBRANCH  55  69
BRANCH  56  80
ATOM     80  C   UNL A   1      36.996  32.739  30.365  1.00  0.00     0.064 A 
ATOM     81  C   UNL A   1      36.040  32.606  31.380  1.00  0.00     0.173 A 
ATOM     82  C   UNL A   1      36.633  33.457  29.216  1.00  0.00     0.173 A 
ATOM     83  F   UNL A   1      36.334  31.912  32.490  1.00  0.00    -0.203 F 
ATOM     84  C   UNL A   1      34.764  33.151  31.244  1.00  0.00     0.198 A 
ATOM     85  C   UNL A   1      35.368  34.026  29.093  1.00  0.00     0.198 A 
ATOM     86  F   UNL A   1      37.515  33.619  28.218  1.00  0.00    -0.203 F 
ATOM     87  F   UNL A   1      33.854  32.969  32.210  1.00  0.00    -0.200 F 
ATOM     88  C   UNL A   1      34.432  33.866  30.103  1.00  0.00     0.200 A 
ATOM     89  F   UNL A   1      35.056  34.731  27.996  1.00  0.00    -0.200 F 
ATOM     90  F   UNL A   1      33.206  34.395  29.974  1.00  0.00    -0.200 F 
ENDBRANCH  56  80
BRANCH  68  91
ATOM     91  C   UNL A   1      42.902  34.863  33.403  1.00  0.00     0.064 A 
ATOM     92  C   UNL A   1      43.391  35.982  32.715  1.00  0.00     0.173 A 
ATOM     93  C   UNL A   1      42.730  34.968  34.792  1.00  0.00     0.173 A 
ATOM     94  F   UNL A   1      43.587  35.927  31.389  1.00  0.00    -0.203 F 
ATOM     95  C   UNL A   1      43.720  37.152  33.395  1.00  0.00     0.198 A 
ATOM     96  C   UNL A   1      43.030  36.150  35.465  1.00  0.00     0.198 A 
ATOM     97  F   UNL A   1      42.258  33.929  35.497  1.00  0.00    -0.203 F 
ATOM     98  F   UNL A   1      44.232  38.192  32.723  1.00  0.00    -0.200 F 
ATOM     99  C   UNL A   1      43.532  37.238  34.766  1.00  0.00     0.200 A 
ATOM    100  F   UNL A   1      42.833  36.235  36.787  1.00  0.00    -0.200 F 
ATOM    101  F   UNL A   1      43.841  38.368  35.417  1.00  0.00    -0.200 F 
ENDBRANCH  68  91
ENDBRANCH  42  43
ENDBRANCH  34  37
ENDBRANCH  32  33
ENDBRANCH  31  32
ENDBRANCH  30  31
ENDBRANCH  29  30
ENDBRANCH   1  29
TORSDOF 18
ENDMDL
MODEL 2
REMARK VINA RESULT:      -8.9      5.264     11.573
REMARK SMILES CN(C)Nc1ncnc(Nc2ccc(C(=O)NCCCCCCNC(=O)c3ccc(-c4c5nc(c(-c6c(F)c(F)c(F)c(F)c6F)c6ccc([nH]6)c(-c6c(F)c(F)c(F)c(F)c6F)c6nc(c(-c7c(F)c(F)c(F)c(F)c7F)c7ccc4[nH]7)C=C6)C=C5)cc3)cc2)c1[N+](=O)[O-]
REMARK SMILES IDX 19 1 18 2 17 3 15 4 16 5 14 7 11 8 12 9 91 10 13 11 90 12
REMARK SMILES IDX 10 13 9 15 5 16 6 17 92 18 7 19 8 20 4 21 2 23 1 24 3 25
REMARK SMILES IDX 93 26 94 27 95 28 20 29 21 30 22 31 23 32 24 33 25 34 26 36
REMARK SMILES IDX 27 37 28 38 89 39 29 40 88 41 30 42 31 43 32 44 82 45 33 46
REMARK SMILES IDX 87 47 81 48 83 49 34 50 86 51 80 52 79 53 35 55 67 56 47 57
REMARK SMILES IDX 66 58 48 59 51 60 65 61 84 62 49 63 50 64 64 66 85 67 52 68
REMARK SMILES IDX 36 69 37 70 45 71 38 72 39 73 43 74 46 75 40 76 41 77 44 78
REMARK SMILES IDX 42 79 68 80 69 81 77 82 70 83 71 84 75 85 78 86 72 87 73 88
REMARK SMILES IDX 76 89 74 90 53 91 54 92 62 93 55 94 56 95 60 96 63 97 57 98
REMARK SMILES IDX 58 99 61 100 59 101
REMARK H PARENT 17 6 10 14 4 22 24 35 83 54 51 65
REMARK Flexibility Score: inf
ROOT
ATOM      1  C   UNL A   1      35.348  31.895  28.180  1.00  0.00     0.021 C 
ENDROOT
BRANCH   1   2
ATOM      2  C   UNL A   1      34.392  30.888  27.537  1.00  0.00     0.116 C 
BRANCH   2   3
ATOM      3  N   UNL A   1      33.118  31.529  27.279  1.00  0.00    -0.352 N 
ATOM      4  C   UNL A   1      31.960  31.098  26.688  1.00  0.00     0.251 C 
ATOM      5  O   UNL A   1      31.050  31.917  26.559  1.00  0.00    -0.269 OA
ATOM      6  H   UNL A   1      33.076  32.462  27.591  1.00  0.00     0.163 HD
BRANCH   4   7
ATOM      7  C   UNL A   1      31.728  29.687  26.276  1.00  0.00     0.039 A 
ATOM      8  C   UNL A   1      31.526  26.934  25.691  1.00  0.00     0.040 A 
ATOM      9  C   UNL A   1      31.575  27.368  27.014  1.00  0.00     0.027 A 
ATOM     10  C   UNL A   1      31.453  27.892  24.673  1.00  0.00     0.027 A 
ATOM     11  C   UNL A   1      31.700  28.731  27.302  1.00  0.00     0.016 A 
ATOM     12  C   UNL A   1      31.526  29.260  24.964  1.00  0.00     0.016 A 
BRANCH   8  13
ATOM     13  N   UNL A   1      31.434  25.557  25.413  1.00  0.00    -0.334 N 
ATOM     14  H   UNL A   1      30.590  25.231  25.025  1.00  0.00     0.168 HD
BRANCH  13  15
ATOM     15  C   UNL A   1      32.448  24.605  25.642  1.00  0.00     0.215 A 
ATOM     16  C   UNL A   1      33.242  22.431  26.180  1.00  0.00     0.225 A 
ATOM     17  N   UNL A   1      34.518  22.848  26.024  1.00  0.00    -0.212 NA
ATOM     18  C   UNL A   1      32.190  23.319  26.093  1.00  0.00     0.354 A 
ATOM     19  C   UNL A   1      34.699  24.123  25.681  1.00  0.00     0.227 A 
ATOM     20  N   UNL A   1      33.725  25.003  25.441  1.00  0.00    -0.212 NA
BRANCH  16  21
ATOM     21  N   UNL A   1      33.152  21.040  26.291  1.00  0.00    -0.298 N 
ATOM     22  H   UNL A   1      32.970  20.667  27.184  1.00  0.00     0.184 HD
BRANCH  21  23
ATOM     23  N   UNL A   1      33.303  20.126  25.218  1.00  0.00    -0.228 NA
ATOM     24  C   UNL A   1      34.722  19.921  24.875  1.00  0.00     0.130 C 
ATOM     25  C   UNL A   1      32.759  18.833  25.674  1.00  0.00     0.130 C 
ENDBRANCH  21  23
ENDBRANCH  16  21
BRANCH  18  26
ATOM     26  N   UNL A   1      30.866  22.944  26.487  1.00  0.00     0.070 N 
ATOM     27  O   UNL A   1      30.383  21.936  25.945  1.00  0.00    -0.258 OA
ATOM     28  O   UNL A   1      30.251  23.709  27.242  1.00  0.00    -0.258 OA
ENDBRANCH  18  26
ENDBRANCH  13  15
ENDBRANCH   8  13
ENDBRANCH   4   7
ENDBRANCH   2   3
ENDBRANCH   1   2
BRANCH   1  29
ATOM     29  C   UNL A   1      34.658  32.803  29.209  1.00  0.00     0.002 C 
BRANCH  29  30
ATOM     30  C   UNL A   1      34.575  34.280  28.806  1.00  0.00     0.002 C 
BRANCH  30  31
ATOM     31  C   UNL A   1      33.220  34.942  29.069  1.00  0.00     0.021 C 
BRANCH  31  32
ATOM     32  C   UNL A   1      33.319  36.326  29.702  1.00  0.00     0.116 C 
BRANCH  32  33
ATOM     33  N   UNL A   1      32.501  36.429  30.900  1.00  0.00    -0.352 N 
ATOM     34  C   UNL A   1      32.615  35.755  32.089  1.00  0.00     0.251 C 
ATOM     35  H   UNL A   1      31.759  37.075  30.850  1.00  0.00     0.163 HD
ATOM     36  O   UNL A   1      31.705  35.784  32.910  1.00  0.00    -0.269 OA
BRANCH  34  37
ATOM     37  C   UNL A   1      33.840  34.979  32.373  1.00  0.00     0.039 A 
ATOM     38  C   UNL A   1      35.082  35.605  32.255  1.00  0.00     0.014 A 
ATOM     39  C   UNL A   1      33.759  33.632  32.741  1.00  0.00     0.014 A 
ATOM     40  C   UNL A   1      36.245  34.894  32.555  1.00  0.00     0.010 A 
ATOM     41  C   UNL A   1      34.913  32.946  33.109  1.00  0.00     0.010 A 
ATOM     42  C   UNL A   1      36.167  33.568  33.013  1.00  0.00    -0.014 A 
BRANCH  42  43
ATOM     43  C   UNL A   1      37.387  32.812  33.387  1.00  0.00     0.031 A 
ATOM     44  C   UNL A   1      38.105  33.126  34.669  1.00  0.00     0.074 A 
ATOM     45  C   UNL A   1      37.883  31.888  32.542  1.00  0.00     0.049 A 
ATOM     46  N   UNL A   1      39.222  32.629  35.137  1.00  0.00    -0.248 NA
ATOM     47  C   UNL A   1      37.501  34.157  35.528  1.00  0.00     0.031 C 
ATOM     48  C   UNL A   1      37.302  31.530  31.246  1.00  0.00     0.029 A 
ATOM     49  N   UNL A   1      38.995  31.090  32.640  1.00  0.00    -0.354 N 
ATOM     50  C   UNL A   1      39.457  33.291  36.335  1.00  0.00     0.074 A 
ATOM     51  C   UNL A   1      38.402  34.269  36.493  1.00  0.00     0.031 C 
ATOM     52  C   UNL A   1      38.052  30.573  30.678  1.00  0.00     0.029 A 
ATOM     53  C   UNL A   1      39.185  30.276  31.549  1.00  0.00     0.049 A 
ATOM     54  H   UNL A   1      39.598  31.101  33.417  1.00  0.00     0.167 HD
ATOM     55  C   UNL A   1      40.449  33.085  37.233  1.00  0.00     0.037 A 
ATOM     56  C   UNL A   1      40.169  29.398  31.280  1.00  0.00     0.037 A 
ATOM     57  C   UNL A   1      41.487  32.100  37.079  1.00  0.00     0.049 A 
ATOM     58  C   UNL A   1      41.265  29.192  32.290  1.00  0.00     0.074 A 
ATOM     59  C   UNL A   1      42.510  31.778  37.953  1.00  0.00     0.029 A 
ATOM     60  N   UNL A   1      41.635  31.278  35.970  1.00  0.00    -0.354 N 
ATOM     61  N   UNL A   1      41.442  29.779  33.449  1.00  0.00    -0.248 NA
ATOM     62  C   UNL A   1      42.293  28.196  31.960  1.00  0.00     0.031 C 
ATOM     63  C   UNL A   1      43.305  30.796  37.354  1.00  0.00     0.029 A 
ATOM     64  C   UNL A   1      42.746  30.465  36.130  1.00  0.00     0.049 A 
ATOM     65  H   UNL A   1      41.039  31.273  35.187  1.00  0.00     0.167 HD
ATOM     66  C   UNL A   1      42.583  29.206  33.997  1.00  0.00     0.074 A 
ATOM     67  C   UNL A   1      43.046  28.214  33.049  1.00  0.00     0.031 C 
ATOM     68  C   UNL A   1      43.191  29.478  35.177  1.00  0.00     0.037 A 
BRANCH  55  69
ATOM     69  C   UNL A   1      40.453  33.941  38.468  1.00  0.00     0.064 A 
ATOM     70  C   UNL A   1      41.171  35.145  38.527  1.00  0.00     0.173 A 
ATOM     71  C   UNL A   1      39.707  33.568  39.597  1.00  0.00     0.173 A 
ATOM     72  F   UNL A   1      41.909  35.543  37.480  1.00  0.00    -0.203 F 
ATOM     73  C   UNL A   1      41.170  35.927  39.680  1.00  0.00     0.198 A 
ATOM     74  C   UNL A   1      39.681  34.369  40.737  1.00  0.00     0.198 A 
ATOM     75  F   UNL A   1      38.997  32.429  39.594  1.00  0.00    -0.203 F 
ATOM     76  F   UNL A   1      41.908  37.044  39.730  1.00  0.00    -0.200 F 
ATOM     77  C   UNL A   1      40.421  35.542  40.780  1.00  0.00     0.200 A 
ATOM     78  F   UNL A   1      38.946  34.002  41.794  1.00  0.00    -0.200 F 
ATOM     79  F   UNL A   1      40.416  36.297  41.887  1.00  0.00    -0.200 F 
ENDBRANCH  55  69
BRANCH  56  80
ATOM     80  C   UNL A   1      40.148  28.632  30.006  1.00  0.00     0.064 A 
ATOM     81  C   UNL A   1      39.517  27.384  29.924  1.00  0.00     0.173 A 
ATOM     82  C   UNL A   1      40.758  29.133  28.846  1.00  0.00     0.173 A 
ATOM     83  F   UNL A   1      38.937  26.855  31.012  1.00  0.00    -0.203 F 
ATOM     84  C   UNL A   1      39.511  26.656  28.735  1.00  0.00     0.198 A 
ATOM     85  C   UNL A   1      40.725  28.419  27.651  1.00  0.00     0.198 A 
ATOM     86  F   UNL A   1      41.370  30.327  28.869  1.00  0.00    -0.203 F 
ATOM     87  F   UNL A   1      38.939  25.446  28.697  1.00  0.00    -0.200 F 
ATOM     88  C   UNL A   1      40.110  27.178  27.598  1.00  0.00     0.200 A 
ATOM     89  F   UNL A   1      41.291  28.934  26.549  1.00  0.00    -0.200 F 
ATOM     90  F   UNL A   1      40.100  26.480  26.453  1.00  0.00    -0.200 F 
ENDBRANCH  56  80
BRANCH  68  91
ATOM     91  C   UNL A   1      44.407  28.669  35.527  1.00  0.00     0.064 A 
ATOM     92  C   UNL A   1      44.317  27.494  36.286  1.00  0.00     0.173 A 
ATOM     93  C   UNL A   1      45.673  29.056  35.061  1.00  0.00     0.173 A 
ATOM     94  F   UNL A   1      43.131  27.091  36.768  1.00  0.00    -0.203 F 
ATOM     95  C   UNL A   1      45.453  26.748  36.589  1.00  0.00     0.198 A 
ATOM     96  C   UNL A   1      46.803  28.291  35.338  1.00  0.00     0.198 A 
ATOM     97  F   UNL A   1      45.814  30.167  34.324  1.00  0.00    -0.203 F 
ATOM     98  F   UNL A   1      45.350  25.656  37.357  1.00  0.00    -0.200 F 
ATOM     99  C   UNL A   1      46.693  27.143  36.108  1.00  0.00     0.200 A 
ATOM    100  F   UNL A   1      47.997  28.665  34.860  1.00  0.00    -0.200 F 
ATOM    101  F   UNL A   1      47.785  26.419  36.394  1.00  0.00    -0.200 F 
ENDBRANCH  68  91
ENDBRANCH  42  43
ENDBRANCH  34  37
ENDBRANCH  32  33
ENDBRANCH  31  32
ENDBRANCH  30  31
ENDBRANCH  29  30
ENDBRANCH   1  29
TORSDOF 18
ENDMDL
MODEL 3
REMARK VINA RESULT:      -8.7      5.203     11.568
REMARK SMILES CN(C)Nc1ncnc(Nc2ccc(C(=O)NCCCCCCNC(=O)c3ccc(-c4c5nc(c(-c6c(F)c(F)c(F)c(F)c6F)c6ccc([nH]6)c(-c6c(F)c(F)c(F)c(F)c6F)c6nc(c(-c7c(F)c(F)c(F)c(F)c7F)c7ccc4[nH]7)C=C6)C=C5)cc3)cc2)c1[N+](=O)[O-]
REMARK SMILES IDX 19 1 18 2 17 3 15 4 16 5 14 7 11 8 12 9 91 10 13 11 90 12
REMARK SMILES IDX 10 13 9 15 5 16 6 17 92 18 7 19 8 20 4 21 2 23 1 24 3 25
REMARK SMILES IDX 93 26 94 27 95 28 20 29 21 30 22 31 23 32 24 33 25 34 26 36
REMARK SMILES IDX 27 37 28 38 89 39 29 40 88 41 30 42 31 43 32 44 82 45 33 46
REMARK SMILES IDX 87 47 81 48 83 49 34 50 86 51 80 52 79 53 35 55 67 56 47 57
REMARK SMILES IDX 66 58 48 59 51 60 65 61 84 62 49 63 50 64 64 66 85 67 52 68
REMARK SMILES IDX 36 69 37 70 45 71 38 72 39 73 43 74 46 75 40 76 41 77 44 78
REMARK SMILES IDX 42 79 68 80 69 81 77 82 70 83 71 84 75 85 78 86 72 87 73 88
REMARK SMILES IDX 76 89 74 90 53 91 54 92 62 93 55 94 56 95 60 96 63 97 57 98
REMARK SMILES IDX 58 99 61 100 59 101
REMARK H PARENT 17 6 10 14 4 22 24 35 83 54 51 65
REMARK Flexibility Score: inf
ROOT
ATOM      1  C   UNL A   1      35.490  31.301  28.029  1.00  0.00     0.021 C 
ENDROOT
BRANCH   1   2
ATOM      2  C   UNL A   1      34.947  29.933  27.612  1.00  0.00     0.116 C 
BRANCH   2   3
ATOM      3  N   UNL A   1      33.499  29.977  27.578  1.00  0.00    -0.352 N 
ATOM      4  C   UNL A   1      32.558  29.233  26.915  1.00  0.00     0.251 C 
ATOM      5  O   UNL A   1      31.380  29.562  27.048  1.00  0.00    -0.269 OA
ATOM      6  H   UNL A   1      33.113  30.683  28.146  1.00  0.00     0.163 HD
BRANCH   4   7
ATOM      7  C   UNL A   1      32.887  28.019  26.121  1.00  0.00     0.039 A 
ATOM      8  C   UNL A   1      33.602  25.583  24.889  1.00  0.00     0.040 A 
ATOM      9  C   UNL A   1      32.800  25.584  26.028  1.00  0.00     0.027 A 
ATOM     10  C   UNL A   1      33.937  26.809  24.304  1.00  0.00     0.027 A 
ATOM     11  C   UNL A   1      32.467  26.790  26.653  1.00  0.00     0.016 A 
ATOM     12  C   UNL A   1      33.559  28.019  24.900  1.00  0.00     0.016 A 
BRANCH   8  13
ATOM     13  N   UNL A   1      33.959  24.360  24.289  1.00  0.00    -0.334 N 
ATOM     14  H   UNL A   1      34.324  24.396  23.376  1.00  0.00     0.168 HD
BRANCH  13  15
ATOM     15  C   UNL A   1      33.838  23.088  24.886  1.00  0.00     0.215 A 
ATOM     16  C   UNL A   1      32.933  20.898  25.062  1.00  0.00     0.225 A 
ATOM     17  N   UNL A   1      33.731  20.643  26.121  1.00  0.00    -0.212 NA
ATOM     18  C   UNL A   1      32.895  22.153  24.488  1.00  0.00     0.354 A 
ATOM     19  C   UNL A   1      34.547  21.621  26.512  1.00  0.00     0.227 A 
ATOM     20  N   UNL A   1      34.668  22.810  25.918  1.00  0.00    -0.212 NA
BRANCH  16  21
ATOM     21  N   UNL A   1      32.306  19.744  24.583  1.00  0.00    -0.298 N 
ATOM     22  H   UNL A   1      31.322  19.741  24.552  1.00  0.00     0.184 HD
BRANCH  21  23
ATOM     23  N   UNL A   1      32.979  18.577  24.139  1.00  0.00    -0.228 NA
ATOM     24  C   UNL A   1      32.767  17.445  25.057  1.00  0.00     0.130 C 
ATOM     25  C   UNL A   1      32.395  18.214  22.834  1.00  0.00     0.130 C 
ENDBRANCH  21  23
ENDBRANCH  16  21
BRANCH  18  26
ATOM     26  N   UNL A   1      31.893  22.502  23.528  1.00  0.00     0.070 N 
ATOM     27  O   UNL A   1      31.065  23.363  23.867  1.00  0.00    -0.258 OA
ATOM     28  O   UNL A   1      31.843  21.843  22.481  1.00  0.00    -0.258 OA
ENDBRANCH  18  26
ENDBRANCH  13  15
ENDBRANCH   8  13
ENDBRANCH   4   7
ENDBRANCH   2   3
ENDBRANCH   1   2
BRANCH   1  29
ATOM     29  C   UNL A   1      34.471  32.130  28.826  1.00  0.00     0.002 C 
BRANCH  29  30
ATOM     30  C   UNL A   1      34.622  33.649  28.673  1.00  0.00     0.002 C 
BRANCH  30  31
ATOM     31  C   UNL A   1      33.323  34.442  28.831  1.00  0.00     0.021 C 
BRANCH  31  32
ATOM     32  C   UNL A   1      33.525  35.875  29.310  1.00  0.00     0.116 C 
BRANCH  32  33
ATOM     33  N   UNL A   1      32.666  36.190  30.440  1.00  0.00    -0.352 N 
ATOM     34  C   UNL A   1      32.721  35.724  31.729  1.00  0.00     0.251 C 
ATOM     35  H   UNL A   1      31.941  36.830  30.253  1.00  0.00     0.163 HD
ATOM     36  O   UNL A   1      31.782  35.904  32.496  1.00  0.00    -0.269 OA
BRANCH  34  37
ATOM     37  C   UNL A   1      33.916  34.989  32.188  1.00  0.00     0.039 A 
ATOM     38  C   UNL A   1      33.803  33.631  32.491  1.00  0.00     0.014 A 
ATOM     39  C   UNL A   1      35.143  35.645  32.333  1.00  0.00     0.014 A 
ATOM     40  C   UNL A   1      34.932  32.916  32.893  1.00  0.00     0.010 A 
ATOM     41  C   UNL A   1      36.282  34.916  32.663  1.00  0.00     0.010 A 
ATOM     42  C   UNL A   1      36.187  33.547  32.953  1.00  0.00    -0.014 A 
BRANCH  42  43
ATOM     43  C   UNL A   1      37.409  32.793  33.326  1.00  0.00     0.031 A 
ATOM     44  C   UNL A   1      38.124  33.103  34.610  1.00  0.00     0.074 A 
ATOM     45  C   UNL A   1      37.907  31.873  32.478  1.00  0.00     0.049 A 
ATOM     46  N   UNL A   1      39.242  32.608  35.077  1.00  0.00    -0.248 NA
ATOM     47  C   UNL A   1      37.517  34.130  35.472  1.00  0.00     0.031 C 
ATOM     48  C   UNL A   1      37.329  31.519  31.180  1.00  0.00     0.029 A 
ATOM     49  N   UNL A   1      39.021  31.077  32.574  1.00  0.00    -0.354 N 
ATOM     50  C   UNL A   1      39.474  33.266  36.278  1.00  0.00     0.074 A 
ATOM     51  C   UNL A   1      38.416  34.240  36.438  1.00  0.00     0.031 C 
ATOM     52  C   UNL A   1      38.081  30.565  30.609  1.00  0.00     0.029 A 
ATOM     53  C   UNL A   1      39.214  30.268  31.481  1.00  0.00     0.049 A 
ATOM     54  H   UNL A   1      39.624  31.087  33.352  1.00  0.00     0.167 HD
ATOM     55  C   UNL A   1      40.466  33.058  37.177  1.00  0.00     0.037 A 
ATOM     56  C   UNL A   1      40.200  29.393  31.210  1.00  0.00     0.037 A 
ATOM     57  C   UNL A   1      41.505  32.076  37.020  1.00  0.00     0.049 A 
ATOM     58  C   UNL A   1      41.296  29.186  32.220  1.00  0.00     0.074 A 
ATOM     59  C   UNL A   1      42.528  31.753  37.894  1.00  0.00     0.029 A 
ATOM     60  N   UNL A   1      41.657  31.259  35.908  1.00  0.00    -0.354 N 
ATOM     61  N   UNL A   1      41.470  29.769  33.381  1.00  0.00    -0.248 NA
ATOM     62  C   UNL A   1      42.326  28.193  31.887  1.00  0.00     0.031 C 
ATOM     63  C   UNL A   1      43.326  30.775  37.292  1.00  0.00     0.029 A 
ATOM     64  C   UNL A   1      42.769  30.447  36.066  1.00  0.00     0.049 A 
ATOM     65  H   UNL A   1      41.062  31.256  35.124  1.00  0.00     0.167 HD
ATOM     66  C   UNL A   1      42.611  29.196  33.929  1.00  0.00     0.074 A 
ATOM     67  C   UNL A   1      43.078  28.209  32.977  1.00  0.00     0.031 C 
ATOM     68  C   UNL A   1      43.218  29.466  35.111  1.00  0.00     0.037 A 
BRANCH  55  69
ATOM     69  C   UNL A   1      40.466  33.909  38.415  1.00  0.00     0.064 A 
ATOM     70  C   UNL A   1      41.167  35.124  38.473  1.00  0.00     0.173 A 
ATOM     71  C   UNL A   1      39.734  33.522  39.547  1.00  0.00     0.173 A 
ATOM     72  F   UNL A   1      41.892  35.536  37.423  1.00  0.00    -0.203 F 
ATOM     73  C   UNL A   1      41.163  35.901  39.629  1.00  0.00     0.198 A 
ATOM     74  C   UNL A   1      39.704  34.318  40.691  1.00  0.00     0.198 A 
ATOM     75  F   UNL A   1      39.039  32.373  39.545  1.00  0.00    -0.203 F 
ATOM     76  F   UNL A   1      41.886  37.028  39.679  1.00  0.00    -0.200 F 
ATOM     77  C   UNL A   1      40.427  35.501  40.734  1.00  0.00     0.200 A 
ATOM     78  F   UNL A   1      38.982  33.937  41.752  1.00  0.00    -0.200 F 
ATOM     79  F   UNL A   1      40.419  36.252  41.843  1.00  0.00    -0.200 F 
ENDBRANCH  55  69
BRANCH  56  80
ATOM     80  C   UNL A   1      40.183  28.632  29.933  1.00  0.00     0.064 A 
ATOM     81  C   UNL A   1      40.807  29.136  28.784  1.00  0.00     0.173 A 
ATOM     82  C   UNL A   1      39.545  27.386  29.836  1.00  0.00     0.173 A 
ATOM     83  F   UNL A   1      41.413  30.332  28.821  1.00  0.00    -0.203 F 
ATOM     84  C   UNL A   1      40.777  28.433  27.580  1.00  0.00     0.198 A 
ATOM     85  C   UNL A   1      39.542  26.670  28.641  1.00  0.00     0.198 A 
ATOM     86  F   UNL A   1      38.940  26.856  30.909  1.00  0.00    -0.203 F 
ATOM     87  F   UNL A   1      41.342  28.959  26.486  1.00  0.00    -0.200 F 
ATOM     88  C   UNL A   1      40.150  27.198  27.513  1.00  0.00     0.200 A 
ATOM     89  F   UNL A   1      38.950  25.469  28.584  1.00  0.00    -0.200 F 
ATOM     90  F   UNL A   1      40.126  26.519  26.356  1.00  0.00    -0.200 F 
ENDBRANCH  56  80
BRANCH  68  91
ATOM     91  C   UNL A   1      44.435  28.658  35.459  1.00  0.00     0.064 A 
ATOM     92  C   UNL A   1      45.725  29.080  35.107  1.00  0.00     0.173 A 
ATOM     93  C   UNL A   1      44.309  27.465  36.188  1.00  0.00     0.173 A 
ATOM     94  F   UNL A   1      45.897  30.205  34.397  1.00  0.00    -0.203 F 
ATOM     95  C   UNL A   1      46.843  28.324  35.451  1.00  0.00     0.198 A 
ATOM     96  C   UNL A   1      45.431  26.729  36.557  1.00  0.00     0.198 A 
ATOM     97  F   UNL A   1      43.098  27.021  36.556  1.00  0.00    -0.203 F 
ATOM     98  F   UNL A   1      48.062  28.722  35.062  1.00  0.00    -0.200 F 
ATOM     99  C   UNL A   1      46.696  27.155  36.182  1.00  0.00     0.200 A 
ATOM    100  F   UNL A   1      45.288  25.608  37.277  1.00  0.00    -0.200 F 
ATOM    101  F   UNL A   1      47.775  26.434  36.519  1.00  0.00    -0.200 F 
ENDBRANCH  68  91
ENDBRANCH  42  43
ENDBRANCH  34  37
ENDBRANCH  32  33
ENDBRANCH  31  32
ENDBRANCH  30  31
ENDBRANCH  29  30
ENDBRANCH   1  29
TORSDOF 18
ENDMDL
