MODEL 1
REMARK VINA RESULT:     -11.2      0.000      0.000
REMARK SMILES O=C(CC[P@TB4](=O)(O)C[NH+]1CCCCC1)NCCCCCCNC(=O)c1ccc(-c2c3nc(c(-c4c(F)c(F)c(F)c(F)c4F)c4ccc([nH]4)c(-c4c(F)c(F)c(F)c(F)c4F)c4nc(c(-c5c(F)c(F)c(F)c(F)c5F)c5ccc2[nH]5)C=C4)C=C3)cc1
REMARK SMILES IDX 17 1 16 2 15 3 1 4 2 5 3 7 4 8 5 9 6 10 7 11 8 13 9 14 10 15
REMARK SMILES IDX 14 16 11 18 13 19 12 20 18 21 19 22 20 23 21 24 22 25 23 26
REMARK SMILES IDX 24 28 25 29 26 30 87 31 27 32 86 33 28 34 29 35 30 36 80 37
REMARK SMILES IDX 31 38 85 39 79 40 81 41 32 42 84 43 78 44 77 45 33 47 65 48
REMARK SMILES IDX 45 49 64 50 46 51 49 52 63 53 82 54 47 55 48 56 62 58 83 59
REMARK SMILES IDX 50 60 34 61 35 62 43 63 36 64 37 65 41 66 44 67 38 68 39 69
REMARK SMILES IDX 42 70 40 71 66 72 67 73 75 74 68 75 69 76 73 77 76 78 70 79
REMARK SMILES IDX 71 80 74 81 72 82 51 83 52 84 60 85 53 86 54 87 58 88 61 89
REMARK SMILES IDX 55 90 56 91 59 92 57 93
REMARK H PARENT 15 6 7 12 9 17 22 27 81 46 49 57
REMARK Flexibility Score: inf
ROOT
ATOM      1  C   UNL A   1      46.024  19.235  37.251  1.00  0.00       nan C 
ENDROOT
BRANCH   1   2
ATOM      2  C   UNL A   1      46.591  18.931  38.639  1.00  0.00       nan C 
BRANCH   2   3
ATOM      3  N   UNL A   1      46.193  17.650  39.197  1.00  0.00       nan N 
ATOM      4  O   UNL A   1      44.963  18.598  40.893  1.00  0.00       nan OA
ATOM      5  C   UNL A   1      45.319  17.602  40.269  1.00  0.00       nan C 
ATOM      6  H   UNL A   1      46.545  16.815  38.812  1.00  0.00       nan HD
BRANCH   5   7
ATOM      7  C   UNL A   1      44.782  16.224  40.625  1.00  0.00       nan C 
BRANCH   7   8
ATOM      8  C   UNL A   1      43.248  16.152  40.548  1.00  0.00       nan C 
BRANCH   8   9
ATOM      9  P   UNL A   1      42.601  15.209  41.977  1.00  0.00       nan P 
ATOM     10  O   UNL A   1      42.997  16.372  42.897  1.00  0.00       nan OA
BRANCH   9  11
ATOM     11  O   UNL A   1      41.053  15.567  41.535  1.00  0.00       nan OA
ATOM     12  H   UNL A   1      40.681  16.213  42.156  1.00  0.00       nan HD
ENDBRANCH   9  11
BRANCH   9  13
ATOM     13  C   UNL A   1      41.955  14.265  43.405  1.00  0.00       nan C 
BRANCH  13  14
ATOM     14  N   UNL A   1      42.448  12.873  43.418  1.00  0.00       nan N 
ATOM     15  C   UNL A   1      43.522  12.693  44.378  1.00  0.00       nan C 
ATOM     16  C   UNL A   1      41.424  11.832  43.484  1.00  0.00       nan C 
ATOM     17  H   UNL A   1      42.842  12.729  42.488  1.00  0.00       nan HD
ATOM     18  C   UNL A   1      44.162  11.309  44.292  1.00  0.00       nan C 
ATOM     19  C   UNL A   1      42.025  10.429  43.361  1.00  0.00       nan C 
ATOM     20  C   UNL A   1      43.119  10.208  44.399  1.00  0.00       nan C 
ENDBRANCH  13  14
ENDBRANCH   9  13
ENDBRANCH   8   9
ENDBRANCH   7   8
ENDBRANCH   5   7
ENDBRANCH   2   3
ENDBRANCH   1   2
BRANCH   1  21
ATOM     21  C   UNL A   1      46.096  20.685  36.750  1.00  0.00       nan C 
BRANCH  21  22
ATOM     22  C   UNL A   1      46.865  20.896  35.436  1.00  0.00       nan C 
BRANCH  22  23
ATOM     23  C   UNL A   1      46.123  21.676  34.349  1.00  0.00       nan C 
BRANCH  23  24
ATOM     24  C   UNL A   1      46.279  23.193  34.328  1.00  0.00       nan C 
BRANCH  24  25
ATOM     25  N   UNL A   1      47.292  23.746  35.214  1.00  0.00       nan N 
ATOM     26  C   UNL A   1      47.265  24.950  35.897  1.00  0.00       inf C 
ATOM     27  H   UNL A   1      48.097  23.196  35.345  1.00  0.00       inf HD
ATOM     28  O   UNL A   1      48.179  25.258  36.656  1.00  0.00    -0.269 OA
BRANCH  26  29
ATOM     29  C   UNL A   1      46.174  25.919  35.624  1.00  0.00     0.039 A 
ATOM     30  C   UNL A   1      46.476  27.066  34.884  1.00  0.00     0.014 A 
ATOM     31  C   UNL A   1      44.850  25.633  35.960  1.00  0.00     0.014 A 
ATOM     32  C   UNL A   1      45.440  27.835  34.350  1.00  0.00     0.010 A 
ATOM     33  C   UNL A   1      43.820  26.340  35.344  1.00  0.00     0.010 A 
ATOM     34  C   UNL A   1      44.104  27.426  34.502  1.00  0.00    -0.014 A 
BRANCH  34  35
ATOM     35  C   UNL A   1      43.012  28.069  33.723  1.00  0.00     0.031 A 
ATOM     36  C   UNL A   1      42.818  27.756  32.266  1.00  0.00     0.074 A 
ATOM     37  C   UNL A   1      42.247  29.015  34.308  1.00  0.00     0.049 A 
ATOM     38  N   UNL A   1      41.955  28.258  31.419  1.00  0.00    -0.248 NA
ATOM     39  C   UNL A   1      43.741  26.778  31.673  1.00  0.00     0.031 C 
ATOM     40  C   UNL A   1      42.385  29.480  35.691  1.00  0.00     0.029 A 
ATOM     41  N   UNL A   1      41.203  29.758  33.816  1.00  0.00    -0.354 N 
ATOM     42  C   UNL A   1      42.251  27.682  30.191  1.00  0.00     0.074 A 
ATOM     43  C   UNL A   1      43.404  26.830  30.393  1.00  0.00     0.031 C 
ATOM     44  C   UNL A   1      41.431  30.389  35.950  1.00  0.00     0.029 A 
ATOM     45  C   UNL A   1      40.636  30.598  34.744  1.00  0.00     0.049 A 
ATOM     46  H   UNL A   1      40.889  29.695  32.885  1.00  0.00     0.167 HD
ATOM     47  C   UNL A   1      41.607  27.830  29.009  1.00  0.00     0.037 A 
ATOM     48  C   UNL A   1      39.584  31.433  34.641  1.00  0.00     0.037 A 
ATOM     49  C   UNL A   1      40.429  28.634  28.820  1.00  0.00     0.049 A 
ATOM     50  C   UNL A   1      38.853  31.537  33.332  1.00  0.00     0.074 A 
ATOM     51  C   UNL A   1      39.646  28.768  27.686  1.00  0.00     0.029 A 
ATOM     52  N   UNL A   1      39.862  29.442  29.794  1.00  0.00    -0.354 N 
ATOM     53  N   UNL A   1      39.086  30.915  32.203  1.00  0.00    -0.248 NA
ATOM     54  C   UNL A   1      37.706  32.457  33.287  1.00  0.00     0.031 C 
ATOM     55  C   UNL A   1      38.623  29.680  27.966  1.00  0.00     0.029 A 
ATOM     56  C   UNL A   1      38.748  30.090  29.283  1.00  0.00     0.049 A 
ATOM     57  H   UNL A   1      40.201  29.542  30.713  1.00  0.00     0.167 HD
ATOM     58  C   UNL A   1      38.105  31.347  31.321  1.00  0.00     0.074 A 
ATOM     59  C   UNL A   1      37.265  32.274  32.052  1.00  0.00     0.031 C 
ATOM     60  C   UNL A   1      37.918  31.003  30.024  1.00  0.00     0.037 A 
BRANCH  47  61
ATOM     61  C   UNL A   1      42.165  27.093  27.828  1.00  0.00     0.064 A 
ATOM     62  C   UNL A   1      43.098  27.688  26.965  1.00  0.00     0.173 A 
ATOM     63  C   UNL A   1      41.767  25.775  27.558  1.00  0.00     0.173 A 
ATOM     64  F   UNL A   1      43.501  28.950  27.173  1.00  0.00    -0.203 F 
ATOM     65  C   UNL A   1      43.583  27.004  25.853  1.00  0.00     0.198 A 
ATOM     66  C   UNL A   1      42.275  25.084  26.462  1.00  0.00     0.198 A 
ATOM     67  F   UNL A   1      40.881  25.159  28.355  1.00  0.00    -0.203 F 
ATOM     68  F   UNL A   1      44.428  27.613  25.010  1.00  0.00    -0.200 F 
ATOM     69  C   UNL A   1      43.174  25.702  25.605  1.00  0.00     0.200 A 
ATOM     70  F   UNL A   1      41.887  23.823  26.226  1.00  0.00    -0.200 F 
ATOM     71  F   UNL A   1      43.638  25.047  24.531  1.00  0.00    -0.200 F 
ENDBRANCH  47  61
BRANCH  48  72
ATOM     72  C   UNL A   1      39.118  32.190  35.830  1.00  0.00     0.064 A 
ATOM     73  C   UNL A   1      39.522  33.520  36.027  1.00  0.00     0.173 A 
ATOM     74  C   UNL A   1      38.271  31.616  36.786  1.00  0.00     0.173 A 
ATOM     75  F   UNL A   1      40.351  34.104  35.149  1.00  0.00    -0.203 F 
ATOM     76  C   UNL A   1      39.107  34.240  37.144  1.00  0.00     0.198 A 
ATOM     77  C   UNL A   1      37.839  32.345  37.893  1.00  0.00     0.198 A 
ATOM     78  F   UNL A   1      37.855  30.349  36.640  1.00  0.00    -0.203 F 
ATOM     79  F   UNL A   1      39.537  35.495  37.327  1.00  0.00    -0.200 F 
ATOM     80  C   UNL A   1      38.262  33.654  38.074  1.00  0.00     0.200 A 
ATOM     81  F   UNL A   1      37.014  31.778  38.784  1.00  0.00    -0.200 F 
ATOM     82  F   UNL A   1      37.860  34.347  39.149  1.00  0.00    -0.200 F 
ENDBRANCH  48  72
BRANCH  60  83
ATOM     83  C   UNL A   1      36.742  31.612  29.321  1.00  0.00     0.064 A 
ATOM     84  C   UNL A   1      35.622  30.847  28.968  1.00  0.00     0.173 A 
ATOM     85  C   UNL A   1      36.728  32.982  29.020  1.00  0.00     0.173 A 
ATOM     86  F   UNL A   1      35.598  29.529  29.218  1.00  0.00    -0.203 F 
ATOM     87  C   UNL A   1      34.536  31.429  28.319  1.00  0.00     0.198 A 
ATOM     88  C   UNL A   1      35.630  33.565  28.393  1.00  0.00     0.198 A 
ATOM     89  F   UNL A   1      37.775  33.757  29.341  1.00  0.00    -0.203 F 
ATOM     90  F   UNL A   1      33.493  30.671  27.952  1.00  0.00    -0.200 F 
ATOM     91  C   UNL A   1      34.538  32.786  28.037  1.00  0.00     0.200 A 
ATOM     92  F   UNL A   1      35.630  34.879  28.129  1.00  0.00    -0.200 F 
ATOM     93  F   UNL A   1      33.491  33.345  27.415  1.00  0.00    -0.200 F 
ENDBRANCH  60  83
ENDBRANCH  34  35
ENDBRANCH  26  29
ENDBRANCH  24  25
ENDBRANCH  23  24
ENDBRANCH  22  23
ENDBRANCH  21  22
ENDBRANCH   1  21
TORSDOF 18
ENDMDL
MODEL 2
REMARK VINA RESULT:     -10.9      8.774     12.053
REMARK SMILES O=C(CC[P@TB4](=O)(O)C[NH+]1CCCCC1)NCCCCCCNC(=O)c1ccc(-c2c3nc(c(-c4c(F)c(F)c(F)c(F)c4F)c4ccc([nH]4)c(-c4c(F)c(F)c(F)c(F)c4F)c4nc(c(-c5c(F)c(F)c(F)c(F)c5F)c5ccc2[nH]5)C=C4)C=C3)cc1
REMARK SMILES IDX 17 1 16 2 15 3 1 4 2 5 3 7 4 8 5 9 6 10 7 11 8 13 9 14 10 15
REMARK SMILES IDX 14 16 11 18 13 19 12 20 18 21 19 22 20 23 21 24 22 25 23 26
REMARK SMILES IDX 24 28 25 29 26 30 87 31 27 32 86 33 28 34 29 35 30 36 80 37
REMARK SMILES IDX 31 38 85 39 79 40 81 41 32 42 84 43 78 44 77 45 33 47 65 48
REMARK SMILES IDX 45 49 64 50 46 51 49 52 63 53 82 54 47 55 48 56 62 58 83 59
REMARK SMILES IDX 50 60 34 61 35 62 43 63 36 64 37 65 41 66 44 67 38 68 39 69
REMARK SMILES IDX 42 70 40 71 66 72 67 73 75 74 68 75 69 76 73 77 76 78 70 79
REMARK SMILES IDX 71 80 74 81 72 82 51 83 52 84 60 85 53 86 54 87 58 88 61 89
REMARK SMILES IDX 55 90 56 91 59 92 57 93
REMARK H PARENT 15 6 7 12 9 17 22 27 81 46 49 57
REMARK Flexibility Score: inf
ROOT
ATOM      1  C   UNL A   1      33.819  22.213  27.721  1.00  0.00       nan C 
ENDROOT
BRANCH   1   2
ATOM      2  C   UNL A   1      32.520  22.963  27.421  1.00  0.00       nan C 
BRANCH   2   3
ATOM      3  N   UNL A   1      31.940  22.688  26.119  1.00  0.00       nan N 
ATOM      4  O   UNL A   1      32.715  24.643  25.190  1.00  0.00       nan OA
ATOM      5  C   UNL A   1      32.167  23.552  25.062  1.00  0.00       nan C 
ATOM      6  H   UNL A   1      31.385  21.885  25.987  1.00  0.00       nan HD
BRANCH   5   7
ATOM      7  C   UNL A   1      31.719  23.059  23.694  1.00  0.00       nan C 
BRANCH   7   8
ATOM      8  C   UNL A   1      32.860  22.396  22.906  1.00  0.00       nan C 
BRANCH   8   9
ATOM      9  P   UNL A   1      32.559  20.595  22.781  1.00  0.00       nan P 
ATOM     10  O   UNL A   1      31.780  20.655  24.103  1.00  0.00       nan OA
BRANCH   9  11
ATOM     11  O   UNL A   1      31.403  20.850  21.632  1.00  0.00       nan OA
ATOM     12  H   UNL A   1      31.828  20.989  20.771  1.00  0.00       nan HD
ENDBRANCH   9  11
BRANCH   9  13
ATOM     13  C   UNL A   1      32.259  18.794  22.657  1.00  0.00       nan C 
BRANCH  13  14
ATOM     14  N   UNL A   1      33.015  18.035  23.674  1.00  0.00       nan N 
ATOM     15  C   UNL A   1      32.145  17.530  24.721  1.00  0.00       nan C 
ATOM     16  C   UNL A   1      33.955  17.039  23.162  1.00  0.00       nan C 
ATOM     17  H   UNL A   1      33.638  18.722  24.099  1.00  0.00       nan HD
ATOM     18  C   UNL A   1      32.920  16.888  25.870  1.00  0.00       nan C 
ATOM     19  C   UNL A   1      34.779  16.401  24.283  1.00  0.00       nan C 
ATOM     20  C   UNL A   1      33.877  15.819  25.365  1.00  0.00       nan C 
ENDBRANCH  13  14
ENDBRANCH   9  13
ENDBRANCH   8   9
ENDBRANCH   7   8
ENDBRANCH   5   7
ENDBRANCH   2   3
ENDBRANCH   1   2
BRANCH   1  21
ATOM     21  C   UNL A   1      34.369  21.272  26.640  1.00  0.00       nan C 
BRANCH  21  22
ATOM     22  C   UNL A   1      35.431  21.879  25.708  1.00  0.00       nan C 
BRANCH  22  23
ATOM     23  C   UNL A   1      36.519  20.918  25.226  1.00  0.00       nan C 
BRANCH  23  24
ATOM     24  C   UNL A   1      37.938  21.460  25.091  1.00  0.00       nan C 
BRANCH  24  25
ATOM     25  N   UNL A   1      39.010  20.559  25.488  1.00  0.00       nan N 
ATOM     26  C   UNL A   1      40.005  20.774  26.426  1.00  0.00       inf C 
ATOM     27  H   UNL A   1      39.030  19.687  25.033  1.00  0.00       inf HD
ATOM     28  O   UNL A   1      40.813  19.891  26.693  1.00  0.00    -0.269 OA
BRANCH  26  29
ATOM     29  C   UNL A   1      40.155  22.121  27.034  1.00  0.00     0.039 A 
ATOM     30  C   UNL A   1      41.149  22.304  27.999  1.00  0.00     0.014 A 
ATOM     31  C   UNL A   1      39.434  23.216  26.556  1.00  0.00     0.014 A 
ATOM     32  C   UNL A   1      41.524  23.599  28.365  1.00  0.00     0.010 A 
ATOM     33  C   UNL A   1      39.876  24.505  26.845  1.00  0.00     0.010 A 
ATOM     34  C   UNL A   1      40.951  24.710  27.724  1.00  0.00    -0.014 A 
BRANCH  34  35
ATOM     35  C   UNL A   1      41.519  26.074  27.898  1.00  0.00     0.031 A 
ATOM     36  C   UNL A   1      42.875  26.419  27.350  1.00  0.00     0.074 A 
ATOM     37  C   UNL A   1      40.850  26.982  28.638  1.00  0.00     0.049 A 
ATOM     38  N   UNL A   1      43.549  27.537  27.450  1.00  0.00    -0.248 NA
ATOM     39  C   UNL A   1      43.584  25.354  26.625  1.00  0.00     0.031 C 
ATOM     40  C   UNL A   1      39.565  26.752  29.304  1.00  0.00     0.029 A 
ATOM     41  N   UNL A   1      41.156  28.281  28.960  1.00  0.00    -0.354 N 
ATOM     42  C   UNL A   1      44.769  27.300  26.832  1.00  0.00     0.074 A 
ATOM     43  C   UNL A   1      44.762  25.918  26.402  1.00  0.00     0.031 C 
ATOM     44  C   UNL A   1      39.170  27.883  29.909  1.00  0.00     0.029 A 
ATOM     45  C   UNL A   1      40.188  28.909  29.706  1.00  0.00     0.049 A 
ATOM     46  H   UNL A   1      41.991  28.722  28.682  1.00  0.00     0.167 HD
ATOM     47  C   UNL A   1      45.793  28.162  26.620  1.00  0.00     0.037 A 
ATOM     48  C   UNL A   1      40.120  30.174  30.164  1.00  0.00     0.037 A 
ATOM     49  C   UNL A   1      45.779  29.549  27.000  1.00  0.00     0.049 A 
ATOM     50  C   UNL A   1      41.244  31.126  29.868  1.00  0.00     0.074 A 
ATOM     51  C   UNL A   1      46.724  30.527  26.739  1.00  0.00     0.029 A 
ATOM     52  N   UNL A   1      44.763  30.159  27.722  1.00  0.00    -0.354 N 
ATOM     53  N   UNL A   1      42.352  30.915  29.200  1.00  0.00    -0.248 NA
ATOM     54  C   UNL A   1      41.105  32.495  30.385  1.00  0.00     0.031 C 
ATOM     55  C   UNL A   1      46.294  31.720  27.329  1.00  0.00     0.029 A 
ATOM     56  C   UNL A   1      45.066  31.496  27.929  1.00  0.00     0.049 A 
ATOM     57  H   UNL A   1      43.948  29.709  28.040  1.00  0.00     0.167 HD
ATOM     58  C   UNL A   1      43.029  32.126  29.194  1.00  0.00     0.074 A 
ATOM     59  C   UNL A   1      42.201  33.072  29.914  1.00  0.00     0.031 C 
ATOM     60  C   UNL A   1      44.229  32.426  28.640  1.00  0.00     0.037 A 
BRANCH  47  61
ATOM     61  C   UNL A   1      47.012  27.621  25.935  1.00  0.00     0.064 A 
ATOM     62  C   UNL A   1      48.070  27.050  26.659  1.00  0.00     0.173 A 
ATOM     63  C   UNL A   1      47.124  27.670  24.537  1.00  0.00     0.173 A 
ATOM     64  F   UNL A   1      48.016  26.992  27.998  1.00  0.00    -0.203 F 
ATOM     65  C   UNL A   1      49.210  26.583  26.013  1.00  0.00     0.198 A 
ATOM     66  C   UNL A   1      48.254  27.176  23.892  1.00  0.00     0.198 A 
ATOM     67  F   UNL A   1      46.139  28.202  23.798  1.00  0.00    -0.203 F 
ATOM     68  F   UNL A   1      50.233  26.095  26.730  1.00  0.00    -0.200 F 
ATOM     69  C   UNL A   1      49.300  26.642  24.630  1.00  0.00     0.200 A 
ATOM     70  F   UNL A   1      48.337  27.225  22.555  1.00  0.00    -0.200 F 
ATOM     71  F   UNL A   1      50.402  26.196  24.010  1.00  0.00    -0.200 F 
ENDBRANCH  47  61
BRANCH  48  72
ATOM     72  C   UNL A   1      38.913  30.634  30.898  1.00  0.00     0.064 A 
ATOM     73  C   UNL A   1      37.824  31.177  30.200  1.00  0.00     0.173 A 
ATOM     74  C   UNL A   1      38.818  30.546  32.292  1.00  0.00     0.173 A 
ATOM     75  F   UNL A   1      37.878  31.302  28.866  1.00  0.00    -0.203 F 
ATOM     76  C   UNL A   1      36.690  31.627  30.873  1.00  0.00     0.198 A 
ATOM     77  C   UNL A   1      37.675  30.976  32.963  1.00  0.00     0.198 A 
ATOM     78  F   UNL A   1      39.833  30.030  33.003  1.00  0.00    -0.203 F 
ATOM     79  F   UNL A   1      35.679  32.175  30.186  1.00  0.00    -0.200 F 
ATOM     80  C   UNL A   1      36.615  31.522  32.254  1.00  0.00     0.200 A 
ATOM     81  F   UNL A   1      37.601  30.864  34.296  1.00  0.00    -0.200 F 
ATOM     82  F   UNL A   1      35.524  31.954  32.902  1.00  0.00    -0.200 F 
ENDBRANCH  48  72
BRANCH  60  83
ATOM     83  C   UNL A   1      44.703  33.842  28.768  1.00  0.00     0.064 A 
ATOM     84  C   UNL A   1      44.368  34.816  27.816  1.00  0.00     0.173 A 
ATOM     85  C   UNL A   1      45.481  34.234  29.868  1.00  0.00     0.173 A 
ATOM     86  F   UNL A   1      43.642  34.484  26.738  1.00  0.00    -0.203 F 
ATOM     87  C   UNL A   1      44.813  36.129  27.952  1.00  0.00     0.198 A 
ATOM     88  C   UNL A   1      45.903  35.553  30.012  1.00  0.00     0.198 A 
ATOM     89  F   UNL A   1      45.825  33.339  30.806  1.00  0.00    -0.203 F 
ATOM     90  F   UNL A   1      44.517  37.034  27.008  1.00  0.00    -0.200 F 
ATOM     91  C   UNL A   1      45.574  36.497  29.050  1.00  0.00     0.200 A 
ATOM     92  F   UNL A   1      46.632  35.908  31.079  1.00  0.00    -0.200 F 
ATOM     93  F   UNL A   1      45.999  37.761  29.180  1.00  0.00    -0.200 F 
ENDBRANCH  60  83
ENDBRANCH  34  35
ENDBRANCH  26  29
ENDBRANCH  24  25
ENDBRANCH  23  24
ENDBRANCH  22  23
ENDBRANCH  21  22
ENDBRANCH   1  21
TORSDOF 18
ENDMDL
MODEL 3
REMARK VINA RESULT:     -10.9      8.385     16.431
REMARK SMILES O=C(CC[P@TB4](=O)(O)C[NH+]1CCCCC1)NCCCCCCNC(=O)c1ccc(-c2c3nc(c(-c4c(F)c(F)c(F)c(F)c4F)c4ccc([nH]4)c(-c4c(F)c(F)c(F)c(F)c4F)c4nc(c(-c5c(F)c(F)c(F)c(F)c5F)c5ccc2[nH]5)C=C4)C=C3)cc1
REMARK SMILES IDX 17 1 16 2 15 3 1 4 2 5 3 7 4 8 5 9 6 10 7 11 8 13 9 14 10 15
REMARK SMILES IDX 14 16 11 18 13 19 12 20 18 21 19 22 20 23 21 24 22 25 23 26
REMARK SMILES IDX 24 28 25 29 26 30 87 31 27 32 86 33 28 34 29 35 30 36 80 37
REMARK SMILES IDX 31 38 85 39 79 40 81 41 32 42 84 43 78 44 77 45 33 47 65 48
REMARK SMILES IDX 45 49 64 50 46 51 49 52 63 53 82 54 47 55 48 56 62 58 83 59
REMARK SMILES IDX 50 60 34 61 35 62 43 63 36 64 37 65 41 66 44 67 38 68 39 69
REMARK SMILES IDX 42 70 40 71 66 72 67 73 75 74 68 75 69 76 73 77 76 78 70 79
REMARK SMILES IDX 71 80 74 81 72 82 51 83 52 84 60 85 53 86 54 87 58 88 61 89
REMARK SMILES IDX 55 90 56 91 59 92 57 93
REMARK H PARENT 15 6 7 12 9 17 22 27 81 46 49 57
REMARK Flexibility Score: inf
ROOT
ATOM      1  C   UNL A   1      34.482  30.851  27.442  1.00  0.00       nan C 
ENDROOT
BRANCH   1   2
ATOM      2  C   UNL A   1      34.615  29.338  27.257  1.00  0.00       nan C 
BRANCH   2   3
ATOM      3  N   UNL A   1      34.159  28.834  25.974  1.00  0.00       nan N 
ATOM      4  O   UNL A   1      31.941  29.226  26.436  1.00  0.00       nan OA
ATOM      5  C   UNL A   1      32.817  28.899  25.641  1.00  0.00       nan C 
ATOM      6  H   UNL A   1      34.805  28.446  25.341  1.00  0.00       nan HD
BRANCH   5   7
ATOM      7  C   UNL A   1      32.476  28.568  24.196  1.00  0.00       nan C 
BRANCH   7   8
ATOM      8  C   UNL A   1      31.527  27.364  24.078  1.00  0.00       nan C 
BRANCH   8   9
ATOM      9  P   UNL A   1      29.925  27.907  23.376  1.00  0.00       nan P 
ATOM     10  O   UNL A   1      30.534  27.812  21.970  1.00  0.00       nan OA
BRANCH   9  11
ATOM     11  O   UNL A   1      29.286  26.408  23.630  1.00  0.00       nan OA
ATOM     12  H   UNL A   1      29.585  25.806  22.930  1.00  0.00       nan HD
ENDBRANCH   9  11
BRANCH   9  13
ATOM     13  C   UNL A   1      28.325  28.450  22.675  1.00  0.00       nan C 
BRANCH  13  14
ATOM     14  N   UNL A   1      28.193  29.922  22.672  1.00  0.00       nan N 
ATOM     15  C   UNL A   1      29.174  30.550  23.539  1.00  0.00       nan C 
ATOM     16  C   UNL A   1      28.085  30.552  21.357  1.00  0.00       nan C 
ATOM     17  H   UNL A   1      27.272  30.099  23.073  1.00  0.00       nan HD
ATOM     18  C   UNL A   1      28.951  32.054  23.685  1.00  0.00       nan C 
ATOM     19  C   UNL A   1      27.822  32.056  21.464  1.00  0.00       nan C 
ATOM     20  C   UNL A   1      28.876  32.738  22.329  1.00  0.00       nan C 
ENDBRANCH  13  14
ENDBRANCH   9  13
ENDBRANCH   8   9
ENDBRANCH   7   8
ENDBRANCH   5   7
ENDBRANCH   2   3
ENDBRANCH   1   2
BRANCH   1  21
ATOM     21  C   UNL A   1      35.680  31.609  28.033  1.00  0.00       nan C 
BRANCH  21  22
ATOM     22  C   UNL A   1      35.459  33.110  28.282  1.00  0.00       nan C 
BRANCH  22  23
ATOM     23  C   UNL A   1      34.249  33.469  29.146  1.00  0.00       nan C 
BRANCH  23  24
ATOM     24  C   UNL A   1      34.075  34.927  29.557  1.00  0.00       nan C 
BRANCH  24  25
ATOM     25  N   UNL A   1      32.914  35.228  30.382  1.00  0.00       nan N 
ATOM     26  C   UNL A   1      32.834  35.272  31.763  1.00  0.00       inf C 
ATOM     27  H   UNL A   1      32.081  35.425  29.896  1.00  0.00       inf HD
ATOM     28  O   UNL A   1      31.788  35.595  32.318  1.00  0.00    -0.269 OA
BRANCH  26  29
ATOM     29  C   UNL A   1      33.991  34.821  32.575  1.00  0.00     0.039 A 
ATOM     30  C   UNL A   1      33.913  33.576  33.206  1.00  0.00     0.014 A 
ATOM     31  C   UNL A   1      35.188  35.539  32.593  1.00  0.00     0.014 A 
ATOM     32  C   UNL A   1      35.072  32.986  33.715  1.00  0.00     0.010 A 
ATOM     33  C   UNL A   1      36.358  34.908  33.009  1.00  0.00     0.010 A 
ATOM     34  C   UNL A   1      36.319  33.609  33.540  1.00  0.00    -0.014 A 
BRANCH  34  35
ATOM     35  C   UNL A   1      37.586  32.885  33.827  1.00  0.00     0.031 A 
ATOM     36  C   UNL A   1      38.355  33.148  35.090  1.00  0.00     0.074 A 
ATOM     37  C   UNL A   1      38.099  32.052  32.897  1.00  0.00     0.049 A 
ATOM     38  N   UNL A   1      39.501  32.650  35.482  1.00  0.00    -0.248 NA
ATOM     39  C   UNL A   1      37.780  34.131  36.020  1.00  0.00     0.031 C 
ATOM     40  C   UNL A   1      37.502  31.772  31.589  1.00  0.00     0.029 A 
ATOM     41  N   UNL A   1      39.240  31.288  32.906  1.00  0.00    -0.354 N 
ATOM     42  C   UNL A   1      39.797  33.281  36.683  1.00  0.00     0.074 A 
ATOM     43  C   UNL A   1      38.735  34.232  36.932  1.00  0.00     0.031 C 
ATOM     44  C   UNL A   1      38.252  30.863  30.945  1.00  0.00     0.029 A 
ATOM     45  C   UNL A   1      39.401  30.522  31.777  1.00  0.00     0.049 A 
ATOM     46  H   UNL A   1      39.883  31.289  33.652  1.00  0.00     0.167 HD
ATOM     47  C   UNL A   1      40.845  33.069  37.515  1.00  0.00     0.037 A 
ATOM     48  C   UNL A   1      40.359  29.632  31.453  1.00  0.00     0.037 A 
ATOM     49  C   UNL A   1      41.872  32.086  37.294  1.00  0.00     0.049 A 
ATOM     50  C   UNL A   1      41.482  29.375  32.418  1.00  0.00     0.074 A 
ATOM     51  C   UNL A   1      42.918  31.726  38.127  1.00  0.00     0.029 A 
ATOM     52  N   UNL A   1      41.981  31.301  36.155  1.00  0.00    -0.354 N 
ATOM     53  N   UNL A   1      41.700  29.910  33.595  1.00  0.00    -0.248 NA
ATOM     54  C   UNL A   1      42.490  28.384  32.012  1.00  0.00     0.031 C 
ATOM     55  C   UNL A   1      43.676  30.746  37.479  1.00  0.00     0.029 A 
ATOM     56  C   UNL A   1      43.085  30.470  36.257  1.00  0.00     0.049 A 
ATOM     57  H   UNL A   1      41.365  31.331  35.388  1.00  0.00     0.167 HD
ATOM     58  C   UNL A   1      42.851  29.307  34.080  1.00  0.00     0.074 A 
ATOM     59  C   UNL A   1      43.279  28.354  33.076  1.00  0.00     0.031 C 
ATOM     60  C   UNL A   1      43.494  29.523  35.253  1.00  0.00     0.037 A 
BRANCH  47  61
ATOM     61  C   UNL A   1      40.922  33.918  38.749  1.00  0.00     0.064 A 
ATOM     62  C   UNL A   1      40.281  33.542  39.940  1.00  0.00     0.173 A 
ATOM     63  C   UNL A   1      41.648  35.118  38.744  1.00  0.00     0.173 A 
ATOM     64  F   UNL A   1      39.563  32.411  39.991  1.00  0.00    -0.203 F 
ATOM     65  C   UNL A   1      40.332  34.356  41.068  1.00  0.00     0.198 A 
ATOM     66  C   UNL A   1      41.722  35.915  39.883  1.00  0.00     0.198 A 
ATOM     67  F   UNL A   1      42.284  35.520  37.633  1.00  0.00    -0.203 F 
ATOM     68  F   UNL A   1      39.663  34.006  42.175  1.00  0.00    -0.200 F 
ATOM     69  C   UNL A   1      41.055  35.539  41.040  1.00  0.00     0.200 A 
ATOM     70  F   UNL A   1      42.428  37.054  39.859  1.00  0.00    -0.200 F 
ATOM     71  F   UNL A   1      41.100  36.323  42.126  1.00  0.00    -0.200 F 
ENDBRANCH  47  61
BRANCH  48  72
ATOM     72  C   UNL A   1      40.265  28.869  30.182  1.00  0.00     0.064 A 
ATOM     73  C   UNL A   1      40.846  29.374  29.009  1.00  0.00     0.173 A 
ATOM     74  C   UNL A   1      39.604  27.637  30.108  1.00  0.00     0.173 A 
ATOM     75  F   UNL A   1      41.470  30.561  29.027  1.00  0.00    -0.203 F 
ATOM     76  C   UNL A   1      40.754  28.679  27.805  1.00  0.00     0.198 A 
ATOM     77  C   UNL A   1      39.532  26.932  28.908  1.00  0.00     0.198 A 
ATOM     78  F   UNL A   1      39.037  27.112  31.204  1.00  0.00    -0.203 F 
ATOM     79  F   UNL A   1      41.285  29.200  26.691  1.00  0.00    -0.200 F 
ATOM     80  C   UNL A   1      40.101  27.456  27.756  1.00  0.00     0.200 A 
ATOM     81  F   UNL A   1      38.909  25.746  28.866  1.00  0.00    -0.200 F 
ATOM     82  F   UNL A   1      40.015  26.786  26.598  1.00  0.00    -0.200 F 
ENDBRANCH  48  72
BRANCH  60  83
ATOM     83  C   UNL A   1      44.712  28.692  35.526  1.00  0.00     0.064 A 
ATOM     84  C   UNL A   1      44.625  27.454  36.176  1.00  0.00     0.173 A 
ATOM     85  C   UNL A   1      45.977  29.131  35.107  1.00  0.00     0.173 A 
ATOM     86  F   UNL A   1      43.439  27.002  36.611  1.00  0.00    -0.203 F 
ATOM     87  C   UNL A   1      45.766  26.693  36.417  1.00  0.00     0.198 A 
ATOM     88  C   UNL A   1      47.112  28.356  35.328  1.00  0.00     0.198 A 
ATOM     89  F   UNL A   1      46.112  30.308  34.477  1.00  0.00    -0.203 F 
ATOM     90  F   UNL A   1      45.666  25.531  37.080  1.00  0.00    -0.200 F 
ATOM     91  C   UNL A   1      47.006  27.141  35.990  1.00  0.00     0.200 A 
ATOM     92  F   UNL A   1      48.309  28.786  34.906  1.00  0.00    -0.200 F 
ATOM     93  F   UNL A   1      48.102  26.406  36.220  1.00  0.00    -0.200 F 
ENDBRANCH  60  83
ENDBRANCH  34  35
ENDBRANCH  26  29
ENDBRANCH  24  25
ENDBRANCH  23  24
ENDBRANCH  22  23
ENDBRANCH  21  22
ENDBRANCH   1  21
TORSDOF 18
ENDMDL
