MODEL 1
REMARK VINA RESULT:     -12.2      0.000      0.000
REMARK SMILES O=C(Cc1c[nH]c(=O)n(Cc2ccccc2)c1=O)NCCCCCCNC(=O)c1ccc(-c2c3nc(c(-c4c(F)c(F)c(F)c(F)c4F)c4ccc([nH]4)c(-c4c(F)c(F)c(F)c(F)c4F)c4nc(c(-c5c(F)c(F)c(F)c(F)c5F)c5ccc2[nH]5)C=C4)C=C3)cc1
REMARK SMILES IDX 22 1 21 2 20 3 19 4 1 5 2 6 3 8 4 9 5 10 17 11 6 12 9 13
REMARK SMILES IDX 18 14 7 15 8 17 10 18 11 19 12 20 16 21 13 22 15 23 14 24
REMARK SMILES IDX 23 25 24 26 25 27 26 28 27 29 28 31 29 32 30 33 91 34 31 35
REMARK SMILES IDX 90 36 32 37 33 38 34 39 84 40 35 41 89 42 83 43 85 44 36 45
REMARK SMILES IDX 88 46 82 47 81 48 37 50 69 51 49 52 68 53 50 54 53 55 67 56
REMARK SMILES IDX 86 57 51 58 52 59 66 61 87 62 54 63 38 64 39 65 47 66 40 67
REMARK SMILES IDX 41 68 45 69 48 70 42 71 43 72 46 73 44 74 70 75 71 76 79 77
REMARK SMILES IDX 72 78 73 79 77 80 80 81 74 82 75 83 78 84 76 85 55 86 56 87
REMARK SMILES IDX 64 88 57 89 58 90 62 91 65 92 59 93 60 94 63 95 61 96
REMARK H PARENT 19 7 6 16 26 30 85 49 53 60
REMARK Flexibility Score: inf
ROOT
ATOM      1  C   UNL A   1      33.237  29.884  26.951  1.00  0.00     0.002 C 
ENDROOT
BRANCH   1   2
ATOM      2  C   UNL A   1      33.656  28.756  25.995  1.00  0.00     0.021 C 
BRANCH   2   3
ATOM      3  C   UNL A   1      33.255  28.964  24.533  1.00  0.00     0.116 C 
BRANCH   3   4
ATOM      4  N   UNL A   1      32.278  27.981  24.108  1.00  0.00    -0.356 N 
ATOM      5  O   UNL A   1      30.571  29.469  23.748  1.00  0.00    -0.275 OA
ATOM      6  C   UNL A   1      30.984  28.314  23.763  1.00  0.00     0.224 C 
ATOM      7  H   UNL A   1      32.549  27.036  24.065  1.00  0.00     0.163 HD
BRANCH   6   8
ATOM      8  C   UNL A   1      30.056  27.121  23.563  1.00  0.00     0.142 C 
BRANCH   8   9
ATOM      9  C   UNL A   1      30.350  25.954  24.457  1.00  0.00     0.043 A 
ATOM     10  C   UNL A   1      29.791  25.790  25.661  1.00  0.00     0.097 A 
ATOM     11  C   UNL A   1      31.235  24.870  23.940  1.00  0.00     0.260 A 
ATOM     12  N   UNL A   1      30.006  24.666  26.393  1.00  0.00    -0.314 N 
ATOM     13  N   UNL A   1      31.386  23.752  24.749  1.00  0.00    -0.256 N 
ATOM     14  O   UNL A   1      31.754  24.992  22.833  1.00  0.00    -0.269 OA
ATOM     15  C   UNL A   1      30.756  23.603  25.972  1.00  0.00     0.328 A 
ATOM     16  H   UNL A   1      29.595  24.614  27.286  1.00  0.00     0.171 HD
ATOM     17  O   UNL A   1      30.808  22.597  26.678  1.00  0.00    -0.248 OA
BRANCH  13  18
ATOM     18  C   UNL A   1      32.216  22.656  24.271  1.00  0.00     0.166 C 
BRANCH  18  19
ATOM     19  C   UNL A   1      33.695  22.938  24.437  1.00  0.00    -0.028 A 
ATOM     20  C   UNL A   1      34.234  23.199  25.707  1.00  0.00     0.005 A 
ATOM     21  C   UNL A   1      34.550  22.957  23.327  1.00  0.00     0.005 A 
ATOM     22  C   UNL A   1      35.592  23.477  25.862  1.00  0.00     0.000 A 
ATOM     23  C   UNL A   1      35.911  23.221  23.485  1.00  0.00     0.000 A 
ATOM     24  C   UNL A   1      36.431  23.485  24.752  1.00  0.00     0.000 A 
ENDBRANCH  18  19
ENDBRANCH  13  18
ENDBRANCH   8   9
ENDBRANCH   6   8
ENDBRANCH   3   4
ENDBRANCH   2   3
ENDBRANCH   1   2
BRANCH   1  25
ATOM     25  C   UNL A   1      31.794  30.376  26.811  1.00  0.00     0.002 C 
BRANCH  25  26
ATOM     26  C   UNL A   1      31.616  31.893  26.774  1.00  0.00     0.021 C 
BRANCH  26  27
ATOM     27  C   UNL A   1      32.767  32.696  27.369  1.00  0.00     0.116 C 
BRANCH  27  28
ATOM     28  N   UNL A   1      32.410  34.076  27.670  1.00  0.00    -0.352 N 
ATOM     29  C   UNL A   1      32.982  34.943  28.573  1.00  0.00     0.251 C 
ATOM     30  H   UNL A   1      31.653  34.439  27.155  1.00  0.00     0.163 HD
ATOM     31  O   UNL A   1      32.482  36.042  28.786  1.00  0.00    -0.269 OA
BRANCH  29  32
ATOM     32  C   UNL A   1      34.183  34.520  29.325  1.00  0.00     0.039 A 
ATOM     33  C   UNL A   1      35.460  34.716  28.794  1.00  0.00     0.014 A 
ATOM     34  C   UNL A   1      34.024  33.869  30.552  1.00  0.00     0.014 A 
ATOM     35  C   UNL A   1      36.555  34.103  29.395  1.00  0.00     0.010 A 
ATOM     36  C   UNL A   1      35.138  33.320  31.195  1.00  0.00     0.010 A 
ATOM     37  C   UNL A   1      36.403  33.380  30.590  1.00  0.00    -0.014 A 
BRANCH  37  38
ATOM     38  C   UNL A   1      37.570  32.663  31.165  1.00  0.00     0.031 A 
ATOM     39  C   UNL A   1      38.059  32.984  32.552  1.00  0.00     0.074 A 
ATOM     40  C   UNL A   1      38.150  31.671  30.463  1.00  0.00     0.049 A 
ATOM     41  N   UNL A   1      39.046  32.448  33.227  1.00  0.00    -0.248 NA
ATOM     42  C   UNL A   1      37.348  34.045  33.283  1.00  0.00     0.031 C 
ATOM     43  C   UNL A   1      37.754  31.250  29.119  1.00  0.00     0.029 A 
ATOM     44  N   UNL A   1      39.173  30.818  30.793  1.00  0.00    -0.354 N 
ATOM     45  C   UNL A   1      39.084  33.114  34.444  1.00  0.00     0.074 A 
ATOM     46  C   UNL A   1      38.040  34.114  34.411  1.00  0.00     0.031 C 
ATOM     47  C   UNL A   1      38.487  30.186  28.759  1.00  0.00     0.029 A 
ATOM     48  C   UNL A   1      39.442  29.884  29.822  1.00  0.00     0.049 A 
ATOM     49  H   UNL A   1      39.665  30.869  31.643  1.00  0.00     0.167 HD
ATOM     50  C   UNL A   1      39.907  32.902  35.499  1.00  0.00     0.037 A 
ATOM     51  C   UNL A   1      40.359  28.900  29.787  1.00  0.00     0.037 A 
ATOM     52  C   UNL A   1      40.928  31.888  35.545  1.00  0.00     0.049 A 
ATOM     53  C   UNL A   1      41.286  28.714  30.954  1.00  0.00     0.074 A 
ATOM     54  C   UNL A   1      41.799  31.587  36.580  1.00  0.00     0.029 A 
ATOM     55  N   UNL A   1      41.212  31.006  34.515  1.00  0.00    -0.354 N 
ATOM     56  N   UNL A   1      41.317  29.358  32.095  1.00  0.00    -0.248 NA
ATOM     57  C   UNL A   1      42.316  27.673  30.823  1.00  0.00     0.031 C 
ATOM     58  C   UNL A   1      42.633  30.546  36.161  1.00  0.00     0.029 A 
ATOM     59  C   UNL A   1      42.256  30.171  34.882  1.00  0.00     0.049 A 
ATOM     60  H   UNL A   1      40.742  30.976  33.650  1.00  0.00     0.167 HD
ATOM     61  C   UNL A   1      42.359  28.799  32.820  1.00  0.00     0.074 A 
ATOM     62  C   UNL A   1      42.923  27.747  32.000  1.00  0.00     0.031 C 
ATOM     63  C   UNL A   1      42.810  29.133  34.053  1.00  0.00     0.037 A 
BRANCH  50  64
ATOM     64  C   UNL A   1      39.745  33.784  36.702  1.00  0.00     0.064 A 
ATOM     65  C   UNL A   1      40.374  35.034  36.785  1.00  0.00     0.173 A 
ATOM     66  C   UNL A   1      38.894  33.405  37.752  1.00  0.00     0.173 A 
ATOM     67  F   UNL A   1      41.207  35.436  35.813  1.00  0.00    -0.203 F 
ATOM     68  C   UNL A   1      40.167  35.869  37.881  1.00  0.00     0.198 A 
ATOM     69  C   UNL A   1      38.672  34.252  38.835  1.00  0.00     0.198 A 
ATOM     70  F   UNL A   1      38.264  32.221  37.717  1.00  0.00    -0.203 F 
ATOM     71  F   UNL A   1      40.802  37.047  37.952  1.00  0.00    -0.200 F 
ATOM     72  C   UNL A   1      39.309  35.481  38.900  1.00  0.00     0.200 A 
ATOM     73  F   UNL A   1      37.834  33.881  39.813  1.00  0.00    -0.200 F 
ATOM     74  F   UNL A   1      39.102  36.292  39.946  1.00  0.00    -0.200 F 
ENDBRANCH  50  64
BRANCH  51  75
ATOM     75  C   UNL A   1      40.433  28.012  28.601  1.00  0.00     0.064 A 
ATOM     76  C   UNL A   1      41.193  28.371  27.481  1.00  0.00     0.173 A 
ATOM     77  C   UNL A   1      39.774  26.774  28.576  1.00  0.00     0.173 A 
ATOM     78  F   UNL A   1      41.823  29.555  27.451  1.00  0.00    -0.203 F 
ATOM     79  C   UNL A   1      41.291  27.525  26.378  1.00  0.00     0.198 A 
ATOM     80  C   UNL A   1      39.893  25.917  27.484  1.00  0.00     0.198 A 
ATOM     81  F   UNL A   1      39.035  26.386  29.626  1.00  0.00    -0.203 F 
ATOM     82  F   UNL A   1      42.004  27.902  25.308  1.00  0.00    -0.200 F 
ATOM     83  C   UNL A   1      40.649  26.296  26.384  1.00  0.00     0.200 A 
ATOM     84  F   UNL A   1      39.283  24.725  27.502  1.00  0.00    -0.200 F 
ATOM     85  F   UNL A   1      40.757  25.476  25.331  1.00  0.00    -0.200 F 
ENDBRANCH  51  75
BRANCH  63  86
ATOM     86  C   UNL A   1      43.969  28.353  34.598  1.00  0.00     0.064 A 
ATOM     87  C   UNL A   1      45.290  28.778  34.398  1.00  0.00     0.173 A 
ATOM     88  C   UNL A   1      43.755  27.207  35.378  1.00  0.00     0.173 A 
ATOM     89  F   UNL A   1      45.544  29.860  33.647  1.00  0.00    -0.203 F 
ATOM     90  C   UNL A   1      46.357  28.073  34.948  1.00  0.00     0.198 A 
ATOM     91  C   UNL A   1      44.823  26.519  35.946  1.00  0.00     0.198 A 
ATOM     92  F   UNL A   1      42.508  26.765  35.602  1.00  0.00    -0.203 F 
ATOM     93  F   UNL A   1      47.615  28.478  34.719  1.00  0.00    -0.200 F 
ATOM     94  C   UNL A   1      46.122  26.951  35.729  1.00  0.00     0.200 A 
ATOM     95  F   UNL A   1      44.594  25.442  36.709  1.00  0.00    -0.200 F 
ATOM     96  F   UNL A   1      47.151  26.281  36.268  1.00  0.00    -0.200 F 
ENDBRANCH  63  86
ENDBRANCH  37  38
ENDBRANCH  29  32
ENDBRANCH  27  28
ENDBRANCH  26  27
ENDBRANCH  25  26
ENDBRANCH   1  25
TORSDOF 16
ENDMDL
MODEL 2
REMARK VINA RESULT:     -12.1      1.740      2.792
REMARK SMILES O=C(Cc1c[nH]c(=O)n(Cc2ccccc2)c1=O)NCCCCCCNC(=O)c1ccc(-c2c3nc(c(-c4c(F)c(F)c(F)c(F)c4F)c4ccc([nH]4)c(-c4c(F)c(F)c(F)c(F)c4F)c4nc(c(-c5c(F)c(F)c(F)c(F)c5F)c5ccc2[nH]5)C=C4)C=C3)cc1
REMARK SMILES IDX 22 1 21 2 20 3 19 4 1 5 2 6 3 8 4 9 5 10 17 11 6 12 9 13
REMARK SMILES IDX 18 14 7 15 8 17 10 18 11 19 12 20 16 21 13 22 15 23 14 24
REMARK SMILES IDX 23 25 24 26 25 27 26 28 27 29 28 31 29 32 30 33 91 34 31 35
REMARK SMILES IDX 90 36 32 37 33 38 34 39 84 40 35 41 89 42 83 43 85 44 36 45
REMARK SMILES IDX 88 46 82 47 81 48 37 50 69 51 49 52 68 53 50 54 53 55 67 56
REMARK SMILES IDX 86 57 51 58 52 59 66 61 87 62 54 63 38 64 39 65 47 66 40 67
REMARK SMILES IDX 41 68 45 69 48 70 42 71 43 72 46 73 44 74 70 75 71 76 79 77
REMARK SMILES IDX 72 78 73 79 77 80 80 81 74 82 75 83 78 84 76 85 55 86 56 87
REMARK SMILES IDX 64 88 57 89 58 90 62 91 65 92 59 93 60 94 63 95 61 96
REMARK H PARENT 19 7 6 16 26 30 85 49 53 60
REMARK Flexibility Score: inf
ROOT
ATOM      1  C   UNL A   1      32.164  29.246  27.172  1.00  0.00     0.002 C 
ENDROOT
BRANCH   1   2
ATOM      2  C   UNL A   1      32.225  27.865  26.502  1.00  0.00     0.021 C 
BRANCH   2   3
ATOM      3  C   UNL A   1      33.632  27.380  26.144  1.00  0.00     0.116 C 
BRANCH   3   4
ATOM      4  N   UNL A   1      33.586  26.196  25.309  1.00  0.00    -0.356 N 
ATOM      5  O   UNL A   1      33.854  27.293  23.313  1.00  0.00    -0.275 OA
ATOM      6  C   UNL A   1      33.682  26.248  23.933  1.00  0.00     0.224 C 
ATOM      7  H   UNL A   1      33.482  25.319  25.741  1.00  0.00     0.163 HD
BRANCH   6   8
ATOM      8  C   UNL A   1      33.388  24.928  23.228  1.00  0.00     0.142 C 
BRANCH   8   9
ATOM      9  C   UNL A   1      34.239  23.782  23.687  1.00  0.00     0.043 A 
ATOM     10  C   UNL A   1      35.576  23.796  23.646  1.00  0.00     0.097 A 
ATOM     11  C   UNL A   1      33.568  22.606  24.312  1.00  0.00     0.260 A 
ATOM     12  N   UNL A   1      36.310  22.778  24.168  1.00  0.00    -0.314 N 
ATOM     13  N   UNL A   1      34.397  21.621  24.832  1.00  0.00    -0.256 N 
ATOM     14  O   UNL A   1      32.341  22.573  24.371  1.00  0.00    -0.269 OA
ATOM     15  C   UNL A   1      35.778  21.692  24.806  1.00  0.00     0.328 A 
ATOM     16  H   UNL A   1      37.289  22.827  24.080  1.00  0.00     0.171 HD
ATOM     17  O   UNL A   1      36.540  20.876  25.322  1.00  0.00    -0.248 OA
BRANCH  13  18
ATOM     18  C   UNL A   1      33.785  20.469  25.479  1.00  0.00     0.166 C 
BRANCH  18  19
ATOM     19  C   UNL A   1      33.638  19.291  24.539  1.00  0.00    -0.028 A 
ATOM     20  C   UNL A   1      32.575  19.234  23.623  1.00  0.00     0.005 A 
ATOM     21  C   UNL A   1      34.552  18.228  24.576  1.00  0.00     0.005 A 
ATOM     22  C   UNL A   1      32.427  18.142  22.769  1.00  0.00     0.000 A 
ATOM     23  C   UNL A   1      34.409  17.142  23.710  1.00  0.00     0.000 A 
ATOM     24  C   UNL A   1      33.345  17.097  22.811  1.00  0.00     0.000 A 
ENDBRANCH  18  19
ENDBRANCH  13  18
ENDBRANCH   8   9
ENDBRANCH   6   8
ENDBRANCH   3   4
ENDBRANCH   2   3
ENDBRANCH   1   2
BRANCH   1  25
ATOM     25  C   UNL A   1      32.055  30.444  26.224  1.00  0.00     0.002 C 
BRANCH  25  26
ATOM     26  C   UNL A   1      31.658  31.767  26.876  1.00  0.00     0.021 C 
BRANCH  26  27
ATOM     27  C   UNL A   1      32.821  32.646  27.321  1.00  0.00     0.116 C 
BRANCH  27  28
ATOM     28  N   UNL A   1      32.422  34.012  27.630  1.00  0.00    -0.352 N 
ATOM     29  C   UNL A   1      32.955  34.884  28.552  1.00  0.00     0.251 C 
ATOM     30  H   UNL A   1      31.664  34.361  27.107  1.00  0.00     0.163 HD
ATOM     31  O   UNL A   1      32.423  35.967  28.769  1.00  0.00    -0.269 OA
BRANCH  29  32
ATOM     32  C   UNL A   1      34.155  34.485  29.320  1.00  0.00     0.039 A 
ATOM     33  C   UNL A   1      35.433  34.660  28.784  1.00  0.00     0.014 A 
ATOM     34  C   UNL A   1      33.993  33.876  30.567  1.00  0.00     0.014 A 
ATOM     35  C   UNL A   1      36.526  34.066  29.407  1.00  0.00     0.010 A 
ATOM     36  C   UNL A   1      35.105  33.347  31.230  1.00  0.00     0.010 A 
ATOM     37  C   UNL A   1      36.371  33.385  30.626  1.00  0.00    -0.014 A 
BRANCH  37  38
ATOM     38  C   UNL A   1      37.536  32.686  31.226  1.00  0.00     0.031 A 
ATOM     39  C   UNL A   1      38.014  33.042  32.608  1.00  0.00     0.074 A 
ATOM     40  C   UNL A   1      38.123  31.677  30.553  1.00  0.00     0.049 A 
ATOM     41  N   UNL A   1      38.999  32.525  33.303  1.00  0.00    -0.248 NA
ATOM     42  C   UNL A   1      37.295  34.118  33.307  1.00  0.00     0.031 C 
ATOM     43  C   UNL A   1      37.738  31.223  29.218  1.00  0.00     0.029 A 
ATOM     44  N   UNL A   1      39.146  30.836  30.911  1.00  0.00    -0.354 N 
ATOM     45  C   UNL A   1      39.027  33.222  34.503  1.00  0.00     0.074 A 
ATOM     46  C   UNL A   1      37.979  34.217  34.439  1.00  0.00     0.031 C 
ATOM     47  C   UNL A   1      38.476  30.152  28.889  1.00  0.00     0.029 A 
ATOM     48  C   UNL A   1      39.424  29.879  29.966  1.00  0.00     0.049 A 
ATOM     49  H   UNL A   1      39.633  30.910  31.763  1.00  0.00     0.167 HD
ATOM     50  C   UNL A   1      39.842  33.038  35.569  1.00  0.00     0.037 A 
ATOM     51  C   UNL A   1      40.344  28.897  29.961  1.00  0.00     0.037 A 
ATOM     52  C   UNL A   1      40.866  32.028  35.647  1.00  0.00     0.049 A 
ATOM     53  C   UNL A   1      41.264  28.743  31.139  1.00  0.00     0.074 A 
ATOM     54  C   UNL A   1      41.730  31.756  36.695  1.00  0.00     0.029 A 
ATOM     55  N   UNL A   1      41.159  31.122  34.641  1.00  0.00    -0.354 N 
ATOM     56  N   UNL A   1      41.285  29.415  32.264  1.00  0.00    -0.248 NA
ATOM     57  C   UNL A   1      42.297  27.701  31.040  1.00  0.00     0.031 C 
ATOM     58  C   UNL A   1      42.570  30.707  36.307  1.00  0.00     0.029 A 
ATOM     59  C   UNL A   1      42.203  30.299  35.036  1.00  0.00     0.049 A 
ATOM     60  H   UNL A   1      40.695  31.069  33.774  1.00  0.00     0.167 HD
ATOM     61  C   UNL A   1      42.324  28.876  33.009  1.00  0.00     0.074 A 
ATOM     62  C   UNL A   1      42.896  27.806  32.219  1.00  0.00     0.031 C 
ATOM     63  C   UNL A   1      42.765  29.242  34.237  1.00  0.00     0.037 A 
BRANCH  50  64
ATOM     64  C   UNL A   1      39.670  33.949  36.749  1.00  0.00     0.064 A 
ATOM     65  C   UNL A   1      38.862  33.592  37.838  1.00  0.00     0.173 A 
ATOM     66  C   UNL A   1      40.375  35.160  36.821  1.00  0.00     0.173 A 
ATOM     67  F   UNL A   1      38.158  32.451  37.812  1.00  0.00    -0.203 F 
ATOM     68  C   UNL A   1      38.758  34.421  38.954  1.00  0.00     0.198 A 
ATOM     69  C   UNL A   1      40.287  35.974  37.947  1.00  0.00     0.198 A 
ATOM     70  F   UNL A   1      41.166  35.543  35.807  1.00  0.00    -0.203 F 
ATOM     71  F   UNL A   1      37.958  34.073  39.971  1.00  0.00    -0.200 F 
ATOM     72  C   UNL A   1      39.478  35.606  39.011  1.00  0.00     0.200 A 
ATOM     73  F   UNL A   1      40.991  37.113  38.006  1.00  0.00    -0.200 F 
ATOM     74  F   UNL A   1      39.386  36.394  40.090  1.00  0.00    -0.200 F 
ENDBRANCH  50  64
BRANCH  51  75
ATOM     75  C   UNL A   1      40.428  27.980  28.797  1.00  0.00     0.064 A 
ATOM     76  C   UNL A   1      39.720  26.772  28.783  1.00  0.00     0.173 A 
ATOM     77  C   UNL A   1      41.190  28.307  27.666  1.00  0.00     0.173 A 
ATOM     78  F   UNL A   1      38.995  26.408  29.852  1.00  0.00    -0.203 F 
ATOM     79  C   UNL A   1      39.770  25.923  27.680  1.00  0.00     0.198 A 
ATOM     80  C   UNL A   1      41.219  27.470  26.552  1.00  0.00     0.198 A 
ATOM     81  F   UNL A   1      41.885  29.454  27.633  1.00  0.00    -0.203 F 
ATOM     82  F   UNL A   1      39.103  24.762  27.699  1.00  0.00    -0.200 F 
ATOM     83  C   UNL A   1      40.512  26.277  26.562  1.00  0.00     0.200 A 
ATOM     84  F   UNL A   1      41.925  27.824  25.471  1.00  0.00    -0.200 F 
ATOM     85  F   UNL A   1      40.546  25.469  25.495  1.00  0.00    -0.200 F 
ENDBRANCH  51  75
BRANCH  63  86
ATOM     86  C   UNL A   1      43.923  28.479  34.808  1.00  0.00     0.064 A 
ATOM     87  C   UNL A   1      45.241  28.928  34.646  1.00  0.00     0.173 A 
ATOM     88  C   UNL A   1      43.707  27.326  35.576  1.00  0.00     0.173 A 
ATOM     89  F   UNL A   1      45.496  30.019  33.908  1.00  0.00    -0.203 F 
ATOM     90  C   UNL A   1      46.305  28.239  35.222  1.00  0.00     0.198 A 
ATOM     91  C   UNL A   1      44.771  26.653  36.170  1.00  0.00     0.198 A 
ATOM     92  F   UNL A   1      42.463  26.861  35.764  1.00  0.00    -0.203 F 
ATOM     93  F   UNL A   1      47.561  28.667  35.029  1.00  0.00    -0.200 F 
ATOM     94  C   UNL A   1      46.069  27.109  35.989  1.00  0.00     0.200 A 
ATOM     95  F   UNL A   1      44.541  25.568  36.920  1.00  0.00    -0.200 F 
ATOM     96  F   UNL A   1      47.094  26.453  36.552  1.00  0.00    -0.200 F 
ENDBRANCH  63  86
ENDBRANCH  37  38
ENDBRANCH  29  32
ENDBRANCH  27  28
ENDBRANCH  26  27
ENDBRANCH  25  26
ENDBRANCH   1  25
TORSDOF 16
ENDMDL
MODEL 3
REMARK VINA RESULT:     -12.1      0.844      1.621
REMARK SMILES O=C(Cc1c[nH]c(=O)n(Cc2ccccc2)c1=O)NCCCCCCNC(=O)c1ccc(-c2c3nc(c(-c4c(F)c(F)c(F)c(F)c4F)c4ccc([nH]4)c(-c4c(F)c(F)c(F)c(F)c4F)c4nc(c(-c5c(F)c(F)c(F)c(F)c5F)c5ccc2[nH]5)C=C4)C=C3)cc1
REMARK SMILES IDX 22 1 21 2 20 3 19 4 1 5 2 6 3 8 4 9 5 10 17 11 6 12 9 13
REMARK SMILES IDX 18 14 7 15 8 17 10 18 11 19 12 20 16 21 13 22 15 23 14 24
REMARK SMILES IDX 23 25 24 26 25 27 26 28 27 29 28 31 29 32 30 33 91 34 31 35
REMARK SMILES IDX 90 36 32 37 33 38 34 39 84 40 35 41 89 42 83 43 85 44 36 45
REMARK SMILES IDX 88 46 82 47 81 48 37 50 69 51 49 52 68 53 50 54 53 55 67 56
REMARK SMILES IDX 86 57 51 58 52 59 66 61 87 62 54 63 38 64 39 65 47 66 40 67
REMARK SMILES IDX 41 68 45 69 48 70 42 71 43 72 46 73 44 74 70 75 71 76 79 77
REMARK SMILES IDX 72 78 73 79 77 80 80 81 74 82 75 83 78 84 76 85 55 86 56 87
REMARK SMILES IDX 64 88 57 89 58 90 62 91 65 92 59 93 60 94 63 95 61 96
REMARK H PARENT 19 7 6 16 26 30 85 49 53 60
REMARK Flexibility Score: inf
ROOT
ATOM      1  C   UNL A   1      33.347  29.988  27.250  1.00  0.00     0.002 C 
ENDROOT
BRANCH   1   2
ATOM      2  C   UNL A   1      34.022  28.915  26.380  1.00  0.00     0.021 C 
BRANCH   2   3
ATOM      3  C   UNL A   1      33.254  28.530  25.114  1.00  0.00     0.116 C 
BRANCH   3   4
ATOM      4  N   UNL A   1      32.466  27.331  25.317  1.00  0.00    -0.356 N 
ATOM      5  O   UNL A   1      30.583  28.089  24.251  1.00  0.00    -0.275 OA
ATOM      6  C   UNL A   1      31.163  27.209  24.881  1.00  0.00     0.224 C 
ATOM      7  H   UNL A   1      32.879  26.571  25.787  1.00  0.00     0.163 HD
BRANCH   6   8
ATOM      8  C   UNL A   1      30.440  25.966  25.385  1.00  0.00     0.142 C 
BRANCH   8   9
ATOM      9  C   UNL A   1      30.946  24.680  24.803  1.00  0.00     0.043 A 
ATOM     10  C   UNL A   1      30.759  24.326  23.527  1.00  0.00     0.097 A 
ATOM     11  C   UNL A   1      31.784  23.794  25.662  1.00  0.00     0.260 A 
ATOM     12  N   UNL A   1      31.323  23.201  23.015  1.00  0.00    -0.314 N 
ATOM     13  N   UNL A   1      32.332  22.675  25.051  1.00  0.00    -0.256 N 
ATOM     14  O   UNL A   1      31.979  24.101  26.835  1.00  0.00    -0.269 OA
ATOM     15  C   UNL A   1      32.149  22.365  23.715  1.00  0.00     0.328 A 
ATOM     16  H   UNL A   1      31.124  22.974  22.078  1.00  0.00     0.171 HD
ATOM     17  O   UNL A   1      32.679  21.425  23.125  1.00  0.00    -0.248 OA
BRANCH  13  18
ATOM     18  C   UNL A   1      33.183  21.798  25.843  1.00  0.00     0.166 C 
BRANCH  18  19
ATOM     19  C   UNL A   1      34.656  22.080  25.632  1.00  0.00    -0.028 A 
ATOM     20  C   UNL A   1      35.510  21.082  25.135  1.00  0.00     0.005 A 
ATOM     21  C   UNL A   1      35.197  23.335  25.942  1.00  0.00     0.005 A 
ATOM     22  C   UNL A   1      36.871  21.333  24.956  1.00  0.00     0.000 A 
ATOM     23  C   UNL A   1      36.557  23.588  25.750  1.00  0.00     0.000 A 
ATOM     24  C   UNL A   1      37.393  22.585  25.262  1.00  0.00     0.000 A 
ENDBRANCH  18  19
ENDBRANCH  13  18
ENDBRANCH   8   9
ENDBRANCH   6   8
ENDBRANCH   3   4
ENDBRANCH   2   3
ENDBRANCH   1   2
BRANCH   1  25
ATOM     25  C   UNL A   1      31.949  30.427  26.802  1.00  0.00     0.002 C 
BRANCH  25  26
ATOM     26  C   UNL A   1      31.684  31.931  26.853  1.00  0.00     0.021 C 
BRANCH  26  27
ATOM     27  C   UNL A   1      32.867  32.784  27.297  1.00  0.00     0.116 C 
BRANCH  27  28
ATOM     28  N   UNL A   1      32.496  34.153  27.626  1.00  0.00    -0.352 N 
ATOM     29  C   UNL A   1      33.038  34.996  28.570  1.00  0.00     0.251 C 
ATOM     30  H   UNL A   1      31.754  34.529  27.100  1.00  0.00     0.163 HD
ATOM     31  O   UNL A   1      32.528  36.087  28.800  1.00  0.00    -0.269 OA
BRANCH  29  32
ATOM     32  C   UNL A   1      34.218  34.555  29.346  1.00  0.00     0.039 A 
ATOM     33  C   UNL A   1      35.507  34.717  28.833  1.00  0.00     0.014 A 
ATOM     34  C   UNL A   1      34.026  33.920  30.576  1.00  0.00     0.014 A 
ATOM     35  C   UNL A   1      36.579  34.087  29.457  1.00  0.00     0.010 A 
ATOM     36  C   UNL A   1      35.116  33.353  31.242  1.00  0.00     0.010 A 
ATOM     37  C   UNL A   1      36.392  33.380  30.658  1.00  0.00    -0.014 A 
BRANCH  37  38
ATOM     38  C   UNL A   1      37.535  32.644  31.258  1.00  0.00     0.031 A 
ATOM     39  C   UNL A   1      38.002  32.962  32.653  1.00  0.00     0.074 A 
ATOM     40  C   UNL A   1      38.109  31.638  30.571  1.00  0.00     0.049 A 
ATOM     41  N   UNL A   1      38.966  32.410  33.349  1.00  0.00    -0.248 NA
ATOM     42  C   UNL A   1      37.297  34.039  33.365  1.00  0.00     0.031 C 
ATOM     43  C   UNL A   1      37.731  31.219  29.222  1.00  0.00     0.029 A 
ATOM     44  N   UNL A   1      39.109  30.767  30.925  1.00  0.00    -0.354 N 
ATOM     45  C   UNL A   1      38.993  33.081  34.564  1.00  0.00     0.074 A 
ATOM     46  C   UNL A   1      37.968  34.100  34.506  1.00  0.00     0.031 C 
ATOM     47  C   UNL A   1      38.451  30.139  28.880  1.00  0.00     0.029 A 
ATOM     48  C   UNL A   1      39.379  29.824  29.963  1.00  0.00     0.049 A 
ATOM     49  H   UNL A   1      39.586  30.813  31.784  1.00  0.00     0.167 HD
ATOM     50  C   UNL A   1      39.791  32.858  35.635  1.00  0.00     0.037 A 
ATOM     51  C   UNL A   1      40.278  28.823  29.950  1.00  0.00     0.037 A 
ATOM     52  C   UNL A   1      40.791  31.826  35.706  1.00  0.00     0.049 A 
ATOM     53  C   UNL A   1      41.178  28.625  31.136  1.00  0.00     0.074 A 
ATOM     54  C   UNL A   1      41.636  31.513  36.758  1.00  0.00     0.029 A 
ATOM     55  N   UNL A   1      41.079  30.934  34.685  1.00  0.00    -0.354 N 
ATOM     56  N   UNL A   1      41.199  29.273  32.275  1.00  0.00    -0.248 NA
ATOM     57  C   UNL A   1      42.190  27.564  31.029  1.00  0.00     0.031 C 
ATOM     58  C   UNL A   1      42.459  30.455  36.360  1.00  0.00     0.029 A 
ATOM     59  C   UNL A   1      42.100  30.081  35.076  1.00  0.00     0.049 A 
ATOM     60  H   UNL A   1      40.625  30.909  33.811  1.00  0.00     0.167 HD
ATOM     61  C   UNL A   1      42.217  28.698  33.021  1.00  0.00     0.074 A 
ATOM     62  C   UNL A   1      42.776  27.632  32.217  1.00  0.00     0.031 C 
ATOM     63  C   UNL A   1      42.649  29.029  34.262  1.00  0.00     0.037 A 
BRANCH  50  64
ATOM     64  C   UNL A   1      39.622  33.749  36.831  1.00  0.00     0.064 A 
ATOM     65  C   UNL A   1      40.218  35.017  36.891  1.00  0.00     0.173 A 
ATOM     66  C   UNL A   1      38.798  33.359  37.898  1.00  0.00     0.173 A 
ATOM     67  F   UNL A   1      41.024  35.431  35.902  1.00  0.00    -0.203 F 
ATOM     68  C   UNL A   1      40.004  35.858  37.981  1.00  0.00     0.198 A 
ATOM     69  C   UNL A   1      38.568  34.210  38.975  1.00  0.00     0.198 A 
ATOM     70  F   UNL A   1      38.200  32.157  37.885  1.00  0.00    -0.203 F 
ATOM     71  F   UNL A   1      40.607  37.054  38.031  1.00  0.00    -0.200 F 
ATOM     72  C   UNL A   1      39.172  35.458  39.017  1.00  0.00     0.200 A 
ATOM     73  F   UNL A   1      37.756  33.828  39.970  1.00  0.00    -0.200 F 
ATOM     74  F   UNL A   1      38.957  36.274  40.058  1.00  0.00    -0.200 F 
ENDBRANCH  50  64
BRANCH  51  75
ATOM     75  C   UNL A   1      40.358  27.928  28.769  1.00  0.00     0.064 A 
ATOM     76  C   UNL A   1      39.652  26.719  28.736  1.00  0.00     0.173 A 
ATOM     77  C   UNL A   1      41.112  28.278  27.639  1.00  0.00     0.173 A 
ATOM     78  F   UNL A   1      38.935  26.333  29.802  1.00  0.00    -0.203 F 
ATOM     79  C   UNL A   1      39.699  25.891  27.616  1.00  0.00     0.198 A 
ATOM     80  C   UNL A   1      41.136  27.463  26.510  1.00  0.00     0.198 A 
ATOM     81  F   UNL A   1      41.803  29.428  27.624  1.00  0.00    -0.203 F 
ATOM     82  F   UNL A   1      39.035  24.727  27.618  1.00  0.00    -0.200 F 
ATOM     83  C   UNL A   1      40.433  26.268  26.501  1.00  0.00     0.200 A 
ATOM     84  F   UNL A   1      41.835  27.839  25.431  1.00  0.00    -0.200 F 
ATOM     85  F   UNL A   1      40.463  25.480  25.419  1.00  0.00    -0.200 F 
ENDBRANCH  51  75
BRANCH  63  86
ATOM     86  C   UNL A   1      43.783  28.230  34.832  1.00  0.00     0.064 A 
ATOM     87  C   UNL A   1      45.113  28.653  34.696  1.00  0.00     0.173 A 
ATOM     88  C   UNL A   1      43.533  27.066  35.574  1.00  0.00     0.173 A 
ATOM     89  F   UNL A   1      45.401  29.753  33.983  1.00  0.00    -0.203 F 
ATOM     90  C   UNL A   1      46.155  27.930  35.270  1.00  0.00     0.198 A 
ATOM     91  C   UNL A   1      44.575  26.359  36.167  1.00  0.00     0.198 A 
ATOM     92  F   UNL A   1      42.277  26.625  35.737  1.00  0.00    -0.203 F 
ATOM     93  F   UNL A   1      47.422  28.334  35.101  1.00  0.00    -0.200 F 
ATOM     94  C   UNL A   1      45.884  26.790  36.012  1.00  0.00     0.200 A 
ATOM     95  F   UNL A   1      44.312  25.264  36.892  1.00  0.00    -0.200 F 
ATOM     96  F   UNL A   1      46.888  26.101  36.574  1.00  0.00    -0.200 F 
ENDBRANCH  63  86
ENDBRANCH  37  38
ENDBRANCH  29  32
ENDBRANCH  27  28
ENDBRANCH  26  27
ENDBRANCH  25  26
ENDBRANCH   1  25
TORSDOF 16
ENDMDL
