MODEL 1
REMARK VINA RESULT:     -11.1      0.000      0.000
REMARK SMILES C[C@@H]([NH+]1CCC(CCC(=O)NCCCCCCNC(=O)c2ccc(-c3c4nc(c(-c5c(F)c(F)c(F)c(F)c5F)c5ccc([nH]5)c(-c5c(F)c(F)c(F)c(F)c5F)c5nc(c(-c6c(F)c(F)c(F)c(F)c6F)c6ccc3[nH]6)C=C5)C=C4)cc2)CC1)C1(C)CC1
REMARK SMILES IDX 13 1 12 2 11 3 9 4 10 5 8 7 7 8 6 9 3 10 4 11 85 12 5 14
REMARK SMILES IDX 84 15 2 16 1 17 86 18 87 19 88 20 89 21 14 22 15 23 16 24
REMARK SMILES IDX 17 25 18 26 19 27 20 29 21 30 22 31 83 32 23 33 82 34 24 35
REMARK SMILES IDX 25 36 26 37 76 38 27 39 81 40 75 41 77 42 28 43 80 44 74 45
REMARK SMILES IDX 73 46 29 48 61 49 41 50 60 51 42 52 45 53 59 54 78 55 43 56
REMARK SMILES IDX 44 57 58 59 79 60 46 61 30 62 31 63 39 64 32 65 33 66 37 67
REMARK SMILES IDX 40 68 34 69 35 70 38 71 36 72 62 73 63 74 71 75 64 76 65 77
REMARK SMILES IDX 69 78 72 79 66 80 67 81 70 82 68 83 47 84 48 85 56 86 49 87
REMARK SMILES IDX 50 88 54 89 57 90 51 91 52 92 55 93 53 94
REMARK H PARENT 11 6 3 13 18 28 77 47 45 58
REMARK Flexibility Score: inf
ROOT
ATOM      1  C   UNL A   1      31.719  28.234  27.245  1.00  0.00     0.021 C 
ENDROOT
BRANCH   1   2
ATOM      2  C   UNL A   1      31.847  27.118  26.197  1.00  0.00     0.116 C 
BRANCH   2   3
ATOM      3  N   UNL A   1      30.624  27.011  25.417  1.00  0.00    -0.356 N 
ATOM      4  C   UNL A   1      30.404  27.039  24.074  1.00  0.00     0.220 C 
ATOM      5  O   UNL A   1      29.234  27.049  23.684  1.00  0.00    -0.275 OA
ATOM      6  H   UNL A   1      29.809  26.898  25.959  1.00  0.00     0.163 HD
BRANCH   4   7
ATOM      7  C   UNL A   1      31.549  27.024  23.076  1.00  0.00     0.100 C 
BRANCH   7   8
ATOM      8  C   UNL A   1      31.674  25.724  22.262  1.00  0.00     0.014 C 
BRANCH   8   9
ATOM      9  C   UNL A   1      32.183  24.539  23.088  1.00  0.00     0.000 C 
ATOM     10  N   UNL A   1      32.698  21.757  23.923  1.00  0.00    -0.332 N 
ATOM     11  C   UNL A   1      31.623  22.567  24.518  1.00  0.00     0.262 C 
ATOM     12  C   UNL A   1      33.766  22.607  23.364  1.00  0.00     0.262 C 
ATOM     13  H   UNL A   1      32.318  21.238  23.131  1.00  0.00     0.348 HD
ATOM     14  C   UNL A   1      31.067  23.599  23.543  1.00  0.00     0.065 C 
ATOM     15  C   UNL A   1      33.247  23.687  22.394  1.00  0.00     0.065 C 
BRANCH  10  16
ATOM     16  C   UNL A   1      33.191  20.745  24.894  1.00  0.00     0.186 C 
ATOM     17  C   UNL A   1      34.678  20.907  25.254  1.00  0.00     0.076 C 
BRANCH  16  18
ATOM     18  C   UNL A   1      32.954  19.319  24.354  1.00  0.00     0.019 C 
ATOM     19  C   UNL A   1      32.163  19.224  23.063  1.00  0.00     0.018 C 
ATOM     20  C   UNL A   1      34.042  18.275  24.559  1.00  0.00     0.013 C 
ATOM     21  C   UNL A   1      32.784  18.192  25.364  1.00  0.00     0.013 C 
ENDBRANCH  16  18
ENDBRANCH  10  16
ENDBRANCH   8   9
ENDBRANCH   7   8
ENDBRANCH   4   7
ENDBRANCH   2   3
ENDBRANCH   1   2
BRANCH   1  22
ATOM     22  C   UNL A   1      32.375  29.557  26.852  1.00  0.00     0.002 C 
BRANCH  22  23
ATOM     23  C   UNL A   1      31.480  30.499  26.040  1.00  0.00     0.002 C 
BRANCH  23  24
ATOM     24  C   UNL A   1      31.388  31.946  26.544  1.00  0.00     0.021 C 
BRANCH  24  25
ATOM     25  C   UNL A   1      32.667  32.518  27.155  1.00  0.00     0.116 C 
BRANCH  25  26
ATOM     26  N   UNL A   1      32.500  33.892  27.595  1.00  0.00    -0.352 N 
ATOM     27  C   UNL A   1      33.098  34.580  28.621  1.00  0.00     0.251 C 
ATOM     28  H   UNL A   1      31.851  34.416  27.071  1.00  0.00     0.163 HD
ATOM     29  O   UNL A   1      32.659  35.676  28.954  1.00  0.00    -0.269 OA
BRANCH  27  30
ATOM     30  C   UNL A   1      34.263  34.016  29.338  1.00  0.00     0.039 A 
ATOM     31  C   UNL A   1      34.033  33.106  30.374  1.00  0.00     0.014 A 
ATOM     32  C   UNL A   1      35.568  34.425  29.048  1.00  0.00     0.014 A 
ATOM     33  C   UNL A   1      35.109  32.565  31.082  1.00  0.00     0.010 A 
ATOM     34  C   UNL A   1      36.645  33.843  29.716  1.00  0.00     0.010 A 
ATOM     35  C   UNL A   1      36.426  32.911  30.741  1.00  0.00    -0.014 A 
BRANCH  35  36
ATOM     36  C   UNL A   1      37.583  32.303  31.449  1.00  0.00     0.031 A 
ATOM     37  C   UNL A   1      38.330  31.151  30.837  1.00  0.00     0.074 A 
ATOM     38  C   UNL A   1      37.927  32.756  32.669  1.00  0.00     0.049 A 
ATOM     39  N   UNL A   1      39.320  30.449  31.331  1.00  0.00    -0.248 NA
ATOM     40  C   UNL A   1      37.892  30.715  29.503  1.00  0.00     0.031 C 
ATOM     41  C   UNL A   1      37.258  33.843  33.385  1.00  0.00     0.029 A 
ATOM     42  N   UNL A   1      38.917  32.352  33.528  1.00  0.00    -0.354 N 
ATOM     43  C   UNL A   1      39.611  29.483  30.378  1.00  0.00     0.074 A 
ATOM     44  C   UNL A   1      38.666  29.659  29.295  1.00  0.00     0.031 C 
ATOM     45  C   UNL A   1      37.867  34.031  34.567  1.00  0.00     0.029 A 
ATOM     46  C   UNL A   1      38.945  33.056  34.707  1.00  0.00     0.049 A 
ATOM     47  H   UNL A   1      39.548  31.625  33.320  1.00  0.00     0.167 HD
ATOM     48  C   UNL A   1      40.588  28.544  30.397  1.00  0.00     0.037 A 
ATOM     49  C   UNL A   1      39.745  32.927  35.782  1.00  0.00     0.037 A 
ATOM     50  C   UNL A   1      41.543  28.386  31.463  1.00  0.00     0.049 A 
ATOM     51  C   UNL A   1      40.823  31.876  35.777  1.00  0.00     0.074 A 
ATOM     52  C   UNL A   1      42.605  27.502  31.548  1.00  0.00     0.029 A 
ATOM     53  N   UNL A   1      41.551  29.131  32.633  1.00  0.00    -0.354 N 
ATOM     54  N   UNL A   1      41.126  31.006  34.846  1.00  0.00    -0.248 NA
ATOM     55  C   UNL A   1      41.672  31.795  36.973  1.00  0.00     0.031 C 
ATOM     56  C   UNL A   1      43.231  27.685  32.785  1.00  0.00     0.029 A 
ATOM     57  C   UNL A   1      42.586  28.714  33.454  1.00  0.00     0.049 A 
ATOM     58  H   UNL A   1      40.913  29.850  32.849  1.00  0.00     0.167 HD
ATOM     59  C   UNL A   1      42.213  30.293  35.329  1.00  0.00     0.074 A 
ATOM     60  C   UNL A   1      42.527  30.840  36.632  1.00  0.00     0.031 C 
ATOM     61  C   UNL A   1      42.891  29.274  34.745  1.00  0.00     0.037 A 
BRANCH  48  62
ATOM     62  C   UNL A   1      40.676  27.610  29.225  1.00  0.00     0.064 A 
ATOM     63  C   UNL A   1      39.798  26.526  29.082  1.00  0.00     0.173 A 
ATOM     64  C   UNL A   1      41.622  27.826  28.212  1.00  0.00     0.173 A 
ATOM     65  F   UNL A   1      38.882  26.270  30.028  1.00  0.00    -0.203 F 
ATOM     66  C   UNL A   1      39.882  25.676  27.982  1.00  0.00     0.198 A 
ATOM     67  C   UNL A   1      41.684  26.990  27.099  1.00  0.00     0.198 A 
ATOM     68  F   UNL A   1      42.482  28.852  28.296  1.00  0.00    -0.203 F 
ATOM     69  F   UNL A   1      39.061  24.620  27.890  1.00  0.00    -0.200 F 
ATOM     70  C   UNL A   1      40.820  25.912  26.988  1.00  0.00     0.200 A 
ATOM     71  F   UNL A   1      42.583  27.228  26.134  1.00  0.00    -0.200 F 
ATOM     72  F   UNL A   1      40.894  25.097  25.927  1.00  0.00    -0.200 F 
ENDBRANCH  48  62
BRANCH  49  73
ATOM     73  C   UNL A   1      39.573  33.834  36.945  1.00  0.00     0.064 A 
ATOM     74  C   UNL A   1      38.774  33.462  38.034  1.00  0.00     0.173 A 
ATOM     75  C   UNL A   1      40.201  35.087  36.993  1.00  0.00     0.173 A 
ATOM     76  F   UNL A   1      38.137  32.282  38.025  1.00  0.00    -0.203 F 
ATOM     77  C   UNL A   1      38.595  34.315  39.121  1.00  0.00     0.198 A 
ATOM     78  C   UNL A   1      40.044  35.928  38.091  1.00  0.00     0.198 A 
ATOM     79  F   UNL A   1      40.981  35.487  35.978  1.00  0.00    -0.203 F 
ATOM     80  F   UNL A   1      37.793  33.952  40.131  1.00  0.00    -0.200 F 
ATOM     81  C   UNL A   1      39.235  35.545  39.152  1.00  0.00     0.200 A 
ATOM     82  F   UNL A   1      40.675  37.110  38.123  1.00  0.00    -0.200 F 
ATOM     83  F   UNL A   1      39.067  36.364  40.198  1.00  0.00    -0.200 F 
ENDBRANCH  49  73
BRANCH  61  84
ATOM     84  C   UNL A   1      44.058  28.705  35.497  1.00  0.00     0.064 A 
ATOM     85  C   UNL A   1      43.912  27.610  36.360  1.00  0.00     0.173 A 
ATOM     86  C   UNL A   1      45.343  29.240  35.322  1.00  0.00     0.173 A 
ATOM     87  F   UNL A   1      42.701  27.074  36.573  1.00  0.00    -0.203 F 
ATOM     88  C   UNL A   1      45.010  27.084  37.040  1.00  0.00     0.198 A 
ATOM     89  C   UNL A   1      46.441  28.695  35.981  1.00  0.00     0.198 A 
ATOM     90  F   UNL A   1      45.535  30.285  34.503  1.00  0.00    -0.203 F 
ATOM     91  F   UNL A   1      44.841  26.066  37.893  1.00  0.00    -0.200 F 
ATOM     92  C   UNL A   1      46.272  27.623  36.843  1.00  0.00     0.200 A 
ATOM     93  F   UNL A   1      47.663  29.208  35.782  1.00  0.00    -0.200 F 
ATOM     94  F   UNL A   1      47.328  27.111  37.493  1.00  0.00    -0.200 F 
ENDBRANCH  61  84
ENDBRANCH  35  36
ENDBRANCH  27  30
ENDBRANCH  25  26
ENDBRANCH  24  25
ENDBRANCH  23  24
ENDBRANCH  22  23
ENDBRANCH   1  22
TORSDOF 17
ENDMDL
MODEL 2
REMARK VINA RESULT:     -11.1      4.726     10.465
REMARK SMILES C[C@@H]([NH+]1CCC(CCC(=O)NCCCCCCNC(=O)c2ccc(-c3c4nc(c(-c5c(F)c(F)c(F)c(F)c5F)c5ccc([nH]5)c(-c5c(F)c(F)c(F)c(F)c5F)c5nc(c(-c6c(F)c(F)c(F)c(F)c6F)c6ccc3[nH]6)C=C5)C=C4)cc2)CC1)C1(C)CC1
REMARK SMILES IDX 13 1 12 2 11 3 9 4 10 5 8 7 7 8 6 9 3 10 4 11 85 12 5 14
REMARK SMILES IDX 84 15 2 16 1 17 86 18 87 19 88 20 89 21 14 22 15 23 16 24
REMARK SMILES IDX 17 25 18 26 19 27 20 29 21 30 22 31 83 32 23 33 82 34 24 35
REMARK SMILES IDX 25 36 26 37 76 38 27 39 81 40 75 41 77 42 28 43 80 44 74 45
REMARK SMILES IDX 73 46 29 48 61 49 41 50 60 51 42 52 45 53 59 54 78 55 43 56
REMARK SMILES IDX 44 57 58 59 79 60 46 61 30 62 31 63 39 64 32 65 33 66 37 67
REMARK SMILES IDX 40 68 34 69 35 70 38 71 36 72 62 73 63 74 71 75 64 76 65 77
REMARK SMILES IDX 69 78 72 79 66 80 67 81 70 82 68 83 47 84 48 85 56 86 49 87
REMARK SMILES IDX 50 88 54 89 57 90 51 91 52 92 55 93 53 94
REMARK H PARENT 11 6 3 13 18 28 77 47 45 58
REMARK Flexibility Score: inf
ROOT
ATOM      1  C   UNL A   1      36.165  33.439  34.267  1.00  0.00     0.021 C 
ENDROOT
BRANCH   1   2
ATOM      2  C   UNL A   1      37.390  33.604  35.180  1.00  0.00     0.116 C 
BRANCH   2   3
ATOM      3  N   UNL A   1      37.577  32.417  35.999  1.00  0.00    -0.356 N 
ATOM      4  C   UNL A   1      38.363  31.318  35.829  1.00  0.00     0.220 C 
ATOM      5  O   UNL A   1      38.232  30.391  36.632  1.00  0.00    -0.275 OA
ATOM      6  H   UNL A   1      37.040  32.408  36.824  1.00  0.00     0.163 HD
BRANCH   4   7
ATOM      7  C   UNL A   1      39.392  31.235  34.715  1.00  0.00     0.100 C 
BRANCH   7   8
ATOM      8  C   UNL A   1      40.802  30.823  35.174  1.00  0.00     0.014 C 
BRANCH   8   9
ATOM      9  C   UNL A   1      41.035  29.310  35.132  1.00  0.00     0.000 C 
ATOM     10  N   UNL A   1      42.438  26.724  34.920  1.00  0.00    -0.332 N 
ATOM     11  C   UNL A   1      41.708  27.314  33.786  1.00  0.00     0.262 C 
ATOM     12  C   UNL A   1      41.921  27.220  36.209  1.00  0.00     0.262 C 
ATOM     13  H   UNL A   1      43.411  27.028  34.879  1.00  0.00     0.348 HD
ATOM     14  C   UNL A   1      41.695  28.838  33.836  1.00  0.00     0.065 C 
ATOM     15  C   UNL A   1      41.860  28.758  36.296  1.00  0.00     0.065 C 
BRANCH  10  16
ATOM     16  C   UNL A   1      42.454  25.241  34.817  1.00  0.00     0.186 C 
ATOM     17  C   UNL A   1      41.830  24.530  36.031  1.00  0.00     0.076 C 
BRANCH  16  18
ATOM     18  C   UNL A   1      43.898  24.730  34.620  1.00  0.00     0.019 C 
ATOM     19  C   UNL A   1      44.880  25.083  35.719  1.00  0.00     0.018 C 
ATOM     20  C   UNL A   1      44.104  23.388  33.933  1.00  0.00     0.013 C 
ATOM     21  C   UNL A   1      44.437  24.648  33.198  1.00  0.00     0.013 C 
ENDBRANCH  16  18
ENDBRANCH  10  16
ENDBRANCH   8   9
ENDBRANCH   7   8
ENDBRANCH   4   7
ENDBRANCH   2   3
ENDBRANCH   1   2
BRANCH   1  22
ATOM     22  C   UNL A   1      35.149  34.577  34.351  1.00  0.00     0.002 C 
BRANCH  22  23
ATOM     23  C   UNL A   1      35.016  35.412  33.074  1.00  0.00     0.002 C 
BRANCH  23  24
ATOM     24  C   UNL A   1      33.593  35.584  32.523  1.00  0.00     0.021 C 
BRANCH  24  25
ATOM     25  C   UNL A   1      33.475  36.384  31.226  1.00  0.00     0.116 C 
BRANCH  25  26
ATOM     26  N   UNL A   1      32.829  35.627  30.169  1.00  0.00    -0.352 N 
ATOM     27  C   UNL A   1      33.313  34.628  29.362  1.00  0.00     0.251 C 
ATOM     28  H   UNL A   1      31.888  35.869  30.005  1.00  0.00     0.163 HD
ATOM     29  O   UNL A   1      32.662  34.265  28.387  1.00  0.00    -0.269 OA
BRANCH  27  30
ATOM     30  C   UNL A   1      34.616  33.986  29.643  1.00  0.00     0.039 A 
ATOM     31  C   UNL A   1      35.756  34.475  28.998  1.00  0.00     0.014 A 
ATOM     32  C   UNL A   1      34.715  32.870  30.480  1.00  0.00     0.014 A 
ATOM     33  C   UNL A   1      37.000  33.883  29.231  1.00  0.00     0.010 A 
ATOM     34  C   UNL A   1      35.964  32.314  30.756  1.00  0.00     0.010 A 
ATOM     35  C   UNL A   1      37.117  32.813  30.132  1.00  0.00    -0.014 A 
BRANCH  35  36
ATOM     36  C   UNL A   1      38.441  32.207  30.431  1.00  0.00     0.031 A 
ATOM     37  C   UNL A   1      39.426  32.927  31.309  1.00  0.00     0.074 A 
ATOM     38  C   UNL A   1      38.776  31.033  29.865  1.00  0.00     0.049 A 
ATOM     39  N   UNL A   1      40.651  32.590  31.630  1.00  0.00    -0.248 NA
ATOM     40  C   UNL A   1      38.985  34.205  31.887  1.00  0.00     0.031 C 
ATOM     41  C   UNL A   1      37.923  30.256  28.966  1.00  0.00     0.029 A 
ATOM     42  N   UNL A   1      39.928  30.292  29.953  1.00  0.00    -0.354 N 
ATOM     43  C   UNL A   1      41.129  33.619  32.430  1.00  0.00     0.074 A 
ATOM     44  C   UNL A   1      40.080  34.612  32.513  1.00  0.00     0.031 C 
ATOM     45  C   UNL A   1      38.573  29.139  28.599  1.00  0.00     0.029 A 
ATOM     46  C   UNL A   1      39.901  29.139  29.207  1.00  0.00     0.049 A 
ATOM     47  H   UNL A   1      40.702  30.562  30.500  1.00  0.00     0.167 HD
ATOM     48  C   UNL A   1      42.329  33.717  33.053  1.00  0.00     0.037 A 
ATOM     49  C   UNL A   1      40.841  28.193  29.029  1.00  0.00     0.037 A 
ATOM     50  C   UNL A   1      43.362  32.716  32.989  1.00  0.00     0.049 A 
ATOM     51  C   UNL A   1      42.165  28.327  29.733  1.00  0.00     0.074 A 
ATOM     52  C   UNL A   1      44.588  32.699  33.632  1.00  0.00     0.029 A 
ATOM     53  N   UNL A   1      43.290  31.553  32.238  1.00  0.00    -0.354 N 
ATOM     54  N   UNL A   1      42.583  29.275  30.534  1.00  0.00    -0.248 NA
ATOM     55  C   UNL A   1      43.143  27.254  29.510  1.00  0.00     0.031 C 
ATOM     56  C   UNL A   1      45.274  31.545  33.239  1.00  0.00     0.029 A 
ATOM     57  C   UNL A   1      44.457  30.821  32.385  1.00  0.00     0.049 A 
ATOM     58  H   UNL A   1      42.522  31.287  31.681  1.00  0.00     0.167 HD
ATOM     59  C   UNL A   1      43.860  28.902  30.931  1.00  0.00     0.074 A 
ATOM     60  C   UNL A   1      44.144  27.634  30.293  1.00  0.00     0.031 C 
ATOM     61  C   UNL A   1      44.721  29.555  31.750  1.00  0.00     0.037 A 
BRANCH  48  62
ATOM     62  C   UNL A   1      42.592  34.954  33.861  1.00  0.00     0.064 A 
ATOM     63  C   UNL A   1      42.386  34.982  35.248  1.00  0.00     0.173 A 
ATOM     64  C   UNL A   1      43.095  36.111  33.249  1.00  0.00     0.173 A 
ATOM     65  F   UNL A   1      41.896  33.905  35.880  1.00  0.00    -0.203 F 
ATOM     66  C   UNL A   1      42.648  36.133  35.989  1.00  0.00     0.198 A 
ATOM     67  C   UNL A   1      43.383  37.251  33.997  1.00  0.00     0.198 A 
ATOM     68  F   UNL A   1      43.317  36.136  31.926  1.00  0.00    -0.203 F 
ATOM     69  F   UNL A   1      42.400  36.150  37.306  1.00  0.00    -0.200 F 
ATOM     70  C   UNL A   1      43.152  37.264  35.364  1.00  0.00     0.200 A 
ATOM     71  F   UNL A   1      43.882  38.339  33.393  1.00  0.00    -0.200 F 
ATOM     72  F   UNL A   1      43.410  38.367  36.079  1.00  0.00    -0.200 F 
ENDBRANCH  48  62
BRANCH  49  73
ATOM     73  C   UNL A   1      40.555  27.020  28.164  1.00  0.00     0.064 A 
ATOM     74  C   UNL A   1      41.188  26.870  26.924  1.00  0.00     0.173 A 
ATOM     75  C   UNL A   1      39.646  26.027  28.559  1.00  0.00     0.173 A 
ATOM     76  F   UNL A   1      42.050  27.804  26.496  1.00  0.00    -0.203 F 
ATOM     77  C   UNL A   1      40.911  25.781  26.101  1.00  0.00     0.198 A 
ATOM     78  C   UNL A   1      39.389  24.925  27.747  1.00  0.00     0.198 A 
ATOM     79  F   UNL A   1      39.017  26.122  29.739  1.00  0.00    -0.203 F 
ATOM     80  F   UNL A   1      41.500  25.683  24.901  1.00  0.00    -0.200 F 
ATOM     81  C   UNL A   1      40.017  24.805  26.516  1.00  0.00     0.200 A 
ATOM     82  F   UNL A   1      38.535  23.978  28.158  1.00  0.00    -0.200 F 
ATOM     83  F   UNL A   1      39.755  23.756  25.726  1.00  0.00    -0.200 F 
ENDBRANCH  49  73
BRANCH  61  84
ATOM     84  C   UNL A   1      46.039  28.894  32.028  1.00  0.00     0.064 A 
ATOM     85  C   UNL A   1      46.209  28.023  33.114  1.00  0.00     0.173 A 
ATOM     86  C   UNL A   1      47.134  29.106  31.177  1.00  0.00     0.173 A 
ATOM     87  F   UNL A   1      45.197  27.801  33.966  1.00  0.00    -0.203 F 
ATOM     88  C   UNL A   1      47.435  27.405  33.350  1.00  0.00     0.198 A 
ATOM     89  C   UNL A   1      48.349  28.466  31.400  1.00  0.00     0.198 A 
ATOM     90  F   UNL A   1      47.020  29.927  30.121  1.00  0.00    -0.203 F 
ATOM     91  F   UNL A   1      47.588  26.611  34.418  1.00  0.00    -0.200 F 
ATOM     92  C   UNL A   1      48.501  27.622  32.489  1.00  0.00     0.200 A 
ATOM     93  F   UNL A   1      49.374  28.667  30.560  1.00  0.00    -0.200 F 
ATOM     94  F   UNL A   1      49.678  27.022  32.715  1.00  0.00    -0.200 F 
ENDBRANCH  61  84
ENDBRANCH  35  36
ENDBRANCH  27  30
ENDBRANCH  25  26
ENDBRANCH  24  25
ENDBRANCH  23  24
ENDBRANCH  22  23
ENDBRANCH   1  22
TORSDOF 17
ENDMDL
MODEL 3
REMARK VINA RESULT:     -11.0      3.841      7.480
REMARK SMILES C[C@@H]([NH+]1CCC(CCC(=O)NCCCCCCNC(=O)c2ccc(-c3c4nc(c(-c5c(F)c(F)c(F)c(F)c5F)c5ccc([nH]5)c(-c5c(F)c(F)c(F)c(F)c5F)c5nc(c(-c6c(F)c(F)c(F)c(F)c6F)c6ccc3[nH]6)C=C5)C=C4)cc2)CC1)C1(C)CC1
REMARK SMILES IDX 13 1 12 2 11 3 9 4 10 5 8 7 7 8 6 9 3 10 4 11 85 12 5 14
REMARK SMILES IDX 84 15 2 16 1 17 86 18 87 19 88 20 89 21 14 22 15 23 16 24
REMARK SMILES IDX 17 25 18 26 19 27 20 29 21 30 22 31 83 32 23 33 82 34 24 35
REMARK SMILES IDX 25 36 26 37 76 38 27 39 81 40 75 41 77 42 28 43 80 44 74 45
REMARK SMILES IDX 73 46 29 48 61 49 41 50 60 51 42 52 45 53 59 54 78 55 43 56
REMARK SMILES IDX 44 57 58 59 79 60 46 61 30 62 31 63 39 64 32 65 33 66 37 67
REMARK SMILES IDX 40 68 34 69 35 70 38 71 36 72 62 73 63 74 71 75 64 76 65 77
REMARK SMILES IDX 69 78 72 79 66 80 67 81 70 82 68 83 47 84 48 85 56 86 49 87
REMARK SMILES IDX 50 88 54 89 57 90 51 91 52 92 55 93 53 94
REMARK H PARENT 11 6 3 13 18 28 77 47 45 58
REMARK Flexibility Score: inf
ROOT
ATOM      1  C   UNL A   1      33.667  26.974  25.759  1.00  0.00     0.021 C 
ENDROOT
BRANCH   1   2
ATOM      2  C   UNL A   1      32.205  26.825  26.208  1.00  0.00     0.116 C 
BRANCH   2   3
ATOM      3  N   UNL A   1      31.326  27.592  25.341  1.00  0.00    -0.356 N 
ATOM      4  C   UNL A   1      30.846  27.341  24.091  1.00  0.00     0.220 C 
ATOM      5  O   UNL A   1      30.206  28.235  23.533  1.00  0.00    -0.275 OA
ATOM      6  H   UNL A   1      31.023  28.446  25.727  1.00  0.00     0.163 HD
BRANCH   4   7
ATOM      7  C   UNL A   1      31.054  25.999  23.410  1.00  0.00     0.100 C 
BRANCH   7   8
ATOM      8  C   UNL A   1      30.357  24.814  24.102  1.00  0.00     0.014 C 
BRANCH   8   9
ATOM      9  C   UNL A   1      31.301  23.643  24.393  1.00  0.00     0.000 C 
ATOM     10  N   UNL A   1      32.321  20.881  24.573  1.00  0.00    -0.332 N 
ATOM     11  C   UNL A   1      31.761  21.587  25.737  1.00  0.00     0.262 C 
ATOM     12  C   UNL A   1      32.828  21.828  23.563  1.00  0.00     0.262 C 
ATOM     13  H   UNL A   1      31.574  20.362  24.112  1.00  0.00     0.348 HD
ATOM     14  C   UNL A   1      30.698  22.606  25.341  1.00  0.00     0.065 C 
ATOM     15  C   UNL A   1      31.797  22.899  23.152  1.00  0.00     0.065 C 
BRANCH  10  16
ATOM     16  C   UNL A   1      33.329  19.877  25.004  1.00  0.00     0.186 C 
ATOM     17  C   UNL A   1      34.774  20.249  24.626  1.00  0.00     0.076 C 
BRANCH  16  18
ATOM     18  C   UNL A   1      32.994  18.490  24.416  1.00  0.00     0.019 C 
ATOM     19  C   UNL A   1      32.367  18.492  23.035  1.00  0.00     0.018 C 
ATOM     20  C   UNL A   1      33.915  17.322  24.740  1.00  0.00     0.013 C 
ATOM     21  C   UNL A   1      32.564  17.391  25.379  1.00  0.00     0.013 C 
ENDBRANCH  16  18
ENDBRANCH  10  16
ENDBRANCH   8   9
ENDBRANCH   7   8
ENDBRANCH   4   7
ENDBRANCH   2   3
ENDBRANCH   1   2
BRANCH   1  22
ATOM     22  C   UNL A   1      34.311  25.686  25.247  1.00  0.00     0.002 C 
BRANCH  22  23
ATOM     23  C   UNL A   1      34.063  24.455  26.124  1.00  0.00     0.002 C 
BRANCH  23  24
ATOM     24  C   UNL A   1      35.208  23.434  26.196  1.00  0.00     0.021 C 
BRANCH  24  25
ATOM     25  C   UNL A   1      36.526  23.869  25.555  1.00  0.00     0.116 C 
BRANCH  25  26
ATOM     26  N   UNL A   1      37.573  22.877  25.723  1.00  0.00    -0.352 N 
ATOM     27  C   UNL A   1      38.855  23.002  26.198  1.00  0.00     0.251 C 
ATOM     28  H   UNL A   1      37.322  21.963  25.452  1.00  0.00     0.163 HD
ATOM     29  O   UNL A   1      39.647  22.076  26.060  1.00  0.00    -0.269 OA
BRANCH  27  30
ATOM     30  C   UNL A   1      39.300  24.244  26.869  1.00  0.00     0.039 A 
ATOM     31  C   UNL A   1      40.020  25.184  26.125  1.00  0.00     0.014 A 
ATOM     32  C   UNL A   1      39.074  24.460  28.231  1.00  0.00     0.014 A 
ATOM     33  C   UNL A   1      40.468  26.360  26.730  1.00  0.00     0.010 A 
ATOM     34  C   UNL A   1      39.471  25.660  28.822  1.00  0.00     0.010 A 
ATOM     35  C   UNL A   1      40.175  26.619  28.079  1.00  0.00    -0.014 A 
BRANCH  35  36
ATOM     36  C   UNL A   1      40.597  27.890  28.722  1.00  0.00     0.031 A 
ATOM     37  C   UNL A   1      42.014  28.074  29.187  1.00  0.00     0.074 A 
ATOM     38  C   UNL A   1      39.688  28.860  28.936  1.00  0.00     0.049 A 
ATOM     39  N   UNL A   1      42.553  29.082  29.826  1.00  0.00    -0.248 NA
ATOM     40  C   UNL A   1      42.946  26.968  28.918  1.00  0.00     0.031 C 
ATOM     41  C   UNL A   1      38.274  28.787  28.563  1.00  0.00     0.029 A 
ATOM     42  N   UNL A   1      39.814  30.091  29.527  1.00  0.00    -0.354 N 
ATOM     43  C   UNL A   1      43.876  28.727  30.049  1.00  0.00     0.074 A 
ATOM     44  C   UNL A   1      44.050  27.393  29.515  1.00  0.00     0.031 C 
ATOM     45  C   UNL A   1      37.668  29.932  28.920  1.00  0.00     0.029 A 
ATOM     46  C   UNL A   1      38.639  30.802  29.576  1.00  0.00     0.049 A 
ATOM     47  H   UNL A   1      40.666  30.434  29.883  1.00  0.00     0.167 HD
ATOM     48  C   UNL A   1      44.861  29.454  30.631  1.00  0.00     0.037 A 
ATOM     49  C   UNL A   1      38.374  32.015  30.097  1.00  0.00     0.037 A 
ATOM     50  C   UNL A   1      44.692  30.791  31.139  1.00  0.00     0.049 A 
ATOM     51  C   UNL A   1      39.486  32.801  30.737  1.00  0.00     0.074 A 
ATOM     52  C   UNL A   1      45.643  31.630  31.693  1.00  0.00     0.029 A 
ATOM     53  N   UNL A   1      43.491  31.484  31.154  1.00  0.00    -0.354 N 
ATOM     54  N   UNL A   1      40.746  32.479  30.889  1.00  0.00    -0.248 NA
ATOM     55  C   UNL A   1      39.136  34.124  31.273  1.00  0.00     0.031 C 
ATOM     56  C   UNL A   1      45.010  32.816  32.080  1.00  0.00     0.029 A 
ATOM     57  C   UNL A   1      43.673  32.733  31.726  1.00  0.00     0.049 A 
ATOM     58  H   UNL A   1      42.636  31.139  30.809  1.00  0.00     0.167 HD
ATOM     59  C   UNL A   1      41.345  33.564  31.512  1.00  0.00     0.074 A 
ATOM     60  C   UNL A   1      40.314  34.562  31.699  1.00  0.00     0.031 C 
ATOM     61  C   UNL A   1      42.636  33.719  31.898  1.00  0.00     0.037 A 
BRANCH  48  62
ATOM     62  C   UNL A   1      46.215  28.818  30.750  1.00  0.00     0.064 A 
ATOM     63  C   UNL A   1      46.546  27.991  31.834  1.00  0.00     0.173 A 
ATOM     64  C   UNL A   1      47.180  29.003  29.748  1.00  0.00     0.173 A 
ATOM     65  F   UNL A   1      45.662  27.790  32.823  1.00  0.00    -0.203 F 
ATOM     66  C   UNL A   1      47.802  27.396  31.924  1.00  0.00     0.198 A 
ATOM     67  C   UNL A   1      48.425  28.383  29.828  1.00  0.00     0.198 A 
ATOM     68  F   UNL A   1      46.913  29.779  28.687  1.00  0.00    -0.203 F 
ATOM     69  F   UNL A   1      48.110  26.646  32.992  1.00  0.00    -0.200 F 
ATOM     70  C   UNL A   1      48.737  27.586  30.918  1.00  0.00     0.200 A 
ATOM     71  F   UNL A   1      49.323  28.558  28.849  1.00  0.00    -0.200 F 
ATOM     72  F   UNL A   1      49.942  27.007  31.004  1.00  0.00    -0.200 F 
ENDBRANCH  48  62
BRANCH  49  73
ATOM     73  C   UNL A   1      37.000  32.572  30.012  1.00  0.00     0.064 A 
ATOM     74  C   UNL A   1      36.587  33.295  28.886  1.00  0.00     0.173 A 
ATOM     75  C   UNL A   1      36.074  32.392  31.050  1.00  0.00     0.173 A 
ATOM     76  F   UNL A   1      37.443  33.510  27.877  1.00  0.00    -0.203 F 
ATOM     77  C   UNL A   1      35.304  33.834  28.807  1.00  0.00     0.198 A 
ATOM     78  C   UNL A   1      34.784  32.908  30.959  1.00  0.00     0.198 A 
ATOM     79  F   UNL A   1      36.420  31.702  32.147  1.00  0.00    -0.203 F 
ATOM     80  F   UNL A   1      34.948  34.557  27.737  1.00  0.00    -0.200 F 
ATOM     81  C   UNL A   1      34.402  33.635  29.841  1.00  0.00     0.200 A 
ATOM     82  F   UNL A   1      33.911  32.702  31.955  1.00  0.00    -0.200 F 
ATOM     83  F   UNL A   1      33.167  34.149  29.763  1.00  0.00    -0.200 F 
ENDBRANCH  49  73
BRANCH  61  84
ATOM     84  C   UNL A   1      43.012  35.026  32.530  1.00  0.00     0.064 A 
ATOM     85  C   UNL A   1      43.471  36.108  31.765  1.00  0.00     0.173 A 
ATOM     86  C   UNL A   1      42.877  35.210  33.915  1.00  0.00     0.173 A 
ATOM     87  F   UNL A   1      43.633  35.976  30.440  1.00  0.00    -0.203 F 
ATOM     88  C   UNL A   1      43.802  37.320  32.367  1.00  0.00     0.198 A 
ATOM     89  C   UNL A   1      43.182  36.431  34.509  1.00  0.00     0.198 A 
ATOM     90  F   UNL A   1      42.437  34.207  34.690  1.00  0.00    -0.203 F 
ATOM     91  F   UNL A   1      44.280  38.326  31.622  1.00  0.00    -0.200 F 
ATOM     92  C   UNL A   1      43.650  37.482  33.735  1.00  0.00     0.200 A 
ATOM     93  F   UNL A   1      43.024  36.590  35.830  1.00  0.00    -0.200 F 
ATOM     94  F   UNL A   1      43.963  38.652  34.311  1.00  0.00    -0.200 F 
ENDBRANCH  61  84
ENDBRANCH  35  36
ENDBRANCH  27  30
ENDBRANCH  25  26
ENDBRANCH  24  25
ENDBRANCH  23  24
ENDBRANCH  22  23
ENDBRANCH   1  22
TORSDOF 17
ENDMDL
