MODEL 1
REMARK VINA RESULT:     -11.3      0.000      0.000
REMARK SMILES COc1ccc(OCCNc2c(Cl)cccc2C(=O)NCCCCCCNC(=O)c2ccc(-c3c4nc(c(-c5c(F)c(F)c(F)c(F)c5F)c5ccc([nH]5)c(-c5c(F)c(F)c(F)c(F)c5F)c5nc(c(-c6c(F)c(F)c(F)c(F)c6F)c6ccc3[nH]6)C=C5)C=C4)cc2)cc1
REMARK SMILES IDX 21 1 20 2 18 3 19 4 17 6 11 7 12 8 13 9 14 10 16 11 15 12
REMARK SMILES IDX 10 13 9 15 8 16 7 17 6 18 3 19 4 20 94 21 5 22 93 23 2 24
REMARK SMILES IDX 1 25 22 26 23 27 24 28 25 29 26 30 27 31 28 32 29 34 30 35
REMARK SMILES IDX 31 36 92 37 32 38 91 39 33 40 34 41 35 42 85 43 36 44 90 45
REMARK SMILES IDX 84 46 86 47 37 48 89 49 83 50 82 51 38 53 70 54 50 55 69 56
REMARK SMILES IDX 51 57 54 58 68 59 87 60 52 61 53 62 67 64 88 65 55 66 39 67
REMARK SMILES IDX 40 68 48 69 41 70 42 71 46 72 49 73 43 74 44 75 47 76 45 77
REMARK SMILES IDX 71 78 72 79 80 80 73 81 74 82 78 83 81 84 75 85 76 86 79 87
REMARK SMILES IDX 77 88 56 89 57 90 65 91 58 92 59 93 63 94 66 95 60 96 61 97
REMARK SMILES IDX 64 98 62 99
REMARK H PARENT 20 5 10 14 27 33 86 52 54 63
REMARK Flexibility Score: inf
ROOT
ATOM      1  C   UNL A   1      33.547  27.856  26.436  1.00  0.00     0.116 C 
ENDROOT
BRANCH   1   2
ATOM      2  N   UNL A   1      33.701  27.385  25.079  1.00  0.00    -0.352 N 
ATOM      3  C   UNL A   1      33.889  26.121  24.579  1.00  0.00     0.253 C 
ATOM      4  O   UNL A   1      33.937  25.996  23.353  1.00  0.00    -0.269 OA
ATOM      5  H   UNL A   1      33.664  28.092  24.394  1.00  0.00     0.163 HD
BRANCH   3   6
ATOM      6  C   UNL A   1      34.137  24.911  25.410  1.00  0.00     0.064 A 
ATOM      7  C   UNL A   1      33.186  24.203  26.171  1.00  0.00     0.066 A 
ATOM      8  C   UNL A   1      33.644  23.035  26.844  1.00  0.00     0.065 A 
ATOM      9  Cl  UNL A   1      32.576  22.073  27.819  1.00  0.00    -0.082 Cl
ATOM     10  C   UNL A   1      34.960  22.573  26.749  1.00  0.00     0.023 A 
ATOM     11  C   UNL A   1      35.460  24.415  25.302  1.00  0.00     0.016 A 
ATOM     12  C   UNL A   1      35.873  23.265  25.973  1.00  0.00     0.003 A 
BRANCH   7  13
ATOM     13  N   UNL A   1      31.921  24.670  26.475  1.00  0.00    -0.380 N 
ATOM     14  H   UNL A   1      31.796  25.056  27.372  1.00  0.00     0.160 HD
BRANCH  13  15
ATOM     15  C   UNL A   1      30.756  24.649  25.606  1.00  0.00     0.154 C 
BRANCH  15  16
ATOM     16  C   UNL A   1      30.232  26.089  25.344  1.00  0.00     0.250 C 
BRANCH  16  17
ATOM     17  O   UNL A   1      30.729  26.725  24.151  1.00  0.00    -0.492 OA
BRANCH  17  18
ATOM     18  C   UNL A   1      29.930  27.583  23.442  1.00  0.00     0.119 A 
ATOM     19  C   UNL A   1      28.532  29.713  22.265  1.00  0.00     0.119 A 
ATOM     20  C   UNL A   1      29.896  29.565  22.033  1.00  0.00     0.050 A 
ATOM     21  C   UNL A   1      27.847  28.731  22.971  1.00  0.00     0.050 A 
ATOM     22  C   UNL A   1      30.593  28.509  22.632  1.00  0.00     0.050 A 
ATOM     23  C   UNL A   1      28.543  27.651  23.523  1.00  0.00     0.050 A 
BRANCH  19  24
ATOM     24  O   UNL A   1      27.904  30.789  21.704  1.00  0.00    -0.497 OA
ATOM     25  C   UNL A   1      28.607  32.014  21.924  1.00  0.00     0.278 C 
ENDBRANCH  19  24
ENDBRANCH  17  18
ENDBRANCH  16  17
ENDBRANCH  15  16
ENDBRANCH  13  15
ENDBRANCH   7  13
ENDBRANCH   3   6
ENDBRANCH   1   2
BRANCH   1  26
ATOM     26  C   UNL A   1      32.446  28.900  26.621  1.00  0.00     0.021 C 
BRANCH  26  27
ATOM     27  C   UNL A   1      32.290  29.950  25.508  1.00  0.00     0.002 C 
BRANCH  27  28
ATOM     28  C   UNL A   1      31.046  30.844  25.528  1.00  0.00     0.002 C 
BRANCH  28  29
ATOM     29  C   UNL A   1      31.036  31.987  26.537  1.00  0.00     0.021 C 
BRANCH  29  30
ATOM     30  C   UNL A   1      32.378  32.599  26.913  1.00  0.00     0.116 C 
BRANCH  30  31
ATOM     31  N   UNL A   1      32.282  33.948  27.429  1.00  0.00    -0.352 N 
ATOM     32  C   UNL A   1      33.063  34.596  28.357  1.00  0.00     0.251 C 
ATOM     33  H   UNL A   1      31.543  34.484  27.060  1.00  0.00     0.163 HD
ATOM     34  O   UNL A   1      32.749  35.725  28.723  1.00  0.00    -0.269 OA
BRANCH  32  35
ATOM     35  C   UNL A   1      34.263  33.948  28.948  1.00  0.00     0.039 A 
ATOM     36  C   UNL A   1      34.069  32.858  29.804  1.00  0.00     0.014 A 
ATOM     37  C   UNL A   1      35.560  34.417  28.722  1.00  0.00     0.014 A 
ATOM     38  C   UNL A   1      35.166  32.224  30.398  1.00  0.00     0.010 A 
ATOM     39  C   UNL A   1      36.659  33.732  29.246  1.00  0.00     0.010 A 
ATOM     40  C   UNL A   1      36.475  32.642  30.108  1.00  0.00    -0.014 A 
BRANCH  40  41
ATOM     41  C   UNL A   1      37.647  31.971  30.735  1.00  0.00     0.031 A 
ATOM     42  C   UNL A   1      38.090  32.352  32.123  1.00  0.00     0.074 A 
ATOM     43  C   UNL A   1      38.331  31.033  30.050  1.00  0.00     0.049 A 
ATOM     44  N   UNL A   1      39.092  31.893  32.832  1.00  0.00    -0.248 NA
ATOM     45  C   UNL A   1      37.319  33.408  32.797  1.00  0.00     0.031 C 
ATOM     46  C   UNL A   1      38.036  30.602  28.683  1.00  0.00     0.029 A 
ATOM     47  N   UNL A   1      39.419  30.275  30.408  1.00  0.00    -0.354 N 
ATOM     48  C   UNL A   1      39.078  32.610  34.021  1.00  0.00     0.074 A 
ATOM     49  C   UNL A   1      38.007  33.578  33.916  1.00  0.00     0.031 C 
ATOM     50  C   UNL A   1      38.899  29.637  28.329  1.00  0.00     0.029 A 
ATOM     51  C   UNL A   1      39.833  29.406  29.428  1.00  0.00     0.049 A 
ATOM     52  H   UNL A   1      39.860  30.346  31.286  1.00  0.00     0.167 HD
ATOM     53  C   UNL A   1      39.865  32.460  35.114  1.00  0.00     0.037 A 
ATOM     54  C   UNL A   1      40.852  28.524  29.414  1.00  0.00     0.037 A 
ATOM     55  C   UNL A   1      40.917  31.483  35.226  1.00  0.00     0.049 A 
ATOM     56  C   UNL A   1      41.716  28.381  30.639  1.00  0.00     0.074 A 
ATOM     57  C   UNL A   1      41.737  31.217  36.309  1.00  0.00     0.029 A 
ATOM     58  N   UNL A   1      41.297  30.614  34.215  1.00  0.00    -0.354 N 
ATOM     59  N   UNL A   1      41.647  29.016  31.784  1.00  0.00    -0.248 NA
ATOM     60  C   UNL A   1      42.795  27.385  30.573  1.00  0.00     0.031 C 
ATOM     61  C   UNL A   1      42.649  30.227  35.935  1.00  0.00     0.029 A 
ATOM     62  C   UNL A   1      42.355  29.825  34.642  1.00  0.00     0.049 A 
ATOM     63  H   UNL A   1      40.879  30.563  33.325  1.00  0.00     0.167 HD
ATOM     64  C   UNL A   1      42.644  28.474  32.584  1.00  0.00     0.074 A 
ATOM     65  C   UNL A   1      43.294  27.446  31.799  1.00  0.00     0.031 C 
ATOM     66  C   UNL A   1      42.988  28.796  33.855  1.00  0.00     0.037 A 
BRANCH  53  67
ATOM     67  C   UNL A   1      39.619  33.378  36.281  1.00  0.00     0.064 A 
ATOM     68  C   UNL A   1      40.276  34.613  36.401  1.00  0.00     0.173 A 
ATOM     69  C   UNL A   1      38.689  33.034  37.274  1.00  0.00     0.173 A 
ATOM     70  F   UNL A   1      41.182  34.988  35.485  1.00  0.00    -0.203 F 
ATOM     71  C   UNL A   1      40.037  35.451  37.487  1.00  0.00     0.198 A 
ATOM     72  C   UNL A   1      38.426  33.890  38.340  1.00  0.00     0.198 A 
ATOM     73  F   UNL A   1      38.025  31.869  37.206  1.00  0.00    -0.203 F 
ATOM     74  F   UNL A   1      40.718  36.598  37.609  1.00  0.00    -0.200 F 
ATOM     75  C   UNL A   1      39.107  35.092  38.451  1.00  0.00     0.200 A 
ATOM     76  F   UNL A   1      37.515  33.550  39.262  1.00  0.00    -0.200 F 
ATOM     77  F   UNL A   1      38.872  35.904  39.492  1.00  0.00    -0.200 F 
ENDBRANCH  53  67
BRANCH  54  78
ATOM     78  C   UNL A   1      41.095  27.685  28.210  1.00  0.00     0.064 A 
ATOM     79  C   UNL A   1      41.968  28.109  27.197  1.00  0.00     0.173 A 
ATOM     80  C   UNL A   1      40.451  26.451  28.039  1.00  0.00     0.173 A 
ATOM     81  F   UNL A   1      42.592  29.291  27.303  1.00  0.00    -0.203 F 
ATOM     82  C   UNL A   1      42.166  27.344  26.050  1.00  0.00     0.198 A 
ATOM     83  C   UNL A   1      40.676  25.671  26.906  1.00  0.00     0.198 A 
ATOM     84  F   UNL A   1      39.610  25.996  28.980  1.00  0.00    -0.203 F 
ATOM     85  F   UNL A   1      42.964  27.799  25.074  1.00  0.00    -0.200 F 
ATOM     86  C   UNL A   1      41.525  26.123  25.908  1.00  0.00     0.200 A 
ATOM     87  F   UNL A   1      40.066  24.485  26.781  1.00  0.00    -0.200 F 
ATOM     88  F   UNL A   1      41.717  25.387  24.805  1.00  0.00    -0.200 F 
ENDBRANCH  54  78
BRANCH  66  89
ATOM     89  C   UNL A   1      44.084  27.994  34.499  1.00  0.00     0.064 A 
ATOM     90  C   UNL A   1      45.426  28.400  34.457  1.00  0.00     0.173 A 
ATOM     91  C   UNL A   1      43.780  26.810  35.191  1.00  0.00     0.173 A 
ATOM     92  F   UNL A   1      45.774  29.516  33.798  1.00  0.00    -0.203 F 
ATOM     93  C   UNL A   1      46.426  27.633  35.049  1.00  0.00     0.198 A 
ATOM     94  C   UNL A   1      44.777  26.066  35.814  1.00  0.00     0.198 A 
ATOM     95  F   UNL A   1      42.512  26.381  35.272  1.00  0.00    -0.203 F 
ATOM     96  F   UNL A   1      47.708  28.009  34.943  1.00  0.00    -0.200 F 
ATOM     97  C   UNL A   1      46.100  26.471  35.734  1.00  0.00     0.200 A 
ATOM     98  F   UNL A   1      44.457  24.954  36.489  1.00  0.00    -0.200 F 
ATOM     99  F   UNL A   1      47.063  25.737  36.307  1.00  0.00    -0.200 F 
ENDBRANCH  66  89
ENDBRANCH  40  41
ENDBRANCH  32  35
ENDBRANCH  30  31
ENDBRANCH  29  30
ENDBRANCH  28  29
ENDBRANCH  27  28
ENDBRANCH  26  27
ENDBRANCH   1  26
TORSDOF 19
ENDMDL
MODEL 2
REMARK VINA RESULT:     -11.2      1.473      4.210
REMARK SMILES COc1ccc(OCCNc2c(Cl)cccc2C(=O)NCCCCCCNC(=O)c2ccc(-c3c4nc(c(-c5c(F)c(F)c(F)c(F)c5F)c5ccc([nH]5)c(-c5c(F)c(F)c(F)c(F)c5F)c5nc(c(-c6c(F)c(F)c(F)c(F)c6F)c6ccc3[nH]6)C=C5)C=C4)cc2)cc1
REMARK SMILES IDX 21 1 20 2 18 3 19 4 17 6 11 7 12 8 13 9 14 10 16 11 15 12
REMARK SMILES IDX 10 13 9 15 8 16 7 17 6 18 3 19 4 20 94 21 5 22 93 23 2 24
REMARK SMILES IDX 1 25 22 26 23 27 24 28 25 29 26 30 27 31 28 32 29 34 30 35
REMARK SMILES IDX 31 36 92 37 32 38 91 39 33 40 34 41 35 42 85 43 36 44 90 45
REMARK SMILES IDX 84 46 86 47 37 48 89 49 83 50 82 51 38 53 70 54 50 55 69 56
REMARK SMILES IDX 51 57 54 58 68 59 87 60 52 61 53 62 67 64 88 65 55 66 39 67
REMARK SMILES IDX 40 68 48 69 41 70 42 71 46 72 49 73 43 74 44 75 47 76 45 77
REMARK SMILES IDX 71 78 72 79 80 80 73 81 74 82 78 83 81 84 75 85 76 86 79 87
REMARK SMILES IDX 77 88 56 89 57 90 65 91 58 92 59 93 63 94 66 95 60 96 61 97
REMARK SMILES IDX 64 98 62 99
REMARK H PARENT 20 5 10 14 27 33 86 52 54 63
REMARK Flexibility Score: inf
ROOT
ATOM      1  C   UNL A   1      33.646  27.665  25.537  1.00  0.00     0.116 C 
ENDROOT
BRANCH   1   2
ATOM      2  N   UNL A   1      33.968  27.335  24.167  1.00  0.00    -0.352 N 
ATOM      3  C   UNL A   1      33.205  27.378  23.027  1.00  0.00     0.253 C 
ATOM      4  O   UNL A   1      33.757  27.086  21.964  1.00  0.00    -0.269 OA
ATOM      5  H   UNL A   1      34.892  27.026  24.028  1.00  0.00     0.163 HD
BRANCH   3   6
ATOM      6  C   UNL A   1      31.744  27.656  22.996  1.00  0.00     0.064 A 
ATOM      7  C   UNL A   1      30.724  26.866  23.561  1.00  0.00     0.066 A 
ATOM      8  C   UNL A   1      29.394  27.363  23.456  1.00  0.00     0.065 A 
ATOM      9  Cl  UNL A   1      28.044  26.485  24.106  1.00  0.00    -0.082 Cl
ATOM     10  C   UNL A   1      29.088  28.587  22.852  1.00  0.00     0.023 A 
ATOM     11  C   UNL A   1      31.421  28.906  22.412  1.00  0.00     0.016 A 
ATOM     12  C   UNL A   1      30.106  29.363  22.329  1.00  0.00     0.003 A 
BRANCH   7  13
ATOM     13  N   UNL A   1      30.896  25.569  24.011  1.00  0.00    -0.380 N 
ATOM     14  H   UNL A   1      31.114  25.458  24.964  1.00  0.00     0.160 HD
BRANCH  13  15
ATOM     15  C   UNL A   1      30.788  24.354  23.221  1.00  0.00     0.154 C 
BRANCH  15  16
ATOM     16  C   UNL A   1      32.193  23.846  22.790  1.00  0.00     0.250 C 
BRANCH  16  17
ATOM     17  O   UNL A   1      32.505  22.489  23.160  1.00  0.00    -0.492 OA
BRANCH  17  18
ATOM     18  C   UNL A   1      33.697  22.196  23.769  1.00  0.00     0.119 A 
ATOM     19  C   UNL A   1      36.309  21.515  24.534  1.00  0.00     0.119 A 
ATOM     20  C   UNL A   1      36.078  22.688  23.822  1.00  0.00     0.050 A 
ATOM     21  C   UNL A   1      35.230  20.756  24.974  1.00  0.00     0.050 A 
ATOM     22  C   UNL A   1      34.775  23.019  23.431  1.00  0.00     0.050 A 
ATOM     23  C   UNL A   1      33.928  21.122  24.622  1.00  0.00     0.050 A 
BRANCH  19  24
ATOM     24  O   UNL A   1      37.603  21.204  24.846  1.00  0.00    -0.497 OA
ATOM     25  C   UNL A   1      38.208  22.167  25.712  1.00  0.00     0.278 C 
ENDBRANCH  19  24
ENDBRANCH  17  18
ENDBRANCH  16  17
ENDBRANCH  15  16
ENDBRANCH  13  15
ENDBRANCH   7  13
ENDBRANCH   3   6
ENDBRANCH   1   2
BRANCH   1  26
ATOM     26  C   UNL A   1      33.355  29.146  25.777  1.00  0.00     0.021 C 
BRANCH  26  27
ATOM     27  C   UNL A   1      31.944  29.507  26.268  1.00  0.00     0.002 C 
BRANCH  27  28
ATOM     28  C   UNL A   1      31.210  30.659  25.575  1.00  0.00     0.002 C 
BRANCH  28  29
ATOM     29  C   UNL A   1      31.137  31.982  26.330  1.00  0.00     0.021 C 
BRANCH  29  30
ATOM     30  C   UNL A   1      32.423  32.501  26.956  1.00  0.00     0.116 C 
BRANCH  30  31
ATOM     31  N   UNL A   1      32.321  33.852  27.467  1.00  0.00    -0.352 N 
ATOM     32  C   UNL A   1      33.100  34.507  28.391  1.00  0.00     0.251 C 
ATOM     33  H   UNL A   1      31.580  34.383  27.096  1.00  0.00     0.163 HD
ATOM     34  O   UNL A   1      32.782  35.636  28.753  1.00  0.00    -0.269 OA
BRANCH  32  35
ATOM     35  C   UNL A   1      34.303  33.868  28.985  1.00  0.00     0.039 A 
ATOM     36  C   UNL A   1      34.115  32.790  29.857  1.00  0.00     0.014 A 
ATOM     37  C   UNL A   1      35.599  34.333  28.743  1.00  0.00     0.014 A 
ATOM     38  C   UNL A   1      35.215  32.165  30.454  1.00  0.00     0.010 A 
ATOM     39  C   UNL A   1      36.701  33.655  29.270  1.00  0.00     0.010 A 
ATOM     40  C   UNL A   1      36.522  32.577  30.149  1.00  0.00    -0.014 A 
BRANCH  40  41
ATOM     41  C   UNL A   1      37.697  31.914  30.778  1.00  0.00     0.031 A 
ATOM     42  C   UNL A   1      38.123  32.286  32.174  1.00  0.00     0.074 A 
ATOM     43  C   UNL A   1      38.401  30.995  30.088  1.00  0.00     0.049 A 
ATOM     44  N   UNL A   1      39.125  31.831  32.887  1.00  0.00    -0.248 NA
ATOM     45  C   UNL A   1      37.332  33.323  32.854  1.00  0.00     0.031 C 
ATOM     46  C   UNL A   1      38.123  30.576  28.713  1.00  0.00     0.029 A 
ATOM     47  N   UNL A   1      39.496  30.247  30.447  1.00  0.00    -0.354 N 
ATOM     48  C   UNL A   1      39.091  32.534  34.084  1.00  0.00     0.074 A 
ATOM     49  C   UNL A   1      38.008  33.488  33.981  1.00  0.00     0.031 C 
ATOM     50  C   UNL A   1      39.002  29.628  28.356  1.00  0.00     0.029 A 
ATOM     51  C   UNL A   1      39.930  29.395  29.460  1.00  0.00     0.049 A 
ATOM     52  H   UNL A   1      39.928  30.314  31.329  1.00  0.00     0.167 HD
ATOM     53  C   UNL A   1      39.871  32.382  35.182  1.00  0.00     0.037 A 
ATOM     54  C   UNL A   1      40.961  28.528  29.445  1.00  0.00     0.037 A 
ATOM     55  C   UNL A   1      40.935  31.418  35.292  1.00  0.00     0.049 A 
ATOM     56  C   UNL A   1      41.816  28.382  30.675  1.00  0.00     0.074 A 
ATOM     57  C   UNL A   1      41.749  31.150  36.379  1.00  0.00     0.029 A 
ATOM     58  N   UNL A   1      41.336  30.565  34.274  1.00  0.00    -0.354 N 
ATOM     59  N   UNL A   1      41.729  29.002  31.827  1.00  0.00    -0.248 NA
ATOM     60  C   UNL A   1      42.910  27.401  30.607  1.00  0.00     0.031 C 
ATOM     61  C   UNL A   1      42.678  30.176  36.001  1.00  0.00     0.029 A 
ATOM     62  C   UNL A   1      42.401  29.786  34.701  1.00  0.00     0.049 A 
ATOM     63  H   UNL A   1      40.926  30.520  33.380  1.00  0.00     0.167 HD
ATOM     64  C   UNL A   1      42.726  28.464  32.630  1.00  0.00     0.074 A 
ATOM     65  C   UNL A   1      43.397  27.454  31.838  1.00  0.00     0.031 C 
ATOM     66  C   UNL A   1      43.054  28.776  33.908  1.00  0.00     0.037 A 
BRANCH  53  67
ATOM     67  C   UNL A   1      39.602  33.282  36.358  1.00  0.00     0.064 A 
ATOM     68  C   UNL A   1      38.765  32.889  37.413  1.00  0.00     0.173 A 
ATOM     69  C   UNL A   1      40.219  34.539  36.448  1.00  0.00     0.173 A 
ATOM     70  F   UNL A   1      38.143  31.700  37.375  1.00  0.00    -0.203 F 
ATOM     71  C   UNL A   1      38.528  33.733  38.495  1.00  0.00     0.198 A 
ATOM     72  C   UNL A   1      40.007  35.367  37.547  1.00  0.00     0.198 A 
ATOM     73  F   UNL A   1      41.036  34.965  35.471  1.00  0.00    -0.203 F 
ATOM     74  F   UNL A   1      37.679  33.358  39.462  1.00  0.00    -0.200 F 
ATOM     75  C   UNL A   1      39.154  34.967  38.564  1.00  0.00     0.200 A 
ATOM     76  F   UNL A   1      40.627  36.553  37.621  1.00  0.00    -0.200 F 
ATOM     77  F   UNL A   1      38.931  35.776  39.611  1.00  0.00    -0.200 F 
ENDBRANCH  53  67
BRANCH  54  78
ATOM     78  C   UNL A   1      41.226  27.707  28.233  1.00  0.00     0.064 A 
ATOM     79  C   UNL A   1      40.653  26.436  28.080  1.00  0.00     0.173 A 
ATOM     80  C   UNL A   1      42.068  28.168  27.209  1.00  0.00     0.173 A 
ATOM     81  F   UNL A   1      39.858  25.942  29.041  1.00  0.00    -0.203 F 
ATOM     82  C   UNL A   1      40.932  25.648  26.966  1.00  0.00     0.198 A 
ATOM     83  C   UNL A   1      42.320  27.393  26.080  1.00  0.00     0.198 A 
ATOM     84  F   UNL A   1      42.638  29.378  27.302  1.00  0.00    -0.203 F 
ATOM     85  F   UNL A   1      40.414  24.416  26.873  1.00  0.00    -0.200 F 
ATOM     86  C   UNL A   1      41.760  26.129  25.964  1.00  0.00     0.200 A 
ATOM     87  F   UNL A   1      43.108  27.868  25.106  1.00  0.00    -0.200 F 
ATOM     88  F   UNL A   1      42.027  25.372  24.891  1.00  0.00    -0.200 F 
ENDBRANCH  54  78
BRANCH  66  89
ATOM     89  C   UNL A   1      44.156  27.981  34.551  1.00  0.00     0.064 A 
ATOM     90  C   UNL A   1      43.911  26.767  35.210  1.00  0.00     0.173 A 
ATOM     91  C   UNL A   1      45.484  28.432  34.483  1.00  0.00     0.173 A 
ATOM     92  F   UNL A   1      42.658  26.296  35.315  1.00  0.00    -0.203 F 
ATOM     93  C   UNL A   1      44.946  26.054  35.810  1.00  0.00     0.198 A 
ATOM     94  C   UNL A   1      46.522  27.698  35.051  1.00  0.00     0.198 A 
ATOM     95  F   UNL A   1      45.778  29.581  33.856  1.00  0.00    -0.203 F 
ATOM     96  F   UNL A   1      44.678  24.929  36.487  1.00  0.00    -0.200 F 
ATOM     97  C   UNL A   1      46.251  26.517  35.723  1.00  0.00     0.200 A 
ATOM     98  F   UNL A   1      47.784  28.138  34.950  1.00  0.00    -0.200 F 
ATOM     99  F   UNL A   1      47.246  25.827  36.297  1.00  0.00    -0.200 F 
ENDBRANCH  66  89
ENDBRANCH  40  41
ENDBRANCH  32  35
ENDBRANCH  30  31
ENDBRANCH  29  30
ENDBRANCH  28  29
ENDBRANCH  27  28
ENDBRANCH  26  27
ENDBRANCH   1  26
TORSDOF 19
ENDMDL
MODEL 3
REMARK VINA RESULT:     -11.1      0.462      2.012
REMARK SMILES COc1ccc(OCCNc2c(Cl)cccc2C(=O)NCCCCCCNC(=O)c2ccc(-c3c4nc(c(-c5c(F)c(F)c(F)c(F)c5F)c5ccc([nH]5)c(-c5c(F)c(F)c(F)c(F)c5F)c5nc(c(-c6c(F)c(F)c(F)c(F)c6F)c6ccc3[nH]6)C=C5)C=C4)cc2)cc1
REMARK SMILES IDX 21 1 20 2 18 3 19 4 17 6 11 7 12 8 13 9 14 10 16 11 15 12
REMARK SMILES IDX 10 13 9 15 8 16 7 17 6 18 3 19 4 20 94 21 5 22 93 23 2 24
REMARK SMILES IDX 1 25 22 26 23 27 24 28 25 29 26 30 27 31 28 32 29 34 30 35
REMARK SMILES IDX 31 36 92 37 32 38 91 39 33 40 34 41 35 42 85 43 36 44 90 45
REMARK SMILES IDX 84 46 86 47 37 48 89 49 83 50 82 51 38 53 70 54 50 55 69 56
REMARK SMILES IDX 51 57 54 58 68 59 87 60 52 61 53 62 67 64 88 65 55 66 39 67
REMARK SMILES IDX 40 68 48 69 41 70 42 71 46 72 49 73 43 74 44 75 47 76 45 77
REMARK SMILES IDX 71 78 72 79 80 80 73 81 74 82 78 83 81 84 75 85 76 86 79 87
REMARK SMILES IDX 77 88 56 89 57 90 65 91 58 92 59 93 63 94 66 95 60 96 61 97
REMARK SMILES IDX 64 98 62 99
REMARK H PARENT 20 5 10 14 27 33 86 52 54 63
REMARK Flexibility Score: inf
ROOT
ATOM      1  C   UNL A   1      33.731  27.846  26.526  1.00  0.00     0.116 C 
ENDROOT
BRANCH   1   2
ATOM      2  N   UNL A   1      33.744  27.388  25.155  1.00  0.00    -0.352 N 
ATOM      3  C   UNL A   1      33.851  26.124  24.628  1.00  0.00     0.253 C 
ATOM      4  O   UNL A   1      33.779  26.013  23.402  1.00  0.00    -0.269 OA
ATOM      5  H   UNL A   1      33.660  28.103  24.484  1.00  0.00     0.163 HD
BRANCH   3   6
ATOM      6  C   UNL A   1      34.145  24.899  25.420  1.00  0.00     0.064 A 
ATOM      7  C   UNL A   1      33.243  24.187  26.235  1.00  0.00     0.066 A 
ATOM      8  C   UNL A   1      33.736  23.004  26.855  1.00  0.00     0.065 A 
ATOM      9  Cl  UNL A   1      32.730  22.036  27.888  1.00  0.00    -0.082 Cl
ATOM     10  C   UNL A   1      35.038  22.533  26.660  1.00  0.00     0.023 A 
ATOM     11  C   UNL A   1      35.452  24.394  25.211  1.00  0.00     0.016 A 
ATOM     12  C   UNL A   1      35.900  23.229  25.833  1.00  0.00     0.003 A 
BRANCH   7  13
ATOM     13  N   UNL A   1      32.007  24.660  26.635  1.00  0.00    -0.380 N 
ATOM     14  H   UNL A   1      31.973  25.137  27.495  1.00  0.00     0.160 HD
BRANCH  13  15
ATOM     15  C   UNL A   1      30.751  24.525  25.915  1.00  0.00     0.154 C 
BRANCH  15  16
ATOM     16  C   UNL A   1      30.067  25.908  25.728  1.00  0.00     0.250 C 
BRANCH  16  17
ATOM     17  O   UNL A   1      30.803  26.867  24.945  1.00  0.00    -0.492 OA
BRANCH  17  18
ATOM     18  C   UNL A   1      30.187  27.548  23.929  1.00  0.00     0.119 A 
ATOM     19  C   UNL A   1      29.066  29.368  22.111  1.00  0.00     0.119 A 
ATOM     20  C   UNL A   1      30.447  29.301  22.263  1.00  0.00     0.050 A 
ATOM     21  C   UNL A   1      28.258  28.444  22.764  1.00  0.00     0.050 A 
ATOM     22  C   UNL A   1      31.003  28.401  23.180  1.00  0.00     0.050 A 
ATOM     23  C   UNL A   1      28.827  27.514  23.640  1.00  0.00     0.050 A 
BRANCH  19  24
ATOM     24  O   UNL A   1      28.566  30.300  21.245  1.00  0.00    -0.497 OA
ATOM     25  C   UNL A   1      28.497  31.607  21.819  1.00  0.00     0.278 C 
ENDBRANCH  19  24
ENDBRANCH  17  18
ENDBRANCH  16  17
ENDBRANCH  15  16
ENDBRANCH  13  15
ENDBRANCH   7  13
ENDBRANCH   3   6
ENDBRANCH   1   2
BRANCH   1  26
ATOM     26  C   UNL A   1      33.390  29.326  26.693  1.00  0.00     0.021 C 
BRANCH  26  27
ATOM     27  C   UNL A   1      31.898  29.693  26.750  1.00  0.00     0.002 C 
BRANCH  27  28
ATOM     28  C   UNL A   1      31.434  30.949  26.006  1.00  0.00     0.002 C 
BRANCH  28  29
ATOM     29  C   UNL A   1      31.333  32.234  26.821  1.00  0.00     0.021 C 
BRANCH  29  30
ATOM     30  C   UNL A   1      32.615  33.023  27.043  1.00  0.00     0.116 C 
BRANCH  30  31
ATOM     31  N   UNL A   1      32.414  34.290  27.713  1.00  0.00    -0.352 N 
ATOM     32  C   UNL A   1      33.068  34.831  28.794  1.00  0.00     0.251 C 
ATOM     33  H   UNL A   1      31.698  34.852  27.337  1.00  0.00     0.163 HD
ATOM     34  O   UNL A   1      32.675  35.894  29.265  1.00  0.00    -0.269 OA
BRANCH  32  35
ATOM     35  C   UNL A   1      34.224  34.141  29.426  1.00  0.00     0.039 A 
ATOM     36  C   UNL A   1      35.486  34.301  28.844  1.00  0.00     0.014 A 
ATOM     37  C   UNL A   1      34.085  33.307  30.539  1.00  0.00     0.014 A 
ATOM     38  C   UNL A   1      36.602  33.660  29.392  1.00  0.00     0.010 A 
ATOM     39  C   UNL A   1      35.212  32.736  31.136  1.00  0.00     0.010 A 
ATOM     40  C   UNL A   1      36.480  32.887  30.557  1.00  0.00    -0.014 A 
BRANCH  40  41
ATOM     41  C   UNL A   1      37.664  32.204  31.147  1.00  0.00     0.031 A 
ATOM     42  C   UNL A   1      38.145  32.569  32.527  1.00  0.00     0.074 A 
ATOM     43  C   UNL A   1      38.326  31.270  30.435  1.00  0.00     0.049 A 
ATOM     44  N   UNL A   1      39.163  32.098  33.205  1.00  0.00    -0.248 NA
ATOM     45  C   UNL A   1      37.397  33.622  33.231  1.00  0.00     0.031 C 
ATOM     46  C   UNL A   1      37.994  30.854  29.072  1.00  0.00     0.029 A 
ATOM     47  N   UNL A   1      39.420  30.503  30.757  1.00  0.00    -0.354 N 
ATOM     48  C   UNL A   1      39.183  32.804  34.401  1.00  0.00     0.074 A 
ATOM     49  C   UNL A   1      38.115  33.777  34.333  1.00  0.00     0.031 C 
ATOM     50  C   UNL A   1      38.843  29.889  28.687  1.00  0.00     0.029 A 
ATOM     51  C   UNL A   1      39.803  29.642  29.758  1.00  0.00     0.049 A 
ATOM     52  H   UNL A   1      39.883  30.563  31.624  1.00  0.00     0.167 HD
ATOM     53  C   UNL A   1      39.997  32.639  35.472  1.00  0.00     0.037 A 
ATOM     54  C   UNL A   1      40.818  28.756  29.710  1.00  0.00     0.037 A 
ATOM     55  C   UNL A   1      41.047  31.656  35.547  1.00  0.00     0.049 A 
ATOM     56  C   UNL A   1      41.712  28.596  30.910  1.00  0.00     0.074 A 
ATOM     57  C   UNL A   1      41.893  31.375  36.606  1.00  0.00     0.029 A 
ATOM     58  N   UNL A   1      41.396  30.795  34.518  1.00  0.00    -0.354 N 
ATOM     59  N   UNL A   1      41.676  29.220  32.063  1.00  0.00    -0.248 NA
ATOM     60  C   UNL A   1      42.784  27.596  30.807  1.00  0.00     0.031 C 
ATOM     61  C   UNL A   1      42.791  30.384  36.199  1.00  0.00     0.029 A 
ATOM     62  C   UNL A   1      42.461  29.997  34.910  1.00  0.00     0.049 A 
ATOM     63  H   UNL A   1      40.955  30.755  33.639  1.00  0.00     0.167 HD
ATOM     64  C   UNL A   1      42.690  28.665  32.832  1.00  0.00     0.074 A 
ATOM     65  C   UNL A   1      43.315  27.642  32.020  1.00  0.00     0.031 C 
ATOM     66  C   UNL A   1      43.069  28.973  34.097  1.00  0.00     0.037 A 
BRANCH  53  67
ATOM     67  C   UNL A   1      39.786  33.546  36.654  1.00  0.00     0.064 A 
ATOM     68  C   UNL A   1      38.922  33.201  37.705  1.00  0.00     0.173 A 
ATOM     69  C   UNL A   1      40.484  34.760  36.755  1.00  0.00     0.173 A 
ATOM     70  F   UNL A   1      38.223  32.056  37.657  1.00  0.00    -0.203 F 
ATOM     71  C   UNL A   1      38.738  34.051  38.792  1.00  0.00     0.198 A 
ATOM     72  C   UNL A   1      40.324  35.591  37.860  1.00  0.00     0.198 A 
ATOM     73  F   UNL A   1      41.329  35.137  35.783  1.00  0.00    -0.203 F 
ATOM     74  F   UNL A   1      37.865  33.726  39.755  1.00  0.00    -0.200 F 
ATOM     75  C   UNL A   1      39.445  35.241  38.873  1.00  0.00     0.200 A 
ATOM     76  F   UNL A   1      41.021  36.732  37.944  1.00  0.00    -0.200 F 
ATOM     77  F   UNL A   1      39.273  36.055  39.924  1.00  0.00    -0.200 F 
ENDBRANCH  53  67
BRANCH  54  78
ATOM     78  C   UNL A   1      41.026  27.928  28.492  1.00  0.00     0.064 A 
ATOM     79  C   UNL A   1      40.379  26.693  28.337  1.00  0.00     0.173 A 
ATOM     80  C   UNL A   1      41.884  28.345  27.464  1.00  0.00     0.173 A 
ATOM     81  F   UNL A   1      39.565  26.239  29.301  1.00  0.00    -0.203 F 
ATOM     82  C   UNL A   1      40.604  25.897  27.216  1.00  0.00     0.198 A 
ATOM     83  C   UNL A   1      42.083  27.563  26.328  1.00  0.00     0.198 A 
ATOM     84  F   UNL A   1      42.524  29.520  27.558  1.00  0.00    -0.203 F 
ATOM     85  F   UNL A   1      40.015  24.696  27.121  1.00  0.00    -0.200 F 
ATOM     86  C   UNL A   1      41.450  26.335  26.210  1.00  0.00     0.200 A 
ATOM     87  F   UNL A   1      42.889  27.998  25.350  1.00  0.00    -0.200 F 
ATOM     88  F   UNL A   1      41.665  25.570  25.131  1.00  0.00    -0.200 F 
ENDBRANCH  54  78
BRANCH  66  89
ATOM     89  C   UNL A   1      44.177  28.160  34.704  1.00  0.00     0.064 A 
ATOM     90  C   UNL A   1      43.930  26.965  35.397  1.00  0.00     0.173 A 
ATOM     91  C   UNL A   1      45.512  28.572  34.565  1.00  0.00     0.173 A 
ATOM     92  F   UNL A   1      42.672  26.532  35.569  1.00  0.00    -0.203 F 
ATOM     93  C   UNL A   1      44.973  26.235  35.961  1.00  0.00     0.198 A 
ATOM     94  C   UNL A   1      46.555  27.820  35.099  1.00  0.00     0.198 A 
ATOM     95  F   UNL A   1      45.807  29.700  33.903  1.00  0.00    -0.203 F 
ATOM     96  F   UNL A   1      44.707  25.130  36.672  1.00  0.00    -0.200 F 
ATOM     97  C   UNL A   1      46.285  26.659  35.805  1.00  0.00     0.200 A 
ATOM     98  F   UNL A   1      47.822  28.222  34.931  1.00  0.00    -0.200 F 
ATOM     99  F   UNL A   1      47.286  25.952  36.346  1.00  0.00    -0.200 F 
ENDBRANCH  66  89
ENDBRANCH  40  41
ENDBRANCH  32  35
ENDBRANCH  30  31
ENDBRANCH  29  30
ENDBRANCH  28  29
ENDBRANCH  27  28
ENDBRANCH  26  27
ENDBRANCH   1  26
TORSDOF 19
ENDMDL
