MODEL 1
REMARK VINA RESULT:     -13.4      0.000      0.000
REMARK SMILES Cc1ccc(NC(=O)N2CCCC[C@@H]2C(=O)NCCCCCCNC(=O)c2ccc(-c3c4nc(c(-c5c(F)c(F)c(F)c(F)c5F)c5ccc([nH]5)c(-c5c(F)c(F)c(F)c(F)c5F)c5nc(c(-c6c(F)c(F)c(F)c(F)c6F)c6ccc3[nH]6)C=C5)C=C4)cc2)cc1
REMARK SMILES IDX 20 1 19 2 18 3 17 4 15 5 16 6 14 8 9 9 10 10 11 11 13 12
REMARK SMILES IDX 12 13 7 14 6 15 8 17 5 18 1 19 2 20 3 21 91 22 4 23 90 24
REMARK SMILES IDX 21 25 22 26 23 27 24 28 25 29 26 31 27 32 28 33 89 34 29 35
REMARK SMILES IDX 88 36 30 37 31 38 32 39 82 40 33 41 87 42 81 43 83 44 34 45
REMARK SMILES IDX 86 46 80 47 79 48 35 50 67 51 47 52 66 53 48 54 51 55 65 56
REMARK SMILES IDX 84 57 49 58 50 59 64 61 85 62 52 63 36 64 37 65 45 66 38 67
REMARK SMILES IDX 39 68 43 69 46 70 40 71 41 72 44 73 42 74 68 75 69 76 77 77
REMARK SMILES IDX 70 78 71 79 75 80 78 81 72 82 73 83 76 84 74 85 53 86 54 87
REMARK SMILES IDX 62 88 55 89 56 90 60 91 63 92 57 93 58 94 61 95 59 96
REMARK H PARENT 17 7 6 16 24 30 83 49 51 60
REMARK Flexibility Score: inf
ROOT
ATOM      1  C   UNL A   1      36.269  23.080  24.672  1.00  0.00     0.002 C 
ENDROOT
BRANCH   1   2
ATOM      2  C   UNL A   1      35.286  23.667  25.694  1.00  0.00     0.021 C 
BRANCH   2   3
ATOM      3  C   UNL A   1      34.477  24.870  25.202  1.00  0.00     0.116 C 
BRANCH   3   4
ATOM      4  N   UNL A   1      33.384  25.153  26.107  1.00  0.00    -0.354 N 
ATOM      5  C   UNL A   1      32.433  26.128  26.054  1.00  0.00     0.242 C 
ATOM      6  O   UNL A   1      31.805  26.347  27.095  1.00  0.00    -0.273 OA
ATOM      7  H   UNL A   1      33.315  24.546  26.880  1.00  0.00     0.163 HD
BRANCH   5   8
ATOM      8  C   UNL A   1      32.265  27.048  24.817  1.00  0.00     0.176 C 
ATOM      9  N   UNL A   1      31.405  26.503  23.729  1.00  0.00    -0.313 N 
ATOM     10  C   UNL A   1      31.550  27.071  22.391  1.00  0.00     0.122 C 
ATOM     11  C   UNL A   1      32.985  27.334  21.971  1.00  0.00     0.022 C 
ATOM     12  C   UNL A   1      33.692  27.403  24.346  1.00  0.00     0.035 C 
ATOM     13  C   UNL A   1      33.705  28.155  23.026  1.00  0.00     0.004 C 
BRANCH   9  14
ATOM     14  C   UNL A   1      30.244  25.772  23.920  1.00  0.00     0.322 C 
ATOM     15  N   UNL A   1      30.208  24.440  23.656  1.00  0.00    -0.308 N 
ATOM     16  H   UNL A   1      29.380  24.127  23.223  1.00  0.00     0.171 HD
ATOM     17  O   UNL A   1      29.189  26.327  24.236  1.00  0.00    -0.248 OA
BRANCH  15  18
ATOM     18  C   UNL A   1      31.160  23.438  23.898  1.00  0.00     0.042 A 
ATOM     19  C   UNL A   1      33.584  19.951  24.544  1.00  0.00     0.044 C 
ATOM     20  C   UNL A   1      32.834  21.239  24.376  1.00  0.00    -0.051 A 
ATOM     21  C   UNL A   1      32.953  21.974  23.193  1.00  0.00     0.005 A 
ATOM     22  C   UNL A   1      31.931  21.668  25.355  1.00  0.00     0.005 A 
ATOM     23  C   UNL A   1      32.139  23.085  22.970  1.00  0.00     0.026 A 
ATOM     24  C   UNL A   1      31.113  22.777  25.126  1.00  0.00     0.026 A 
ENDBRANCH  15  18
ENDBRANCH   9  14
ENDBRANCH   5   8
ENDBRANCH   3   4
ENDBRANCH   2   3
ENDBRANCH   1   2
BRANCH   1  25
ATOM     25  C   UNL A   1      36.816  21.677  24.979  1.00  0.00     0.002 C 
BRANCH  25  26
ATOM     26  C   UNL A   1      38.266  21.607  25.467  1.00  0.00     0.021 C 
BRANCH  26  27
ATOM     27  C   UNL A   1      38.737  22.851  26.210  1.00  0.00     0.116 C 
BRANCH  27  28
ATOM     28  N   UNL A   1      40.183  22.951  26.358  1.00  0.00    -0.352 N 
ATOM     29  C   UNL A   1      40.952  24.077  26.604  1.00  0.00     0.251 C 
ATOM     30  H   UNL A   1      40.681  22.106  26.272  1.00  0.00     0.163 HD
ATOM     31  O   UNL A   1      42.168  24.005  26.668  1.00  0.00    -0.269 OA
BRANCH  29  32
ATOM     32  C   UNL A   1      40.262  25.351  26.914  1.00  0.00     0.039 A 
ATOM     33  C   UNL A   1      40.733  26.516  26.297  1.00  0.00     0.014 A 
ATOM     34  C   UNL A   1      39.335  25.423  27.951  1.00  0.00     0.014 A 
ATOM     35  C   UNL A   1      40.462  27.750  26.881  1.00  0.00     0.010 A 
ATOM     36  C   UNL A   1      39.137  26.637  28.583  1.00  0.00     0.010 A 
ATOM     37  C   UNL A   1      39.763  27.786  28.089  1.00  0.00    -0.014 A 
BRANCH  37  38
ATOM     38  C   UNL A   1      39.764  28.957  28.959  1.00  0.00     0.031 A 
ATOM     39  C   UNL A   1      38.741  30.010  28.815  1.00  0.00     0.074 A 
ATOM     40  C   UNL A   1      40.690  29.047  29.940  1.00  0.00     0.049 A 
ATOM     41  N   UNL A   1      38.916  31.247  29.147  1.00  0.00    -0.248 NA
ATOM     42  C   UNL A   1      37.431  29.748  28.238  1.00  0.00     0.031 C 
ATOM     43  C   UNL A   1      40.719  30.001  31.044  1.00  0.00     0.029 A 
ATOM     44  N   UNL A   1      41.931  28.391  30.010  1.00  0.00    -0.354 N 
ATOM     45  C   UNL A   1      37.690  31.873  29.095  1.00  0.00     0.074 A 
ATOM     46  C   UNL A   1      36.818  30.917  28.449  1.00  0.00     0.031 C 
ATOM     47  C   UNL A   1      41.980  30.101  31.493  1.00  0.00     0.029 A 
ATOM     48  C   UNL A   1      42.817  29.319  30.600  1.00  0.00     0.049 A 
ATOM     49  H   UNL A   1      42.140  27.477  29.709  1.00  0.00     0.167 HD
ATOM     50  C   UNL A   1      37.522  33.068  29.737  1.00  0.00     0.037 A 
ATOM     51  C   UNL A   1      43.905  29.797  29.930  1.00  0.00     0.037 A 
ATOM     52  C   UNL A   1      38.778  33.535  30.323  1.00  0.00     0.049 A 
ATOM     53  C   UNL A   1      43.924  31.298  29.775  1.00  0.00     0.074 A 
ATOM     54  C   UNL A   1      39.287  33.465  31.611  1.00  0.00     0.029 A 
ATOM     55  N   UNL A   1      39.839  33.904  29.502  1.00  0.00    -0.354 N 
ATOM     56  N   UNL A   1      42.869  32.052  29.900  1.00  0.00    -0.248 NA
ATOM     57  C   UNL A   1      45.118  32.058  29.412  1.00  0.00     0.031 C 
ATOM     58  C   UNL A   1      40.671  33.748  31.556  1.00  0.00     0.029 A 
ATOM     59  C   UNL A   1      41.004  34.004  30.238  1.00  0.00     0.049 A 
ATOM     60  H   UNL A   1      39.769  34.068  28.534  1.00  0.00     0.167 HD
ATOM     61  C   UNL A   1      43.202  33.349  29.611  1.00  0.00     0.074 A 
ATOM     62  C   UNL A   1      44.625  33.306  29.335  1.00  0.00     0.031 C 
ATOM     63  C   UNL A   1      42.270  34.345  29.609  1.00  0.00     0.037 A 
BRANCH  50  64
ATOM     64  C   UNL A   1      36.166  33.634  30.127  1.00  0.00     0.064 A 
ATOM     65  C   UNL A   1      35.299  34.179  29.152  1.00  0.00     0.173 A 
ATOM     66  C   UNL A   1      35.693  33.745  31.447  1.00  0.00     0.173 A 
ATOM     67  F   UNL A   1      35.525  34.018  27.843  1.00  0.00    -0.203 F 
ATOM     68  C   UNL A   1      34.155  34.912  29.482  1.00  0.00     0.198 A 
ATOM     69  C   UNL A   1      34.579  34.524  31.784  1.00  0.00     0.198 A 
ATOM     70  F   UNL A   1      36.250  33.052  32.446  1.00  0.00    -0.203 F 
ATOM     71  F   UNL A   1      33.389  35.424  28.509  1.00  0.00    -0.200 F 
ATOM     72  C   UNL A   1      33.821  35.126  30.802  1.00  0.00     0.200 A 
ATOM     73  F   UNL A   1      34.246  34.684  33.074  1.00  0.00    -0.200 F 
ATOM     74  F   UNL A   1      32.758  35.875  31.123  1.00  0.00    -0.200 F 
ENDBRANCH  50  64
BRANCH  51  75
ATOM     75  C   UNL A   1      44.454  28.841  28.934  1.00  0.00     0.064 A 
ATOM     76  C   UNL A   1      45.152  27.712  29.400  1.00  0.00     0.173 A 
ATOM     77  C   UNL A   1      44.007  28.826  27.608  1.00  0.00     0.173 A 
ATOM     78  F   UNL A   1      45.599  27.676  30.666  1.00  0.00    -0.203 F 
ATOM     79  C   UNL A   1      45.298  26.573  28.611  1.00  0.00     0.198 A 
ATOM     80  C   UNL A   1      44.168  27.688  26.815  1.00  0.00     0.198 A 
ATOM     81  F   UNL A   1      43.319  29.863  27.111  1.00  0.00    -0.203 F 
ATOM     82  F   UNL A   1      45.873  25.475  29.122  1.00  0.00    -0.200 F 
ATOM     83  C   UNL A   1      44.782  26.554  27.327  1.00  0.00     0.200 A 
ATOM     84  F   UNL A   1      43.644  27.657  25.582  1.00  0.00    -0.200 F 
ATOM     85  F   UNL A   1      44.843  25.432  26.597  1.00  0.00    -0.200 F 
ENDBRANCH  51  75
BRANCH  63  86
ATOM     86  C   UNL A   1      42.491  35.750  29.115  1.00  0.00     0.064 A 
ATOM     87  C   UNL A   1      41.870  36.281  27.973  1.00  0.00     0.173 A 
ATOM     88  C   UNL A   1      43.247  36.667  29.883  1.00  0.00     0.173 A 
ATOM     89  F   UNL A   1      41.036  35.543  27.228  1.00  0.00    -0.203 F 
ATOM     90  C   UNL A   1      42.046  37.615  27.590  1.00  0.00     0.198 A 
ATOM     91  C   UNL A   1      43.377  38.008  29.528  1.00  0.00     0.198 A 
ATOM     92  F   UNL A   1      43.865  36.289  31.013  1.00  0.00    -0.203 F 
ATOM     93  F   UNL A   1      41.466  38.064  26.468  1.00  0.00    -0.200 F 
ATOM     94  C   UNL A   1      42.789  38.479  28.372  1.00  0.00     0.200 A 
ATOM     95  F   UNL A   1      44.059  38.846  30.323  1.00  0.00    -0.200 F 
ATOM     96  F   UNL A   1      42.920  39.766  28.023  1.00  0.00    -0.200 F 
ENDBRANCH  63  86
ENDBRANCH  37  38
ENDBRANCH  29  32
ENDBRANCH  27  28
ENDBRANCH  26  27
ENDBRANCH  25  26
ENDBRANCH   1  25
TORSDOF 15
ENDMDL
MODEL 2
REMARK VINA RESULT:     -13.4      3.368      9.593
REMARK SMILES Cc1ccc(NC(=O)N2CCCC[C@@H]2C(=O)NCCCCCCNC(=O)c2ccc(-c3c4nc(c(-c5c(F)c(F)c(F)c(F)c5F)c5ccc([nH]5)c(-c5c(F)c(F)c(F)c(F)c5F)c5nc(c(-c6c(F)c(F)c(F)c(F)c6F)c6ccc3[nH]6)C=C5)C=C4)cc2)cc1
REMARK SMILES IDX 20 1 19 2 18 3 17 4 15 5 16 6 14 8 9 9 10 10 11 11 13 12
REMARK SMILES IDX 12 13 7 14 6 15 8 17 5 18 1 19 2 20 3 21 91 22 4 23 90 24
REMARK SMILES IDX 21 25 22 26 23 27 24 28 25 29 26 31 27 32 28 33 89 34 29 35
REMARK SMILES IDX 88 36 30 37 31 38 32 39 82 40 33 41 87 42 81 43 83 44 34 45
REMARK SMILES IDX 86 46 80 47 79 48 35 50 67 51 47 52 66 53 48 54 51 55 65 56
REMARK SMILES IDX 84 57 49 58 50 59 64 61 85 62 52 63 36 64 37 65 45 66 38 67
REMARK SMILES IDX 39 68 43 69 46 70 40 71 41 72 44 73 42 74 68 75 69 76 77 77
REMARK SMILES IDX 70 78 71 79 75 80 78 81 72 82 73 83 76 84 74 85 53 86 54 87
REMARK SMILES IDX 62 88 55 89 56 90 60 91 63 92 57 93 58 94 61 95 59 96
REMARK H PARENT 17 7 6 16 24 30 83 49 51 60
REMARK Flexibility Score: inf
ROOT
ATOM      1  C   UNL A   1      33.985  28.188  26.606  1.00  0.00     0.002 C 
ENDROOT
BRANCH   1   2
ATOM      2  C   UNL A   1      34.010  27.513  25.228  1.00  0.00     0.021 C 
BRANCH   2   3
ATOM      3  C   UNL A   1      33.604  26.037  25.220  1.00  0.00     0.116 C 
BRANCH   3   4
ATOM      4  N   UNL A   1      34.288  25.327  24.159  1.00  0.00    -0.354 N 
ATOM      5  C   UNL A   1      34.476  23.989  23.982  1.00  0.00     0.242 C 
ATOM      6  O   UNL A   1      35.346  23.654  23.171  1.00  0.00    -0.273 OA
ATOM      7  H   UNL A   1      34.675  25.899  23.458  1.00  0.00     0.163 HD
BRANCH   5   8
ATOM      8  C   UNL A   1      33.774  22.933  24.874  1.00  0.00     0.176 C 
ATOM      9  N   UNL A   1      32.325  22.724  24.596  1.00  0.00    -0.313 N 
ATOM     10  C   UNL A   1      31.508  22.109  25.640  1.00  0.00     0.122 C 
ATOM     11  C   UNL A   1      31.802  22.608  27.044  1.00  0.00     0.022 C 
ATOM     12  C   UNL A   1      34.062  23.342  26.334  1.00  0.00     0.035 C 
ATOM     13  C   UNL A   1      33.289  22.507  27.341  1.00  0.00     0.004 C 
BRANCH   9  14
ATOM     14  C   UNL A   1      31.747  22.721  23.337  1.00  0.00     0.322 C 
ATOM     15  N   UNL A   1      30.837  23.666  22.986  1.00  0.00    -0.308 N 
ATOM     16  H   UNL A   1      30.077  23.332  22.457  1.00  0.00     0.171 HD
ATOM     17  O   UNL A   1      31.963  21.803  22.542  1.00  0.00    -0.248 OA
BRANCH  15  18
ATOM     18  C   UNL A   1      30.806  25.043  23.257  1.00  0.00     0.042 A 
ATOM     19  C   UNL A   1      30.243  29.285  23.628  1.00  0.00     0.044 C 
ATOM     20  C   UNL A   1      30.554  27.820  23.562  1.00  0.00    -0.051 A 
ATOM     21  C   UNL A   1      30.079  26.954  24.551  1.00  0.00     0.005 A 
ATOM     22  C   UNL A   1      31.236  27.287  22.462  1.00  0.00     0.005 A 
ATOM     23  C   UNL A   1      30.230  25.574  24.411  1.00  0.00     0.026 A 
ATOM     24  C   UNL A   1      31.380  25.905  22.321  1.00  0.00     0.026 A 
ENDBRANCH  15  18
ENDBRANCH   9  14
ENDBRANCH   5   8
ENDBRANCH   3   4
ENDBRANCH   2   3
ENDBRANCH   1   2
BRANCH   1  25
ATOM     25  C   UNL A   1      32.607  28.633  27.123  1.00  0.00     0.002 C 
BRANCH  25  26
ATOM     26  C   UNL A   1      32.423  30.136  27.351  1.00  0.00     0.021 C 
BRANCH  26  27
ATOM     27  C   UNL A   1      33.695  30.956  27.182  1.00  0.00     0.116 C 
BRANCH  27  28
ATOM     28  N   UNL A   1      34.068  31.736  28.354  1.00  0.00    -0.352 N 
ATOM     29  C   UNL A   1      35.074  31.488  29.274  1.00  0.00     0.251 C 
ATOM     30  H   UNL A   1      33.534  32.548  28.515  1.00  0.00     0.163 HD
ATOM     31  O   UNL A   1      35.243  32.223  30.233  1.00  0.00    -0.269 OA
BRANCH  29  32
ATOM     32  C   UNL A   1      36.024  30.384  29.003  1.00  0.00     0.039 A 
ATOM     33  C   UNL A   1      36.409  29.575  30.079  1.00  0.00     0.014 A 
ATOM     34  C   UNL A   1      36.684  30.298  27.780  1.00  0.00     0.014 A 
ATOM     35  C   UNL A   1      37.604  28.866  30.000  1.00  0.00     0.010 A 
ATOM     36  C   UNL A   1      37.913  29.666  27.730  1.00  0.00     0.010 A 
ATOM     37  C   UNL A   1      38.404  29.014  28.866  1.00  0.00    -0.014 A 
BRANCH  37  38
ATOM     38  C   UNL A   1      39.813  28.636  28.847  1.00  0.00     0.031 A 
ATOM     39  C   UNL A   1      40.227  27.269  28.477  1.00  0.00     0.074 A 
ATOM     40  C   UNL A   1      40.748  29.570  29.127  1.00  0.00     0.049 A 
ATOM     41  N   UNL A   1      41.312  26.700  28.886  1.00  0.00    -0.248 NA
ATOM     42  C   UNL A   1      39.410  26.412  27.631  1.00  0.00     0.031 C 
ATOM     43  C   UNL A   1      42.192  29.463  28.937  1.00  0.00     0.029 A 
ATOM     44  N   UNL A   1      40.578  30.766  29.847  1.00  0.00    -0.354 N 
ATOM     45  C   UNL A   1      41.479  25.543  28.159  1.00  0.00     0.074 A 
ATOM     46  C   UNL A   1      40.230  25.371  27.451  1.00  0.00     0.031 C 
ATOM     47  C   UNL A   1      42.799  30.340  29.751  1.00  0.00     0.029 A 
ATOM     48  C   UNL A   1      41.770  30.939  30.584  1.00  0.00     0.049 A 
ATOM     49  H   UNL A   1      39.791  31.358  29.840  1.00  0.00     0.167 HD
ATOM     50  C   UNL A   1      42.708  24.944  28.127  1.00  0.00     0.037 A 
ATOM     51  C   UNL A   1      41.775  30.945  31.948  1.00  0.00     0.037 A 
ATOM     52  C   UNL A   1      43.657  25.639  28.998  1.00  0.00     0.049 A 
ATOM     53  C   UNL A   1      42.650  29.884  32.568  1.00  0.00     0.074 A 
ATOM     54  C   UNL A   1      44.643  26.578  28.738  1.00  0.00     0.029 A 
ATOM     55  N   UNL A   1      43.474  25.632  30.377  1.00  0.00    -0.354 N 
ATOM     56  N   UNL A   1      43.060  28.823  31.934  1.00  0.00    -0.248 NA
ATOM     57  C   UNL A   1      43.083  29.908  33.963  1.00  0.00     0.031 C 
ATOM     58  C   UNL A   1      45.021  27.173  29.963  1.00  0.00     0.029 A 
ATOM     59  C   UNL A   1      44.277  26.587  30.972  1.00  0.00     0.049 A 
ATOM     60  H   UNL A   1      42.859  25.034  30.860  1.00  0.00     0.167 HD
ATOM     61  C   UNL A   1      43.756  28.019  32.797  1.00  0.00     0.074 A 
ATOM     62  C   UNL A   1      43.764  28.752  34.049  1.00  0.00     0.031 C 
ATOM     63  C   UNL A   1      44.252  26.809  32.409  1.00  0.00     0.037 A 
BRANCH  50  64
ATOM     64  C   UNL A   1      43.139  23.955  27.056  1.00  0.00     0.064 A 
ATOM     65  C   UNL A   1      42.791  22.587  27.150  1.00  0.00     0.173 A 
ATOM     66  C   UNL A   1      43.960  24.268  25.958  1.00  0.00     0.173 A 
ATOM     67  F   UNL A   1      41.895  22.150  28.042  1.00  0.00    -0.203 F 
ATOM     68  C   UNL A   1      43.350  21.607  26.324  1.00  0.00     0.198 A 
ATOM     69  C   UNL A   1      44.563  23.284  25.164  1.00  0.00     0.198 A 
ATOM     70  F   UNL A   1      44.153  25.535  25.574  1.00  0.00    -0.203 F 
ATOM     71  F   UNL A   1      42.998  20.324  26.482  1.00  0.00    -0.200 F 
ATOM     72  C   UNL A   1      44.275  21.951  25.361  1.00  0.00     0.200 A 
ATOM     73  F   UNL A   1      45.428  23.645  24.204  1.00  0.00    -0.200 F 
ATOM     74  F   UNL A   1      44.854  21.008  24.606  1.00  0.00    -0.200 F 
ENDBRANCH  50  64
BRANCH  51  75
ATOM     75  C   UNL A   1      40.507  31.443  32.542  1.00  0.00     0.064 A 
ATOM     76  C   UNL A   1      40.239  32.824  32.495  1.00  0.00     0.173 A 
ATOM     77  C   UNL A   1      39.436  30.584  32.812  1.00  0.00     0.173 A 
ATOM     78  F   UNL A   1      41.233  33.690  32.236  1.00  0.00    -0.203 F 
ATOM     79  C   UNL A   1      38.940  33.314  32.601  1.00  0.00     0.198 A 
ATOM     80  C   UNL A   1      38.137  31.080  32.932  1.00  0.00     0.198 A 
ATOM     81  F   UNL A   1      39.623  29.257  32.849  1.00  0.00    -0.203 F 
ATOM     82  F   UNL A   1      38.706  34.625  32.444  1.00  0.00    -0.200 F 
ATOM     83  C   UNL A   1      37.887  32.438  32.794  1.00  0.00     0.200 A 
ATOM     84  F   UNL A   1      37.112  30.231  33.090  1.00  0.00    -0.200 F 
ATOM     85  F   UNL A   1      36.627  32.897  32.808  1.00  0.00    -0.200 F 
ENDBRANCH  51  75
BRANCH  63  86
ATOM     86  C   UNL A   1      44.850  25.773  33.324  1.00  0.00     0.064 A 
ATOM     87  C   UNL A   1      44.098  25.003  34.226  1.00  0.00     0.173 A 
ATOM     88  C   UNL A   1      46.216  25.421  33.210  1.00  0.00     0.173 A 
ATOM     89  F   UNL A   1      42.772  25.163  34.339  1.00  0.00    -0.203 F 
ATOM     90  C   UNL A   1      44.681  24.000  35.005  1.00  0.00     0.198 A 
ATOM     91  C   UNL A   1      46.783  24.386  33.949  1.00  0.00     0.198 A 
ATOM     92  F   UNL A   1      47.032  26.063  32.360  1.00  0.00    -0.203 F 
ATOM     93  F   UNL A   1      43.930  23.320  35.883  1.00  0.00    -0.200 F 
ATOM     94  C   UNL A   1      46.019  23.685  34.859  1.00  0.00     0.200 A 
ATOM     95  F   UNL A   1      48.070  24.059  33.760  1.00  0.00    -0.200 F 
ATOM     96  F   UNL A   1      46.565  22.695  35.579  1.00  0.00    -0.200 F 
ENDBRANCH  63  86
ENDBRANCH  37  38
ENDBRANCH  29  32
ENDBRANCH  27  28
ENDBRANCH  26  27
ENDBRANCH  25  26
ENDBRANCH   1  25
TORSDOF 15
ENDMDL
MODEL 3
REMARK VINA RESULT:     -13.3      1.321      2.582
REMARK SMILES Cc1ccc(NC(=O)N2CCCC[C@@H]2C(=O)NCCCCCCNC(=O)c2ccc(-c3c4nc(c(-c5c(F)c(F)c(F)c(F)c5F)c5ccc([nH]5)c(-c5c(F)c(F)c(F)c(F)c5F)c5nc(c(-c6c(F)c(F)c(F)c(F)c6F)c6ccc3[nH]6)C=C5)C=C4)cc2)cc1
REMARK SMILES IDX 20 1 19 2 18 3 17 4 15 5 16 6 14 8 9 9 10 10 11 11 13 12
REMARK SMILES IDX 12 13 7 14 6 15 8 17 5 18 1 19 2 20 3 21 91 22 4 23 90 24
REMARK SMILES IDX 21 25 22 26 23 27 24 28 25 29 26 31 27 32 28 33 89 34 29 35
REMARK SMILES IDX 88 36 30 37 31 38 32 39 82 40 33 41 87 42 81 43 83 44 34 45
REMARK SMILES IDX 86 46 80 47 79 48 35 50 67 51 47 52 66 53 48 54 51 55 65 56
REMARK SMILES IDX 84 57 49 58 50 59 64 61 85 62 52 63 36 64 37 65 45 66 38 67
REMARK SMILES IDX 39 68 43 69 46 70 40 71 41 72 44 73 42 74 68 75 69 76 77 77
REMARK SMILES IDX 70 78 71 79 75 80 78 81 72 82 73 83 76 84 74 85 53 86 54 87
REMARK SMILES IDX 62 88 55 89 56 90 60 91 63 92 57 93 58 94 61 95 59 96
REMARK H PARENT 17 7 6 16 24 30 83 49 51 60
REMARK Flexibility Score: inf
ROOT
ATOM      1  C   UNL A   1      36.487  22.766  23.927  1.00  0.00     0.002 C 
ENDROOT
BRANCH   1   2
ATOM      2  C   UNL A   1      35.299  23.648  24.334  1.00  0.00     0.021 C 
BRANCH   2   3
ATOM      3  C   UNL A   1      34.097  23.596  23.387  1.00  0.00     0.116 C 
BRANCH   3   4
ATOM      4  N   UNL A   1      33.892  24.882  22.755  1.00  0.00    -0.354 N 
ATOM      5  C   UNL A   1      33.340  26.024  23.254  1.00  0.00     0.242 C 
ATOM      6  O   UNL A   1      33.001  26.882  22.432  1.00  0.00    -0.273 OA
ATOM      7  H   UNL A   1      34.199  24.942  21.821  1.00  0.00     0.163 HD
BRANCH   5   8
ATOM      8  C   UNL A   1      32.981  26.178  24.755  1.00  0.00     0.176 C 
ATOM      9  N   UNL A   1      31.524  26.175  25.068  1.00  0.00    -0.313 N 
ATOM     10  C   UNL A   1      31.094  26.746  26.341  1.00  0.00     0.122 C 
ATOM     11  C   UNL A   1      31.805  28.032  26.725  1.00  0.00     0.022 C 
ATOM     12  C   UNL A   1      33.706  27.451  25.243  1.00  0.00     0.035 C 
ATOM     13  C   UNL A   1      33.311  27.846  26.656  1.00  0.00     0.004 C 
BRANCH   9  14
ATOM     14  C   UNL A   1      30.578  25.375  24.448  1.00  0.00     0.322 C 
ATOM     15  N   UNL A   1      29.366  25.876  24.095  1.00  0.00    -0.308 N 
ATOM     16  H   UNL A   1      28.606  25.269  24.252  1.00  0.00     0.171 HD
ATOM     17  O   UNL A   1      30.770  24.166  24.295  1.00  0.00    -0.248 OA
BRANCH  15  18
ATOM     18  C   UNL A   1      29.021  27.120  23.543  1.00  0.00     0.042 A 
ATOM     19  C   UNL A   1      27.866  31.116  22.473  1.00  0.00     0.044 C 
ATOM     20  C   UNL A   1      28.249  29.687  22.720  1.00  0.00    -0.051 A 
ATOM     21  C   UNL A   1      29.588  29.294  22.646  1.00  0.00     0.005 A 
ATOM     22  C   UNL A   1      27.288  28.755  23.126  1.00  0.00     0.005 A 
ATOM     23  C   UNL A   1      29.967  28.007  23.029  1.00  0.00     0.026 A 
ATOM     24  C   UNL A   1      27.670  27.469  23.515  1.00  0.00     0.026 A 
ENDBRANCH  15  18
ENDBRANCH   9  14
ENDBRANCH   5   8
ENDBRANCH   3   4
ENDBRANCH   2   3
ENDBRANCH   1   2
BRANCH   1  25
ATOM     25  C   UNL A   1      36.799  21.574  24.847  1.00  0.00     0.002 C 
BRANCH  25  26
ATOM     26  C   UNL A   1      38.190  21.558  25.486  1.00  0.00     0.021 C 
BRANCH  26  27
ATOM     27  C   UNL A   1      38.738  22.937  25.831  1.00  0.00     0.116 C 
BRANCH  27  28
ATOM     28  N   UNL A   1      40.109  22.934  26.324  1.00  0.00    -0.352 N 
ATOM     29  C   UNL A   1      40.833  23.979  26.874  1.00  0.00     0.251 C 
ATOM     30  H   UNL A   1      40.584  22.074  26.258  1.00  0.00     0.163 HD
ATOM     31  O   UNL A   1      41.995  23.828  27.212  1.00  0.00    -0.269 OA
BRANCH  29  32
ATOM     32  C   UNL A   1      40.131  25.252  27.162  1.00  0.00     0.039 A 
ATOM     33  C   UNL A   1      40.579  26.406  26.510  1.00  0.00     0.014 A 
ATOM     34  C   UNL A   1      39.217  25.338  28.209  1.00  0.00     0.014 A 
ATOM     35  C   UNL A   1      40.300  27.651  27.067  1.00  0.00     0.010 A 
ATOM     36  C   UNL A   1      39.012  26.564  28.814  1.00  0.00     0.010 A 
ATOM     37  C   UNL A   1      39.617  27.709  28.283  1.00  0.00    -0.014 A 
BRANCH  37  38
ATOM     38  C   UNL A   1      39.615  28.901  29.124  1.00  0.00     0.031 A 
ATOM     39  C   UNL A   1      38.608  29.962  28.932  1.00  0.00     0.074 A 
ATOM     40  C   UNL A   1      40.521  29.004  30.121  1.00  0.00     0.049 A 
ATOM     41  N   UNL A   1      38.791  31.204  29.237  1.00  0.00    -0.248 NA
ATOM     42  C   UNL A   1      37.307  29.701  28.335  1.00  0.00     0.031 C 
ATOM     43  C   UNL A   1      40.539  29.985  31.202  1.00  0.00     0.029 A 
ATOM     44  N   UNL A   1      41.753  28.336  30.233  1.00  0.00    -0.354 N 
ATOM     45  C   UNL A   1      37.575  31.844  29.144  1.00  0.00     0.074 A 
ATOM     46  C   UNL A   1      36.704  30.883  28.504  1.00  0.00     0.031 C 
ATOM     47  C   UNL A   1      41.792  30.081  31.674  1.00  0.00     0.029 A 
ATOM     48  C   UNL A   1      42.638  29.267  30.819  1.00  0.00     0.049 A 
ATOM     49  H   UNL A   1      41.956  27.412  29.959  1.00  0.00     0.167 HD
ATOM     50  C   UNL A   1      37.408  33.056  29.753  1.00  0.00     0.037 A 
ATOM     51  C   UNL A   1      43.745  29.716  30.159  1.00  0.00     0.037 A 
ATOM     52  C   UNL A   1      38.658  33.522  30.354  1.00  0.00     0.049 A 
ATOM     53  C   UNL A   1      43.786  31.211  29.968  1.00  0.00     0.074 A 
ATOM     54  C   UNL A   1      39.139  33.479  31.654  1.00  0.00     0.029 A 
ATOM     55  N   UNL A   1      39.740  33.858  29.546  1.00  0.00    -0.354 N 
ATOM     56  N   UNL A   1      42.738  31.981  30.052  1.00  0.00    -0.248 NA
ATOM     57  C   UNL A   1      44.996  31.948  29.612  1.00  0.00     0.031 C 
ATOM     58  C   UNL A   1      40.527  33.744  31.620  1.00  0.00     0.029 A 
ATOM     59  C   UNL A   1      40.891  33.963  30.303  1.00  0.00     0.049 A 
ATOM     60  H   UNL A   1      39.692  34.000  28.573  1.00  0.00     0.167 HD
ATOM     61  C   UNL A   1      43.093  33.267  29.739  1.00  0.00     0.074 A 
ATOM     62  C   UNL A   1      44.521  33.200  29.493  1.00  0.00     0.031 C 
ATOM     63  C   UNL A   1      42.173  34.273  29.693  1.00  0.00     0.037 A 
BRANCH  50  64
ATOM     64  C   UNL A   1      36.052  33.648  30.102  1.00  0.00     0.064 A 
ATOM     65  C   UNL A   1      35.209  34.173  29.094  1.00  0.00     0.173 A 
ATOM     66  C   UNL A   1      35.556  33.803  31.408  1.00  0.00     0.173 A 
ATOM     67  F   UNL A   1      35.458  33.972  27.795  1.00  0.00    -0.203 F 
ATOM     68  C   UNL A   1      34.067  34.928  29.381  1.00  0.00     0.198 A 
ATOM     69  C   UNL A   1      34.444  34.603  31.702  1.00  0.00     0.198 A 
ATOM     70  F   UNL A   1      36.086  33.133  32.437  1.00  0.00    -0.203 F 
ATOM     71  F   UNL A   1      33.326  35.419  28.380  1.00  0.00    -0.200 F 
ATOM     72  C   UNL A   1      33.712  35.184  30.688  1.00  0.00     0.200 A 
ATOM     73  F   UNL A   1      34.090  34.804  32.980  1.00  0.00    -0.200 F 
ATOM     74  F   UNL A   1      32.651  35.953  30.967  1.00  0.00    -0.200 F 
ENDBRANCH  50  64
BRANCH  51  75
ATOM     75  C   UNL A   1      44.302  28.729  29.199  1.00  0.00     0.064 A 
ATOM     76  C   UNL A   1      45.054  27.651  29.702  1.00  0.00     0.173 A 
ATOM     77  C   UNL A   1      43.822  28.628  27.889  1.00  0.00     0.173 A 
ATOM     78  F   UNL A   1      45.536  27.698  30.956  1.00  0.00    -0.203 F 
ATOM     79  C   UNL A   1      45.221  26.478  28.970  1.00  0.00     0.198 A 
ATOM     80  C   UNL A   1      44.003  27.456  27.151  1.00  0.00     0.198 A 
ATOM     81  F   UNL A   1      43.082  29.612  27.359  1.00  0.00    -0.203 F 
ATOM     82  F   UNL A   1      45.850  25.430  29.520  1.00  0.00    -0.200 F 
ATOM     83  C   UNL A   1      44.672  26.373  27.704  1.00  0.00     0.200 A 
ATOM     84  F   UNL A   1      43.448  27.342  25.937  1.00  0.00    -0.200 F 
ATOM     85  F   UNL A   1      44.755  25.217  27.031  1.00  0.00    -0.200 F 
ENDBRANCH  51  75
BRANCH  63  86
ATOM     86  C   UNL A   1      42.422  35.663  29.169  1.00  0.00     0.064 A 
ATOM     87  C   UNL A   1      41.863  36.159  27.980  1.00  0.00     0.173 A 
ATOM     88  C   UNL A   1      43.137  36.603  29.948  1.00  0.00     0.173 A 
ATOM     89  F   UNL A   1      41.070  35.398  27.214  1.00  0.00    -0.203 F 
ATOM     90  C   UNL A   1      42.060  37.480  27.567  1.00  0.00     0.198 A 
ATOM     91  C   UNL A   1      43.287  37.933  29.561  1.00  0.00     0.198 A 
ATOM     92  F   UNL A   1      43.693  36.259  31.120  1.00  0.00    -0.203 F 
ATOM     93  F   UNL A   1      41.541  37.896  26.403  1.00  0.00    -0.200 F 
ATOM     94  C   UNL A   1      42.762  38.368  28.361  1.00  0.00     0.200 A 
ATOM     95  F   UNL A   1      43.927  38.794  30.365  1.00  0.00    -0.200 F 
ATOM     96  F   UNL A   1      42.913  39.644  27.981  1.00  0.00    -0.200 F 
ENDBRANCH  63  86
ENDBRANCH  37  38
ENDBRANCH  29  32
ENDBRANCH  27  28
ENDBRANCH  26  27
ENDBRANCH  25  26
ENDBRANCH   1  25
TORSDOF 15
ENDMDL
