MODEL 1
REMARK VINA RESULT:     -12.0      0.000      0.000
REMARK SMILES CCC1(CC)CCN(c2ccc(/C=C/C(=O)NCCCCCCNC(=O)c3ccc(-c4c5nc(c(-c6c(F)c(F)c(F)c(F)c6F)c6ccc([nH]6)c(-c6c(F)c(F)c(F)c(F)c6F)c6nc(c(-c7c(F)c(F)c(F)c(F)c7F)c7ccc4[nH]7)C=C6)C=C5)cc3)cc2F)C1
REMARK SMILES IDX 20 1 19 2 18 3 17 4 15 5 16 6 14 8 13 9 12 10 9 11 10 12
REMARK SMILES IDX 91 13 11 14 90 15 92 16 8 17 3 18 6 19 93 20 7 21 2 22 1 23
REMARK SMILES IDX 4 24 5 25 21 26 22 27 23 28 24 29 25 30 26 32 27 33 28 34
REMARK SMILES IDX 89 35 29 36 88 37 30 38 31 39 32 40 82 41 33 42 87 43 81 44
REMARK SMILES IDX 83 45 34 46 86 47 80 48 79 49 35 51 67 52 47 53 66 54 48 55
REMARK SMILES IDX 51 56 65 57 84 58 49 59 50 60 64 62 85 63 52 64 36 65 37 66
REMARK SMILES IDX 45 67 38 68 39 69 43 70 46 71 40 72 41 73 44 74 42 75 68 76
REMARK SMILES IDX 69 77 77 78 70 79 71 80 75 81 78 82 72 83 73 84 76 85 74 86
REMARK SMILES IDX 53 87 54 88 62 89 55 90 56 91 60 92 63 93 57 94 58 95 61 96
REMARK SMILES IDX 59 97
REMARK H PARENT 17 7 24 31 83 50 51 61
REMARK Flexibility Score: inf
ROOT
ATOM      1  C   UNL A   1      33.012  30.128  26.619  1.00  0.00     0.002 C 
ENDROOT
BRANCH   1   2
ATOM      2  C   UNL A   1      32.968  28.723  27.233  1.00  0.00     0.021 C 
BRANCH   2   3
ATOM      3  C   UNL A   1      33.713  27.680  26.399  1.00  0.00     0.116 C 
BRANCH   3   4
ATOM      4  N   UNL A   1      32.793  26.649  25.961  1.00  0.00    -0.353 N 
ATOM      5  C   UNL A   1      32.998  25.358  25.598  1.00  0.00     0.243 C 
ATOM      6  O   UNL A   1      32.038  24.661  25.278  1.00  0.00    -0.270 OA
ATOM      7  H   UNL A   1      31.853  26.937  25.920  1.00  0.00     0.163 HD
BRANCH   5   8
ATOM      8  C   UNL A   1      34.338  24.740  25.684  1.00  0.00     0.072 C 
ATOM      9  C   UNL A   1      34.671  23.521  25.235  1.00  0.00     0.014 C 
BRANCH   9  10
ATOM     10  C   UNL A   1      36.030  22.978  25.330  1.00  0.00    -0.022 A 
ATOM     11  C   UNL A   1      38.618  21.837  25.618  1.00  0.00     0.073 A 
ATOM     12  C   UNL A   1      38.380  23.189  25.903  1.00  0.00     0.029 A 
ATOM     13  C   UNL A   1      37.524  21.077  25.174  1.00  0.00     0.147 A 
ATOM     14  C   UNL A   1      37.108  23.755  25.761  1.00  0.00     0.010 A 
ATOM     15  C   UNL A   1      36.250  21.630  25.037  1.00  0.00     0.049 A 
ATOM     16  F   UNL A   1      37.658  19.762  24.938  1.00  0.00    -0.205 F 
BRANCH  11  17
ATOM     17  N   UNL A   1      39.875  21.317  25.871  1.00  0.00    -0.369 N 
ATOM     18  C   UNL A   1      42.025  21.366  26.896  1.00  0.00    -0.011 C 
ATOM     19  C   UNL A   1      41.241  20.121  27.373  1.00  0.00     0.030 C 
ATOM     20  C   UNL A   1      40.870  22.259  26.385  1.00  0.00     0.123 C 
ATOM     21  C   UNL A   1      40.106  19.963  26.360  1.00  0.00     0.117 C 
BRANCH  18  22
ATOM     22  C   UNL A   1      43.011  20.971  25.760  1.00  0.00     0.005 C 
ATOM     23  C   UNL A   1      44.007  22.049  25.345  1.00  0.00     0.004 C 
ENDBRANCH  18  22
BRANCH  18  24
ATOM     24  C   UNL A   1      42.741  22.062  28.082  1.00  0.00     0.005 C 
ATOM     25  C   UNL A   1      42.000  23.249  28.686  1.00  0.00     0.004 C 
ENDBRANCH  18  24
ENDBRANCH  11  17
ENDBRANCH   9  10
ENDBRANCH   5   8
ENDBRANCH   3   4
ENDBRANCH   2   3
ENDBRANCH   1   2
BRANCH   1  26
ATOM     26  C   UNL A   1      31.639  30.717  26.269  1.00  0.00     0.002 C 
BRANCH  26  27
ATOM     27  C   UNL A   1      31.476  32.201  26.604  1.00  0.00     0.021 C 
BRANCH  27  28
ATOM     28  C   UNL A   1      32.618  32.775  27.435  1.00  0.00     0.116 C 
BRANCH  28  29
ATOM     29  N   UNL A   1      32.439  34.199  27.676  1.00  0.00    -0.352 N 
ATOM     30  C   UNL A   1      33.021  34.993  28.631  1.00  0.00     0.251 C 
ATOM     31  H   UNL A   1      31.811  34.656  27.070  1.00  0.00     0.163 HD
ATOM     32  O   UNL A   1      32.588  36.115  28.860  1.00  0.00    -0.269 OA
BRANCH  30  33
ATOM     33  C   UNL A   1      34.178  34.478  29.390  1.00  0.00     0.039 A 
ATOM     34  C   UNL A   1      33.967  33.889  30.638  1.00  0.00     0.014 A 
ATOM     35  C   UNL A   1      35.469  34.579  28.863  1.00  0.00     0.014 A 
ATOM     36  C   UNL A   1      35.050  33.349  31.336  1.00  0.00     0.010 A 
ATOM     37  C   UNL A   1      36.532  33.975  29.522  1.00  0.00     0.010 A 
ATOM     38  C   UNL A   1      36.333  33.359  30.767  1.00  0.00    -0.014 A 
BRANCH  38  39
ATOM     39  C   UNL A   1      37.492  32.738  31.455  1.00  0.00     0.031 A 
ATOM     40  C   UNL A   1      38.208  31.581  30.817  1.00  0.00     0.074 A 
ATOM     41  C   UNL A   1      37.848  33.166  32.681  1.00  0.00     0.049 A 
ATOM     42  N   UNL A   1      39.161  30.830  31.304  1.00  0.00    -0.248 NA
ATOM     43  C   UNL A   1      37.776  31.200  29.462  1.00  0.00     0.031 C 
ATOM     44  C   UNL A   1      37.209  34.262  33.410  1.00  0.00     0.029 A 
ATOM     45  N   UNL A   1      38.826  32.723  33.536  1.00  0.00    -0.354 N 
ATOM     46  C   UNL A   1      39.434  29.885  30.324  1.00  0.00     0.074 A 
ATOM     47  C   UNL A   1      38.509  30.120  29.237  1.00  0.00     0.031 C 
ATOM     48  C   UNL A   1      37.825  34.421  34.592  1.00  0.00     0.029 A 
ATOM     49  C   UNL A   1      38.869  33.408  34.726  1.00  0.00     0.049 A 
ATOM     50  H   UNL A   1      39.440  31.985  33.317  1.00  0.00     0.167 HD
ATOM     51  C   UNL A   1      40.387  28.925  30.324  1.00  0.00     0.037 A 
ATOM     52  C   UNL A   1      39.649  33.229  35.810  1.00  0.00     0.037 A 
ATOM     53  C   UNL A   1      41.321  28.718  31.398  1.00  0.00     0.049 A 
ATOM     54  C   UNL A   1      40.678  32.131  35.799  1.00  0.00     0.074 A 
ATOM     55  C   UNL A   1      42.360  27.808  31.468  1.00  0.00     0.029 A 
ATOM     56  N   UNL A   1      41.329  29.431  32.588  1.00  0.00    -0.354 N 
ATOM     57  N   UNL A   1      40.960  31.275  34.847  1.00  0.00    -0.248 NA
ATOM     58  C   UNL A   1      41.497  31.971  37.010  1.00  0.00     0.031 C 
ATOM     59  C   UNL A   1      42.962  27.930  32.723  1.00  0.00     0.029 A 
ATOM     60  C   UNL A   1      42.339  28.960  33.410  1.00  0.00     0.049 A 
ATOM     61  H   UNL A   1      40.711  30.163  32.814  1.00  0.00     0.167 HD
ATOM     62  C   UNL A   1      42.001  30.494  35.330  1.00  0.00     0.074 A 
ATOM     63  C   UNL A   1      42.309  30.982  36.658  1.00  0.00     0.031 C 
ATOM     64  C   UNL A   1      42.643  29.465  34.725  1.00  0.00     0.037 A 
BRANCH  51  65
ATOM     65  C   UNL A   1      40.486  28.029  29.124  1.00  0.00     0.064 A 
ATOM     66  C   UNL A   1      41.207  28.437  27.991  1.00  0.00     0.173 A 
ATOM     67  C   UNL A   1      39.800  26.808  29.060  1.00  0.00     0.173 A 
ATOM     68  F   UNL A   1      41.877  29.600  27.996  1.00  0.00    -0.203 F 
ATOM     69  C   UNL A   1      41.222  27.661  26.834  1.00  0.00     0.198 A 
ATOM     70  C   UNL A   1      39.842  26.021  27.913  1.00  0.00     0.198 A 
ATOM     71  F   UNL A   1      39.104  26.368  30.120  1.00  0.00    -0.203 F 
ATOM     72  F   UNL A   1      41.885  28.090  25.751  1.00  0.00    -0.200 F 
ATOM     73  C   UNL A   1      40.543  26.453  26.798  1.00  0.00     0.200 A 
ATOM     74  F   UNL A   1      39.207  24.842  27.888  1.00  0.00    -0.200 F 
ATOM     75  F   UNL A   1      40.564  25.705  25.686  1.00  0.00    -0.200 F 
ENDBRANCH  51  65
BRANCH  52  76
ATOM     76  C   UNL A   1      39.497  34.132  36.981  1.00  0.00     0.064 A 
ATOM     77  C   UNL A   1      40.130  35.383  37.030  1.00  0.00     0.173 A 
ATOM     78  C   UNL A   1      38.742  33.740  38.096  1.00  0.00     0.173 A 
ATOM     79  F   UNL A   1      40.868  35.803  35.993  1.00  0.00    -0.203 F 
ATOM     80  C   UNL A   1      40.032  36.197  38.156  1.00  0.00     0.198 A 
ATOM     81  C   UNL A   1      38.621  34.567  39.210  1.00  0.00     0.198 A 
ATOM     82  F   UNL A   1      38.103  32.561  38.089  1.00  0.00    -0.203 F 
ATOM     83  F   UNL A   1      40.679  37.369  38.193  1.00  0.00    -0.200 F 
ATOM     84  C   UNL A   1      39.274  35.790  39.244  1.00  0.00     0.200 A 
ATOM     85  F   UNL A   1      37.867  34.181  40.249  1.00  0.00    -0.200 F 
ATOM     86  F   UNL A   1      39.170  36.578  40.324  1.00  0.00    -0.200 F 
ENDBRANCH  52  76
BRANCH  64  87
ATOM     87  C   UNL A   1      43.765  28.800  35.467  1.00  0.00     0.064 A 
ATOM     88  C   UNL A   1      43.492  27.798  36.411  1.00  0.00     0.173 A 
ATOM     89  C   UNL A   1      45.090  29.238  35.336  1.00  0.00     0.173 A 
ATOM     90  F   UNL A   1      42.238  27.352  36.580  1.00  0.00    -0.203 F 
ATOM     91  C   UNL A   1      44.500  27.282  37.219  1.00  0.00     0.198 A 
ATOM     92  C   UNL A   1      46.101  28.699  36.125  1.00  0.00     0.198 A 
ATOM     93  F   UNL A   1      45.402  30.186  34.438  1.00  0.00    -0.203 F 
ATOM     94  F   UNL A   1      44.207  26.365  38.151  1.00  0.00    -0.200 F 
ATOM     95  C   UNL A   1      45.804  27.732  37.076  1.00  0.00     0.200 A 
ATOM     96  F   UNL A   1      47.364  29.120  35.972  1.00  0.00    -0.200 F 
ATOM     97  F   UNL A   1      46.774  27.239  37.858  1.00  0.00    -0.200 F 
ENDBRANCH  64  87
ENDBRANCH  38  39
ENDBRANCH  30  33
ENDBRANCH  28  29
ENDBRANCH  27  28
ENDBRANCH  26  27
ENDBRANCH   1  26
TORSDOF 17
ENDMDL
MODEL 2
REMARK VINA RESULT:     -11.8      4.533      9.758
REMARK SMILES CCC1(CC)CCN(c2ccc(/C=C/C(=O)NCCCCCCNC(=O)c3ccc(-c4c5nc(c(-c6c(F)c(F)c(F)c(F)c6F)c6ccc([nH]6)c(-c6c(F)c(F)c(F)c(F)c6F)c6nc(c(-c7c(F)c(F)c(F)c(F)c7F)c7ccc4[nH]7)C=C6)C=C5)cc3)cc2F)C1
REMARK SMILES IDX 20 1 19 2 18 3 17 4 15 5 16 6 14 8 13 9 12 10 9 11 10 12
REMARK SMILES IDX 91 13 11 14 90 15 92 16 8 17 3 18 6 19 93 20 7 21 2 22 1 23
REMARK SMILES IDX 4 24 5 25 21 26 22 27 23 28 24 29 25 30 26 32 27 33 28 34
REMARK SMILES IDX 89 35 29 36 88 37 30 38 31 39 32 40 82 41 33 42 87 43 81 44
REMARK SMILES IDX 83 45 34 46 86 47 80 48 79 49 35 51 67 52 47 53 66 54 48 55
REMARK SMILES IDX 51 56 65 57 84 58 49 59 50 60 64 62 85 63 52 64 36 65 37 66
REMARK SMILES IDX 45 67 38 68 39 69 43 70 46 71 40 72 41 73 44 74 42 75 68 76
REMARK SMILES IDX 69 77 77 78 70 79 71 80 75 81 78 82 72 83 73 84 76 85 74 86
REMARK SMILES IDX 53 87 54 88 62 89 55 90 56 91 60 92 63 93 57 94 58 95 61 96
REMARK SMILES IDX 59 97
REMARK H PARENT 17 7 24 31 83 50 51 61
REMARK Flexibility Score: inf
ROOT
ATOM      1  C   UNL A   1      42.735  23.601  28.003  1.00  0.00     0.002 C 
ENDROOT
BRANCH   1   2
ATOM      2  C   UNL A   1      44.253  23.383  28.050  1.00  0.00     0.021 C 
BRANCH   2   3
ATOM      3  C   UNL A   1      44.958  23.788  26.755  1.00  0.00     0.116 C 
BRANCH   3   4
ATOM      4  N   UNL A   1      46.391  23.829  26.966  1.00  0.00    -0.353 N 
ATOM      5  C   UNL A   1      47.240  24.867  27.172  1.00  0.00     0.243 C 
ATOM      6  O   UNL A   1      48.435  24.645  27.349  1.00  0.00    -0.270 OA
ATOM      7  H   UNL A   1      46.827  22.946  26.959  1.00  0.00     0.163 HD
BRANCH   5   8
ATOM      8  C   UNL A   1      46.740  26.253  27.298  1.00  0.00     0.072 C 
ATOM      9  C   UNL A   1      46.655  27.151  26.306  1.00  0.00     0.014 C 
BRANCH   9  10
ATOM     10  C   UNL A   1      46.122  28.504  26.495  1.00  0.00    -0.022 A 
ATOM     11  C   UNL A   1      45.002  31.104  26.750  1.00  0.00     0.073 A 
ATOM     12  C   UNL A   1      46.355  30.919  26.432  1.00  0.00     0.029 A 
ATOM     13  C   UNL A   1      44.231  29.948  26.947  1.00  0.00     0.147 A 
ATOM     14  C   UNL A   1      46.911  29.642  26.308  1.00  0.00     0.010 A 
ATOM     15  C   UNL A   1      44.773  28.669  26.817  1.00  0.00     0.049 A 
ATOM     16  F   UNL A   1      42.914  30.041  27.196  1.00  0.00    -0.205 F 
BRANCH  11  17
ATOM     17  N   UNL A   1      44.493  32.391  26.764  1.00  0.00    -0.369 N 
ATOM     18  C   UNL A   1      44.518  34.675  27.438  1.00  0.00    -0.011 C 
ATOM     19  C   UNL A   1      44.654  34.577  25.900  1.00  0.00     0.030 C 
ATOM     20  C   UNL A   1      44.943  33.250  27.860  1.00  0.00     0.123 C 
ATOM     21  C   UNL A   1      44.201  33.157  25.558  1.00  0.00     0.117 C 
BRANCH  18  22
ATOM     22  C   UNL A   1      43.043  34.988  27.821  1.00  0.00     0.005 C 
ATOM     23  C   UNL A   1      42.556  34.374  29.130  1.00  0.00     0.004 C 
ENDBRANCH  18  22
BRANCH  18  24
ATOM     24  C   UNL A   1      45.511  35.714  28.020  1.00  0.00     0.005 C 
ATOM     25  C   UNL A   1      44.987  37.143  28.101  1.00  0.00     0.004 C 
ENDBRANCH  18  24
ENDBRANCH  11  17
ENDBRANCH   9  10
ENDBRANCH   5   8
ENDBRANCH   3   4
ENDBRANCH   2   3
ENDBRANCH   1   2
BRANCH   1  26
ATOM     26  C   UNL A   1      41.908  22.495  28.672  1.00  0.00     0.002 C 
BRANCH  26  27
ATOM     27  C   UNL A   1      41.098  21.631  27.705  1.00  0.00     0.021 C 
BRANCH  27  28
ATOM     28  C   UNL A   1      41.076  22.158  26.275  1.00  0.00     0.116 C 
BRANCH  28  29
ATOM     29  N   UNL A   1      39.717  22.409  25.818  1.00  0.00    -0.352 N 
ATOM     30  C   UNL A   1      38.855  23.412  26.182  1.00  0.00     0.251 C 
ATOM     31  H   UNL A   1      39.368  21.769  25.156  1.00  0.00     0.163 HD
ATOM     32  O   UNL A   1      37.666  23.349  25.895  1.00  0.00    -0.269 OA
BRANCH  30  33
ATOM     33  C   UNL A   1      39.374  24.571  26.934  1.00  0.00     0.039 A 
ATOM     34  C   UNL A   1      40.145  25.526  26.269  1.00  0.00     0.014 A 
ATOM     35  C   UNL A   1      39.095  24.709  28.297  1.00  0.00     0.014 A 
ATOM     36  C   UNL A   1      40.591  26.654  26.962  1.00  0.00     0.010 A 
ATOM     37  C   UNL A   1      39.475  25.867  28.965  1.00  0.00     0.010 A 
ATOM     38  C   UNL A   1      40.231  26.847  28.304  1.00  0.00    -0.014 A 
BRANCH  38  39
ATOM     39  C   UNL A   1      40.636  28.065  29.050  1.00  0.00     0.031 A 
ATOM     40  C   UNL A   1      42.020  28.162  29.625  1.00  0.00     0.074 A 
ATOM     41  C   UNL A   1      39.737  29.043  29.270  1.00  0.00     0.049 A 
ATOM     42  N   UNL A   1      42.529  29.082  30.403  1.00  0.00    -0.248 NA
ATOM     43  C   UNL A   1      42.949  27.065  29.308  1.00  0.00     0.031 C 
ATOM     44  C   UNL A   1      38.357  29.045  28.785  1.00  0.00     0.029 A 
ATOM     45  N   UNL A   1      39.846  30.218  29.971  1.00  0.00    -0.354 N 
ATOM     46  C   UNL A   1      43.827  28.671  30.675  1.00  0.00     0.074 A 
ATOM     47  C   UNL A   1      44.012  27.392  30.027  1.00  0.00     0.031 C 
ATOM     48  C   UNL A   1      37.753  30.177  29.181  1.00  0.00     0.029 A 
ATOM     49  C   UNL A   1      38.686  30.956  29.992  1.00  0.00     0.049 A 
ATOM     50  H   UNL A   1      40.675  30.506  30.417  1.00  0.00     0.167 HD
ATOM     51  C   UNL A   1      44.783  29.317  31.382  1.00  0.00     0.037 A 
ATOM     52  C   UNL A   1      38.403  32.120  30.607  1.00  0.00     0.037 A 
ATOM     53  C   UNL A   1      44.597  30.603  31.998  1.00  0.00     0.049 A 
ATOM     54  C   UNL A   1      39.472  32.801  31.417  1.00  0.00     0.074 A 
ATOM     55  C   UNL A   1      45.522  31.365  32.689  1.00  0.00     0.029 A 
ATOM     56  N   UNL A   1      43.407  31.316  31.998  1.00  0.00    -0.354 N 
ATOM     57  N   UNL A   1      40.712  32.427  31.627  1.00  0.00    -0.248 NA
ATOM     58  C   UNL A   1      39.108  34.064  32.077  1.00  0.00     0.031 C 
ATOM     59  C   UNL A   1      44.878  32.513  33.156  1.00  0.00     0.029 A 
ATOM     60  C   UNL A   1      43.568  32.498  32.703  1.00  0.00     0.049 A 
ATOM     61  H   UNL A   1      42.573  31.026  31.563  1.00  0.00     0.167 HD
ATOM     62  C   UNL A   1      41.281  33.415  32.417  1.00  0.00     0.074 A 
ATOM     63  C   UNL A   1      40.256  34.412  32.645  1.00  0.00     0.031 C 
ATOM     64  C   UNL A   1      42.542  33.488  32.909  1.00  0.00     0.037 A 
BRANCH  51  65
ATOM     65  C   UNL A   1      46.124  28.659  31.519  1.00  0.00     0.064 A 
ATOM     66  C   UNL A   1      47.099  28.815  30.521  1.00  0.00     0.173 A 
ATOM     67  C   UNL A   1      46.417  27.805  32.593  1.00  0.00     0.173 A 
ATOM     68  F   UNL A   1      46.868  29.616  29.470  1.00  0.00    -0.203 F 
ATOM     69  C   UNL A   1      48.308  28.128  30.587  1.00  0.00     0.198 A 
ATOM     70  C   UNL A   1      47.639  27.144  32.671  1.00  0.00     0.198 A 
ATOM     71  F   UNL A   1      45.523  27.628  33.578  1.00  0.00    -0.203 F 
ATOM     72  F   UNL A   1      49.207  28.264  29.603  1.00  0.00    -0.200 F 
ATOM     73  C   UNL A   1      48.578  27.296  31.662  1.00  0.00     0.200 A 
ATOM     74  F   UNL A   1      47.909  26.360  33.723  1.00  0.00    -0.200 F 
ATOM     75  F   UNL A   1      49.746  26.641  31.727  1.00  0.00    -0.200 F 
ENDBRANCH  51  65
BRANCH  52  76
ATOM     76  C   UNL A   1      37.051  32.721  30.455  1.00  0.00     0.064 A 
ATOM     77  C   UNL A   1      36.716  33.501  29.338  1.00  0.00     0.173 A 
ATOM     78  C   UNL A   1      36.076  32.554  31.449  1.00  0.00     0.173 A 
ATOM     79  F   UNL A   1      37.615  33.696  28.361  1.00  0.00    -0.203 F 
ATOM     80  C   UNL A   1      35.468  34.110  29.232  1.00  0.00     0.198 A 
ATOM     81  C   UNL A   1      34.818  33.140  31.329  1.00  0.00     0.198 A 
ATOM     82  F   UNL A   1      36.342  31.802  32.526  1.00  0.00    -0.203 F 
ATOM     83  F   UNL A   1      35.189  34.883  28.175  1.00  0.00    -0.200 F 
ATOM     84  C   UNL A   1      34.518  33.926  30.225  1.00  0.00     0.200 A 
ATOM     85  F   UNL A   1      33.895  32.939  32.278  1.00  0.00    -0.200 F 
ATOM     86  F   UNL A   1      33.313  34.502  30.119  1.00  0.00    -0.200 F 
ENDBRANCH  52  76
BRANCH  64  87
ATOM     87  C   UNL A   1      42.913  34.692  33.724  1.00  0.00     0.064 A 
ATOM     88  C   UNL A   1      42.783  34.666  35.122  1.00  0.00     0.173 A 
ATOM     89  C   UNL A   1      43.274  35.902  33.118  1.00  0.00     0.173 A 
ATOM     90  F   UNL A   1      42.430  33.533  35.748  1.00  0.00    -0.203 F 
ATOM     91  C   UNL A   1      42.971  35.818  35.879  1.00  0.00     0.198 A 
ATOM     92  C   UNL A   1      43.490  37.046  33.881  1.00  0.00     0.198 A 
ATOM     93  F   UNL A   1      43.422  35.973  31.786  1.00  0.00    -0.203 F 
ATOM     94  F   UNL A   1      42.790  35.784  37.206  1.00  0.00    -0.200 F 
ATOM     95  C   UNL A   1      43.324  37.007  35.259  1.00  0.00     0.200 A 
ATOM     96  F   UNL A   1      43.851  38.190  33.284  1.00  0.00    -0.200 F 
ATOM     97  F   UNL A   1      43.500  38.118  35.988  1.00  0.00    -0.200 F 
ENDBRANCH  64  87
ENDBRANCH  38  39
ENDBRANCH  30  33
ENDBRANCH  28  29
ENDBRANCH  27  28
ENDBRANCH  26  27
ENDBRANCH   1  26
TORSDOF 17
ENDMDL
MODEL 3
REMARK VINA RESULT:     -11.6      3.956     10.228
REMARK SMILES CCC1(CC)CCN(c2ccc(/C=C/C(=O)NCCCCCCNC(=O)c3ccc(-c4c5nc(c(-c6c(F)c(F)c(F)c(F)c6F)c6ccc([nH]6)c(-c6c(F)c(F)c(F)c(F)c6F)c6nc(c(-c7c(F)c(F)c(F)c(F)c7F)c7ccc4[nH]7)C=C6)C=C5)cc3)cc2F)C1
REMARK SMILES IDX 20 1 19 2 18 3 17 4 15 5 16 6 14 8 13 9 12 10 9 11 10 12
REMARK SMILES IDX 91 13 11 14 90 15 92 16 8 17 3 18 6 19 93 20 7 21 2 22 1 23
REMARK SMILES IDX 4 24 5 25 21 26 22 27 23 28 24 29 25 30 26 32 27 33 28 34
REMARK SMILES IDX 89 35 29 36 88 37 30 38 31 39 32 40 82 41 33 42 87 43 81 44
REMARK SMILES IDX 83 45 34 46 86 47 80 48 79 49 35 51 67 52 47 53 66 54 48 55
REMARK SMILES IDX 51 56 65 57 84 58 49 59 50 60 64 62 85 63 52 64 36 65 37 66
REMARK SMILES IDX 45 67 38 68 39 69 43 70 46 71 40 72 41 73 44 74 42 75 68 76
REMARK SMILES IDX 69 77 77 78 70 79 71 80 75 81 78 82 72 83 73 84 76 85 74 86
REMARK SMILES IDX 53 87 54 88 62 89 55 90 56 91 60 92 63 93 57 94 58 95 61 96
REMARK SMILES IDX 59 97
REMARK H PARENT 17 7 24 31 83 50 51 61
REMARK Flexibility Score: inf
ROOT
ATOM      1  C   UNL A   1      36.332  34.004  31.555  1.00  0.00     0.002 C 
ENDROOT
BRANCH   1   2
ATOM      2  C   UNL A   1      37.674  33.913  32.294  1.00  0.00     0.021 C 
BRANCH   2   3
ATOM      3  C   UNL A   1      37.878  32.575  33.006  1.00  0.00     0.116 C 
BRANCH   3   4
ATOM      4  N   UNL A   1      37.598  32.721  34.420  1.00  0.00    -0.353 N 
ATOM      5  C   UNL A   1      37.921  31.945  35.485  1.00  0.00     0.243 C 
ATOM      6  O   UNL A   1      37.582  32.294  36.613  1.00  0.00    -0.270 OA
ATOM      7  H   UNL A   1      37.081  33.527  34.649  1.00  0.00     0.163 HD
BRANCH   5   8
ATOM      8  C   UNL A   1      38.769  30.743  35.329  1.00  0.00     0.072 C 
ATOM      9  C   UNL A   1      40.084  30.738  35.065  1.00  0.00     0.014 C 
BRANCH   9  10
ATOM     10  C   UNL A   1      40.871  29.506  34.949  1.00  0.00    -0.022 A 
ATOM     11  C   UNL A   1      42.286  27.059  34.650  1.00  0.00     0.073 A 
ATOM     12  C   UNL A   1      41.912  27.537  35.914  1.00  0.00     0.029 A 
ATOM     13  C   UNL A   1      41.939  27.848  33.543  1.00  0.00     0.147 A 
ATOM     14  C   UNL A   1      41.217  28.742  36.066  1.00  0.00     0.010 A 
ATOM     15  C   UNL A   1      41.239  29.047  33.682  1.00  0.00     0.049 A 
ATOM     16  F   UNL A   1      42.210  27.430  32.295  1.00  0.00    -0.205 F 
BRANCH  11  17
ATOM     17  N   UNL A   1      42.885  25.815  34.562  1.00  0.00    -0.369 N 
ATOM     18  C   UNL A   1      44.777  24.367  34.550  1.00  0.00    -0.011 C 
ATOM     19  C   UNL A   1      43.846  24.009  35.731  1.00  0.00     0.030 C 
ATOM     20  C   UNL A   1      44.313  25.810  34.240  1.00  0.00     0.123 C 
ATOM     21  C   UNL A   1      42.512  24.677  35.394  1.00  0.00     0.117 C 
BRANCH  18  22
ATOM     22  C   UNL A   1      44.523  23.398  33.360  1.00  0.00     0.005 C 
ATOM     23  C   UNL A   1      44.497  24.042  31.978  1.00  0.00     0.004 C 
ENDBRANCH  18  22
BRANCH  18  24
ATOM     24  C   UNL A   1      46.263  24.378  34.994  1.00  0.00     0.005 C 
ATOM     25  C   UNL A   1      47.032  23.089  34.729  1.00  0.00     0.004 C 
ENDBRANCH  18  24
ENDBRANCH  11  17
ENDBRANCH   9  10
ENDBRANCH   5   8
ENDBRANCH   3   4
ENDBRANCH   2   3
ENDBRANCH   1   2
BRANCH   1  26
ATOM     26  C   UNL A   1      36.020  32.807  30.647  1.00  0.00     0.002 C 
BRANCH  26  27
ATOM     27  C   UNL A   1      34.647  32.858  29.974  1.00  0.00     0.021 C 
BRANCH  27  28
ATOM     28  C   UNL A   1      34.686  32.598  28.472  1.00  0.00     0.116 C 
BRANCH  28  29
ATOM     29  N   UNL A   1      34.021  31.350  28.128  1.00  0.00    -0.352 N 
ATOM     30  C   UNL A   1      34.569  30.114  27.899  1.00  0.00     0.251 C 
ATOM     31  H   UNL A   1      33.042  31.400  28.048  1.00  0.00     0.163 HD
ATOM     32  O   UNL A   1      33.907  29.222  27.383  1.00  0.00    -0.269 OA
BRANCH  30  33
ATOM     33  C   UNL A   1      35.977  29.868  28.273  1.00  0.00     0.039 A 
ATOM     34  C   UNL A   1      36.268  29.387  29.550  1.00  0.00     0.014 A 
ATOM     35  C   UNL A   1      37.003  30.114  27.356  1.00  0.00     0.014 A 
ATOM     36  C   UNL A   1      37.592  29.099  29.891  1.00  0.00     0.010 A 
ATOM     37  C   UNL A   1      38.308  29.757  27.670  1.00  0.00     0.010 A 
ATOM     38  C   UNL A   1      38.615  29.250  28.942  1.00  0.00    -0.014 A 
BRANCH  38  39
ATOM     39  C   UNL A   1      40.022  28.894  29.253  1.00  0.00     0.031 A 
ATOM     40  C   UNL A   1      40.884  29.856  30.019  1.00  0.00     0.074 A 
ATOM     41  C   UNL A   1      40.538  27.743  28.782  1.00  0.00     0.049 A 
ATOM     42  N   UNL A   1      42.162  29.785  30.289  1.00  0.00    -0.248 NA
ATOM     43  C   UNL A   1      40.231  31.074  30.526  1.00  0.00     0.031 C 
ATOM     44  C   UNL A   1      39.804  26.745  28.003  1.00  0.00     0.029 A 
ATOM     45  N   UNL A   1      41.806  27.224  28.878  1.00  0.00    -0.354 N 
ATOM     46  C   UNL A   1      42.466  30.948  30.984  1.00  0.00     0.074 A 
ATOM     47  C   UNL A   1      41.254  31.735  31.047  1.00  0.00     0.031 C 
ATOM     48  C   UNL A   1      40.626  25.724  27.711  1.00  0.00     0.029 A 
ATOM     49  C   UNL A   1      41.956  26.018  28.237  1.00  0.00     0.049 A 
ATOM     50  H   UNL A   1      42.538  27.673  29.359  1.00  0.00     0.167 HD
ATOM     51  C   UNL A   1      43.644  31.312  31.539  1.00  0.00     0.037 A 
ATOM     52  C   UNL A   1      43.047  25.244  28.078  1.00  0.00     0.037 A 
ATOM     53  C   UNL A   1      44.837  30.509  31.496  1.00  0.00     0.049 A 
ATOM     54  C   UNL A   1      44.355  25.688  28.675  1.00  0.00     0.074 A 
ATOM     55  C   UNL A   1      46.065  30.765  32.077  1.00  0.00     0.029 A 
ATOM     56  N   UNL A   1      44.949  29.294  30.836  1.00  0.00    -0.354 N 
ATOM     57  N   UNL A   1      44.619  26.766  29.373  1.00  0.00    -0.248 NA
ATOM     58  C   UNL A   1      45.518  24.812  28.464  1.00  0.00     0.031 C 
ATOM     59  C   UNL A   1      46.939  29.735  31.721  1.00  0.00     0.029 A 
ATOM     60  C   UNL A   1      46.237  28.804  30.971  1.00  0.00     0.049 A 
ATOM     61  H   UNL A   1      44.222  28.847  30.344  1.00  0.00     0.167 HD
ATOM     62  C   UNL A   1      45.964  26.688  29.705  1.00  0.00     0.074 A 
ATOM     63  C   UNL A   1      46.463  25.451  29.141  1.00  0.00     0.031 C 
ATOM     64  C   UNL A   1      46.716  27.564  30.415  1.00  0.00     0.037 A 
BRANCH  51  65
ATOM     65  C   UNL A   1      43.709  32.628  32.257  1.00  0.00     0.064 A 
ATOM     66  C   UNL A   1      44.015  33.806  31.558  1.00  0.00     0.173 A 
ATOM     67  C   UNL A   1      43.555  32.714  33.648  1.00  0.00     0.173 A 
ATOM     68  F   UNL A   1      44.178  33.780  30.226  1.00  0.00    -0.203 F 
ATOM     69  C   UNL A   1      44.178  35.016  32.228  1.00  0.00     0.198 A 
ATOM     70  C   UNL A   1      43.689  33.930  34.312  1.00  0.00     0.198 A 
ATOM     71  F   UNL A   1      43.253  31.618  34.363  1.00  0.00    -0.203 F 
ATOM     72  F   UNL A   1      44.508  36.119  31.544  1.00  0.00    -0.200 F 
ATOM     73  C   UNL A   1      44.012  35.077  33.603  1.00  0.00     0.200 A 
ATOM     74  F   UNL A   1      43.503  33.993  35.637  1.00  0.00    -0.200 F 
ATOM     75  F   UNL A   1      44.164  36.243  34.246  1.00  0.00    -0.200 F 
ENDBRANCH  51  65
BRANCH  52  76
ATOM     76  C   UNL A   1      42.934  23.957  27.341  1.00  0.00     0.064 A 
ATOM     77  C   UNL A   1      42.551  22.772  27.988  1.00  0.00     0.173 A 
ATOM     78  C   UNL A   1      43.245  23.883  25.976  1.00  0.00     0.173 A 
ATOM     79  F   UNL A   1      42.249  22.787  29.294  1.00  0.00    -0.203 F 
ATOM     80  C   UNL A   1      42.506  21.560  27.303  1.00  0.00     0.198 A 
ATOM     81  C   UNL A   1      43.171  22.676  25.285  1.00  0.00     0.198 A 
ATOM     82  F   UNL A   1      43.597  24.993  25.310  1.00  0.00    -0.203 F 
ATOM     83  F   UNL A   1      42.177  20.436  27.953  1.00  0.00    -0.200 F 
ATOM     84  C   UNL A   1      42.812  21.513  25.951  1.00  0.00     0.200 A 
ATOM     85  F   UNL A   1      43.443  22.639  23.974  1.00  0.00    -0.200 F 
ATOM     86  F   UNL A   1      42.758  20.349  25.289  1.00  0.00    -0.200 F 
ENDBRANCH  52  76
BRANCH  64  87
ATOM     87  C   UNL A   1      48.157  27.222  30.657  1.00  0.00     0.064 A 
ATOM     88  C   UNL A   1      49.151  27.693  29.785  1.00  0.00     0.173 A 
ATOM     89  C   UNL A   1      48.538  26.332  31.670  1.00  0.00     0.173 A 
ATOM     90  F   UNL A   1      48.835  28.540  28.793  1.00  0.00    -0.203 F 
ATOM     91  C   UNL A   1      50.468  27.261  29.901  1.00  0.00     0.198 A 
ATOM     92  C   UNL A   1      49.862  25.924  31.801  1.00  0.00     0.198 A 
ATOM     93  F   UNL A   1      47.626  25.863  32.535  1.00  0.00    -0.203 F 
ATOM     94  F   UNL A   1      51.390  27.683  29.024  1.00  0.00    -0.200 F 
ATOM     95  C   UNL A   1      50.823  26.376  30.908  1.00  0.00     0.200 A 
ATOM     96  F   UNL A   1      50.208  25.085  32.787  1.00  0.00    -0.200 F 
ATOM     97  F   UNL A   1      52.091  25.956  31.015  1.00  0.00    -0.200 F 
ENDBRANCH  64  87
ENDBRANCH  38  39
ENDBRANCH  30  33
ENDBRANCH  28  29
ENDBRANCH  27  28
ENDBRANCH  26  27
ENDBRANCH   1  26
TORSDOF 17
ENDMDL
