MODEL 1
REMARK VINA RESULT:     -11.7      0.000      0.000
REMARK SMILES CC(C)(C)N(CC(=O)NCCCCCCNC(=O)c1ccc(-c2c3nc(c(-c4c(F)c(F)c(F)c(F)c4F)c4ccc([nH]4)c(-c4c(F)c(F)c(F)c(F)c4F)c4nc(c(-c5c(F)c(F)c(F)c(F)c5F)c5ccc2[nH]5)C=C4)C=C3)cc1)C(=O)c1cc2ccccc2o1
REMARK SMILES IDX 12 1 11 2 10 3 9 4 7 5 8 6 6 8 5 9 2 10 1 11 3 12 4 13 82 14
REMARK SMILES IDX 83 15 84 16 85 17 92 18 86 19 91 20 87 21 90 22 88 23 89 24
REMARK SMILES IDX 13 25 14 26 15 27 16 28 17 29 18 31 19 32 20 33 81 34 21 35
REMARK SMILES IDX 80 36 22 37 23 38 24 39 74 40 25 41 79 42 73 43 75 44 26 45
REMARK SMILES IDX 78 46 72 47 71 48 27 50 59 51 39 52 58 53 40 54 43 55 57 56
REMARK SMILES IDX 76 57 41 58 42 59 56 61 77 62 44 63 28 64 29 65 37 66 30 67
REMARK SMILES IDX 31 68 35 69 38 70 32 71 33 72 36 73 34 74 60 75 61 76 69 77
REMARK SMILES IDX 62 78 63 79 67 80 70 81 64 82 65 83 68 84 66 85 45 86 46 87
REMARK SMILES IDX 54 88 47 89 48 90 52 91 55 92 49 93 50 94 53 95 51 96
REMARK H PARENT 9 7 16 30 75 49 43 60
REMARK Flexibility Score: inf
ROOT
ATOM      1  C   UNL A   1      37.903  22.087  25.470  1.00  0.00     0.002 C 
ENDROOT
BRANCH   1   2
ATOM      2  C   UNL A   1      36.764  22.947  25.859  1.00  0.00     0.021 C 
BRANCH   2   3
ATOM      3  C   UNL A   1      35.504  22.099  25.986  1.00  0.00     0.116 C 
BRANCH   3   4
ATOM      4  N   UNL A   1      34.794  22.321  27.206  1.00  0.00    -0.355 N 
ATOM      5  C   UNL A   1      33.436  22.214  27.406  1.00  0.00     0.239 C 
ATOM      6  O   UNL A   1      32.952  22.432  28.516  1.00  0.00    -0.273 OA
ATOM      7  H   UNL A   1      35.335  22.579  27.988  1.00  0.00     0.163 HD
BRANCH   5   8
ATOM      8  C   UNL A   1      32.523  21.798  26.251  1.00  0.00     0.220 C 
BRANCH   8   9
ATOM      9  N   UNL A   1      32.085  22.985  25.499  1.00  0.00    -0.322 N 
BRANCH   9  10
ATOM     10  C   UNL A   1      32.197  23.016  24.009  1.00  0.00     0.035 C 
ATOM     11  C   UNL A   1      30.964  23.646  23.331  1.00  0.00     0.034 C 
ATOM     12  C   UNL A   1      32.397  21.609  23.472  1.00  0.00     0.034 C 
ATOM     13  C   UNL A   1      33.421  23.759  23.527  1.00  0.00     0.034 C 
ENDBRANCH   9  10
BRANCH   9  14
ATOM     14  C   UNL A   1      31.588  24.159  26.112  1.00  0.00     0.290 C 
ATOM     15  O   UNL A   1      30.469  24.082  26.641  1.00  0.00    -0.265 OA
BRANCH  14  16
ATOM     16  C   UNL A   1      32.442  25.328  26.398  1.00  0.00     0.192 A 
ATOM     17  C   UNL A   1      33.017  26.451  25.797  1.00  0.00     0.065 A 
ATOM     18  O   UNL A   1      31.483  26.297  26.850  1.00  0.00    -0.451 OA
ATOM     19  C   UNL A   1      31.994  26.826  24.871  1.00  0.00     0.021 A 
ATOM     20  C   UNL A   1      30.624  26.584  25.523  1.00  0.00     0.135 A 
ATOM     21  C   UNL A   1      32.264  27.467  23.620  1.00  0.00     0.012 A 
ATOM     22  C   UNL A   1      29.851  26.851  24.295  1.00  0.00     0.048 A 
ATOM     23  C   UNL A   1      31.337  27.898  22.710  1.00  0.00     0.001 A 
ATOM     24  C   UNL A   1      30.102  27.426  22.951  1.00  0.00     0.004 A 
ENDBRANCH  14  16
ENDBRANCH   9  14
ENDBRANCH   8   9
ENDBRANCH   5   8
ENDBRANCH   3   4
ENDBRANCH   2   3
ENDBRANCH   1   2
BRANCH   1  25
ATOM     25  C   UNL A   1      37.370  20.919  24.656  1.00  0.00     0.002 C 
BRANCH  25  26
ATOM     26  C   UNL A   1      38.118  19.638  24.977  1.00  0.00     0.021 C 
BRANCH  26  27
ATOM     27  C   UNL A   1      39.257  19.952  25.908  1.00  0.00     0.116 C 
BRANCH  27  28
ATOM     28  N   UNL A   1      40.290  18.936  25.873  1.00  0.00    -0.352 N 
ATOM     29  C   UNL A   1      41.636  19.151  26.084  1.00  0.00     0.251 C 
ATOM     30  H   UNL A   1      40.006  18.013  25.682  1.00  0.00     0.163 HD
ATOM     31  O   UNL A   1      42.461  18.246  25.997  1.00  0.00    -0.269 OA
BRANCH  29  32
ATOM     32  C   UNL A   1      42.091  20.515  26.475  1.00  0.00     0.039 A 
ATOM     33  C   UNL A   1      42.195  20.890  27.808  1.00  0.00     0.014 A 
ATOM     34  C   UNL A   1      42.315  21.482  25.493  1.00  0.00     0.014 A 
ATOM     35  C   UNL A   1      42.382  22.241  28.121  1.00  0.00     0.010 A 
ATOM     36  C   UNL A   1      42.687  22.778  25.813  1.00  0.00     0.010 A 
ATOM     37  C   UNL A   1      42.745  23.169  27.141  1.00  0.00    -0.014 A 
BRANCH  37  38
ATOM     38  C   UNL A   1      43.214  24.519  27.520  1.00  0.00     0.031 A 
ATOM     39  C   UNL A   1      44.668  24.821  27.558  1.00  0.00     0.074 A 
ATOM     40  C   UNL A   1      42.321  25.479  27.849  1.00  0.00     0.049 A 
ATOM     41  N   UNL A   1      45.220  25.966  27.846  1.00  0.00    -0.248 NA
ATOM     42  C   UNL A   1      45.623  23.749  27.232  1.00  0.00     0.031 C 
ATOM     43  C   UNL A   1      40.874  25.279  27.848  1.00  0.00     0.029 A 
ATOM     44  N   UNL A   1      42.471  26.791  28.241  1.00  0.00    -0.354 N 
ATOM     45  C   UNL A   1      46.576  25.765  27.716  1.00  0.00     0.074 A 
ATOM     46  C   UNL A   1      46.785  24.379  27.358  1.00  0.00     0.031 C 
ATOM     47  C   UNL A   1      40.269  26.417  28.201  1.00  0.00     0.029 A 
ATOM     48  C   UNL A   1      41.277  27.428  28.482  1.00  0.00     0.049 A 
ATOM     49  H   UNL A   1      43.346  27.229  28.339  1.00  0.00     0.167 HD
ATOM     50  C   UNL A   1      47.540  26.693  27.880  1.00  0.00     0.037 A 
ATOM     51  C   UNL A   1      40.987  28.681  28.879  1.00  0.00     0.037 A 
ATOM     52  C   UNL A   1      47.311  28.039  28.274  1.00  0.00     0.049 A 
ATOM     53  C   UNL A   1      42.085  29.654  29.147  1.00  0.00     0.074 A 
ATOM     54  C   UNL A   1      48.279  29.004  28.453  1.00  0.00     0.029 A 
ATOM     55  N   UNL A   1      46.085  28.611  28.549  1.00  0.00    -0.354 N 
ATOM     56  N   UNL A   1      43.360  29.441  28.987  1.00  0.00    -0.248 NA
ATOM     57  C   UNL A   1      41.750  31.003  29.640  1.00  0.00     0.031 C 
ATOM     58  C   UNL A   1      47.659  30.155  28.872  1.00  0.00     0.029 A 
ATOM     59  C   UNL A   1      46.301  29.921  28.924  1.00  0.00     0.049 A 
ATOM     60  H   UNL A   1      45.212  28.163  28.488  1.00  0.00     0.167 HD
ATOM     61  C   UNL A   1      43.981  30.621  29.329  1.00  0.00     0.074 A 
ATOM     62  C   UNL A   1      42.950  31.564  29.713  1.00  0.00     0.031 C 
ATOM     63  C   UNL A   1      45.307  30.863  29.307  1.00  0.00     0.037 A 
BRANCH  50  64
ATOM     64  C   UNL A   1      48.949  26.284  27.664  1.00  0.00     0.064 A 
ATOM     65  C   UNL A   1      49.775  25.953  28.731  1.00  0.00     0.173 A 
ATOM     66  C   UNL A   1      49.480  26.219  26.369  1.00  0.00     0.173 A 
ATOM     67  F   UNL A   1      49.263  25.814  29.963  1.00  0.00    -0.203 F 
ATOM     68  C   UNL A   1      51.134  25.793  28.522  1.00  0.00     0.198 A 
ATOM     69  C   UNL A   1      50.814  25.917  26.160  1.00  0.00     0.198 A 
ATOM     70  F   UNL A   1      48.686  26.385  25.302  1.00  0.00    -0.203 F 
ATOM     71  F   UNL A   1      51.980  25.836  29.556  1.00  0.00    -0.200 F 
ATOM     72  C   UNL A   1      51.640  25.689  27.240  1.00  0.00     0.200 A 
ATOM     73  F   UNL A   1      51.309  25.917  24.917  1.00  0.00    -0.200 F 
ATOM     74  F   UNL A   1      52.918  25.330  27.056  1.00  0.00    -0.200 F 
ENDBRANCH  50  64
BRANCH  51  75
ATOM     75  C   UNL A   1      39.586  29.088  29.073  1.00  0.00     0.064 A 
ATOM     76  C   UNL A   1      38.990  29.051  30.332  1.00  0.00     0.173 A 
ATOM     77  C   UNL A   1      38.793  29.438  27.979  1.00  0.00     0.173 A 
ATOM     78  F   UNL A   1      39.743  28.864  31.425  1.00  0.00    -0.203 F 
ATOM     79  C   UNL A   1      37.616  29.202  30.453  1.00  0.00     0.198 A 
ATOM     80  C   UNL A   1      37.447  29.722  28.130  1.00  0.00     0.198 A 
ATOM     81  F   UNL A   1      39.351  29.578  26.769  1.00  0.00    -0.203 F 
ATOM     82  F   UNL A   1      36.998  28.858  31.587  1.00  0.00    -0.200 F 
ATOM     83  C   UNL A   1      36.862  29.627  29.375  1.00  0.00     0.200 A 
ATOM     84  F   UNL A   1      36.711  30.034  27.059  1.00  0.00    -0.200 F 
ATOM     85  F   UNL A   1      35.583  29.978  29.555  1.00  0.00    -0.200 F 
ENDBRANCH  51  75
BRANCH  63  86
ATOM     86  C   UNL A   1      45.776  32.227  29.657  1.00  0.00     0.064 A 
ATOM     87  C   UNL A   1      46.115  32.575  30.958  1.00  0.00     0.173 A 
ATOM     88  C   UNL A   1      45.876  33.208  28.663  1.00  0.00     0.173 A 
ATOM     89  F   UNL A   1      46.215  31.631  31.906  1.00  0.00    -0.203 F 
ATOM     90  C   UNL A   1      46.314  33.907  31.280  1.00  0.00     0.198 A 
ATOM     91  C   UNL A   1      46.220  34.510  28.973  1.00  0.00     0.198 A 
ATOM     92  F   UNL A   1      45.702  32.886  27.371  1.00  0.00    -0.203 F 
ATOM     93  F   UNL A   1      46.277  34.298  32.558  1.00  0.00    -0.200 F 
ATOM     94  C   UNL A   1      46.453  34.857  30.286  1.00  0.00     0.200 A 
ATOM     95  F   UNL A   1      46.256  35.437  28.010  1.00  0.00    -0.200 F 
ATOM     96  F   UNL A   1      46.851  36.095  30.602  1.00  0.00    -0.200 F 
ENDBRANCH  63  86
ENDBRANCH  37  38
ENDBRANCH  29  32
ENDBRANCH  27  28
ENDBRANCH  26  27
ENDBRANCH  25  26
ENDBRANCH   1  25
TORSDOF 17
ENDMDL
MODEL 2
REMARK VINA RESULT:     -11.5      5.105     10.224
REMARK SMILES CC(C)(C)N(CC(=O)NCCCCCCNC(=O)c1ccc(-c2c3nc(c(-c4c(F)c(F)c(F)c(F)c4F)c4ccc([nH]4)c(-c4c(F)c(F)c(F)c(F)c4F)c4nc(c(-c5c(F)c(F)c(F)c(F)c5F)c5ccc2[nH]5)C=C4)C=C3)cc1)C(=O)c1cc2ccccc2o1
REMARK SMILES IDX 12 1 11 2 10 3 9 4 7 5 8 6 6 8 5 9 2 10 1 11 3 12 4 13 82 14
REMARK SMILES IDX 83 15 84 16 85 17 92 18 86 19 91 20 87 21 90 22 88 23 89 24
REMARK SMILES IDX 13 25 14 26 15 27 16 28 17 29 18 31 19 32 20 33 81 34 21 35
REMARK SMILES IDX 80 36 22 37 23 38 24 39 74 40 25 41 79 42 73 43 75 44 26 45
REMARK SMILES IDX 78 46 72 47 71 48 27 50 59 51 39 52 58 53 40 54 43 55 57 56
REMARK SMILES IDX 76 57 41 58 42 59 56 61 77 62 44 63 28 64 29 65 37 66 30 67
REMARK SMILES IDX 31 68 35 69 38 70 32 71 33 72 36 73 34 74 60 75 61 76 69 77
REMARK SMILES IDX 62 78 63 79 67 80 70 81 64 82 65 83 68 84 66 85 45 86 46 87
REMARK SMILES IDX 54 88 47 89 48 90 52 91 55 92 49 93 50 94 53 95 51 96
REMARK H PARENT 9 7 16 30 75 49 43 60
REMARK Flexibility Score: inf
ROOT
ATOM      1  C   UNL A   1      32.235  29.760  26.886  1.00  0.00     0.002 C 
ENDROOT
BRANCH   1   2
ATOM      2  C   UNL A   1      33.614  29.441  26.458  1.00  0.00     0.021 C 
BRANCH   2   3
ATOM      3  C   UNL A   1      33.834  27.934  26.526  1.00  0.00     0.116 C 
BRANCH   3   4
ATOM      4  N   UNL A   1      32.641  27.178  26.310  1.00  0.00    -0.355 N 
ATOM      5  C   UNL A   1      32.551  25.834  26.027  1.00  0.00     0.239 C 
ATOM      6  O   UNL A   1      31.452  25.305  25.866  1.00  0.00    -0.273 OA
ATOM      7  H   UNL A   1      31.791  27.673  26.369  1.00  0.00     0.163 HD
BRANCH   5   8
ATOM      8  C   UNL A   1      33.820  24.985  25.939  1.00  0.00     0.220 C 
BRANCH   8   9
ATOM      9  N   UNL A   1      33.665  23.949  24.904  1.00  0.00    -0.322 N 
BRANCH   9  10
ATOM     10  C   UNL A   1      33.426  22.526  25.294  1.00  0.00     0.035 C 
ATOM     11  C   UNL A   1      34.378  21.544  24.582  1.00  0.00     0.034 C 
ATOM     12  C   UNL A   1      31.989  22.137  24.991  1.00  0.00     0.034 C 
ATOM     13  C   UNL A   1      33.552  22.295  26.782  1.00  0.00     0.034 C 
ENDBRANCH   9  10
BRANCH   9  14
ATOM     14  C   UNL A   1      33.774  24.206  23.518  1.00  0.00     0.290 C 
ATOM     15  O   UNL A   1      34.910  24.128  23.023  1.00  0.00    -0.265 OA
BRANCH  14  16
ATOM     16  C   UNL A   1      32.600  24.262  22.625  1.00  0.00     0.192 A 
ATOM     17  C   UNL A   1      31.483  25.041  22.315  1.00  0.00     0.065 A 
ATOM     18  O   UNL A   1      33.138  24.909  21.461  1.00  0.00    -0.451 OA
ATOM     19  C   UNL A   1      32.004  26.360  22.494  1.00  0.00     0.021 A 
ATOM     20  C   UNL A   1      33.459  26.388  22.001  1.00  0.00     0.135 A 
ATOM     21  C   UNL A   1      31.205  27.469  22.917  1.00  0.00     0.012 A 
ATOM     22  C   UNL A   1      33.736  27.747  22.503  1.00  0.00     0.048 A 
ATOM     23  C   UNL A   1      31.622  28.764  23.060  1.00  0.00     0.001 A 
ATOM     24  C   UNL A   1      32.959  28.894  23.032  1.00  0.00     0.004 A 
ENDBRANCH  14  16
ENDBRANCH   9  14
ENDBRANCH   8   9
ENDBRANCH   5   8
ENDBRANCH   3   4
ENDBRANCH   2   3
ENDBRANCH   1   2
BRANCH   1  25
ATOM     25  C   UNL A   1      31.723  30.916  26.042  1.00  0.00     0.002 C 
BRANCH  25  26
ATOM     26  C   UNL A   1      31.386  32.119  26.904  1.00  0.00     0.021 C 
BRANCH  26  27
ATOM     27  C   UNL A   1      32.638  32.916  27.149  1.00  0.00     0.116 C 
BRANCH  27  28
ATOM     28  N   UNL A   1      32.352  34.260  27.609  1.00  0.00    -0.352 N 
ATOM     29  C   UNL A   1      33.019  34.923  28.618  1.00  0.00     0.251 C 
ATOM     30  H   UNL A   1      31.618  34.741  27.163  1.00  0.00     0.163 HD
ATOM     31  O   UNL A   1      32.692  36.048  28.984  1.00  0.00    -0.269 OA
BRANCH  29  32
ATOM     32  C   UNL A   1      34.200  34.268  29.248  1.00  0.00     0.039 A 
ATOM     33  C   UNL A   1      35.497  34.623  28.901  1.00  0.00     0.014 A 
ATOM     34  C   UNL A   1      34.016  33.196  30.124  1.00  0.00     0.014 A 
ATOM     35  C   UNL A   1      36.558  33.818  29.327  1.00  0.00     0.010 A 
ATOM     36  C   UNL A   1      35.086  32.522  30.691  1.00  0.00     0.010 A 
ATOM     37  C   UNL A   1      36.380  32.842  30.311  1.00  0.00    -0.014 A 
BRANCH  37  38
ATOM     38  C   UNL A   1      37.545  32.199  30.954  1.00  0.00     0.031 A 
ATOM     39  C   UNL A   1      37.984  32.627  32.307  1.00  0.00     0.074 A 
ATOM     40  C   UNL A   1      38.227  31.229  30.305  1.00  0.00     0.049 A 
ATOM     41  N   UNL A   1      38.971  32.134  33.000  1.00  0.00    -0.248 NA
ATOM     42  C   UNL A   1      37.249  33.712  32.978  1.00  0.00     0.031 C 
ATOM     43  C   UNL A   1      37.879  30.743  28.972  1.00  0.00     0.029 A 
ATOM     44  N   UNL A   1      39.331  30.480  30.650  1.00  0.00    -0.354 N 
ATOM     45  C   UNL A   1      38.965  32.823  34.192  1.00  0.00     0.074 A 
ATOM     46  C   UNL A   1      37.902  33.803  34.131  1.00  0.00     0.031 C 
ATOM     47  C   UNL A   1      38.731  29.774  28.616  1.00  0.00     0.029 A 
ATOM     48  C   UNL A   1      39.705  29.581  29.679  1.00  0.00     0.049 A 
ATOM     49  H   UNL A   1      39.804  30.578  31.506  1.00  0.00     0.167 HD
ATOM     50  C   UNL A   1      39.791  32.619  35.237  1.00  0.00     0.037 A 
ATOM     51  C   UNL A   1      40.708  28.686  29.617  1.00  0.00     0.037 A 
ATOM     52  C   UNL A   1      40.856  31.677  35.256  1.00  0.00     0.049 A 
ATOM     53  C   UNL A   1      41.665  28.554  30.754  1.00  0.00     0.074 A 
ATOM     54  C   UNL A   1      41.717  31.453  36.309  1.00  0.00     0.029 A 
ATOM     55  N   UNL A   1      41.215  30.830  34.227  1.00  0.00    -0.354 N 
ATOM     56  N   UNL A   1      41.616  29.203  31.882  1.00  0.00    -0.248 NA
ATOM     57  C   UNL A   1      42.793  27.611  30.642  1.00  0.00     0.031 C 
ATOM     58  C   UNL A   1      42.625  30.500  35.920  1.00  0.00     0.029 A 
ATOM     59  C   UNL A   1      42.314  30.104  34.636  1.00  0.00     0.049 A 
ATOM     60  H   UNL A   1      40.766  30.758  33.355  1.00  0.00     0.167 HD
ATOM     61  C   UNL A   1      42.677  28.739  32.626  1.00  0.00     0.074 A 
ATOM     62  C   UNL A   1      43.370  27.747  31.829  1.00  0.00     0.031 C 
ATOM     63  C   UNL A   1      43.012  29.128  33.872  1.00  0.00     0.037 A 
BRANCH  50  64
ATOM     64  C   UNL A   1      39.605  33.450  36.451  1.00  0.00     0.064 A 
ATOM     65  C   UNL A   1      38.780  33.034  37.489  1.00  0.00     0.173 A 
ATOM     66  C   UNL A   1      40.263  34.680  36.578  1.00  0.00     0.173 A 
ATOM     67  F   UNL A   1      38.285  31.789  37.500  1.00  0.00    -0.203 F 
ATOM     68  C   UNL A   1      38.451  33.921  38.501  1.00  0.00     0.198 A 
ATOM     69  C   UNL A   1      40.036  35.502  37.669  1.00  0.00     0.198 A 
ATOM     70  F   UNL A   1      41.180  35.055  35.675  1.00  0.00    -0.203 F 
ATOM     71  F   UNL A   1      37.402  33.676  39.291  1.00  0.00    -0.200 F 
ATOM     72  C   UNL A   1      39.137  35.114  38.640  1.00  0.00     0.200 A 
ATOM     73  F   UNL A   1      40.634  36.695  37.738  1.00  0.00    -0.200 F 
ATOM     74  F   UNL A   1      38.953  35.862  39.735  1.00  0.00    -0.200 F 
ENDBRANCH  50  64
BRANCH  51  75
ATOM     75  C   UNL A   1      40.878  27.849  28.418  1.00  0.00     0.064 A 
ATOM     76  C   UNL A   1      41.645  28.281  27.339  1.00  0.00     0.173 A 
ATOM     77  C   UNL A   1      40.199  26.635  28.300  1.00  0.00     0.173 A 
ATOM     78  F   UNL A   1      42.428  29.362  27.462  1.00  0.00    -0.203 F 
ATOM     79  C   UNL A   1      41.594  27.595  26.133  1.00  0.00     0.198 A 
ATOM     80  C   UNL A   1      40.263  25.887  27.138  1.00  0.00     0.198 A 
ATOM     81  F   UNL A   1      39.529  26.141  29.351  1.00  0.00    -0.203 F 
ATOM     82  F   UNL A   1      42.059  28.161  25.015  1.00  0.00    -0.200 F 
ATOM     83  C   UNL A   1      40.983  26.357  26.060  1.00  0.00     0.200 A 
ATOM     84  F   UNL A   1      39.585  24.739  27.050  1.00  0.00    -0.200 F 
ATOM     85  F   UNL A   1      41.126  25.609  24.959  1.00  0.00    -0.200 F 
ENDBRANCH  51  75
BRANCH  63  86
ATOM     86  C   UNL A   1      44.163  28.460  34.529  1.00  0.00     0.064 A 
ATOM     87  C   UNL A   1      45.454  28.964  34.436  1.00  0.00     0.173 A 
ATOM     88  C   UNL A   1      43.963  27.283  35.259  1.00  0.00     0.173 A 
ATOM     89  F   UNL A   1      45.669  30.180  33.911  1.00  0.00    -0.203 F 
ATOM     90  C   UNL A   1      46.522  28.190  34.857  1.00  0.00     0.198 A 
ATOM     91  C   UNL A   1      45.027  26.588  35.803  1.00  0.00     0.198 A 
ATOM     92  F   UNL A   1      42.721  26.836  35.501  1.00  0.00    -0.203 F 
ATOM     93  F   UNL A   1      47.761  28.484  34.452  1.00  0.00    -0.200 F 
ATOM     94  C   UNL A   1      46.311  27.052  35.613  1.00  0.00     0.200 A 
ATOM     95  F   UNL A   1      44.811  25.438  36.450  1.00  0.00    -0.200 F 
ATOM     96  F   UNL A   1      47.350  26.432  36.185  1.00  0.00    -0.200 F 
ENDBRANCH  63  86
ENDBRANCH  37  38
ENDBRANCH  29  32
ENDBRANCH  27  28
ENDBRANCH  26  27
ENDBRANCH  25  26
ENDBRANCH   1  25
TORSDOF 17
ENDMDL
MODEL 3
REMARK VINA RESULT:     -11.5      5.148      9.376
REMARK SMILES CC(C)(C)N(CC(=O)NCCCCCCNC(=O)c1ccc(-c2c3nc(c(-c4c(F)c(F)c(F)c(F)c4F)c4ccc([nH]4)c(-c4c(F)c(F)c(F)c(F)c4F)c4nc(c(-c5c(F)c(F)c(F)c(F)c5F)c5ccc2[nH]5)C=C4)C=C3)cc1)C(=O)c1cc2ccccc2o1
REMARK SMILES IDX 12 1 11 2 10 3 9 4 7 5 8 6 6 8 5 9 2 10 1 11 3 12 4 13 82 14
REMARK SMILES IDX 83 15 84 16 85 17 92 18 86 19 91 20 87 21 90 22 88 23 89 24
REMARK SMILES IDX 13 25 14 26 15 27 16 28 17 29 18 31 19 32 20 33 81 34 21 35
REMARK SMILES IDX 80 36 22 37 23 38 24 39 74 40 25 41 79 42 73 43 75 44 26 45
REMARK SMILES IDX 78 46 72 47 71 48 27 50 59 51 39 52 58 53 40 54 43 55 57 56
REMARK SMILES IDX 76 57 41 58 42 59 56 61 77 62 44 63 28 64 29 65 37 66 30 67
REMARK SMILES IDX 31 68 35 69 38 70 32 71 33 72 36 73 34 74 60 75 61 76 69 77
REMARK SMILES IDX 62 78 63 79 67 80 70 81 64 82 65 83 68 84 66 85 45 86 46 87
REMARK SMILES IDX 54 88 47 89 48 90 52 91 55 92 49 93 50 94 53 95 51 96
REMARK H PARENT 9 7 16 30 75 49 43 60
REMARK Flexibility Score: inf
ROOT
ATOM      1  C   UNL A   1      32.770  30.271  26.986  1.00  0.00     0.002 C 
ENDROOT
BRANCH   1   2
ATOM      2  C   UNL A   1      32.546  28.819  27.158  1.00  0.00     0.021 C 
BRANCH   2   3
ATOM      3  C   UNL A   1      33.670  28.045  26.480  1.00  0.00     0.116 C 
BRANCH   3   4
ATOM      4  N   UNL A   1      33.875  28.422  25.117  1.00  0.00    -0.355 N 
ATOM      5  C   UNL A   1      33.014  28.219  24.062  1.00  0.00     0.239 C 
ATOM      6  O   UNL A   1      33.315  28.599  22.932  1.00  0.00    -0.273 OA
ATOM      7  H   UNL A   1      34.724  28.877  24.910  1.00  0.00     0.163 HD
BRANCH   5   8
ATOM      8  C   UNL A   1      31.663  27.540  24.298  1.00  0.00     0.220 C 
BRANCH   8   9
ATOM      9  N   UNL A   1      31.809  26.078  24.205  1.00  0.00    -0.322 N 
BRANCH   9  10
ATOM     10  C   UNL A   1      31.300  25.199  25.303  1.00  0.00     0.035 C 
ATOM     11  C   UNL A   1      30.653  23.902  24.777  1.00  0.00     0.034 C 
ATOM     12  C   UNL A   1      30.289  25.955  26.148  1.00  0.00     0.034 C 
ATOM     13  C   UNL A   1      32.375  24.812  26.291  1.00  0.00     0.034 C 
ENDBRANCH   9  10
BRANCH   9  14
ATOM     14  C   UNL A   1      32.460  25.424  23.133  1.00  0.00     0.290 C 
ATOM     15  O   UNL A   1      31.852  25.385  22.052  1.00  0.00    -0.265 OA
BRANCH  14  16
ATOM     16  C   UNL A   1      33.893  25.072  23.169  1.00  0.00     0.192 A 
ATOM     17  C   UNL A   1      34.790  24.143  23.702  1.00  0.00     0.065 A 
ATOM     18  O   UNL A   1      34.029  24.248  22.001  1.00  0.00    -0.451 OA
ATOM     19  C   UNL A   1      34.009  22.947  23.663  1.00  0.00     0.021 A 
ATOM     20  C   UNL A   1      33.159  22.952  22.383  1.00  0.00     0.135 A 
ATOM     21  C   UNL A   1      34.158  21.880  24.606  1.00  0.00     0.012 A 
ATOM     22  C   UNL A   1      32.370  21.761  22.751  1.00  0.00     0.048 A 
ATOM     23  C   UNL A   1      33.484  20.690  24.601  1.00  0.00     0.001 A 
ATOM     24  C   UNL A   1      32.431  20.683  23.767  1.00  0.00     0.004 A 
ENDBRANCH  14  16
ENDBRANCH   9  14
ENDBRANCH   8   9
ENDBRANCH   5   8
ENDBRANCH   3   4
ENDBRANCH   2   3
ENDBRANCH   1   2
BRANCH   1  25
ATOM     25  C   UNL A   1      31.612  30.847  26.189  1.00  0.00     0.002 C 
BRANCH  25  26
ATOM     26  C   UNL A   1      31.403  32.316  26.506  1.00  0.00     0.021 C 
BRANCH  26  27
ATOM     27  C   UNL A   1      32.607  32.839  27.240  1.00  0.00     0.116 C 
BRANCH  27  28
ATOM     28  N   UNL A   1      32.456  34.228  27.626  1.00  0.00    -0.352 N 
ATOM     29  C   UNL A   1      33.213  34.886  28.571  1.00  0.00     0.251 C 
ATOM     30  H   UNL A   1      31.750  34.745  27.174  1.00  0.00     0.163 HD
ATOM     31  O   UNL A   1      32.999  36.055  28.877  1.00  0.00    -0.269 OA
BRANCH  29  32
ATOM     32  C   UNL A   1      34.356  34.167  29.202  1.00  0.00     0.039 A 
ATOM     33  C   UNL A   1      35.672  34.515  28.931  1.00  0.00     0.014 A 
ATOM     34  C   UNL A   1      34.116  33.045  30.000  1.00  0.00     0.014 A 
ATOM     35  C   UNL A   1      36.700  33.661  29.344  1.00  0.00     0.010 A 
ATOM     36  C   UNL A   1      35.149  32.313  30.563  1.00  0.00     0.010 A 
ATOM     37  C   UNL A   1      36.464  32.629  30.256  1.00  0.00    -0.014 A 
BRANCH  37  38
ATOM     38  C   UNL A   1      37.589  31.921  30.900  1.00  0.00     0.031 A 
ATOM     39  C   UNL A   1      38.326  30.861  30.165  1.00  0.00     0.074 A 
ATOM     40  C   UNL A   1      37.942  32.224  32.170  1.00  0.00     0.049 A 
ATOM     41  N   UNL A   1      39.348  30.178  30.596  1.00  0.00    -0.248 NA
ATOM     42  C   UNL A   1      37.899  30.523  28.796  1.00  0.00     0.031 C 
ATOM     43  C   UNL A   1      37.278  33.244  32.978  1.00  0.00     0.029 A 
ATOM     44  N   UNL A   1      38.921  31.731  33.004  1.00  0.00    -0.354 N 
ATOM     45  C   UNL A   1      39.703  29.349  29.556  1.00  0.00     0.074 A 
ATOM     46  C   UNL A   1      38.771  29.576  28.472  1.00  0.00     0.031 C 
ATOM     47  C   UNL A   1      37.868  33.315  34.175  1.00  0.00     0.029 A 
ATOM     48  C   UNL A   1      38.939  32.332  34.240  1.00  0.00     0.049 A 
ATOM     49  H   UNL A   1      39.546  31.018  32.741  1.00  0.00     0.167 HD
ATOM     50  C   UNL A   1      40.739  28.487  29.539  1.00  0.00     0.037 A 
ATOM     51  C   UNL A   1      39.715  32.145  35.324  1.00  0.00     0.037 A 
ATOM     52  C   UNL A   1      41.616  28.252  30.634  1.00  0.00     0.049 A 
ATOM     53  C   UNL A   1      40.790  31.112  35.304  1.00  0.00     0.074 A 
ATOM     54  C   UNL A   1      42.677  27.373  30.643  1.00  0.00     0.029 A 
ATOM     55  N   UNL A   1      41.554  28.856  31.873  1.00  0.00    -0.354 N 
ATOM     56  N   UNL A   1      41.120  30.361  34.293  1.00  0.00    -0.248 NA
ATOM     57  C   UNL A   1      41.589  30.879  36.522  1.00  0.00     0.031 C 
ATOM     58  C   UNL A   1      43.246  27.407  31.892  1.00  0.00     0.029 A 
ATOM     59  C   UNL A   1      42.560  28.330  32.656  1.00  0.00     0.049 A 
ATOM     60  H   UNL A   1      40.905  29.542  32.150  1.00  0.00     0.167 HD
ATOM     61  C   UNL A   1      42.173  29.588  34.729  1.00  0.00     0.074 A 
ATOM     62  C   UNL A   1      42.440  29.949  36.106  1.00  0.00     0.031 C 
ATOM     63  C   UNL A   1      42.840  28.666  34.009  1.00  0.00     0.037 A 
BRANCH  50  64
ATOM     64  C   UNL A   1      40.976  27.699  28.305  1.00  0.00     0.064 A 
ATOM     65  C   UNL A   1      41.813  28.168  27.301  1.00  0.00     0.173 A 
ATOM     66  C   UNL A   1      40.356  26.456  28.127  1.00  0.00     0.173 A 
ATOM     67  F   UNL A   1      42.574  29.253  27.507  1.00  0.00    -0.203 F 
ATOM     68  C   UNL A   1      41.841  27.524  26.075  1.00  0.00     0.198 A 
ATOM     69  C   UNL A   1      40.504  25.747  26.946  1.00  0.00     0.198 A 
ATOM     70  F   UNL A   1      39.659  25.896  29.125  1.00  0.00    -0.203 F 
ATOM     71  F   UNL A   1      42.343  28.145  25.004  1.00  0.00    -0.200 F 
ATOM     72  C   UNL A   1      41.262  26.277  25.923  1.00  0.00     0.200 A 
ATOM     73  F   UNL A   1      39.858  24.589  26.780  1.00  0.00    -0.200 F 
ATOM     74  F   UNL A   1      41.472  25.579  24.800  1.00  0.00    -0.200 F 
ENDBRANCH  50  64
BRANCH  51  75
ATOM     75  C   UNL A   1      39.488  32.943  36.540  1.00  0.00     0.064 A 
ATOM     76  C   UNL A   1      38.545  32.560  37.490  1.00  0.00     0.173 A 
ATOM     77  C   UNL A   1      40.157  34.154  36.726  1.00  0.00     0.173 A 
ATOM     78  F   UNL A   1      37.988  31.343  37.430  1.00  0.00    -0.203 F 
ATOM     79  C   UNL A   1      38.177  33.442  38.496  1.00  0.00     0.198 A 
ATOM     80  C   UNL A   1      39.880  34.967  37.811  1.00  0.00     0.198 A 
ATOM     81  F   UNL A   1      41.139  34.509  35.886  1.00  0.00    -0.203 F 
ATOM     82  F   UNL A   1      37.068  33.226  39.210  1.00  0.00    -0.200 F 
ATOM     83  C   UNL A   1      38.904  34.598  38.712  1.00  0.00     0.200 A 
ATOM     84  F   UNL A   1      40.524  36.130  37.949  1.00  0.00    -0.200 F 
ATOM     85  F   UNL A   1      38.681  35.329  39.811  1.00  0.00    -0.200 F 
ENDBRANCH  51  75
BRANCH  63  86
ATOM     86  C   UNL A   1      43.991  27.978  34.645  1.00  0.00     0.064 A 
ATOM     87  C   UNL A   1      45.281  28.489  34.575  1.00  0.00     0.173 A 
ATOM     88  C   UNL A   1      43.792  26.774  35.331  1.00  0.00     0.173 A 
ATOM     89  F   UNL A   1      45.494  29.724  34.095  1.00  0.00    -0.203 F 
ATOM     90  C   UNL A   1      46.350  27.704  34.971  1.00  0.00     0.198 A 
ATOM     91  C   UNL A   1      44.857  26.064  35.854  1.00  0.00     0.198 A 
ATOM     92  F   UNL A   1      42.551  26.315  35.553  1.00  0.00    -0.203 F 
ATOM     93  F   UNL A   1      47.589  28.016  34.581  1.00  0.00    -0.200 F 
ATOM     94  C   UNL A   1      46.140  26.538  35.685  1.00  0.00     0.200 A 
ATOM     95  F   UNL A   1      44.642  24.891  36.458  1.00  0.00    -0.200 F 
ATOM     96  F   UNL A   1      47.179  25.902  36.238  1.00  0.00    -0.200 F 
ENDBRANCH  63  86
ENDBRANCH  37  38
ENDBRANCH  29  32
ENDBRANCH  27  28
ENDBRANCH  26  27
ENDBRANCH  25  26
ENDBRANCH   1  25
TORSDOF 17
ENDMDL
