MODEL 1
REMARK VINA RESULT:     -12.6      0.000      0.000
REMARK SMILES COc1ccc(/C=C(\CCC(=O)NCCCCCCNC(=O)c2ccc(-c3c4nc(c(-c5c(F)c(F)c(F)c(F)c5F)c5ccc([nH]5)c(-c5c(F)c(F)c(F)c(F)c5F)c5nc(c(-c6c(F)c(F)c(F)c(F)c6F)c6ccc3[nH]6)C=C5)C=C4)cc2)c2nc3ccccc3s2)cc1F
REMARK SMILES IDX 15 1 14 2 13 3 11 4 12 5 10 7 9 8 8 9 7 10 6 11 3 12 4 13
REMARK SMILES IDX 96 14 5 15 95 16 97 17 2 18 1 19 86 20 87 21 94 22 88 23
REMARK SMILES IDX 93 24 89 25 92 26 90 27 91 28 16 29 17 30 18 31 19 32 20 33
REMARK SMILES IDX 21 34 22 36 23 37 24 38 85 39 25 40 84 41 26 42 27 43 28 44
REMARK SMILES IDX 78 45 29 46 83 47 77 48 79 49 30 50 82 51 76 52 75 53 31 55
REMARK SMILES IDX 63 56 43 57 62 58 44 59 47 60 61 61 80 62 45 63 46 64 60 66
REMARK SMILES IDX 81 67 48 68 32 69 33 70 41 71 34 72 35 73 39 74 42 75 36 76
REMARK SMILES IDX 37 77 40 78 38 79 64 80 65 81 73 82 66 83 67 84 71 85 74 86
REMARK SMILES IDX 68 87 69 88 72 89 70 90 49 91 50 92 58 93 51 94 52 95 56 96
REMARK SMILES IDX 59 97 53 98 54 99 57 100 55 101
REMARK H PARENT 13 6 20 35 79 54 47 65
REMARK Flexibility Score: inf
ROOT
ATOM      1  C   UNL A   1      36.213  23.280  24.057  1.00  0.00     0.021 C 
ENDROOT
BRANCH   1   2
ATOM      2  C   UNL A   1      36.085  23.720  25.513  1.00  0.00     0.116 C 
BRANCH   2   3
ATOM      3  N   UNL A   1      34.794  24.310  25.817  1.00  0.00    -0.356 N 
ATOM      4  C   UNL A   1      33.618  23.754  26.222  1.00  0.00     0.220 C 
ATOM      5  O   UNL A   1      32.690  24.514  26.511  1.00  0.00    -0.275 OA
ATOM      6  H   UNL A   1      34.763  25.288  25.711  1.00  0.00     0.163 HD
BRANCH   4   7
ATOM      7  C   UNL A   1      33.451  22.251  26.333  1.00  0.00     0.105 C 
BRANCH   7   8
ATOM      8  C   UNL A   1      32.104  21.787  25.775  1.00  0.00     0.048 C 
BRANCH   8   9
ATOM      9  C   UNL A   1      32.100  21.656  24.244  1.00  0.00    -0.011 C 
ATOM     10  C   UNL A   1      32.483  20.528  23.582  1.00  0.00     0.015 C 
BRANCH  10  11
ATOM     11  C   UNL A   1      32.904  19.179  24.079  1.00  0.00    -0.022 A 
ATOM     12  C   UNL A   1      33.491  16.486  24.844  1.00  0.00     0.154 A 
ATOM     13  C   UNL A   1      32.898  17.369  25.734  1.00  0.00     0.050 A 
ATOM     14  C   UNL A   1      33.820  16.954  23.576  1.00  0.00     0.165 A 
ATOM     15  C   UNL A   1      32.598  18.682  25.351  1.00  0.00     0.012 A 
ATOM     16  C   UNL A   1      33.538  18.281  23.197  1.00  0.00     0.051 A 
ATOM     17  F   UNL A   1      34.355  16.134  22.659  1.00  0.00    -0.203 F 
BRANCH  12  18
ATOM     18  O   UNL A   1      33.563  15.198  25.292  1.00  0.00    -0.494 OA
ATOM     19  C   UNL A   1      32.328  14.583  25.626  1.00  0.00     0.278 C 
ENDBRANCH  12  18
ENDBRANCH  10  11
BRANCH   9  20
ATOM     20  C   UNL A   1      31.800  22.896  23.533  1.00  0.00     0.120 A 
ATOM     21  N   UNL A   1      30.680  23.539  23.793  1.00  0.00    -0.236 NA
ATOM     22  S   UNL A   1      32.795  23.749  22.397  1.00  0.00    -0.114 S 
ATOM     23  C   UNL A   1      30.735  24.847  23.405  1.00  0.00     0.082 A 
ATOM     24  C   UNL A   1      31.830  25.177  22.614  1.00  0.00     0.055 A 
ATOM     25  C   UNL A   1      29.817  25.838  23.797  1.00  0.00     0.030 A 
ATOM     26  C   UNL A   1      32.023  26.497  22.169  1.00  0.00     0.021 A 
ATOM     27  C   UNL A   1      30.030  27.158  23.411  1.00  0.00     0.002 A 
ATOM     28  C   UNL A   1      31.117  27.480  22.603  1.00  0.00     0.002 A 
ENDBRANCH   9  20
ENDBRANCH   8   9
ENDBRANCH   7   8
ENDBRANCH   4   7
ENDBRANCH   2   3
ENDBRANCH   1   2
BRANCH   1  29
ATOM     29  C   UNL A   1      36.983  21.972  23.839  1.00  0.00     0.002 C 
BRANCH  29  30
ATOM     30  C   UNL A   1      36.688  20.868  24.858  1.00  0.00     0.002 C 
BRANCH  30  31
ATOM     31  C   UNL A   1      37.801  19.832  25.046  1.00  0.00     0.021 C 
BRANCH  31  32
ATOM     32  C   UNL A   1      39.057  20.340  25.752  1.00  0.00     0.116 C 
BRANCH  32  33
ATOM     33  N   UNL A   1      40.065  19.303  25.907  1.00  0.00    -0.352 N 
ATOM     34  C   UNL A   1      41.418  19.425  26.090  1.00  0.00     0.251 C 
ATOM     35  H   UNL A   1      39.727  18.379  25.876  1.00  0.00     0.163 HD
ATOM     36  O   UNL A   1      42.151  18.435  25.993  1.00  0.00    -0.269 OA
BRANCH  34  37
ATOM     37  C   UNL A   1      42.015  20.745  26.379  1.00  0.00     0.039 A 
ATOM     38  C   UNL A   1      42.331  21.596  25.318  1.00  0.00     0.014 A 
ATOM     39  C   UNL A   1      42.268  21.143  27.695  1.00  0.00     0.014 A 
ATOM     40  C   UNL A   1      42.829  22.874  25.581  1.00  0.00     0.010 A 
ATOM     41  C   UNL A   1      42.689  22.444  27.958  1.00  0.00     0.010 A 
ATOM     42  C   UNL A   1      42.973  23.325  26.904  1.00  0.00    -0.014 A 
BRANCH  42  43
ATOM     43  C   UNL A   1      43.405  24.716  27.196  1.00  0.00     0.031 A 
ATOM     44  C   UNL A   1      42.444  25.714  27.776  1.00  0.00     0.074 A 
ATOM     45  C   UNL A   1      44.663  25.096  26.896  1.00  0.00     0.049 A 
ATOM     46  N   UNL A   1      42.644  26.970  28.088  1.00  0.00    -0.248 NA
ATOM     47  C   UNL A   1      41.070  25.248  28.012  1.00  0.00     0.031 C 
ATOM     48  C   UNL A   1      45.678  24.238  26.283  1.00  0.00     0.029 A 
ATOM     49  N   UNL A   1      45.305  26.297  27.071  1.00  0.00    -0.354 N 
ATOM     50  C   UNL A   1      41.426  27.441  28.557  1.00  0.00     0.074 A 
ATOM     51  C   UNL A   1      40.475  26.358  28.424  1.00  0.00     0.031 C 
ATOM     52  C   UNL A   1      46.826  24.924  26.177  1.00  0.00     0.029 A 
ATOM     53  C   UNL A   1      46.620  26.278  26.681  1.00  0.00     0.049 A 
ATOM     54  H   UNL A   1      44.862  27.095  27.440  1.00  0.00     0.167 HD
ATOM     55  C   UNL A   1      41.132  28.655  29.083  1.00  0.00     0.037 A 
ATOM     56  C   UNL A   1      47.562  27.240  26.734  1.00  0.00     0.037 A 
ATOM     57  C   UNL A   1      42.080  29.729  29.223  1.00  0.00     0.049 A 
ATOM     58  C   UNL A   1      47.211  28.587  27.301  1.00  0.00     0.074 A 
ATOM     59  C   UNL A   1      41.890  30.981  29.783  1.00  0.00     0.029 A 
ATOM     60  N   UNL A   1      43.400  29.681  28.796  1.00  0.00    -0.354 N 
ATOM     61  N   UNL A   1      46.070  29.004  27.791  1.00  0.00    -0.248 NA
ATOM     62  C   UNL A   1      48.279  29.596  27.322  1.00  0.00     0.031 C 
ATOM     63  C   UNL A   1      43.079  31.705  29.651  1.00  0.00     0.029 A 
ATOM     64  C   UNL A   1      44.028  30.888  29.056  1.00  0.00     0.049 A 
ATOM     65  H   UNL A   1      43.827  28.902  28.369  1.00  0.00     0.167 HD
ATOM     66  C   UNL A   1      46.283  30.315  28.193  1.00  0.00     0.074 A 
ATOM     67  C   UNL A   1      47.670  30.619  27.905  1.00  0.00     0.031 C 
ATOM     68  C   UNL A   1      45.406  31.186  28.750  1.00  0.00     0.037 A 
BRANCH  55  69
ATOM     69  C   UNL A   1      39.723  28.879  29.555  1.00  0.00     0.064 A 
ATOM     70  C   UNL A   1      39.346  28.556  30.867  1.00  0.00     0.173 A 
ATOM     71  C   UNL A   1      38.737  29.392  28.697  1.00  0.00     0.173 A 
ATOM     72  F   UNL A   1      40.246  28.056  31.727  1.00  0.00    -0.203 F 
ATOM     73  C   UNL A   1      38.036  28.740  31.302  1.00  0.00     0.198 A 
ATOM     74  C   UNL A   1      37.436  29.606  29.145  1.00  0.00     0.198 A 
ATOM     75  F   UNL A   1      39.046  29.728  27.436  1.00  0.00    -0.203 F 
ATOM     76  F   UNL A   1      37.694  28.406  32.554  1.00  0.00    -0.200 F 
ATOM     77  C   UNL A   1      37.085  29.273  30.445  1.00  0.00     0.200 A 
ATOM     78  F   UNL A   1      36.527  30.149  28.325  1.00  0.00    -0.200 F 
ATOM     79  F   UNL A   1      35.831  29.476  30.874  1.00  0.00    -0.200 F 
ENDBRANCH  55  69
BRANCH  56  80
ATOM     80  C   UNL A   1      48.943  26.925  26.291  1.00  0.00     0.064 A 
ATOM     81  C   UNL A   1      49.345  27.099  24.960  1.00  0.00     0.173 A 
ATOM     82  C   UNL A   1      49.868  26.371  27.187  1.00  0.00     0.173 A 
ATOM     83  F   UNL A   1      48.492  27.618  24.063  1.00  0.00    -0.203 F 
ATOM     84  C   UNL A   1      50.611  26.703  24.533  1.00  0.00     0.198 A 
ATOM     85  C   UNL A   1      51.142  25.996  26.765  1.00  0.00     0.198 A 
ATOM     86  F   UNL A   1      49.534  26.203  28.475  1.00  0.00    -0.203 F 
ATOM     87  F   UNL A   1      50.955  26.839  23.245  1.00  0.00    -0.200 F 
ATOM     88  C   UNL A   1      51.508  26.152  25.436  1.00  0.00     0.200 A 
ATOM     89  F   UNL A   1      52.011  25.480  27.644  1.00  0.00    -0.200 F 
ATOM     90  F   UNL A   1      52.724  25.767  25.025  1.00  0.00    -0.200 F 
ENDBRANCH  56  80
BRANCH  68  91
ATOM     91  C   UNL A   1      45.913  32.558  29.089  1.00  0.00     0.064 A 
ATOM     92  C   UNL A   1      46.467  32.823  30.352  1.00  0.00     0.173 A 
ATOM     93  C   UNL A   1      45.795  33.626  28.187  1.00  0.00     0.173 A 
ATOM     94  F   UNL A   1      46.597  31.839  31.254  1.00  0.00    -0.203 F 
ATOM     95  C   UNL A   1      46.872  34.109  30.701  1.00  0.00     0.198 A 
ATOM     96  C   UNL A   1      46.228  34.904  28.530  1.00  0.00     0.198 A 
ATOM     97  F   UNL A   1      45.285  33.422  26.963  1.00  0.00    -0.203 F 
ATOM     98  F   UNL A   1      47.369  34.344  31.923  1.00  0.00    -0.200 F 
ATOM     99  C   UNL A   1      46.758  35.147  29.789  1.00  0.00     0.200 A 
ATOM    100  F   UNL A   1      46.140  35.901  27.638  1.00  0.00    -0.200 F 
ATOM    101  F   UNL A   1      47.161  36.380  30.121  1.00  0.00    -0.200 F 
ENDBRANCH  68  91
ENDBRANCH  42  43
ENDBRANCH  34  37
ENDBRANCH  32  33
ENDBRANCH  31  32
ENDBRANCH  30  31
ENDBRANCH  29  30
ENDBRANCH   1  29
TORSDOF 18
ENDMDL
MODEL 2
REMARK VINA RESULT:     -12.4      2.277      8.517
REMARK SMILES COc1ccc(/C=C(\CCC(=O)NCCCCCCNC(=O)c2ccc(-c3c4nc(c(-c5c(F)c(F)c(F)c(F)c5F)c5ccc([nH]5)c(-c5c(F)c(F)c(F)c(F)c5F)c5nc(c(-c6c(F)c(F)c(F)c(F)c6F)c6ccc3[nH]6)C=C5)C=C4)cc2)c2nc3ccccc3s2)cc1F
REMARK SMILES IDX 15 1 14 2 13 3 11 4 12 5 10 7 9 8 8 9 7 10 6 11 3 12 4 13
REMARK SMILES IDX 96 14 5 15 95 16 97 17 2 18 1 19 86 20 87 21 94 22 88 23
REMARK SMILES IDX 93 24 89 25 92 26 90 27 91 28 16 29 17 30 18 31 19 32 20 33
REMARK SMILES IDX 21 34 22 36 23 37 24 38 85 39 25 40 84 41 26 42 27 43 28 44
REMARK SMILES IDX 78 45 29 46 83 47 77 48 79 49 30 50 82 51 76 52 75 53 31 55
REMARK SMILES IDX 63 56 43 57 62 58 44 59 47 60 61 61 80 62 45 63 46 64 60 66
REMARK SMILES IDX 81 67 48 68 32 69 33 70 41 71 34 72 35 73 39 74 42 75 36 76
REMARK SMILES IDX 37 77 40 78 38 79 64 80 65 81 73 82 66 83 67 84 71 85 74 86
REMARK SMILES IDX 68 87 69 88 72 89 70 90 49 91 50 92 58 93 51 94 52 95 56 96
REMARK SMILES IDX 59 97 53 98 54 99 57 100 55 101
REMARK H PARENT 13 6 20 35 79 54 47 65
REMARK Flexibility Score: inf
ROOT
ATOM      1  C   UNL A   1      36.556  22.681  23.744  1.00  0.00     0.021 C 
ENDROOT
BRANCH   1   2
ATOM      2  C   UNL A   1      35.186  23.348  23.829  1.00  0.00     0.116 C 
BRANCH   2   3
ATOM      3  N   UNL A   1      34.460  23.315  22.572  1.00  0.00    -0.356 N 
ATOM      4  C   UNL A   1      33.521  24.153  22.048  1.00  0.00     0.220 C 
ATOM      5  O   UNL A   1      33.137  23.939  20.896  1.00  0.00    -0.275 OA
ATOM      6  H   UNL A   1      34.686  22.551  21.995  1.00  0.00     0.163 HD
BRANCH   4   7
ATOM      7  C   UNL A   1      32.971  25.321  22.843  1.00  0.00     0.105 C 
BRANCH   7   8
ATOM      8  C   UNL A   1      31.472  25.513  22.608  1.00  0.00     0.048 C 
BRANCH   8   9
ATOM      9  C   UNL A   1      30.646  25.449  23.903  1.00  0.00    -0.011 C 
ATOM     10  C   UNL A   1      29.673  26.347  24.223  1.00  0.00     0.015 C 
BRANCH  10  11
ATOM     11  C   UNL A   1      29.101  27.505  23.463  1.00  0.00    -0.022 A 
ATOM     12  C   UNL A   1      28.146  29.897  22.219  1.00  0.00     0.154 A 
ATOM     13  C   UNL A   1      27.280  29.043  22.885  1.00  0.00     0.050 A 
ATOM     14  C   UNL A   1      29.490  29.544  22.147  1.00  0.00     0.165 A 
ATOM     15  C   UNL A   1      27.753  27.881  23.506  1.00  0.00     0.012 A 
ATOM     16  C   UNL A   1      29.963  28.364  22.753  1.00  0.00     0.051 A 
ATOM     17  F   UNL A   1      30.382  30.352  21.554  1.00  0.00    -0.203 F 
BRANCH  12  18
ATOM     18  O   UNL A   1      27.580  31.072  21.817  1.00  0.00    -0.494 OA
ATOM     19  C   UNL A   1      28.048  32.246  22.465  1.00  0.00     0.278 C 
ENDBRANCH  12  18
ENDBRANCH  10  11
BRANCH   9  20
ATOM     20  C   UNL A   1      31.093  24.434  24.853  1.00  0.00     0.120 A 
ATOM     21  N   UNL A   1      31.068  23.164  24.505  1.00  0.00    -0.236 NA
ATOM     22  S   UNL A   1      31.777  24.667  26.430  1.00  0.00    -0.114 S 
ATOM     23  C   UNL A   1      31.891  22.401  25.283  1.00  0.00     0.082 A 
ATOM     24  C   UNL A   1      32.390  23.042  26.411  1.00  0.00     0.055 A 
ATOM     25  C   UNL A   1      32.284  21.084  24.981  1.00  0.00     0.030 A 
ATOM     26  C   UNL A   1      33.273  22.379  27.283  1.00  0.00     0.021 A 
ATOM     27  C   UNL A   1      33.202  20.439  25.805  1.00  0.00     0.002 A 
ATOM     28  C   UNL A   1      33.685  21.079  26.943  1.00  0.00     0.002 A 
ENDBRANCH   9  20
ENDBRANCH   8   9
ENDBRANCH   7   8
ENDBRANCH   4   7
ENDBRANCH   2   3
ENDBRANCH   1   2
BRANCH   1  29
ATOM     29  C   UNL A   1      36.998  21.942  25.013  1.00  0.00     0.002 C 
BRANCH  29  30
ATOM     30  C   UNL A   1      36.759  20.430  25.000  1.00  0.00     0.002 C 
BRANCH  30  31
ATOM     31  C   UNL A   1      38.023  19.565  24.962  1.00  0.00     0.021 C 
BRANCH  31  32
ATOM     32  C   UNL A   1      39.187  20.068  25.815  1.00  0.00     0.116 C 
BRANCH  32  33
ATOM     33  N   UNL A   1      40.251  19.084  25.938  1.00  0.00    -0.352 N 
ATOM     34  C   UNL A   1      41.597  19.276  26.111  1.00  0.00     0.251 C 
ATOM     35  H   UNL A   1      39.964  18.143  25.888  1.00  0.00     0.163 HD
ATOM     36  O   UNL A   1      42.382  18.330  25.984  1.00  0.00    -0.269 OA
BRANCH  34  37
ATOM     37  C   UNL A   1      42.124  20.619  26.425  1.00  0.00     0.039 A 
ATOM     38  C   UNL A   1      42.436  21.490  25.379  1.00  0.00     0.014 A 
ATOM     39  C   UNL A   1      42.315  21.021  27.751  1.00  0.00     0.014 A 
ATOM     40  C   UNL A   1      42.867  22.788  25.664  1.00  0.00     0.010 A 
ATOM     41  C   UNL A   1      42.668  22.338  28.034  1.00  0.00     0.010 A 
ATOM     42  C   UNL A   1      42.947  23.236  26.994  1.00  0.00    -0.014 A 
BRANCH  42  43
ATOM     43  C   UNL A   1      43.306  24.644  27.305  1.00  0.00     0.031 A 
ATOM     44  C   UNL A   1      44.691  25.161  27.040  1.00  0.00     0.074 A 
ATOM     45  C   UNL A   1      42.388  25.453  27.871  1.00  0.00     0.049 A 
ATOM     46  N   UNL A   1      45.184  26.356  27.254  1.00  0.00    -0.248 NA
ATOM     47  C   UNL A   1      45.659  24.203  26.486  1.00  0.00     0.031 C 
ATOM     48  C   UNL A   1      41.024  25.059  28.225  1.00  0.00     0.029 A 
ATOM     49  N   UNL A   1      42.460  26.772  28.241  1.00  0.00    -0.354 N 
ATOM     50  C   UNL A   1      46.513  26.292  26.860  1.00  0.00     0.074 A 
ATOM     51  C   UNL A   1      46.770  24.925  26.461  1.00  0.00     0.031 C 
ATOM     52  C   UNL A   1      40.374  26.125  28.717  1.00  0.00     0.029 A 
ATOM     53  C   UNL A   1      41.283  27.266  28.745  1.00  0.00     0.049 A 
ATOM     54  H   UNL A   1      43.279  27.313  28.153  1.00  0.00     0.167 HD
ATOM     55  C   UNL A   1      47.429  27.289  26.804  1.00  0.00     0.037 A 
ATOM     56  C   UNL A   1      40.965  28.504  29.171  1.00  0.00     0.037 A 
ATOM     57  C   UNL A   1      47.170  28.650  27.193  1.00  0.00     0.049 A 
ATOM     58  C   UNL A   1      42.001  29.592  29.122  1.00  0.00     0.074 A 
ATOM     59  C   UNL A   1      48.020  29.742  27.133  1.00  0.00     0.029 A 
ATOM     60  N   UNL A   1      45.971  29.109  27.721  1.00  0.00    -0.354 N 
ATOM     61  N   UNL A   1      43.239  29.533  28.697  1.00  0.00    -0.248 NA
ATOM     62  C   UNL A   1      41.594  30.916  29.609  1.00  0.00     0.031 C 
ATOM     63  C   UNL A   1      47.351  30.848  27.668  1.00  0.00     0.029 A 
ATOM     64  C   UNL A   1      46.066  30.460  28.014  1.00  0.00     0.049 A 
ATOM     65  H   UNL A   1      45.170  28.554  27.867  1.00  0.00     0.167 HD
ATOM     66  C   UNL A   1      43.756  30.812  28.851  1.00  0.00     0.074 A 
ATOM     67  C   UNL A   1      42.690  31.630  29.392  1.00  0.00     0.031 C 
ATOM     68  C   UNL A   1      45.003  31.263  28.568  1.00  0.00     0.037 A 
BRANCH  55  69
ATOM     69  C   UNL A   1      48.797  26.940  26.292  1.00  0.00     0.064 A 
ATOM     70  C   UNL A   1      49.103  27.048  24.927  1.00  0.00     0.173 A 
ATOM     71  C   UNL A   1      49.803  26.472  27.153  1.00  0.00     0.173 A 
ATOM     72  F   UNL A   1      48.177  27.483  24.060  1.00  0.00    -0.203 F 
ATOM     73  C   UNL A   1      50.363  26.703  24.445  1.00  0.00     0.198 A 
ATOM     74  C   UNL A   1      51.072  26.160  26.672  1.00  0.00     0.198 A 
ATOM     75  F   UNL A   1      49.569  26.360  28.469  1.00  0.00    -0.203 F 
ATOM     76  F   UNL A   1      50.625  26.796  23.134  1.00  0.00    -0.200 F 
ATOM     77  C   UNL A   1      51.349  26.269  25.318  1.00  0.00     0.200 A 
ATOM     78  F   UNL A   1      52.032  25.770  27.522  1.00  0.00    -0.200 F 
ATOM     79  F   UNL A   1      52.569  25.964  24.855  1.00  0.00    -0.200 F 
ENDBRANCH  55  69
BRANCH  56  80
ATOM     80  C   UNL A   1      39.577  28.779  29.618  1.00  0.00     0.064 A 
ATOM     81  C   UNL A   1      38.603  29.266  28.736  1.00  0.00     0.173 A 
ATOM     82  C   UNL A   1      39.220  28.626  30.966  1.00  0.00     0.173 A 
ATOM     83  F   UNL A   1      38.898  29.436  27.438  1.00  0.00    -0.203 F 
ATOM     84  C   UNL A   1      37.333  29.617  29.188  1.00  0.00     0.198 A 
ATOM     85  C   UNL A   1      37.944  28.957  31.414  1.00  0.00     0.198 A 
ATOM     86  F   UNL A   1      40.114  28.147  31.843  1.00  0.00    -0.203 F 
ATOM     87  F   UNL A   1      36.434  30.122  28.332  1.00  0.00    -0.200 F 
ATOM     88  C   UNL A   1      37.005  29.463  30.527  1.00  0.00     0.200 A 
ATOM     89  F   UNL A   1      37.625  28.790  32.705  1.00  0.00    -0.200 F 
ATOM     90  F   UNL A   1      35.785  29.805  30.964  1.00  0.00    -0.200 F 
ENDBRANCH  56  80
BRANCH  68  91
ATOM     91  C   UNL A   1      45.293  32.711  28.837  1.00  0.00     0.064 A 
ATOM     92  C   UNL A   1      45.079  33.679  27.843  1.00  0.00     0.173 A 
ATOM     93  C   UNL A   1      45.840  33.134  30.058  1.00  0.00     0.173 A 
ATOM     94  F   UNL A   1      44.565  33.327  26.655  1.00  0.00    -0.203 F 
ATOM     95  C   UNL A   1      45.415  35.014  28.057  1.00  0.00     0.198 A 
ATOM     96  C   UNL A   1      46.146  34.474  30.278  1.00  0.00     0.198 A 
ATOM     97  F   UNL A   1      46.049  32.250  31.045  1.00  0.00    -0.203 F 
ATOM     98  F   UNL A   1      45.231  35.914  27.082  1.00  0.00    -0.200 F 
ATOM     99  C   UNL A   1      45.942  35.411  29.276  1.00  0.00     0.200 A 
ATOM    100  F   UNL A   1      46.632  34.861  31.467  1.00  0.00    -0.200 F 
ATOM    101  F   UNL A   1      46.250  36.698  29.487  1.00  0.00    -0.200 F 
ENDBRANCH  68  91
ENDBRANCH  42  43
ENDBRANCH  34  37
ENDBRANCH  32  33
ENDBRANCH  31  32
ENDBRANCH  30  31
ENDBRANCH  29  30
ENDBRANCH   1  29
TORSDOF 18
ENDMDL
MODEL 3
REMARK VINA RESULT:     -12.2      1.659      7.350
REMARK SMILES COc1ccc(/C=C(\CCC(=O)NCCCCCCNC(=O)c2ccc(-c3c4nc(c(-c5c(F)c(F)c(F)c(F)c5F)c5ccc([nH]5)c(-c5c(F)c(F)c(F)c(F)c5F)c5nc(c(-c6c(F)c(F)c(F)c(F)c6F)c6ccc3[nH]6)C=C5)C=C4)cc2)c2nc3ccccc3s2)cc1F
REMARK SMILES IDX 15 1 14 2 13 3 11 4 12 5 10 7 9 8 8 9 7 10 6 11 3 12 4 13
REMARK SMILES IDX 96 14 5 15 95 16 97 17 2 18 1 19 86 20 87 21 94 22 88 23
REMARK SMILES IDX 93 24 89 25 92 26 90 27 91 28 16 29 17 30 18 31 19 32 20 33
REMARK SMILES IDX 21 34 22 36 23 37 24 38 85 39 25 40 84 41 26 42 27 43 28 44
REMARK SMILES IDX 78 45 29 46 83 47 77 48 79 49 30 50 82 51 76 52 75 53 31 55
REMARK SMILES IDX 63 56 43 57 62 58 44 59 47 60 61 61 80 62 45 63 46 64 60 66
REMARK SMILES IDX 81 67 48 68 32 69 33 70 41 71 34 72 35 73 39 74 42 75 36 76
REMARK SMILES IDX 37 77 40 78 38 79 64 80 65 81 73 82 66 83 67 84 71 85 74 86
REMARK SMILES IDX 68 87 69 88 72 89 70 90 49 91 50 92 58 93 51 94 52 95 56 96
REMARK SMILES IDX 59 97 53 98 54 99 57 100 55 101
REMARK H PARENT 13 6 20 35 79 54 47 65
REMARK Flexibility Score: inf
ROOT
ATOM      1  C   UNL A   1      39.316  22.803  26.474  1.00  0.00     0.021 C 
ENDROOT
BRANCH   1   2
ATOM      2  C   UNL A   1      38.077  22.062  25.975  1.00  0.00     0.116 C 
BRANCH   2   3
ATOM      3  N   UNL A   1      37.777  22.334  24.581  1.00  0.00    -0.356 N 
ATOM      4  C   UNL A   1      36.615  22.676  23.956  1.00  0.00     0.220 C 
ATOM      5  O   UNL A   1      36.666  22.953  22.755  1.00  0.00    -0.275 OA
ATOM      6  H   UNL A   1      38.552  22.258  23.979  1.00  0.00     0.163 HD
BRANCH   4   7
ATOM      7  C   UNL A   1      35.300  22.733  24.708  1.00  0.00     0.105 C 
BRANCH   7   8
ATOM      8  C   UNL A   1      34.111  22.903  23.761  1.00  0.00     0.048 C 
BRANCH   8   9
ATOM      9  C   UNL A   1      32.754  22.837  24.480  1.00  0.00    -0.011 C 
ATOM     10  C   UNL A   1      32.103  21.673  24.759  1.00  0.00     0.015 C 
BRANCH  10  11
ATOM     11  C   UNL A   1      32.495  20.242  24.553  1.00  0.00    -0.022 A 
ATOM     12  C   UNL A   1      32.943  17.448  24.130  1.00  0.00     0.154 A 
ATOM     13  C   UNL A   1      33.160  18.027  25.371  1.00  0.00     0.050 A 
ATOM     14  C   UNL A   1      32.528  18.270  23.087  1.00  0.00     0.165 A 
ATOM     15  C   UNL A   1      32.925  19.392  25.579  1.00  0.00     0.012 A 
ATOM     16  C   UNL A   1      32.311  19.647  23.289  1.00  0.00     0.051 A 
ATOM     17  F   UNL A   1      32.258  17.758  21.876  1.00  0.00    -0.203 F 
BRANCH  12  18
ATOM     18  O   UNL A   1      33.042  16.087  24.119  1.00  0.00    -0.494 OA
ATOM     19  C   UNL A   1      32.927  15.441  25.378  1.00  0.00     0.278 C 
ENDBRANCH  12  18
ENDBRANCH  10  11
BRANCH   9  20
ATOM     20  C   UNL A   1      32.129  24.137  24.707  1.00  0.00     0.120 A 
ATOM     21  N   UNL A   1      32.602  24.930  25.646  1.00  0.00    -0.236 NA
ATOM     22  S   UNL A   1      30.838  24.877  23.816  1.00  0.00    -0.114 S 
ATOM     23  C   UNL A   1      32.229  26.230  25.459  1.00  0.00     0.082 A 
ATOM     24  C   UNL A   1      31.250  26.424  24.490  1.00  0.00     0.055 A 
ATOM     25  C   UNL A   1      32.799  27.331  26.123  1.00  0.00     0.030 A 
ATOM     26  C   UNL A   1      30.795  27.718  24.177  1.00  0.00     0.021 A 
ATOM     27  C   UNL A   1      32.398  28.619  25.781  1.00  0.00     0.002 A 
ATOM     28  C   UNL A   1      31.404  28.807  24.824  1.00  0.00     0.002 A 
ENDBRANCH   9  20
ENDBRANCH   8   9
ENDBRANCH   7   8
ENDBRANCH   4   7
ENDBRANCH   2   3
ENDBRANCH   1   2
BRANCH   1  29
ATOM     29  C   UNL A   1      40.642  22.059  26.271  1.00  0.00     0.002 C 
BRANCH  29  30
ATOM     30  C   UNL A   1      40.748  20.713  26.994  1.00  0.00     0.002 C 
BRANCH  30  31
ATOM     31  C   UNL A   1      41.147  19.523  26.115  1.00  0.00     0.021 C 
BRANCH  31  32
ATOM     32  C   UNL A   1      42.454  18.833  26.500  1.00  0.00     0.116 C 
BRANCH  32  33
ATOM     33  N   UNL A   1      43.362  18.694  25.373  1.00  0.00    -0.352 N 
ATOM     34  C   UNL A   1      44.036  19.662  24.674  1.00  0.00     0.251 C 
ATOM     35  H   UNL A   1      43.515  17.771  25.066  1.00  0.00     0.163 HD
ATOM     36  O   UNL A   1      44.601  19.382  23.611  1.00  0.00    -0.269 OA
BRANCH  34  37
ATOM     37  C   UNL A   1      44.070  21.052  25.171  1.00  0.00     0.039 A 
ATOM     38  C   UNL A   1      44.404  21.290  26.506  1.00  0.00     0.014 A 
ATOM     39  C   UNL A   1      43.770  22.122  24.322  1.00  0.00     0.014 A 
ATOM     40  C   UNL A   1      44.509  22.604  26.969  1.00  0.00     0.010 A 
ATOM     41  C   UNL A   1      43.953  23.431  24.764  1.00  0.00     0.010 A 
ATOM     42  C   UNL A   1      44.325  23.686  26.091  1.00  0.00    -0.014 A 
BRANCH  42  43
ATOM     43  C   UNL A   1      44.534  25.084  26.548  1.00  0.00     0.031 A 
ATOM     44  C   UNL A   1      45.890  25.726  26.463  1.00  0.00     0.074 A 
ATOM     45  C   UNL A   1      43.503  25.768  27.082  1.00  0.00     0.049 A 
ATOM     46  N   UNL A   1      46.258  26.931  26.819  1.00  0.00    -0.248 NA
ATOM     47  C   UNL A   1      46.982  24.896  25.934  1.00  0.00     0.031 C 
ATOM     48  C   UNL A   1      42.151  25.242  27.267  1.00  0.00     0.029 A 
ATOM     49  N   UNL A   1      43.430  27.052  27.562  1.00  0.00    -0.354 N 
ATOM     50  C   UNL A   1      47.619  27.003  26.556  1.00  0.00     0.074 A 
ATOM     51  C   UNL A   1      48.026  25.700  26.076  1.00  0.00     0.031 C 
ATOM     52  C   UNL A   1      41.371  26.209  27.775  1.00  0.00     0.029 A 
ATOM     53  C   UNL A   1      42.174  27.409  27.984  1.00  0.00     0.049 A 
ATOM     54  H   UNL A   1      44.205  27.659  27.599  1.00  0.00     0.167 HD
ATOM     55  C   UNL A   1      48.449  28.069  26.671  1.00  0.00     0.037 A 
ATOM     56  C   UNL A   1      41.715  28.577  28.474  1.00  0.00     0.037 A 
ATOM     57  C   UNL A   1      48.042  29.367  27.139  1.00  0.00     0.049 A 
ATOM     58  C   UNL A   1      42.656  29.741  28.614  1.00  0.00     0.074 A 
ATOM     59  C   UNL A   1      48.799  30.521  27.250  1.00  0.00     0.029 A 
ATOM     60  N   UNL A   1      46.765  29.685  27.580  1.00  0.00    -0.354 N 
ATOM     61  N   UNL A   1      43.929  29.814  28.311  1.00  0.00    -0.248 NA
ATOM     62  C   UNL A   1      42.096  30.983  29.163  1.00  0.00     0.031 C 
ATOM     63  C   UNL A   1      47.993  31.522  27.803  1.00  0.00     0.029 A 
ATOM     64  C   UNL A   1      46.718  31.009  27.988  1.00  0.00     0.049 A 
ATOM     65  H   UNL A   1      46.003  29.061  27.601  1.00  0.00     0.167 HD
ATOM     66  C   UNL A   1      44.320  31.109  28.617  1.00  0.00     0.074 A 
ATOM     67  C   UNL A   1      43.144  31.794  29.113  1.00  0.00     0.031 C 
ATOM     68  C   UNL A   1      45.546  31.677  28.496  1.00  0.00     0.037 A 
BRANCH  55  69
ATOM     69  C   UNL A   1      49.884  27.871  26.270  1.00  0.00     0.064 A 
ATOM     70  C   UNL A   1      50.253  27.828  24.918  1.00  0.00     0.173 A 
ATOM     71  C   UNL A   1      50.894  27.696  27.231  1.00  0.00     0.173 A 
ATOM     72  F   UNL A   1      49.328  27.982  23.959  1.00  0.00    -0.203 F 
ATOM     73  C   UNL A   1      51.578  27.622  24.542  1.00  0.00     0.198 A 
ATOM     74  C   UNL A   1      52.222  27.523  26.852  1.00  0.00     0.198 A 
ATOM     75  F   UNL A   1      50.598  27.739  28.538  1.00  0.00    -0.203 F 
ATOM     76  F   UNL A   1      51.903  27.565  23.243  1.00  0.00    -0.200 F 
ATOM     77  C   UNL A   1      52.562  27.479  25.508  1.00  0.00     0.200 A 
ATOM     78  F   UNL A   1      53.176  27.416  27.787  1.00  0.00    -0.200 F 
ATOM     79  F   UNL A   1      53.841  27.308  25.144  1.00  0.00    -0.200 F 
ENDBRANCH  55  69
BRANCH  56  80
ATOM     80  C   UNL A   1      40.273  28.706  28.802  1.00  0.00     0.064 A 
ATOM     81  C   UNL A   1      39.334  29.109  27.842  1.00  0.00     0.173 A 
ATOM     82  C   UNL A   1      39.821  28.496  30.112  1.00  0.00     0.173 A 
ATOM     83  F   UNL A   1      39.720  29.330  26.577  1.00  0.00    -0.203 F 
ATOM     84  C   UNL A   1      38.001  29.325  28.187  1.00  0.00     0.198 A 
ATOM     85  C   UNL A   1      38.483  28.691  30.451  1.00  0.00     0.198 A 
ATOM     86  F   UNL A   1      40.680  28.092  31.060  1.00  0.00    -0.203 F 
ATOM     87  F   UNL A   1      37.133  29.753  27.260  1.00  0.00    -0.200 F 
ATOM     88  C   UNL A   1      37.578  29.116  29.491  1.00  0.00     0.200 A 
ATOM     89  F   UNL A   1      38.075  28.471  31.708  1.00  0.00    -0.200 F 
ATOM     90  F   UNL A   1      36.297  29.328  29.823  1.00  0.00    -0.200 F 
ENDBRANCH  56  80
BRANCH  68  91
ATOM     91  C   UNL A   1      45.687  33.114  28.907  1.00  0.00     0.064 A 
ATOM     92  C   UNL A   1      45.471  34.146  27.980  1.00  0.00     0.173 A 
ATOM     93  C   UNL A   1      46.094  33.469  30.201  1.00  0.00     0.173 A 
ATOM     94  F   UNL A   1      45.087  33.861  26.727  1.00  0.00    -0.203 F 
ATOM     95  C   UNL A   1      45.672  35.479  28.331  1.00  0.00     0.198 A 
ATOM     96  C   UNL A   1      46.264  34.805  30.557  1.00  0.00     0.198 A 
ATOM     97  F   UNL A   1      46.299  32.521  31.128  1.00  0.00    -0.203 F 
ATOM     98  F   UNL A   1      45.490  36.445  27.421  1.00  0.00    -0.200 F 
ATOM     99  C   UNL A   1      46.062  35.808  29.621  1.00  0.00     0.200 A 
ATOM    100  F   UNL A   1      46.618  35.122  31.811  1.00  0.00    -0.200 F 
ATOM    101  F   UNL A   1      46.240  37.091  29.962  1.00  0.00    -0.200 F 
ENDBRANCH  68  91
ENDBRANCH  42  43
ENDBRANCH  34  37
ENDBRANCH  32  33
ENDBRANCH  31  32
ENDBRANCH  30  31
ENDBRANCH  29  30
ENDBRANCH   1  29
TORSDOF 18
ENDMDL
