MODEL 1
REMARK VINA RESULT:     -11.7      0.000      0.000
REMARK SMILES CCCCCCNC(=O)Oc1cccc(-c2ccc([C@@H](C)C(=O)NCCCCCCNC(=O)c3ccc(-c4c5nc(c(-c6c(F)c(F)c(F)c(F)c6F)c6ccc([nH]6)c(-c6c(F)c(F)c(F)c(F)c6F)c6nc(c(-c7c(F)c(F)c(F)c(F)c7F)c7ccc4[nH]7)C=C6)C=C5)cc3)cc2C(F)(F)F)c1
REMARK SMILES IDX 22 1 23 2 24 3 20 5 21 6 19 7 16 8 17 9 98 10 18 11 97 12
REMARK SMILES IDX 15 13 11 14 12 15 103 16 13 17 14 18 10 19 8 20 7 21 9 23
REMARK SMILES IDX 6 24 5 25 4 26 3 27 2 28 1 29 99 30 100 31 101 32 102 33
REMARK SMILES IDX 25 34 26 35 27 36 28 37 29 38 30 39 31 40 32 41 33 43 34 44
REMARK SMILES IDX 35 45 96 46 36 47 95 48 37 49 38 50 39 51 89 52 40 53 94 54
REMARK SMILES IDX 88 55 90 56 41 57 93 58 87 59 86 60 42 62 74 63 54 64 73 65
REMARK SMILES IDX 55 66 58 67 72 68 91 69 56 70 57 71 71 73 92 74 59 75 43 76
REMARK SMILES IDX 44 77 52 78 45 79 46 80 50 81 53 82 47 83 48 84 51 85 49 86
REMARK SMILES IDX 75 87 76 88 84 89 77 90 78 91 82 92 85 93 79 94 80 95 83 96
REMARK SMILES IDX 81 97 60 98 61 99 69 100 62 101 63 102 67 103 70 104 64 105
REMARK SMILES IDX 65 106 68 107 66 108
REMARK H PARENT 24 4 7 22 31 42 90 61 58 72
REMARK Flexibility Score: inf
ROOT
ATOM      1  C   UNL A   1      34.325  19.153  24.641  1.00  0.00     0.227 C 
ATOM      2  O   UNL A   1      34.799  18.083  24.241  1.00  0.00    -0.274 OA
ATOM      3  N   UNL A   1      35.186  19.987  25.284  1.00  0.00    -0.356 N 
ATOM      4  H   UNL A   1      36.121  19.681  25.277  1.00  0.00     0.163 HD
ENDROOT
BRANCH   1   5
ATOM      5  C   UNL A   1      32.847  19.478  24.377  1.00  0.00     0.105 C 
ATOM      6  C   UNL A   1      32.172  18.563  23.356  1.00  0.00     0.023 C 
BRANCH   5   7
ATOM      7  C   UNL A   1      32.550  20.962  24.213  1.00  0.00    -0.035 A 
ATOM      8  C   UNL A   1      32.041  23.782  24.032  1.00  0.00    -0.006 A 
ATOM      9  C   UNL A   1      32.663  23.056  22.997  1.00  0.00     0.009 A 
ATOM     10  C   UNL A   1      31.604  23.048  25.156  1.00  0.00     0.064 A 
ATOM     11  C   UNL A   1      32.864  21.677  23.063  1.00  0.00     0.005 A 
ATOM     12  C   UNL A   1      31.917  21.666  25.249  1.00  0.00     0.018 A 
BRANCH   8  13
ATOM     13  C   UNL A   1      31.880  25.242  23.848  1.00  0.00    -0.014 A 
ATOM     14  C   UNL A   1      32.293  27.543  24.500  1.00  0.00     0.133 A 
ATOM     15  C   UNL A   1      31.537  28.020  23.432  1.00  0.00     0.047 A 
ATOM     16  C   UNL A   1      32.493  26.175  24.700  1.00  0.00     0.056 A 
ATOM     17  C   UNL A   1      30.961  27.113  22.552  1.00  0.00     0.004 A 
ATOM     18  C   UNL A   1      31.117  25.742  22.770  1.00  0.00     0.009 A 
BRANCH  14  19
ATOM     19  O   UNL A   1      32.680  28.501  25.455  1.00  0.00    -0.410 OA
BRANCH  19  20
ATOM     20  C   UNL A   1      32.206  28.443  26.755  1.00  0.00     0.412 C 
ATOM     21  N   UNL A   1      32.840  29.328  27.586  1.00  0.00    -0.321 N 
ATOM     22  H   UNL A   1      32.586  29.302  28.536  1.00  0.00     0.167 HD
ATOM     23  O   UNL A   1      31.331  27.693  27.167  1.00  0.00    -0.224 OA
BRANCH  21  24
ATOM     24  C   UNL A   1      33.847  30.299  27.204  1.00  0.00     0.119 C 
BRANCH  24  25
ATOM     25  C   UNL A   1      33.652  31.638  27.915  1.00  0.00     0.021 C 
BRANCH  25  26
ATOM     26  C   UNL A   1      34.930  32.469  28.087  1.00  0.00     0.002 C 
BRANCH  26  27
ATOM     27  C   UNL A   1      34.714  33.946  28.430  1.00  0.00    -0.000 C 
BRANCH  27  28
ATOM     28  C   UNL A   1      34.195  34.224  29.843  1.00  0.00    -0.003 C 
ATOM     29  C   UNL A   1      33.245  35.410  29.912  1.00  0.00     0.004 C 
ENDBRANCH  27  28
ENDBRANCH  26  27
ENDBRANCH  25  26
ENDBRANCH  24  25
ENDBRANCH  21  24
ENDBRANCH  19  20
ENDBRANCH  14  19
ENDBRANCH   8  13
BRANCH  10  30
ATOM     30  C   UNL A   1      30.766  23.611  26.287  1.00  0.00     0.417 C 
ATOM     31  F   UNL A   1      30.045  22.631  26.912  1.00  0.00    -0.166 F 
ATOM     32  F   UNL A   1      31.531  24.173  27.265  1.00  0.00    -0.166 F 
ATOM     33  F   UNL A   1      29.845  24.549  25.946  1.00  0.00    -0.166 F 
ENDBRANCH  10  30
ENDBRANCH   5   7
ENDBRANCH   1   5
BRANCH   3  34
ATOM     34  C   UNL A   1      34.981  21.241  25.975  1.00  0.00     0.116 C 
BRANCH  34  35
ATOM     35  C   UNL A   1      35.870  22.348  25.404  1.00  0.00     0.021 C 
BRANCH  35  36
ATOM     36  C   UNL A   1      37.265  21.870  24.991  1.00  0.00     0.002 C 
BRANCH  36  37
ATOM     37  C   UNL A   1      38.401  22.294  25.930  1.00  0.00     0.002 C 
BRANCH  37  38
ATOM     38  C   UNL A   1      39.383  21.184  26.319  1.00  0.00     0.021 C 
BRANCH  38  39
ATOM     39  C   UNL A   1      39.394  19.984  25.376  1.00  0.00     0.116 C 
BRANCH  39  40
ATOM     40  N   UNL A   1      40.380  18.993  25.776  1.00  0.00    -0.352 N 
ATOM     41  C   UNL A   1      41.698  19.157  26.121  1.00  0.00     0.251 C 
ATOM     42  H   UNL A   1      40.053  18.065  25.803  1.00  0.00     0.163 HD
ATOM     43  O   UNL A   1      42.440  18.184  26.204  1.00  0.00    -0.269 OA
BRANCH  41  44
ATOM     44  C   UNL A   1      42.231  20.509  26.389  1.00  0.00     0.039 A 
ATOM     45  C   UNL A   1      42.673  21.287  25.316  1.00  0.00     0.014 A 
ATOM     46  C   UNL A   1      42.332  20.992  27.696  1.00  0.00     0.014 A 
ATOM     47  C   UNL A   1      43.169  22.573  25.549  1.00  0.00     0.010 A 
ATOM     48  C   UNL A   1      42.766  22.296  27.923  1.00  0.00     0.010 A 
ATOM     49  C   UNL A   1      43.195  23.097  26.852  1.00  0.00    -0.014 A 
BRANCH  49  50
ATOM     50  C   UNL A   1      43.686  24.471  27.122  1.00  0.00     0.031 A 
ATOM     51  C   UNL A   1      42.733  25.525  27.614  1.00  0.00     0.074 A 
ATOM     52  C   UNL A   1      44.971  24.784  26.869  1.00  0.00     0.049 A 
ATOM     53  N   UNL A   1      42.939  26.803  27.810  1.00  0.00    -0.248 NA
ATOM     54  C   UNL A   1      41.356  25.089  27.900  1.00  0.00     0.031 C 
ATOM     55  C   UNL A   1      45.985  23.856  26.366  1.00  0.00     0.029 A 
ATOM     56  N   UNL A   1      45.643  25.975  26.990  1.00  0.00    -0.354 N 
ATOM     57  C   UNL A   1      41.722  27.320  28.233  1.00  0.00     0.074 A 
ATOM     58  C   UNL A   1      40.768  26.233  28.214  1.00  0.00     0.031 C 
ATOM     59  C   UNL A   1      47.153  24.509  26.238  1.00  0.00     0.029 A 
ATOM     60  C   UNL A   1      46.961  25.907  26.610  1.00  0.00     0.049 A 
ATOM     61  H   UNL A   1      45.219  26.801  27.318  1.00  0.00     0.167 HD
ATOM     62  C   UNL A   1      41.433  28.584  28.627  1.00  0.00     0.037 A 
ATOM     63  C   UNL A   1      47.904  26.867  26.559  1.00  0.00     0.037 A 
ATOM     64  C   UNL A   1      42.389  29.659  28.667  1.00  0.00     0.049 A 
ATOM     65  C   UNL A   1      47.545  28.269  26.978  1.00  0.00     0.074 A 
ATOM     66  C   UNL A   1      42.199  30.969  29.072  1.00  0.00     0.029 A 
ATOM     67  N   UNL A   1      43.719  29.545  28.292  1.00  0.00    -0.354 N 
ATOM     68  N   UNL A   1      46.401  28.736  27.413  1.00  0.00    -0.248 NA
ATOM     69  C   UNL A   1      48.614  29.276  26.901  1.00  0.00     0.031 C 
ATOM     70  C   UNL A   1      43.407  31.655  28.913  1.00  0.00     0.029 A 
ATOM     71  C   UNL A   1      44.359  30.762  28.449  1.00  0.00     0.049 A 
ATOM     72  H   UNL A   1      44.145  28.720  27.964  1.00  0.00     0.167 HD
ATOM     73  C   UNL A   1      46.622  30.077  27.699  1.00  0.00     0.074 A 
ATOM     74  C   UNL A   1      48.012  30.347  27.396  1.00  0.00     0.031 C 
ATOM     75  C   UNL A   1      45.751  31.003  28.170  1.00  0.00     0.037 A 
BRANCH  62  76
ATOM     76  C   UNL A   1      40.026  28.871  29.064  1.00  0.00     0.064 A 
ATOM     77  C   UNL A   1      39.052  29.303  28.151  1.00  0.00     0.173 A 
ATOM     78  C   UNL A   1      39.633  28.666  30.395  1.00  0.00     0.173 A 
ATOM     79  F   UNL A   1      39.380  29.525  26.869  1.00  0.00    -0.203 F 
ATOM     80  C   UNL A   1      37.742  29.539  28.559  1.00  0.00     0.198 A 
ATOM     81  C   UNL A   1      38.315  28.875  30.793  1.00  0.00     0.198 A 
ATOM     82  F   UNL A   1      40.524  28.249  31.307  1.00  0.00    -0.203 F 
ATOM     83  F   UNL A   1      36.838  29.988  27.677  1.00  0.00    -0.200 F 
ATOM     84  C   UNL A   1      37.372  29.316  29.877  1.00  0.00     0.200 A 
ATOM     85  F   UNL A   1      37.956  28.647  32.065  1.00  0.00    -0.200 F 
ATOM     86  F   UNL A   1      36.108  29.531  30.264  1.00  0.00    -0.200 F 
ENDBRANCH  62  76
BRANCH  63  87
ATOM     87  C   UNL A   1      49.284  26.543  26.112  1.00  0.00     0.064 A 
ATOM     88  C   UNL A   1      50.228  26.032  27.013  1.00  0.00     0.173 A 
ATOM     89  C   UNL A   1      49.698  26.766  24.791  1.00  0.00     0.173 A 
ATOM     90  F   UNL A   1      49.886  25.821  28.293  1.00  0.00    -0.203 F 
ATOM     91  C   UNL A   1      51.542  25.788  26.620  1.00  0.00     0.198 A 
ATOM     92  C   UNL A   1      51.004  26.494  24.391  1.00  0.00     0.198 A 
ATOM     93  F   UNL A   1      48.832  27.250  23.887  1.00  0.00    -0.203 F 
ATOM     94  F   UNL A   1      52.438  25.354  27.517  1.00  0.00    -0.200 F 
ATOM     95  C   UNL A   1      51.928  26.015  25.307  1.00  0.00     0.200 A 
ATOM     96  F   UNL A   1      51.370  26.702  23.119  1.00  0.00    -0.200 F 
ATOM     97  F   UNL A   1      53.193  25.785  24.929  1.00  0.00    -0.200 F 
ENDBRANCH  63  87
BRANCH  75  98
ATOM     98  C   UNL A   1      46.288  32.378  28.441  1.00  0.00     0.064 A 
ATOM     99  C   UNL A   1      46.827  32.728  29.686  1.00  0.00     0.173 A 
ATOM    100  C   UNL A   1      46.298  33.344  27.422  1.00  0.00     0.173 A 
ATOM    101  F   UNL A   1      46.825  31.844  30.695  1.00  0.00    -0.203 F 
ATOM    102  C   UNL A   1      47.337  34.004  29.911  1.00  0.00     0.198 A 
ATOM    103  C   UNL A   1      46.834  34.609  27.642  1.00  0.00     0.198 A 
ATOM    104  F   UNL A   1      45.799  33.056  26.211  1.00  0.00    -0.203 F 
ATOM    105  F   UNL A   1      47.806  34.331  31.122  1.00  0.00    -0.200 F 
ATOM    106  C   UNL A   1      47.347  34.940  28.887  1.00  0.00     0.200 A 
ATOM    107  F   UNL A   1      46.855  35.509  26.649  1.00  0.00    -0.200 F 
ATOM    108  F   UNL A   1      47.845  36.165  29.103  1.00  0.00    -0.200 F 
ENDBRANCH  75  98
ENDBRANCH  49  50
ENDBRANCH  41  44
ENDBRANCH  39  40
ENDBRANCH  38  39
ENDBRANCH  37  38
ENDBRANCH  36  37
ENDBRANCH  35  36
ENDBRANCH  34  35
ENDBRANCH   3  34
TORSDOF 23
ENDMDL
MODEL 2
REMARK VINA RESULT:     -11.6      5.961      9.638
REMARK SMILES CCCCCCNC(=O)Oc1cccc(-c2ccc([C@@H](C)C(=O)NCCCCCCNC(=O)c3ccc(-c4c5nc(c(-c6c(F)c(F)c(F)c(F)c6F)c6ccc([nH]6)c(-c6c(F)c(F)c(F)c(F)c6F)c6nc(c(-c7c(F)c(F)c(F)c(F)c7F)c7ccc4[nH]7)C=C6)C=C5)cc3)cc2C(F)(F)F)c1
REMARK SMILES IDX 22 1 23 2 24 3 20 5 21 6 19 7 16 8 17 9 98 10 18 11 97 12
REMARK SMILES IDX 15 13 11 14 12 15 103 16 13 17 14 18 10 19 8 20 7 21 9 23
REMARK SMILES IDX 6 24 5 25 4 26 3 27 2 28 1 29 99 30 100 31 101 32 102 33
REMARK SMILES IDX 25 34 26 35 27 36 28 37 29 38 30 39 31 40 32 41 33 43 34 44
REMARK SMILES IDX 35 45 96 46 36 47 95 48 37 49 38 50 39 51 89 52 40 53 94 54
REMARK SMILES IDX 88 55 90 56 41 57 93 58 87 59 86 60 42 62 74 63 54 64 73 65
REMARK SMILES IDX 55 66 58 67 72 68 91 69 56 70 57 71 71 73 92 74 59 75 43 76
REMARK SMILES IDX 44 77 52 78 45 79 46 80 50 81 53 82 47 83 48 84 51 85 49 86
REMARK SMILES IDX 75 87 76 88 84 89 77 90 78 91 82 92 85 93 79 94 80 95 83 96
REMARK SMILES IDX 81 97 60 98 61 99 69 100 62 101 63 102 67 103 70 104 64 105
REMARK SMILES IDX 65 106 68 107 66 108
REMARK H PARENT 24 4 7 22 31 42 90 61 58 72
REMARK Flexibility Score: inf
ROOT
ATOM      1  C   UNL A   1      39.612  27.590  29.590  1.00  0.00     0.227 C 
ATOM      2  O   UNL A   1      40.243  27.842  30.624  1.00  0.00    -0.274 OA
ATOM      3  N   UNL A   1      39.754  26.332  29.093  1.00  0.00    -0.356 N 
ATOM      4  H   UNL A   1      40.277  25.730  29.670  1.00  0.00     0.163 HD
ENDROOT
BRANCH   1   5
ATOM      5  C   UNL A   1      38.715  28.667  28.962  1.00  0.00     0.105 C 
ATOM      6  C   UNL A   1      39.210  29.194  27.616  1.00  0.00     0.023 C 
BRANCH   5   7
ATOM      7  C   UNL A   1      38.235  29.732  29.938  1.00  0.00    -0.035 A 
ATOM      8  C   UNL A   1      37.336  31.834  31.675  1.00  0.00    -0.006 A 
ATOM      9  C   UNL A   1      36.722  30.566  31.639  1.00  0.00     0.009 A 
ATOM     10  C   UNL A   1      38.474  32.019  30.861  1.00  0.00     0.064 A 
ATOM     11  C   UNL A   1      37.192  29.527  30.833  1.00  0.00     0.005 A 
ATOM     12  C   UNL A   1      38.867  30.986  29.969  1.00  0.00     0.018 A 
BRANCH   8  13
ATOM     13  C   UNL A   1      36.749  32.856  32.571  1.00  0.00    -0.014 A 
ATOM     14  C   UNL A   1      35.559  34.934  32.964  1.00  0.00     0.133 A 
ATOM     15  C   UNL A   1      35.646  34.766  34.343  1.00  0.00     0.047 A 
ATOM     16  C   UNL A   1      36.076  33.985  32.079  1.00  0.00     0.056 A 
ATOM     17  C   UNL A   1      36.268  33.632  34.849  1.00  0.00     0.004 A 
ATOM     18  C   UNL A   1      36.828  32.700  33.972  1.00  0.00     0.009 A 
BRANCH  14  19
ATOM     19  O   UNL A   1      35.095  36.188  32.526  1.00  0.00    -0.410 OA
BRANCH  19  20
ATOM     20  C   UNL A   1      33.923  36.730  33.029  1.00  0.00     0.412 C 
ATOM     21  N   UNL A   1      32.819  36.346  32.319  1.00  0.00    -0.321 N 
ATOM     22  H   UNL A   1      31.958  36.737  32.593  1.00  0.00     0.167 HD
ATOM     23  O   UNL A   1      33.837  37.483  33.990  1.00  0.00    -0.224 OA
BRANCH  21  24
ATOM     24  C   UNL A   1      32.790  35.419  31.203  1.00  0.00     0.119 C 
BRANCH  24  25
ATOM     25  C   UNL A   1      33.023  36.122  29.866  1.00  0.00     0.021 C 
BRANCH  25  26
ATOM     26  C   UNL A   1      33.504  35.208  28.732  1.00  0.00     0.002 C 
BRANCH  26  27
ATOM     27  C   UNL A   1      35.018  34.980  28.668  1.00  0.00    -0.000 C 
BRANCH  27  28
ATOM     28  C   UNL A   1      35.457  33.520  28.523  1.00  0.00    -0.003 C 
ATOM     29  C   UNL A   1      34.475  32.533  29.136  1.00  0.00     0.004 C 
ENDBRANCH  27  28
ENDBRANCH  26  27
ENDBRANCH  25  26
ENDBRANCH  24  25
ENDBRANCH  21  24
ENDBRANCH  19  20
ENDBRANCH  14  19
ENDBRANCH   8  13
BRANCH  10  30
ATOM     30  C   UNL A   1      39.369  33.241  30.887  1.00  0.00     0.417 C 
ATOM     31  F   UNL A   1      40.503  33.048  30.147  1.00  0.00    -0.166 F 
ATOM     32  F   UNL A   1      38.765  34.334  30.341  1.00  0.00    -0.166 F 
ATOM     33  F   UNL A   1      39.820  33.632  32.107  1.00  0.00    -0.166 F 
ENDBRANCH  10  30
ENDBRANCH   5   7
ENDBRANCH   1   5
BRANCH   3  34
ATOM     34  C   UNL A   1      39.279  25.715  27.874  1.00  0.00     0.116 C 
BRANCH  34  35
ATOM     35  C   UNL A   1      40.075  24.451  27.537  1.00  0.00     0.021 C 
BRANCH  35  36
ATOM     36  C   UNL A   1      41.594  24.640  27.605  1.00  0.00     0.002 C 
BRANCH  36  37
ATOM     37  C   UNL A   1      42.410  23.341  27.602  1.00  0.00     0.002 C 
BRANCH  37  38
ATOM     38  C   UNL A   1      43.281  23.115  26.362  1.00  0.00     0.021 C 
BRANCH  38  39
ATOM     39  C   UNL A   1      43.246  24.250  25.343  1.00  0.00     0.116 C 
BRANCH  39  40
ATOM     40  N   UNL A   1      44.570  24.547  24.820  1.00  0.00    -0.352 N 
ATOM     41  C   UNL A   1      45.386  25.624  25.062  1.00  0.00     0.251 C 
ATOM     42  H   UNL A   1      44.936  23.876  24.201  1.00  0.00     0.163 HD
ATOM     43  O   UNL A   1      46.368  25.825  24.355  1.00  0.00    -0.269 OA
BRANCH  41  44
ATOM     44  C   UNL A   1      45.081  26.551  26.172  1.00  0.00     0.039 A 
ATOM     45  C   UNL A   1      46.099  26.897  27.064  1.00  0.00     0.014 A 
ATOM     46  C   UNL A   1      43.787  27.044  26.357  1.00  0.00     0.014 A 
ATOM     47  C   UNL A   1      45.832  27.782  28.112  1.00  0.00     0.010 A 
ATOM     48  C   UNL A   1      43.536  27.975  27.361  1.00  0.00     0.010 A 
ATOM     49  C   UNL A   1      44.554  28.348  28.253  1.00  0.00    -0.014 A 
BRANCH  49  50
ATOM     50  C   UNL A   1      44.254  29.315  29.339  1.00  0.00     0.031 A 
ATOM     51  C   UNL A   1      43.936  28.815  30.721  1.00  0.00     0.074 A 
ATOM     52  C   UNL A   1      44.209  30.633  29.068  1.00  0.00     0.049 A 
ATOM     53  N   UNL A   1      43.549  29.485  31.776  1.00  0.00    -0.248 NA
ATOM     54  C   UNL A   1      44.045  27.363  30.940  1.00  0.00     0.031 C 
ATOM     55  C   UNL A   1      44.472  31.238  27.761  1.00  0.00     0.029 A 
ATOM     56  N   UNL A   1      43.913  31.703  29.875  1.00  0.00    -0.354 N 
ATOM     57  C   UNL A   1      43.362  28.540  32.776  1.00  0.00     0.074 A 
ATOM     58  C   UNL A   1      43.625  27.244  32.190  1.00  0.00     0.031 C 
ATOM     59  C   UNL A   1      44.343  32.571  27.860  1.00  0.00     0.029 A 
ATOM     60  C   UNL A   1      43.949  32.912  29.224  1.00  0.00     0.049 A 
ATOM     61  H   UNL A   1      43.696  31.612  30.831  1.00  0.00     0.167 HD
ATOM     62  C   UNL A   1      43.026  28.738  34.074  1.00  0.00     0.037 A 
ATOM     63  C   UNL A   1      43.684  34.153  29.676  1.00  0.00     0.037 A 
ATOM     64  C   UNL A   1      42.787  30.030  34.661  1.00  0.00     0.049 A 
ATOM     65  C   UNL A   1      43.288  34.338  31.117  1.00  0.00     0.074 A 
ATOM     66  C   UNL A   1      42.463  30.336  35.971  1.00  0.00     0.029 A 
ATOM     67  N   UNL A   1      42.852  31.232  33.972  1.00  0.00    -0.354 N 
ATOM     68  N   UNL A   1      43.153  33.440  32.061  1.00  0.00    -0.248 NA
ATOM     69  C   UNL A   1      43.010  35.715  31.554  1.00  0.00     0.031 C 
ATOM     70  C   UNL A   1      42.302  31.722  36.068  1.00  0.00     0.029 A 
ATOM     71  C   UNL A   1      42.567  32.281  34.829  1.00  0.00     0.049 A 
ATOM     72  H   UNL A   1      43.070  31.325  33.016  1.00  0.00     0.167 HD
ATOM     73  C   UNL A   1      42.815  34.144  33.210  1.00  0.00     0.074 A 
ATOM     74  C   UNL A   1      42.774  35.544  32.846  1.00  0.00     0.031 C 
ATOM     75  C   UNL A   1      42.560  33.672  34.455  1.00  0.00     0.037 A 
BRANCH  62  76
ATOM     76  C   UNL A   1      42.913  27.528  34.955  1.00  0.00     0.064 A 
ATOM     77  C   UNL A   1      43.956  27.149  35.813  1.00  0.00     0.173 A 
ATOM     78  C   UNL A   1      41.733  26.769  34.981  1.00  0.00     0.173 A 
ATOM     79  F   UNL A   1      45.109  27.836  35.817  1.00  0.00    -0.203 F 
ATOM     80  C   UNL A   1      43.831  26.043  36.648  1.00  0.00     0.198 A 
ATOM     81  C   UNL A   1      41.601  25.680  35.839  1.00  0.00     0.198 A 
ATOM     82  F   UNL A   1      40.704  27.091  34.184  1.00  0.00    -0.203 F 
ATOM     83  F   UNL A   1      44.857  25.677  37.430  1.00  0.00    -0.200 F 
ATOM     84  C   UNL A   1      42.651  25.315  36.668  1.00  0.00     0.200 A 
ATOM     85  F   UNL A   1      40.455  24.985  35.866  1.00  0.00    -0.200 F 
ATOM     86  F   UNL A   1      42.528  24.258  37.482  1.00  0.00    -0.200 F 
ENDBRANCH  62  76
BRANCH  63  87
ATOM     87  C   UNL A   1      43.800  35.324  28.768  1.00  0.00     0.064 A 
ATOM     88  C   UNL A   1      45.043  35.927  28.530  1.00  0.00     0.173 A 
ATOM     89  C   UNL A   1      42.674  35.885  28.148  1.00  0.00     0.173 A 
ATOM     90  F   UNL A   1      46.146  35.440  29.118  1.00  0.00    -0.203 F 
ATOM     91  C   UNL A   1      45.152  37.065  27.734  1.00  0.00     0.198 A 
ATOM     92  C   UNL A   1      42.788  37.005  27.328  1.00  0.00     0.198 A 
ATOM     93  F   UNL A   1      41.461  35.343  28.339  1.00  0.00    -0.203 F 
ATOM     94  F   UNL A   1      46.344  37.655  27.571  1.00  0.00    -0.200 F 
ATOM     95  C   UNL A   1      44.024  37.601  27.130  1.00  0.00     0.200 A 
ATOM     96  F   UNL A   1      41.698  37.512  26.736  1.00  0.00    -0.200 F 
ATOM     97  F   UNL A   1      44.127  38.698  26.368  1.00  0.00    -0.200 F 
ENDBRANCH  63  87
BRANCH  75  98
ATOM     98  C   UNL A   1      42.271  34.680  35.528  1.00  0.00     0.064 A 
ATOM     99  C   UNL A   1      40.962  35.062  35.849  1.00  0.00     0.173 A 
ATOM    100  C   UNL A   1      43.322  35.239  36.272  1.00  0.00     0.173 A 
ATOM    101  F   UNL A   1      39.925  34.567  35.156  1.00  0.00    -0.203 F 
ATOM    102  C   UNL A   1      40.714  35.985  36.861  1.00  0.00     0.198 A 
ATOM    103  C   UNL A   1      43.069  36.140  37.302  1.00  0.00     0.198 A 
ATOM    104  F   UNL A   1      44.593  34.902  36.007  1.00  0.00    -0.203 F 
ATOM    105  F   UNL A   1      39.457  36.369  37.121  1.00  0.00    -0.200 F 
ATOM    106  C   UNL A   1      41.766  36.517  37.591  1.00  0.00     0.200 A 
ATOM    107  F   UNL A   1      44.086  36.644  38.015  1.00  0.00    -0.200 F 
ATOM    108  F   UNL A   1      41.525  37.400  38.571  1.00  0.00    -0.200 F 
ENDBRANCH  75  98
ENDBRANCH  49  50
ENDBRANCH  41  44
ENDBRANCH  39  40
ENDBRANCH  38  39
ENDBRANCH  37  38
ENDBRANCH  36  37
ENDBRANCH  35  36
ENDBRANCH  34  35
ENDBRANCH   3  34
TORSDOF 23
ENDMDL
MODEL 3
REMARK VINA RESULT:     -11.6      4.742      8.498
REMARK SMILES CCCCCCNC(=O)Oc1cccc(-c2ccc([C@@H](C)C(=O)NCCCCCCNC(=O)c3ccc(-c4c5nc(c(-c6c(F)c(F)c(F)c(F)c6F)c6ccc([nH]6)c(-c6c(F)c(F)c(F)c(F)c6F)c6nc(c(-c7c(F)c(F)c(F)c(F)c7F)c7ccc4[nH]7)C=C6)C=C5)cc3)cc2C(F)(F)F)c1
REMARK SMILES IDX 22 1 23 2 24 3 20 5 21 6 19 7 16 8 17 9 98 10 18 11 97 12
REMARK SMILES IDX 15 13 11 14 12 15 103 16 13 17 14 18 10 19 8 20 7 21 9 23
REMARK SMILES IDX 6 24 5 25 4 26 3 27 2 28 1 29 99 30 100 31 101 32 102 33
REMARK SMILES IDX 25 34 26 35 27 36 28 37 29 38 30 39 31 40 32 41 33 43 34 44
REMARK SMILES IDX 35 45 96 46 36 47 95 48 37 49 38 50 39 51 89 52 40 53 94 54
REMARK SMILES IDX 88 55 90 56 41 57 93 58 87 59 86 60 42 62 74 63 54 64 73 65
REMARK SMILES IDX 55 66 58 67 72 68 91 69 56 70 57 71 71 73 92 74 59 75 43 76
REMARK SMILES IDX 44 77 52 78 45 79 46 80 50 81 53 82 47 83 48 84 51 85 49 86
REMARK SMILES IDX 75 87 76 88 84 89 77 90 78 91 82 92 85 93 79 94 80 95 83 96
REMARK SMILES IDX 81 97 60 98 61 99 69 100 62 101 63 102 67 103 70 104 64 105
REMARK SMILES IDX 65 106 68 107 66 108
REMARK H PARENT 24 4 7 22 31 42 90 61 58 72
REMARK Flexibility Score: inf
ROOT
ATOM      1  C   UNL A   1      41.195  21.332  27.838  1.00  0.00     0.227 C 
ATOM      2  O   UNL A   1      40.750  20.250  28.240  1.00  0.00    -0.274 OA
ATOM      3  N   UNL A   1      41.947  22.037  28.725  1.00  0.00    -0.356 N 
ATOM      4  H   UNL A   1      42.130  21.559  29.565  1.00  0.00     0.163 HD
ENDROOT
BRANCH   1   5
ATOM      5  C   UNL A   1      40.903  21.789  26.401  1.00  0.00     0.105 C 
ATOM      6  C   UNL A   1      42.027  22.599  25.755  1.00  0.00     0.023 C 
BRANCH   5   7
ATOM      7  C   UNL A   1      39.502  22.345  26.191  1.00  0.00    -0.035 A 
ATOM      8  C   UNL A   1      36.808  23.281  25.861  1.00  0.00    -0.006 A 
ATOM      9  C   UNL A   1      37.848  24.113  26.320  1.00  0.00     0.009 A 
ATOM     10  C   UNL A   1      37.155  21.963  25.496  1.00  0.00     0.064 A 
ATOM     11  C   UNL A   1      39.168  23.673  26.432  1.00  0.00     0.005 A 
ATOM     12  C   UNL A   1      38.481  21.505  25.721  1.00  0.00     0.018 A 
BRANCH   8  13
ATOM     13  C   UNL A   1      35.448  23.861  25.784  1.00  0.00    -0.014 A 
ATOM     14  C   UNL A   1      33.805  25.349  24.795  1.00  0.00     0.133 A 
ATOM     15  C   UNL A   1      32.826  24.921  25.688  1.00  0.00     0.047 A 
ATOM     16  C   UNL A   1      35.095  24.813  24.815  1.00  0.00     0.056 A 
ATOM     17  C   UNL A   1      33.144  23.946  26.625  1.00  0.00     0.004 A 
ATOM     18  C   UNL A   1      34.443  23.438  26.681  1.00  0.00     0.009 A 
BRANCH  14  19
ATOM     19  O   UNL A   1      33.473  26.468  24.010  1.00  0.00    -0.410 OA
BRANCH  19  20
ATOM     20  C   UNL A   1      33.202  26.336  22.658  1.00  0.00     0.412 C 
ATOM     21  N   UNL A   1      32.233  27.203  22.229  1.00  0.00    -0.321 N 
ATOM     22  H   UNL A   1      31.956  27.126  21.288  1.00  0.00     0.167 HD
ATOM     23  O   UNL A   1      33.733  25.540  21.895  1.00  0.00    -0.224 OA
BRANCH  21  24
ATOM     24  C   UNL A   1      31.576  28.223  23.023  1.00  0.00     0.119 C 
BRANCH  24  25
ATOM     25  C   UNL A   1      30.056  28.061  23.022  1.00  0.00     0.021 C 
BRANCH  25  26
ATOM     26  C   UNL A   1      29.291  29.165  22.281  1.00  0.00     0.002 C 
BRANCH  26  27
ATOM     27  C   UNL A   1      27.897  29.483  22.831  1.00  0.00    -0.000 C 
BRANCH  27  28
ATOM     28  C   UNL A   1      27.724  30.891  23.408  1.00  0.00    -0.003 C 
ATOM     29  C   UNL A   1      29.031  31.514  23.875  1.00  0.00     0.004 C 
ENDBRANCH  27  28
ENDBRANCH  26  27
ENDBRANCH  25  26
ENDBRANCH  24  25
ENDBRANCH  21  24
ENDBRANCH  19  20
ENDBRANCH  14  19
ENDBRANCH   8  13
BRANCH  10  30
ATOM     30  C   UNL A   1      36.224  20.976  24.822  1.00  0.00     0.417 C 
ATOM     31  F   UNL A   1      35.313  20.463  25.704  1.00  0.00    -0.166 F 
ATOM     32  F   UNL A   1      35.481  21.558  23.837  1.00  0.00    -0.166 F 
ATOM     33  F   UNL A   1      36.806  19.886  24.258  1.00  0.00    -0.166 F 
ENDBRANCH  10  30
ENDBRANCH   5   7
ENDBRANCH   1   5
BRANCH   3  34
ATOM     34  C   UNL A   1      42.527  23.361  28.662  1.00  0.00     0.116 C 
BRANCH  34  35
ATOM     35  C   UNL A   1      43.764  23.474  29.556  1.00  0.00     0.021 C 
BRANCH  35  36
ATOM     36  C   UNL A   1      45.080  23.581  28.780  1.00  0.00     0.002 C 
BRANCH  36  37
ATOM     37  C   UNL A   1      45.002  23.153  27.308  1.00  0.00     0.002 C 
BRANCH  37  38
ATOM     38  C   UNL A   1      46.234  23.485  26.460  1.00  0.00     0.021 C 
BRANCH  38  39
ATOM     39  C   UNL A   1      46.852  24.851  26.741  1.00  0.00     0.116 C 
BRANCH  39  40
ATOM     40  N   UNL A   1      46.722  25.747  25.603  1.00  0.00    -0.352 N 
ATOM     41  C   UNL A   1      45.883  26.817  25.422  1.00  0.00     0.251 C 
ATOM     42  H   UNL A   1      47.328  25.558  24.851  1.00  0.00     0.163 HD
ATOM     43  O   UNL A   1      45.747  27.314  24.308  1.00  0.00    -0.269 OA
BRANCH  41  44
ATOM     44  C   UNL A   1      45.131  27.372  26.567  1.00  0.00     0.039 A 
ATOM     45  C   UNL A   1      44.153  26.586  27.181  1.00  0.00     0.014 A 
ATOM     46  C   UNL A   1      45.362  28.679  27.008  1.00  0.00     0.014 A 
ATOM     47  C   UNL A   1      43.442  27.091  28.273  1.00  0.00     0.010 A 
ATOM     48  C   UNL A   1      44.699  29.158  28.135  1.00  0.00     0.010 A 
ATOM     49  C   UNL A   1      43.728  28.371  28.774  1.00  0.00    -0.014 A 
BRANCH  49  50
ATOM     50  C   UNL A   1      43.009  28.917  29.953  1.00  0.00     0.031 A 
ATOM     51  C   UNL A   1      41.604  29.433  29.801  1.00  0.00     0.074 A 
ATOM     52  C   UNL A   1      43.637  29.002  31.140  1.00  0.00     0.049 A 
ATOM     53  N   UNL A   1      40.845  30.039  30.677  1.00  0.00    -0.248 NA
ATOM     54  C   UNL A   1      40.979  29.268  28.478  1.00  0.00     0.031 C 
ATOM     55  C   UNL A   1      45.006  28.559  31.407  1.00  0.00     0.029 A 
ATOM     56  N   UNL A   1      43.210  29.502  32.345  1.00  0.00    -0.354 N 
ATOM     57  C   UNL A   1      39.661  30.333  30.012  1.00  0.00     0.074 A 
ATOM     58  C   UNL A   1      39.821  29.888  28.645  1.00  0.00     0.031 C 
ATOM     59  C   UNL A   1      45.300  28.792  32.697  1.00  0.00     0.029 A 
ATOM     60  C   UNL A   1      44.158  29.435  33.338  1.00  0.00     0.049 A 
ATOM     61  H   UNL A   1      42.309  29.874  32.485  1.00  0.00     0.167 HD
ATOM     62  C   UNL A   1      38.533  30.899  30.505  1.00  0.00     0.037 A 
ATOM     63  C   UNL A   1      44.111  29.856  34.616  1.00  0.00     0.037 A 
ATOM     64  C   UNL A   1      38.369  31.321  31.871  1.00  0.00     0.049 A 
ATOM     65  C   UNL A   1      42.852  30.506  35.128  1.00  0.00     0.074 A 
ATOM     66  C   UNL A   1      37.256  31.884  32.473  1.00  0.00     0.029 A 
ATOM     67  N   UNL A   1      39.345  31.218  32.850  1.00  0.00    -0.354 N 
ATOM     68  N   UNL A   1      41.727  30.741  34.500  1.00  0.00    -0.248 NA
ATOM     69  C   UNL A   1      42.858  30.945  36.531  1.00  0.00     0.031 C 
ATOM     70  C   UNL A   1      37.571  32.151  33.809  1.00  0.00     0.029 A 
ATOM     71  C   UNL A   1      38.864  31.715  34.049  1.00  0.00     0.049 A 
ATOM     72  H   UNL A   1      40.247  30.846  32.713  1.00  0.00     0.167 HD
ATOM     73  C   UNL A   1      40.880  31.317  35.438  1.00  0.00     0.074 A 
ATOM     74  C   UNL A   1      41.619  31.388  36.681  1.00  0.00     0.031 C 
ATOM     75  C   UNL A   1      39.605  31.750  35.284  1.00  0.00     0.037 A 
BRANCH  62  76
ATOM     76  C   UNL A   1      37.379  31.081  29.564  1.00  0.00     0.064 A 
ATOM     77  C   UNL A   1      36.516  30.020  29.252  1.00  0.00     0.173 A 
ATOM     78  C   UNL A   1      37.100  32.339  29.007  1.00  0.00     0.173 A 
ATOM     79  F   UNL A   1      36.746  28.795  29.749  1.00  0.00    -0.203 F 
ATOM     80  C   UNL A   1      35.430  30.205  28.401  1.00  0.00     0.198 A 
ATOM     81  C   UNL A   1      35.996  32.527  28.179  1.00  0.00     0.198 A 
ATOM     82  F   UNL A   1      37.891  33.388  29.277  1.00  0.00    -0.203 F 
ATOM     83  F   UNL A   1      34.643  29.167  28.086  1.00  0.00    -0.200 F 
ATOM     84  C   UNL A   1      35.166  31.460  27.873  1.00  0.00     0.200 A 
ATOM     85  F   UNL A   1      35.734  33.743  27.680  1.00  0.00    -0.200 F 
ATOM     86  F   UNL A   1      34.112  31.639  27.064  1.00  0.00    -0.200 F 
ENDBRANCH  62  76
BRANCH  63  87
ATOM     87  C   UNL A   1      45.279  29.664  35.514  1.00  0.00     0.064 A 
ATOM     88  C   UNL A   1      45.389  28.518  36.315  1.00  0.00     0.173 A 
ATOM     89  C   UNL A   1      46.291  30.630  35.617  1.00  0.00     0.173 A 
ATOM     90  F   UNL A   1      44.435  27.575  36.267  1.00  0.00    -0.203 F 
ATOM     91  C   UNL A   1      46.446  28.361  37.208  1.00  0.00     0.198 A 
ATOM     92  C   UNL A   1      47.364  30.457  36.488  1.00  0.00     0.198 A 
ATOM     93  F   UNL A   1      46.237  31.743  34.869  1.00  0.00    -0.203 F 
ATOM     94  F   UNL A   1      46.494  27.283  38.002  1.00  0.00    -0.200 F 
ATOM     95  C   UNL A   1      47.436  29.329  37.291  1.00  0.00     0.200 A 
ATOM     96  F   UNL A   1      48.325  31.389  36.556  1.00  0.00    -0.200 F 
ATOM     97  F   UNL A   1      48.450  29.180  38.153  1.00  0.00    -0.200 F 
ENDBRANCH  63  87
BRANCH  75  98
ATOM     98  C   UNL A   1      38.907  32.285  36.500  1.00  0.00     0.064 A 
ATOM     99  C   UNL A   1      38.079  31.478  37.291  1.00  0.00     0.173 A 
ATOM    100  C   UNL A   1      39.107  33.616  36.899  1.00  0.00     0.173 A 
ATOM    101  F   UNL A   1      37.846  30.204  36.942  1.00  0.00    -0.203 F 
ATOM    102  C   UNL A   1      37.456  31.989  38.426  1.00  0.00     0.198 A 
ATOM    103  C   UNL A   1      38.505  34.116  38.049  1.00  0.00     0.198 A 
ATOM    104  F   UNL A   1      39.895  34.427  36.178  1.00  0.00    -0.203 F 
ATOM    105  F   UNL A   1      36.633  31.212  39.143  1.00  0.00    -0.200 F 
ATOM    106  C   UNL A   1      37.676  33.304  38.808  1.00  0.00     0.200 A 
ATOM    107  F   UNL A   1      38.728  35.383  38.425  1.00  0.00    -0.200 F 
ATOM    108  F   UNL A   1      37.081  33.793  39.906  1.00  0.00    -0.200 F 
ENDBRANCH  75  98
ENDBRANCH  49  50
ENDBRANCH  41  44
ENDBRANCH  39  40
ENDBRANCH  38  39
ENDBRANCH  37  38
ENDBRANCH  36  37
ENDBRANCH  35  36
ENDBRANCH  34  35
ENDBRANCH   3  34
TORSDOF 23
ENDMDL
