MODEL 1
REMARK VINA RESULT:     -13.8      0.000      0.000
REMARK SMILES Cc1c(NC(=O)C(F)(F)F)cccc1C(=O)NCCCCCCNC(=O)c1ccc(-c2c3nc(c(-c4c(F)c(F)c(F)c(F)c4F)c4ccc([nH]4)c(-c4c(F)c(F)c(F)c(F)c4F)c4nc(c(-c5c(F)c(F)c(F)c(F)c5F)c5ccc2[nH]5)C=C4)C=C3)cc1
REMARK SMILES IDX 20 1 19 2 18 3 17 4 15 5 16 6 14 8 1 9 2 10 3 11 11 12 13 13
REMARK SMILES IDX 12 14 4 15 5 16 6 18 7 19 8 20 9 21 10 22 21 23 22 24 23 25
REMARK SMILES IDX 24 26 25 27 26 29 27 30 28 31 89 32 29 33 88 34 30 35 31 36
REMARK SMILES IDX 32 37 82 38 33 39 87 40 81 41 83 42 34 43 86 44 80 45 79 46
REMARK SMILES IDX 35 48 67 49 47 50 66 51 48 52 51 53 65 54 84 55 49 56 50 57
REMARK SMILES IDX 64 59 85 60 52 61 36 62 37 63 45 64 38 65 39 66 43 67 46 68
REMARK SMILES IDX 40 69 41 70 44 71 42 72 68 73 69 74 77 75 70 76 71 77 75 78
REMARK SMILES IDX 78 79 72 80 73 81 76 82 74 83 53 84 54 85 62 86 55 87 56 88
REMARK SMILES IDX 60 89 63 90 57 91 58 92 61 93 59 94
REMARK H PARENT 17 7 4 17 24 28 83 47 51 58
REMARK Flexibility Score: inf
ROOT
ATOM      1  C   UNL A   1      33.987  27.843  26.479  1.00  0.00     0.002 C 
ENDROOT
BRANCH   1   2
ATOM      2  C   UNL A   1      33.645  27.136  25.159  1.00  0.00     0.021 C 
BRANCH   2   3
ATOM      3  C   UNL A   1      33.888  25.618  25.143  1.00  0.00     0.116 C 
BRANCH   3   4
ATOM      4  N   UNL A   1      33.672  25.105  23.804  1.00  0.00    -0.352 N 
ATOM      5  C   UNL A   1      33.962  23.924  23.176  1.00  0.00     0.251 C 
ATOM      6  O   UNL A   1      33.701  23.863  21.972  1.00  0.00    -0.269 OA
ATOM      7  H   UNL A   1      33.215  25.749  23.217  1.00  0.00     0.163 HD
BRANCH   5   8
ATOM      8  C   UNL A   1      34.459  22.682  23.850  1.00  0.00     0.044 A 
ATOM      9  C   UNL A   1      32.264  21.943  24.911  1.00  0.00     0.047 C 
ATOM     10  C   UNL A   1      33.716  21.724  24.578  1.00  0.00    -0.015 A 
ATOM     11  C   UNL A   1      34.377  20.577  25.120  1.00  0.00     0.045 A 
ATOM     12  C   UNL A   1      35.771  20.509  25.074  1.00  0.00     0.026 A 
ATOM     13  C   UNL A   1      35.861  22.566  23.825  1.00  0.00     0.014 A 
ATOM     14  C   UNL A   1      36.511  21.513  24.457  1.00  0.00     0.003 A 
BRANCH  11  15
ATOM     15  N   UNL A   1      33.573  19.532  25.627  1.00  0.00    -0.318 N 
ATOM     16  C   UNL A   1      33.068  18.361  25.122  1.00  0.00     0.330 C 
ATOM     17  H   UNL A   1      33.313  19.679  26.565  1.00  0.00     0.170 HD
ATOM     18  O   UNL A   1      32.240  17.791  25.852  1.00  0.00    -0.264 OA
BRANCH  16  19
ATOM     19  C   UNL A   1      33.494  17.759  23.777  1.00  0.00     0.471 C 
ATOM     20  F   UNL A   1      33.034  16.488  23.601  1.00  0.00    -0.162 F 
ATOM     21  F   UNL A   1      33.064  18.486  22.708  1.00  0.00    -0.162 F 
ATOM     22  F   UNL A   1      34.851  17.680  23.648  1.00  0.00    -0.162 F 
ENDBRANCH  16  19
ENDBRANCH  11  15
ENDBRANCH   5   8
ENDBRANCH   3   4
ENDBRANCH   2   3
ENDBRANCH   1   2
BRANCH   1  23
ATOM     23  C   UNL A   1      32.817  28.500  27.227  1.00  0.00     0.002 C 
BRANCH  23  24
ATOM     24  C   UNL A   1      32.898  30.019  27.399  1.00  0.00     0.021 C 
BRANCH  24  25
ATOM     25  C   UNL A   1      34.310  30.587  27.285  1.00  0.00     0.116 C 
BRANCH  25  26
ATOM     26  N   UNL A   1      34.743  31.334  28.461  1.00  0.00    -0.352 N 
ATOM     27  C   UNL A   1      35.750  31.048  29.360  1.00  0.00     0.251 C 
ATOM     28  H   UNL A   1      34.246  32.164  28.637  1.00  0.00     0.163 HD
ATOM     29  O   UNL A   1      35.936  31.779  30.331  1.00  0.00    -0.269 OA
BRANCH  27  30
ATOM     30  C   UNL A   1      36.682  29.929  29.093  1.00  0.00     0.039 A 
ATOM     31  C   UNL A   1      37.015  29.076  30.154  1.00  0.00     0.014 A 
ATOM     32  C   UNL A   1      37.344  29.815  27.873  1.00  0.00     0.014 A 
ATOM     33  C   UNL A   1      38.153  28.276  30.062  1.00  0.00     0.010 A 
ATOM     34  C   UNL A   1      38.519  29.091  27.810  1.00  0.00     0.010 A 
ATOM     35  C   UNL A   1      38.959  28.376  28.928  1.00  0.00    -0.014 A 
BRANCH  35  36
ATOM     36  C   UNL A   1      40.320  27.854  28.862  1.00  0.00     0.031 A 
ATOM     37  C   UNL A   1      40.577  26.447  28.488  1.00  0.00     0.074 A 
ATOM     38  C   UNL A   1      41.355  28.697  29.070  1.00  0.00     0.049 A 
ATOM     39  N   UNL A   1      41.675  25.818  28.740  1.00  0.00    -0.248 NA
ATOM     40  C   UNL A   1      39.580  25.622  27.818  1.00  0.00     0.031 C 
ATOM     41  C   UNL A   1      42.771  28.452  28.807  1.00  0.00     0.029 A 
ATOM     42  N   UNL A   1      41.340  29.899  29.796  1.00  0.00    -0.354 N 
ATOM     43  C   UNL A   1      41.631  24.607  28.088  1.00  0.00     0.074 A 
ATOM     44  C   UNL A   1      40.290  24.521  27.552  1.00  0.00     0.031 C 
ATOM     45  C   UNL A   1      43.499  29.250  29.603  1.00  0.00     0.029 A 
ATOM     46  C   UNL A   1      42.571  29.923  30.496  1.00  0.00     0.049 A 
ATOM     47  H   UNL A   1      40.628  30.578  29.815  1.00  0.00     0.167 HD
ATOM     48  C   UNL A   1      42.766  23.855  27.994  1.00  0.00     0.037 A 
ATOM     49  C   UNL A   1      42.601  29.862  31.859  1.00  0.00     0.037 A 
ATOM     50  C   UNL A   1      43.870  24.448  28.740  1.00  0.00     0.049 A 
ATOM     51  C   UNL A   1      43.341  28.670  32.426  1.00  0.00     0.074 A 
ATOM     52  C   UNL A   1      44.939  25.263  28.403  1.00  0.00     0.029 A 
ATOM     53  N   UNL A   1      43.799  24.463  30.121  1.00  0.00    -0.354 N 
ATOM     54  N   UNL A   1      43.797  27.679  31.711  1.00  0.00    -0.248 NA
ATOM     55  C   UNL A   1      43.526  28.454  33.863  1.00  0.00     0.031 C 
ATOM     56  C   UNL A   1      45.488  25.794  29.605  1.00  0.00     0.029 A 
ATOM     57  C   UNL A   1      44.754  25.297  30.665  1.00  0.00     0.049 A 
ATOM     58  H   UNL A   1      43.149  23.944  30.647  1.00  0.00     0.167 HD
ATOM     59  C   UNL A   1      44.276  26.708  32.547  1.00  0.00     0.074 A 
ATOM     60  C   UNL A   1      44.086  27.234  33.884  1.00  0.00     0.031 C 
ATOM     61  C   UNL A   1      44.760  25.519  32.097  1.00  0.00     0.037 A 
BRANCH  48  62
ATOM     62  C   UNL A   1      42.932  22.686  27.055  1.00  0.00     0.064 A 
ATOM     63  C   UNL A   1      42.202  21.494  27.254  1.00  0.00     0.173 A 
ATOM     64  C   UNL A   1      43.822  22.659  25.966  1.00  0.00     0.173 A 
ATOM     65  F   UNL A   1      41.248  21.405  28.190  1.00  0.00    -0.203 F 
ATOM     66  C   UNL A   1      42.430  20.339  26.500  1.00  0.00     0.198 A 
ATOM     67  C   UNL A   1      44.097  21.487  25.254  1.00  0.00     0.198 A 
ATOM     68  F   UNL A   1      44.413  23.777  25.525  1.00  0.00    -0.203 F 
ATOM     69  F   UNL A   1      41.706  19.237  26.737  1.00  0.00    -0.200 F 
ATOM     70  C   UNL A   1      43.408  20.323  25.528  1.00  0.00     0.200 A 
ATOM     71  F   UNL A   1      45.036  21.496  24.296  1.00  0.00    -0.200 F 
ATOM     72  F   UNL A   1      43.667  19.201  24.843  1.00  0.00    -0.200 F 
ENDBRANCH  48  62
BRANCH  49  73
ATOM     73  C   UNL A   1      41.412  30.495  32.493  1.00  0.00     0.064 A 
ATOM     74  C   UNL A   1      41.292  31.899  32.447  1.00  0.00     0.173 A 
ATOM     75  C   UNL A   1      40.266  29.757  32.802  1.00  0.00     0.173 A 
ATOM     76  F   UNL A   1      42.362  32.656  32.154  1.00  0.00    -0.203 F 
ATOM     77  C   UNL A   1      40.054  32.523  32.578  1.00  0.00     0.198 A 
ATOM     78  C   UNL A   1      39.031  30.389  32.958  1.00  0.00     0.198 A 
ATOM     79  F   UNL A   1      40.308  28.418  32.843  1.00  0.00    -0.203 F 
ATOM     80  F   UNL A   1      39.952  33.848  32.403  1.00  0.00    -0.200 F 
ATOM     81  C   UNL A   1      38.920  31.764  32.808  1.00  0.00     0.200 A 
ATOM     82  F   UNL A   1      37.930  29.651  33.158  1.00  0.00    -0.200 F 
ATOM     83  F   UNL A   1      37.716  32.350  32.845  1.00  0.00    -0.200 F 
ENDBRANCH  49  73
BRANCH  61  84
ATOM     84  C   UNL A   1      45.292  24.468  33.013  1.00  0.00     0.064 A 
ATOM     85  C   UNL A   1      44.516  23.368  33.404  1.00  0.00     0.173 A 
ATOM     86  C   UNL A   1      46.557  24.602  33.617  1.00  0.00     0.173 A 
ATOM     87  F   UNL A   1      43.287  23.186  32.896  1.00  0.00    -0.203 F 
ATOM     88  C   UNL A   1      44.987  22.441  34.333  1.00  0.00     0.198 A 
ATOM     89  C   UNL A   1      47.007  23.700  34.577  1.00  0.00     0.198 A 
ATOM     90  F   UNL A   1      47.386  25.599  33.273  1.00  0.00    -0.203 F 
ATOM     91  F   UNL A   1      44.234  21.380  34.655  1.00  0.00    -0.200 F 
ATOM     92  C   UNL A   1      46.226  22.614  34.929  1.00  0.00     0.200 A 
ATOM     93  F   UNL A   1      48.202  23.885  35.155  1.00  0.00    -0.200 F 
ATOM     94  F   UNL A   1      46.667  21.736  35.838  1.00  0.00    -0.200 F 
ENDBRANCH  61  84
ENDBRANCH  35  36
ENDBRANCH  27  30
ENDBRANCH  25  26
ENDBRANCH  24  25
ENDBRANCH  23  24
ENDBRANCH   1  23
TORSDOF 15
ENDMDL
MODEL 2
REMARK VINA RESULT:     -13.7      1.748      2.203
REMARK SMILES Cc1c(NC(=O)C(F)(F)F)cccc1C(=O)NCCCCCCNC(=O)c1ccc(-c2c3nc(c(-c4c(F)c(F)c(F)c(F)c4F)c4ccc([nH]4)c(-c4c(F)c(F)c(F)c(F)c4F)c4nc(c(-c5c(F)c(F)c(F)c(F)c5F)c5ccc2[nH]5)C=C4)C=C3)cc1
REMARK SMILES IDX 20 1 19 2 18 3 17 4 15 5 16 6 14 8 1 9 2 10 3 11 11 12 13 13
REMARK SMILES IDX 12 14 4 15 5 16 6 18 7 19 8 20 9 21 10 22 21 23 22 24 23 25
REMARK SMILES IDX 24 26 25 27 26 29 27 30 28 31 89 32 29 33 88 34 30 35 31 36
REMARK SMILES IDX 32 37 82 38 33 39 87 40 81 41 83 42 34 43 86 44 80 45 79 46
REMARK SMILES IDX 35 48 67 49 47 50 66 51 48 52 51 53 65 54 84 55 49 56 50 57
REMARK SMILES IDX 64 59 85 60 52 61 36 62 37 63 45 64 38 65 39 66 43 67 46 68
REMARK SMILES IDX 40 69 41 70 44 71 42 72 68 73 69 74 77 75 70 76 71 77 75 78
REMARK SMILES IDX 78 79 72 80 73 81 76 82 74 83 53 84 54 85 62 86 55 87 56 88
REMARK SMILES IDX 60 89 63 90 57 91 58 92 61 93 59 94
REMARK H PARENT 17 7 4 17 24 28 83 47 51 58
REMARK Flexibility Score: inf
ROOT
ATOM      1  C   UNL A   1      32.130  28.243  27.400  1.00  0.00     0.002 C 
ENDROOT
BRANCH   1   2
ATOM      2  C   UNL A   1      32.236  26.994  26.513  1.00  0.00     0.021 C 
BRANCH   2   3
ATOM      3  C   UNL A   1      30.907  26.484  25.931  1.00  0.00     0.116 C 
BRANCH   3   4
ATOM      4  N   UNL A   1      30.460  25.327  26.680  1.00  0.00    -0.352 N 
ATOM      5  C   UNL A   1      30.609  23.975  26.527  1.00  0.00     0.251 C 
ATOM      6  O   UNL A   1      30.004  23.261  27.332  1.00  0.00    -0.269 OA
ATOM      7  H   UNL A   1      29.933  25.568  27.476  1.00  0.00     0.163 HD
BRANCH   5   8
ATOM      8  C   UNL A   1      31.522  23.308  25.546  1.00  0.00     0.044 A 
ATOM      9  C   UNL A   1      33.549  23.037  27.066  1.00  0.00     0.047 C 
ATOM     10  C   UNL A   1      32.826  22.804  25.766  1.00  0.00    -0.015 A 
ATOM     11  C   UNL A   1      33.527  22.164  24.697  1.00  0.00     0.045 A 
ATOM     12  C   UNL A   1      32.989  22.203  23.409  1.00  0.00     0.026 A 
ATOM     13  C   UNL A   1      31.020  23.318  24.232  1.00  0.00     0.014 A 
ATOM     14  C   UNL A   1      31.756  22.803  23.173  1.00  0.00     0.003 A 
BRANCH  11  15
ATOM     15  N   UNL A   1      34.714  21.466  25.013  1.00  0.00    -0.318 N 
ATOM     16  C   UNL A   1      36.054  21.689  24.824  1.00  0.00     0.330 C 
ATOM     17  H   UNL A   1      34.537  20.618  25.480  1.00  0.00     0.170 HD
ATOM     18  O   UNL A   1      36.788  20.726  25.100  1.00  0.00    -0.264 OA
BRANCH  16  19
ATOM     19  C   UNL A   1      36.636  23.023  24.339  1.00  0.00     0.471 C 
ATOM     20  F   UNL A   1      36.887  23.032  23.000  1.00  0.00    -0.162 F 
ATOM     21  F   UNL A   1      35.818  24.084  24.594  1.00  0.00    -0.162 F 
ATOM     22  F   UNL A   1      37.825  23.322  24.938  1.00  0.00    -0.162 F 
ENDBRANCH  16  19
ENDBRANCH  11  15
ENDBRANCH   5   8
ENDBRANCH   3   4
ENDBRANCH   2   3
ENDBRANCH   1   2
BRANCH   1  23
ATOM     23  C   UNL A   1      31.878  29.576  26.679  1.00  0.00     0.002 C 
BRANCH  23  24
ATOM     24  C   UNL A   1      32.752  30.754  27.118  1.00  0.00     0.021 C 
BRANCH  24  25
ATOM     25  C   UNL A   1      34.151  30.356  27.578  1.00  0.00     0.116 C 
BRANCH  25  26
ATOM     26  N   UNL A   1      34.709  31.234  28.600  1.00  0.00    -0.352 N 
ATOM     27  C   UNL A   1      35.827  31.062  29.391  1.00  0.00     0.251 C 
ATOM     28  H   UNL A   1      34.216  32.073  28.747  1.00  0.00     0.163 HD
ATOM     29  O   UNL A   1      36.114  31.898  30.244  1.00  0.00    -0.269 OA
BRANCH  27  30
ATOM     30  C   UNL A   1      36.748  29.932  29.131  1.00  0.00     0.039 A 
ATOM     31  C   UNL A   1      37.078  29.087  30.199  1.00  0.00     0.014 A 
ATOM     32  C   UNL A   1      37.401  29.798  27.908  1.00  0.00     0.014 A 
ATOM     33  C   UNL A   1      38.208  28.275  30.109  1.00  0.00     0.010 A 
ATOM     34  C   UNL A   1      38.569  29.062  27.847  1.00  0.00     0.010 A 
ATOM     35  C   UNL A   1      39.008  28.355  28.970  1.00  0.00    -0.014 A 
BRANCH  35  36
ATOM     36  C   UNL A   1      40.363  27.819  28.902  1.00  0.00     0.031 A 
ATOM     37  C   UNL A   1      40.606  26.410  28.526  1.00  0.00     0.074 A 
ATOM     38  C   UNL A   1      41.408  28.651  29.109  1.00  0.00     0.049 A 
ATOM     39  N   UNL A   1      41.698  25.769  28.776  1.00  0.00    -0.248 NA
ATOM     40  C   UNL A   1      39.600  25.596  27.857  1.00  0.00     0.031 C 
ATOM     41  C   UNL A   1      42.821  28.392  28.845  1.00  0.00     0.029 A 
ATOM     42  N   UNL A   1      41.406  29.853  29.837  1.00  0.00    -0.354 N 
ATOM     43  C   UNL A   1      41.641  24.560  28.123  1.00  0.00     0.074 A 
ATOM     44  C   UNL A   1      40.299  24.488  27.589  1.00  0.00     0.031 C 
ATOM     45  C   UNL A   1      43.557  29.182  29.642  1.00  0.00     0.029 A 
ATOM     46  C   UNL A   1      42.638  29.863  30.536  1.00  0.00     0.049 A 
ATOM     47  H   UNL A   1      40.701  30.539  29.857  1.00  0.00     0.167 HD
ATOM     48  C   UNL A   1      42.768  23.796  28.027  1.00  0.00     0.037 A 
ATOM     49  C   UNL A   1      42.668  29.801  31.899  1.00  0.00     0.037 A 
ATOM     50  C   UNL A   1      43.879  24.378  28.773  1.00  0.00     0.049 A 
ATOM     51  C   UNL A   1      43.397  28.601  32.464  1.00  0.00     0.074 A 
ATOM     52  C   UNL A   1      44.956  25.182  28.436  1.00  0.00     0.029 A 
ATOM     53  N   UNL A   1      43.809  24.391  30.154  1.00  0.00    -0.354 N 
ATOM     54  N   UNL A   1      43.842  27.606  31.748  1.00  0.00    -0.248 NA
ATOM     55  C   UNL A   1      43.580  28.381  33.900  1.00  0.00     0.031 C 
ATOM     56  C   UNL A   1      45.511  25.706  29.638  1.00  0.00     0.029 A 
ATOM     57  C   UNL A   1      44.774  25.215  30.698  1.00  0.00     0.049 A 
ATOM     58  H   UNL A   1      43.155  23.879  30.681  1.00  0.00     0.167 HD
ATOM     59  C   UNL A   1      44.311  26.629  32.582  1.00  0.00     0.074 A 
ATOM     60  C   UNL A   1      44.128  27.155  33.920  1.00  0.00     0.031 C 
ATOM     61  C   UNL A   1      44.783  25.436  32.130  1.00  0.00     0.037 A 
BRANCH  48  62
ATOM     62  C   UNL A   1      42.922  22.626  27.088  1.00  0.00     0.064 A 
ATOM     63  C   UNL A   1      42.180  21.442  27.286  1.00  0.00     0.173 A 
ATOM     64  C   UNL A   1      43.809  22.592  25.996  1.00  0.00     0.173 A 
ATOM     65  F   UNL A   1      41.228  21.361  28.224  1.00  0.00    -0.203 F 
ATOM     66  C   UNL A   1      42.396  20.285  26.531  1.00  0.00     0.198 A 
ATOM     67  C   UNL A   1      44.071  21.419  25.283  1.00  0.00     0.198 A 
ATOM     68  F   UNL A   1      44.409  23.705  25.556  1.00  0.00    -0.203 F 
ATOM     69  F   UNL A   1      41.663  19.190  26.768  1.00  0.00    -0.200 F 
ATOM     70  C   UNL A   1      43.372  20.261  25.558  1.00  0.00     0.200 A 
ATOM     71  F   UNL A   1      45.009  21.420  24.324  1.00  0.00    -0.200 F 
ATOM     72  F   UNL A   1      43.619  19.137  24.871  1.00  0.00    -0.200 F 
ENDBRANCH  48  62
BRANCH  49  73
ATOM     73  C   UNL A   1      41.486  30.445  32.534  1.00  0.00     0.064 A 
ATOM     74  C   UNL A   1      41.389  31.851  32.505  1.00  0.00     0.173 A 
ATOM     75  C   UNL A   1      40.326  29.722  32.830  1.00  0.00     0.173 A 
ATOM     76  F   UNL A   1      42.472  32.594  32.226  1.00  0.00    -0.203 F 
ATOM     77  C   UNL A   1      40.160  32.493  32.638  1.00  0.00     0.198 A 
ATOM     78  C   UNL A   1      39.102  30.372  32.987  1.00  0.00     0.198 A 
ATOM     79  F   UNL A   1      40.347  28.382  32.855  1.00  0.00    -0.203 F 
ATOM     80  F   UNL A   1      40.080  33.822  32.478  1.00  0.00    -0.200 F 
ATOM     81  C   UNL A   1      39.013  31.750  32.853  1.00  0.00     0.200 A 
ATOM     82  F   UNL A   1      37.988  29.650  33.173  1.00  0.00    -0.200 F 
ATOM     83  F   UNL A   1      37.818  32.354  32.891  1.00  0.00    -0.200 F 
ENDBRANCH  49  73
BRANCH  61  84
ATOM     84  C   UNL A   1      45.305  24.378  33.044  1.00  0.00     0.064 A 
ATOM     85  C   UNL A   1      44.513  23.294  33.448  1.00  0.00     0.173 A 
ATOM     86  C   UNL A   1      46.579  24.491  33.635  1.00  0.00     0.173 A 
ATOM     87  F   UNL A   1      43.276  23.134  32.954  1.00  0.00    -0.203 F 
ATOM     88  C   UNL A   1      44.976  22.362  34.376  1.00  0.00     0.198 A 
ATOM     89  C   UNL A   1      47.022  23.584  34.593  1.00  0.00     0.198 A 
ATOM     90  F   UNL A   1      47.422  25.472  33.279  1.00  0.00    -0.203 F 
ATOM     91  F   UNL A   1      44.208  21.316  34.710  1.00  0.00    -0.200 F 
ATOM     92  C   UNL A   1      46.224  22.515  34.958  1.00  0.00     0.200 A 
ATOM     93  F   UNL A   1      48.227  23.749  35.158  1.00  0.00    -0.200 F 
ATOM     94  F   UNL A   1      46.659  21.632  35.866  1.00  0.00    -0.200 F 
ENDBRANCH  61  84
ENDBRANCH  35  36
ENDBRANCH  27  30
ENDBRANCH  25  26
ENDBRANCH  24  25
ENDBRANCH  23  24
ENDBRANCH   1  23
TORSDOF 15
ENDMDL
MODEL 3
REMARK VINA RESULT:     -13.6      3.418      5.048
REMARK SMILES Cc1c(NC(=O)C(F)(F)F)cccc1C(=O)NCCCCCCNC(=O)c1ccc(-c2c3nc(c(-c4c(F)c(F)c(F)c(F)c4F)c4ccc([nH]4)c(-c4c(F)c(F)c(F)c(F)c4F)c4nc(c(-c5c(F)c(F)c(F)c(F)c5F)c5ccc2[nH]5)C=C4)C=C3)cc1
REMARK SMILES IDX 20 1 19 2 18 3 17 4 15 5 16 6 14 8 1 9 2 10 3 11 11 12 13 13
REMARK SMILES IDX 12 14 4 15 5 16 6 18 7 19 8 20 9 21 10 22 21 23 22 24 23 25
REMARK SMILES IDX 24 26 25 27 26 29 27 30 28 31 89 32 29 33 88 34 30 35 31 36
REMARK SMILES IDX 32 37 82 38 33 39 87 40 81 41 83 42 34 43 86 44 80 45 79 46
REMARK SMILES IDX 35 48 67 49 47 50 66 51 48 52 51 53 65 54 84 55 49 56 50 57
REMARK SMILES IDX 64 59 85 60 52 61 36 62 37 63 45 64 38 65 39 66 43 67 46 68
REMARK SMILES IDX 40 69 41 70 44 71 42 72 68 73 69 74 77 75 70 76 71 77 75 78
REMARK SMILES IDX 78 79 72 80 73 81 76 82 74 83 53 84 54 85 62 86 55 87 56 88
REMARK SMILES IDX 60 89 63 90 57 91 58 92 61 93 59 94
REMARK H PARENT 17 7 4 17 24 28 83 47 51 58
REMARK Flexibility Score: inf
ROOT
ATOM      1  C   UNL A   1      32.840  29.492  25.274  1.00  0.00     0.002 C 
ENDROOT
BRANCH   1   2
ATOM      2  C   UNL A   1      33.099  27.991  25.473  1.00  0.00     0.021 C 
BRANCH   2   3
ATOM      3  C   UNL A   1      31.850  27.138  25.745  1.00  0.00     0.116 C 
BRANCH   3   4
ATOM      4  N   UNL A   1      31.656  26.199  24.658  1.00  0.00    -0.352 N 
ATOM      5  C   UNL A   1      30.692  26.033  23.700  1.00  0.00     0.251 C 
ATOM      6  O   UNL A   1      30.810  25.048  22.966  1.00  0.00    -0.269 OA
ATOM      7  H   UNL A   1      32.379  25.534  24.593  1.00  0.00     0.163 HD
BRANCH   5   8
ATOM      8  C   UNL A   1      29.586  26.998  23.406  1.00  0.00     0.044 A 
ATOM      9  C   UNL A   1      30.992  28.858  22.379  1.00  0.00     0.047 C 
ATOM     10  C   UNL A   1      29.665  28.247  22.748  1.00  0.00    -0.015 A 
ATOM     11  C   UNL A   1      28.476  29.012  22.531  1.00  0.00     0.045 A 
ATOM     12  C   UNL A   1      27.283  28.599  23.128  1.00  0.00     0.026 A 
ATOM     13  C   UNL A   1      28.359  26.622  23.983  1.00  0.00     0.014 A 
ATOM     14  C   UNL A   1      27.231  27.426  23.875  1.00  0.00     0.003 A 
BRANCH  11  15
ATOM     15  N   UNL A   1      28.558  30.126  21.667  1.00  0.00    -0.318 N 
ATOM     16  C   UNL A   1      28.446  31.485  21.817  1.00  0.00     0.330 C 
ATOM     17  H   UNL A   1      28.737  29.865  20.735  1.00  0.00     0.170 HD
ATOM     18  O   UNL A   1      28.408  32.127  20.755  1.00  0.00    -0.264 OA
BRANCH  16  19
ATOM     19  C   UNL A   1      28.402  32.190  23.179  1.00  0.00     0.471 C 
ATOM     20  F   UNL A   1      28.507  33.545  23.072  1.00  0.00    -0.162 F 
ATOM     21  F   UNL A   1      27.256  31.937  23.872  1.00  0.00    -0.162 F 
ATOM     22  F   UNL A   1      29.422  31.805  23.999  1.00  0.00    -0.162 F 
ENDBRANCH  16  19
ENDBRANCH  11  15
ENDBRANCH   5   8
ENDBRANCH   3   4
ENDBRANCH   2   3
ENDBRANCH   1   2
BRANCH   1  23
ATOM     23  C   UNL A   1      31.923  30.172  26.302  1.00  0.00     0.002 C 
BRANCH  23  24
ATOM     24  C   UNL A   1      32.591  31.188  27.231  1.00  0.00     0.021 C 
BRANCH  24  25
ATOM     25  C   UNL A   1      34.028  30.840  27.609  1.00  0.00     0.116 C 
BRANCH  25  26
ATOM     26  N   UNL A   1      34.546  31.609  28.734  1.00  0.00    -0.352 N 
ATOM     27  C   UNL A   1      35.619  31.343  29.560  1.00  0.00     0.251 C 
ATOM     28  H   UNL A   1      34.060  32.442  28.933  1.00  0.00     0.163 HD
ATOM     29  O   UNL A   1      35.875  32.092  30.500  1.00  0.00    -0.269 OA
BRANCH  27  30
ATOM     30  C   UNL A   1      36.534  30.223  29.243  1.00  0.00     0.039 A 
ATOM     31  C   UNL A   1      36.868  29.328  30.269  1.00  0.00     0.014 A 
ATOM     32  C   UNL A   1      37.180  30.143  28.011  1.00  0.00     0.014 A 
ATOM     33  C   UNL A   1      37.994  28.518  30.135  1.00  0.00     0.010 A 
ATOM     34  C   UNL A   1      38.344  29.407  27.909  1.00  0.00     0.010 A 
ATOM     35  C   UNL A   1      38.788  28.647  28.995  1.00  0.00    -0.014 A 
BRANCH  35  36
ATOM     36  C   UNL A   1      40.140  28.110  28.895  1.00  0.00     0.031 A 
ATOM     37  C   UNL A   1      40.371  26.688  28.565  1.00  0.00     0.074 A 
ATOM     38  C   UNL A   1      41.190  28.951  29.029  1.00  0.00     0.049 A 
ATOM     39  N   UNL A   1      41.474  26.059  28.796  1.00  0.00    -0.248 NA
ATOM     40  C   UNL A   1      39.341  25.848  27.968  1.00  0.00     0.031 C 
ATOM     41  C   UNL A   1      42.592  28.683  28.718  1.00  0.00     0.029 A 
ATOM     42  N   UNL A   1      41.214  30.180  29.709  1.00  0.00    -0.354 N 
ATOM     43  C   UNL A   1      41.395  24.825  28.194  1.00  0.00     0.074 A 
ATOM     44  C   UNL A   1      40.032  24.730  27.716  1.00  0.00     0.031 C 
ATOM     45  C   UNL A   1      43.358  29.504  29.454  1.00  0.00     0.029 A 
ATOM     46  C   UNL A   1      42.472  30.219  30.357  1.00  0.00     0.049 A 
ATOM     47  H   UNL A   1      40.508  30.866  29.730  1.00  0.00     0.167 HD
ATOM     48  C   UNL A   1      42.519  24.059  28.083  1.00  0.00     0.037 A 
ATOM     49  C   UNL A   1      42.557  30.210  31.719  1.00  0.00     0.037 A 
ATOM     50  C   UNL A   1      43.657  24.670  28.760  1.00  0.00     0.049 A 
ATOM     51  C   UNL A   1      43.310  29.033  32.301  1.00  0.00     0.074 A 
ATOM     52  C   UNL A   1      44.717  25.461  28.350  1.00  0.00     0.029 A 
ATOM     53  N   UNL A   1      43.641  24.737  30.141  1.00  0.00    -0.354 N 
ATOM     54  N   UNL A   1      43.729  28.012  31.607  1.00  0.00    -0.248 NA
ATOM     55  C   UNL A   1      43.551  28.870  33.736  1.00  0.00     0.031 C 
ATOM     56  C   UNL A   1      45.319  26.032  29.508  1.00  0.00     0.029 A 
ATOM     57  C   UNL A   1      44.625  25.583  30.615  1.00  0.00     0.049 A 
ATOM     58  H   UNL A   1      43.010  24.245  30.713  1.00  0.00     0.167 HD
ATOM     59  C   UNL A   1      44.234  27.069  32.459  1.00  0.00     0.074 A 
ATOM     60  C   UNL A   1      44.103  27.646  33.782  1.00  0.00     0.031 C 
ATOM     61  C   UNL A   1      44.690  25.859  32.036  1.00  0.00     0.037 A 
BRANCH  48  62
ATOM     62  C   UNL A   1      42.637  22.853  27.184  1.00  0.00     0.064 A 
ATOM     63  C   UNL A   1      41.912  21.674  27.462  1.00  0.00     0.173 A 
ATOM     64  C   UNL A   1      43.477  22.780  26.057  1.00  0.00     0.173 A 
ATOM     65  F   UNL A   1      41.003  21.626  28.443  1.00  0.00    -0.203 F 
ATOM     66  C   UNL A   1      42.102  20.490  26.744  1.00  0.00     0.198 A 
ATOM     67  C   UNL A   1      43.714  21.580  25.379  1.00  0.00     0.198 A 
ATOM     68  F   UNL A   1      44.050  23.877  25.546  1.00  0.00    -0.203 F 
ATOM     69  F   UNL A   1      41.386  19.401  27.056  1.00  0.00    -0.200 F 
ATOM     70  C   UNL A   1      43.035  20.431  25.730  1.00  0.00     0.200 A 
ATOM     71  F   UNL A   1      44.609  21.547  24.380  1.00  0.00    -0.200 F 
ATOM     72  F   UNL A   1      43.258  19.282  25.077  1.00  0.00    -0.200 F 
ENDBRANCH  48  62
BRANCH  49  73
ATOM     73  C   UNL A   1      41.399  30.877  32.375  1.00  0.00     0.064 A 
ATOM     74  C   UNL A   1      41.327  32.285  32.343  1.00  0.00     0.173 A 
ATOM     75  C   UNL A   1      40.233  30.176  32.695  1.00  0.00     0.173 A 
ATOM     76  F   UNL A   1      42.418  33.007  32.040  1.00  0.00    -0.203 F 
ATOM     77  C   UNL A   1      40.113  32.949  32.498  1.00  0.00     0.198 A 
ATOM     78  C   UNL A   1      39.024  30.848  32.875  1.00  0.00     0.198 A 
ATOM     79  F   UNL A   1      40.230  28.835  32.725  1.00  0.00    -0.203 F 
ATOM     80  F   UNL A   1      40.054  34.279  32.335  1.00  0.00    -0.200 F 
ATOM     81  C   UNL A   1      38.957  32.227  32.738  1.00  0.00     0.200 A 
ATOM     82  F   UNL A   1      37.900  30.147  33.085  1.00  0.00    -0.200 F 
ATOM     83  F   UNL A   1      37.774  32.853  32.797  1.00  0.00    -0.200 F 
ENDBRANCH  49  73
BRANCH  61  84
ATOM     84  C   UNL A   1      45.251  24.838  32.969  1.00  0.00     0.064 A 
ATOM     85  C   UNL A   1      44.429  23.925  33.645  1.00  0.00     0.173 A 
ATOM     86  C   UNL A   1      46.619  24.830  33.301  1.00  0.00     0.173 A 
ATOM     87  F   UNL A   1      43.109  23.891  33.406  1.00  0.00    -0.203 F 
ATOM     88  C   UNL A   1      44.950  23.037  34.586  1.00  0.00     0.198 A 
ATOM     89  C   UNL A   1      47.130  23.973  34.272  1.00  0.00     0.198 A 
ATOM     90  F   UNL A   1      47.487  25.639  32.676  1.00  0.00    -0.203 F 
ATOM     91  F   UNL A   1      44.142  22.152  35.184  1.00  0.00    -0.200 F 
ATOM     92  C   UNL A   1      46.297  23.071  34.909  1.00  0.00     0.200 A 
ATOM     93  F   UNL A   1      48.432  24.023  34.585  1.00  0.00    -0.200 F 
ATOM     94  F   UNL A   1      46.791  22.234  35.829  1.00  0.00    -0.200 F 
ENDBRANCH  61  84
ENDBRANCH  35  36
ENDBRANCH  27  30
ENDBRANCH  25  26
ENDBRANCH  24  25
ENDBRANCH  23  24
ENDBRANCH   1  23
TORSDOF 15
ENDMDL
