MODEL 1
REMARK VINA RESULT:     -11.2      0.000      0.000
REMARK SMILES O=C(NCCCCCCNC(=O)[C@H](CO)NC(=O)[C@H](CS)NC(=O)c1ccc(F)cc1)c1ccc(-c2c3nc(c(-c4c(F)c(F)c(F)c(F)c4F)c4ccc([nH]4)c(-c4c(F)c(F)c(F)c(F)c4F)c4nc(c(-c5c(F)c(F)c(F)c(F)c5F)c5ccc2[nH]5)C=C4)C=C3)cc1
REMARK SMILES IDX 7 1 6 2 5 3 4 4 3 5 1 6 2 7 32 9 33 10 94 11 34 12 93 13
REMARK SMILES IDX 35 14 36 15 37 16 87 17 38 18 92 19 86 20 88 21 39 22 91 23
REMARK SMILES IDX 85 24 84 25 40 27 72 28 52 29 71 30 53 31 56 32 70 33 89 34
REMARK SMILES IDX 54 35 55 36 69 38 90 39 57 40 41 41 42 42 50 43 43 44 44 45
REMARK SMILES IDX 48 46 51 47 45 48 46 49 49 50 47 51 73 52 74 53 82 54 75 55
REMARK SMILES IDX 76 56 80 57 83 58 77 59 78 60 81 61 79 62 58 63 59 64 67 65
REMARK SMILES IDX 60 66 61 67 65 68 68 69 62 70 63 71 66 72 64 73 8 74 9 75
REMARK SMILES IDX 10 76 11 77 12 79 13 80 16 81 17 82 18 84 19 85 22 86 23 87
REMARK SMILES IDX 24 89 25 90 26 91 31 92 27 93 30 94 28 95 29 96 20 97 21 98
REMARK SMILES IDX 14 100 15 101
REMARK H PARENT 3 8 88 26 56 37 10 78 16 83 22 88 21 99 15 102
REMARK Flexibility Score: inf
ROOT
ATOM      1  C   UNL A   1      37.333  21.784  24.689  1.00  0.00     0.002 C 
ENDROOT
BRANCH   1   2
ATOM      2  C   UNL A   1      36.956  20.304  24.834  1.00  0.00     0.002 C 
BRANCH   2   3
ATOM      3  C   UNL A   1      38.130  19.338  25.016  1.00  0.00     0.021 C 
BRANCH   3   4
ATOM      4  C   UNL A   1      39.321  19.918  25.770  1.00  0.00     0.116 C 
BRANCH   4   5
ATOM      5  N   UNL A   1      40.436  18.988  25.829  1.00  0.00    -0.352 N 
ATOM      6  O   UNL A   1      42.595  18.342  25.820  1.00  0.00    -0.269 OA
ATOM      7  C   UNL A   1      41.775  19.237  25.998  1.00  0.00     0.251 C 
ATOM      8  H   UNL A   1      40.195  18.038  25.734  1.00  0.00     0.163 HD
BRANCH   7   9
ATOM      9  C   UNL A   1      42.236  20.589  26.386  1.00  0.00     0.039 A 
ATOM     10  C   UNL A   1      42.594  21.526  25.416  1.00  0.00     0.014 A 
ATOM     11  C   UNL A   1      42.265  20.939  27.741  1.00  0.00     0.014 A 
ATOM     12  C   UNL A   1      43.096  22.763  25.801  1.00  0.00     0.010 A 
ATOM     13  C   UNL A   1      42.692  22.215  28.124  1.00  0.00     0.010 A 
ATOM     14  C   UNL A   1      43.127  23.131  27.157  1.00  0.00    -0.014 A 
BRANCH  14  15
ATOM     15  C   UNL A   1      43.534  24.516  27.507  1.00  0.00     0.031 A 
ATOM     16  C   UNL A   1      44.912  25.031  27.204  1.00  0.00     0.074 A 
ATOM     17  C   UNL A   1      42.606  25.332  28.045  1.00  0.00     0.049 A 
ATOM     18  N   UNL A   1      45.386  26.242  27.360  1.00  0.00    -0.248 NA
ATOM     19  C   UNL A   1      45.886  24.072  26.662  1.00  0.00     0.031 C 
ATOM     20  C   UNL A   1      41.242  24.929  28.397  1.00  0.00     0.029 A 
ATOM     21  N   UNL A   1      42.646  26.669  28.346  1.00  0.00    -0.354 N 
ATOM     22  C   UNL A   1      46.710  26.190  26.947  1.00  0.00     0.074 A 
ATOM     23  C   UNL A   1      46.975  24.823  26.552  1.00  0.00     0.031 C 
ATOM     24  C   UNL A   1      40.554  26.009  28.791  1.00  0.00     0.029 A 
ATOM     25  C   UNL A   1      41.439  27.167  28.776  1.00  0.00     0.049 A 
ATOM     26  H   UNL A   1      43.459  27.217  28.264  1.00  0.00     0.167 HD
ATOM     27  C   UNL A   1      47.613  27.199  26.892  1.00  0.00     0.037 A 
ATOM     28  C   UNL A   1      41.083  28.419  29.116  1.00  0.00     0.037 A 
ATOM     29  C   UNL A   1      47.335  28.562  27.266  1.00  0.00     0.049 A 
ATOM     30  C   UNL A   1      42.109  29.512  29.046  1.00  0.00     0.074 A 
ATOM     31  C   UNL A   1      48.183  29.656  27.224  1.00  0.00     0.029 A 
ATOM     32  N   UNL A   1      46.118  29.019  27.748  1.00  0.00    -0.354 N 
ATOM     33  N   UNL A   1      43.352  29.450  28.637  1.00  0.00    -0.248 NA
ATOM     34  C   UNL A   1      41.688  30.846  29.497  1.00  0.00     0.031 C 
ATOM     35  C   UNL A   1      47.489  30.767  27.713  1.00  0.00     0.029 A 
ATOM     36  C   UNL A   1      46.198  30.375  28.022  1.00  0.00     0.049 A 
ATOM     37  H   UNL A   1      45.316  28.462  27.876  1.00  0.00     0.167 HD
ATOM     38  C   UNL A   1      43.863  30.731  28.782  1.00  0.00     0.074 A 
ATOM     39  C   UNL A   1      42.785  31.558  29.283  1.00  0.00     0.031 C 
ATOM     40  C   UNL A   1      45.117  31.179  28.533  1.00  0.00     0.037 A 
BRANCH  27  41
ATOM     41  C   UNL A   1      48.997  26.885  26.408  1.00  0.00     0.064 A 
ATOM     42  C   UNL A   1      49.334  27.058  25.058  1.00  0.00     0.173 A 
ATOM     43  C   UNL A   1      49.954  26.309  27.257  1.00  0.00     0.173 A 
ATOM     44  F   UNL A   1      48.451  27.599  24.205  1.00  0.00    -0.203 F 
ATOM     45  C   UNL A   1      50.571  26.645  24.569  1.00  0.00     0.198 A 
ATOM     46  C   UNL A   1      51.198  25.916  26.769  1.00  0.00     0.198 A 
ATOM     47  F   UNL A   1      49.682  26.132  28.558  1.00  0.00    -0.203 F 
ATOM     48  F   UNL A   1      50.859  26.787  23.268  1.00  0.00    -0.200 F 
ATOM     49  C   UNL A   1      51.501  26.074  25.425  1.00  0.00     0.200 A 
ATOM     50  F   UNL A   1      52.101  25.377  27.599  1.00  0.00    -0.200 F 
ATOM     51  F   UNL A   1      52.690  25.673  24.952  1.00  0.00    -0.200 F 
ENDBRANCH  27  41
BRANCH  28  52
ATOM     52  C   UNL A   1      39.687  28.699  29.536  1.00  0.00     0.064 A 
ATOM     53  C   UNL A   1      38.725  29.147  28.619  1.00  0.00     0.173 A 
ATOM     54  C   UNL A   1      39.295  28.549  30.873  1.00  0.00     0.173 A 
ATOM     55  F   UNL A   1      39.053  29.310  27.329  1.00  0.00    -0.203 F 
ATOM     56  C   UNL A   1      37.430  29.456  29.027  1.00  0.00     0.198 A 
ATOM     57  C   UNL A   1      37.991  28.831  31.275  1.00  0.00     0.198 A 
ATOM     58  F   UNL A   1      40.173  28.105  31.784  1.00  0.00    -0.203 F 
ATOM     59  F   UNL A   1      36.542  29.917  28.137  1.00  0.00    -0.200 F 
ATOM     60  C   UNL A   1      37.062  29.292  30.353  1.00  0.00     0.200 A 
ATOM     61  F   UNL A   1      37.632  28.649  32.553  1.00  0.00    -0.200 F 
ATOM     62  F   UNL A   1      35.812  29.576  30.743  1.00  0.00    -0.200 F 
ENDBRANCH  28  52
BRANCH  40  63
ATOM     63  C   UNL A   1      45.392  32.626  28.809  1.00  0.00     0.064 A 
ATOM     64  C   UNL A   1      45.173  33.596  27.822  1.00  0.00     0.173 A 
ATOM     65  C   UNL A   1      45.914  33.043  30.042  1.00  0.00     0.173 A 
ATOM     66  F   UNL A   1      44.681  33.245  26.624  1.00  0.00    -0.203 F 
ATOM     67  C   UNL A   1      45.470  34.936  28.058  1.00  0.00     0.198 A 
ATOM     68  C   UNL A   1      46.187  34.386  30.284  1.00  0.00     0.198 A 
ATOM     69  F   UNL A   1      46.127  32.151  31.021  1.00  0.00    -0.203 F 
ATOM     70  F   UNL A   1      45.271  35.845  27.094  1.00  0.00    -0.200 F 
ATOM     71  C   UNL A   1      45.971  35.329  29.290  1.00  0.00     0.200 A 
ATOM     72  F   UNL A   1      46.647  34.769  31.482  1.00  0.00    -0.200 F 
ATOM     73  F   UNL A   1      46.241  36.621  29.522  1.00  0.00    -0.200 F 
ENDBRANCH  40  63
ENDBRANCH  14  15
ENDBRANCH   7   9
ENDBRANCH   4   5
ENDBRANCH   3   4
ENDBRANCH   2   3
ENDBRANCH   1   2
BRANCH   1  74
ATOM     74  C   UNL A   1      36.486  22.578  23.691  1.00  0.00     0.021 C 
BRANCH  74  75
ATOM     75  C   UNL A   1      35.204  23.153  24.288  1.00  0.00     0.116 C 
BRANCH  75  76
ATOM     76  N   UNL A   1      34.156  22.159  24.377  1.00  0.00    -0.354 N 
ATOM     77  C   UNL A   1      33.211  21.972  25.348  1.00  0.00     0.244 C 
ATOM     78  H   UNL A   1      34.116  21.523  23.626  1.00  0.00     0.163 HD
ATOM     79  O   UNL A   1      32.499  20.969  25.260  1.00  0.00    -0.273 OA
BRANCH  77  80
ATOM     80  C   UNL A   1      33.138  22.927  26.561  1.00  0.00     0.197 C 
BRANCH  80  81
ATOM     81  N   UNL A   1      31.752  23.088  27.033  1.00  0.00    -0.340 N 
ATOM     82  C   UNL A   1      30.807  24.037  26.788  1.00  0.00     0.244 C 
ATOM     83  H   UNL A   1      31.452  22.374  27.640  1.00  0.00     0.164 HD
ATOM     84  O   UNL A   1      29.675  23.803  27.229  1.00  0.00    -0.273 OA
BRANCH  82  85
ATOM     85  C   UNL A   1      31.015  25.243  25.843  1.00  0.00     0.181 C 
BRANCH  85  86
ATOM     86  N   UNL A   1      29.796  25.618  25.127  1.00  0.00    -0.339 N 
ATOM     87  C   UNL A   1      29.624  26.433  24.043  1.00  0.00     0.251 C 
ATOM     88  H   UNL A   1      28.968  25.221  25.483  1.00  0.00     0.164 HD
ATOM     89  O   UNL A   1      28.500  26.723  23.643  1.00  0.00    -0.269 OA
BRANCH  87  90
ATOM     90  C   UNL A   1      30.804  26.957  23.337  1.00  0.00     0.040 A 
ATOM     91  C   UNL A   1      31.597  26.105  22.558  1.00  0.00     0.017 A 
ATOM     92  C   UNL A   1      31.110  28.317  23.448  1.00  0.00     0.017 A 
ATOM     93  C   UNL A   1      32.750  26.601  21.955  1.00  0.00     0.040 A 
ATOM     94  C   UNL A   1      32.259  28.809  22.834  1.00  0.00     0.040 A 
ATOM     95  C   UNL A   1      33.075  27.945  22.107  1.00  0.00     0.123 A 
ATOM     96  F   UNL A   1      34.194  28.417  21.542  1.00  0.00    -0.207 F 
ENDBRANCH  87  90
ENDBRANCH  85  86
BRANCH  85  97
ATOM     97  C   UNL A   1      31.651  26.406  26.618  1.00  0.00     0.101 C 
BRANCH  97  98
ATOM     98  S   UNL A   1      33.349  26.828  26.103  1.00  0.00    -0.177 SA
ATOM     99  H   UNL A   1      33.519  28.176  26.166  1.00  0.00     0.102 HD
ENDBRANCH  97  98
ENDBRANCH  85  97
ENDBRANCH  82  85
ENDBRANCH  80  81
BRANCH  80 100
ATOM    100  C   UNL A   1      34.036  22.380  27.685  1.00  0.00     0.191 C 
BRANCH 100 101
ATOM    101  O   UNL A   1      34.571  21.120  27.290  1.00  0.00    -0.394 OA
ATOM    102  H   UNL A   1      35.314  21.260  26.682  1.00  0.00     0.210 HD
ENDBRANCH 100 101
ENDBRANCH  80 100
ENDBRANCH  77  80
ENDBRANCH  75  76
ENDBRANCH  74  75
ENDBRANCH   1  74
TORSDOF 21
ENDMDL
MODEL 2
REMARK VINA RESULT:     -11.1      1.290      2.022
REMARK SMILES O=C(NCCCCCCNC(=O)[C@H](CO)NC(=O)[C@H](CS)NC(=O)c1ccc(F)cc1)c1ccc(-c2c3nc(c(-c4c(F)c(F)c(F)c(F)c4F)c4ccc([nH]4)c(-c4c(F)c(F)c(F)c(F)c4F)c4nc(c(-c5c(F)c(F)c(F)c(F)c5F)c5ccc2[nH]5)C=C4)C=C3)cc1
REMARK SMILES IDX 7 1 6 2 5 3 4 4 3 5 1 6 2 7 32 9 33 10 94 11 34 12 93 13
REMARK SMILES IDX 35 14 36 15 37 16 87 17 38 18 92 19 86 20 88 21 39 22 91 23
REMARK SMILES IDX 85 24 84 25 40 27 72 28 52 29 71 30 53 31 56 32 70 33 89 34
REMARK SMILES IDX 54 35 55 36 69 38 90 39 57 40 41 41 42 42 50 43 43 44 44 45
REMARK SMILES IDX 48 46 51 47 45 48 46 49 49 50 47 51 73 52 74 53 82 54 75 55
REMARK SMILES IDX 76 56 80 57 83 58 77 59 78 60 81 61 79 62 58 63 59 64 67 65
REMARK SMILES IDX 60 66 61 67 65 68 68 69 62 70 63 71 66 72 64 73 8 74 9 75
REMARK SMILES IDX 10 76 11 77 12 79 13 80 16 81 17 82 18 84 19 85 22 86 23 87
REMARK SMILES IDX 24 89 25 90 26 91 31 92 27 93 30 94 28 95 29 96 20 97 21 98
REMARK SMILES IDX 14 100 15 101
REMARK H PARENT 3 8 88 26 56 37 10 78 16 83 22 88 21 99 15 102
REMARK Flexibility Score: inf
ROOT
ATOM      1  C   UNL A   1      37.168  21.831  24.603  1.00  0.00     0.002 C 
ENDROOT
BRANCH   1   2
ATOM      2  C   UNL A   1      36.794  20.353  24.780  1.00  0.00     0.002 C 
BRANCH   2   3
ATOM      3  C   UNL A   1      37.967  19.401  25.031  1.00  0.00     0.021 C 
BRANCH   3   4
ATOM      4  C   UNL A   1      39.127  20.012  25.808  1.00  0.00     0.116 C 
BRANCH   4   5
ATOM      5  N   UNL A   1      40.285  19.133  25.841  1.00  0.00    -0.352 N 
ATOM      6  O   UNL A   1      42.471  18.588  25.787  1.00  0.00    -0.269 OA
ATOM      7  C   UNL A   1      41.614  19.443  25.985  1.00  0.00     0.251 C 
ATOM      8  H   UNL A   1      40.086  18.174  25.746  1.00  0.00     0.163 HD
BRANCH   7   9
ATOM      9  C   UNL A   1      42.020  20.813  26.371  1.00  0.00     0.039 A 
ATOM     10  C   UNL A   1      42.287  21.128  27.704  1.00  0.00     0.014 A 
ATOM     11  C   UNL A   1      42.181  21.785  25.377  1.00  0.00     0.014 A 
ATOM     12  C   UNL A   1      42.592  22.437  28.058  1.00  0.00     0.010 A 
ATOM     13  C   UNL A   1      42.570  23.083  25.725  1.00  0.00     0.010 A 
ATOM     14  C   UNL A   1      42.761  23.423  27.072  1.00  0.00    -0.014 A 
BRANCH  14  15
ATOM     15  C   UNL A   1      43.230  24.769  27.487  1.00  0.00     0.031 A 
ATOM     16  C   UNL A   1      44.629  25.237  27.206  1.00  0.00     0.074 A 
ATOM     17  C   UNL A   1      42.339  25.600  28.064  1.00  0.00     0.049 A 
ATOM     18  N   UNL A   1      45.158  26.416  27.419  1.00  0.00    -0.248 NA
ATOM     19  C   UNL A   1      45.559  24.262  26.618  1.00  0.00     0.031 C 
ATOM     20  C   UNL A   1      40.959  25.243  28.400  1.00  0.00     0.029 A 
ATOM     21  N   UNL A   1      42.439  26.918  28.429  1.00  0.00    -0.354 N 
ATOM     22  C   UNL A   1      46.478  26.325  27.001  1.00  0.00     0.074 A 
ATOM     23  C   UNL A   1      46.682  24.967  26.542  1.00  0.00     0.031 C 
ATOM     24  C   UNL A   1      40.319  26.333  28.845  1.00  0.00     0.029 A 
ATOM     25  C   UNL A   1      41.256  27.449  28.884  1.00  0.00     0.049 A 
ATOM     26  H   UNL A   1      43.276  27.432  28.372  1.00  0.00     0.167 HD
ATOM     27  C   UNL A   1      47.425  27.293  26.994  1.00  0.00     0.037 A 
ATOM     28  C   UNL A   1      40.956  28.698  29.284  1.00  0.00     0.037 A 
ATOM     29  C   UNL A   1      47.209  28.648  27.433  1.00  0.00     0.049 A 
ATOM     30  C   UNL A   1      42.030  29.746  29.265  1.00  0.00     0.074 A 
ATOM     31  C   UNL A   1      48.105  29.703  27.442  1.00  0.00     0.029 A 
ATOM     32  N   UNL A   1      46.013  29.136  27.938  1.00  0.00    -0.354 N 
ATOM     33  N   UNL A   1      43.270  29.648  28.851  1.00  0.00    -0.248 NA
ATOM     34  C   UNL A   1      41.669  31.074  29.779  1.00  0.00     0.031 C 
ATOM     35  C   UNL A   1      47.462  30.820  27.984  1.00  0.00     0.029 A 
ATOM     36  C   UNL A   1      46.154  30.472  28.276  1.00  0.00     0.049 A 
ATOM     37  H   UNL A   1      45.187  28.609  28.041  1.00  0.00     0.167 HD
ATOM     38  C   UNL A   1      43.837  30.896  29.056  1.00  0.00     0.074 A 
ATOM     39  C   UNL A   1      42.797  31.745  29.598  1.00  0.00     0.031 C 
ATOM     40  C   UNL A   1      45.111  31.298  28.826  1.00  0.00     0.037 A 
BRANCH  27  41
ATOM     41  C   UNL A   1      48.795  26.940  26.493  1.00  0.00     0.064 A 
ATOM     42  C   UNL A   1      49.118  27.100  25.137  1.00  0.00     0.173 A 
ATOM     43  C   UNL A   1      49.746  26.342  27.332  1.00  0.00     0.173 A 
ATOM     44  F   UNL A   1      48.239  27.662  24.294  1.00  0.00    -0.203 F 
ATOM     45  C   UNL A   1      50.338  26.653  24.634  1.00  0.00     0.198 A 
ATOM     46  C   UNL A   1      50.973  25.914  26.829  1.00  0.00     0.198 A 
ATOM     47  F   UNL A   1      49.487  26.177  28.637  1.00  0.00    -0.203 F 
ATOM     48  F   UNL A   1      50.612  26.783  23.329  1.00  0.00    -0.200 F 
ATOM     49  C   UNL A   1      51.262  26.059  25.480  1.00  0.00     0.200 A 
ATOM     50  F   UNL A   1      51.873  25.355  27.649  1.00  0.00    -0.200 F 
ATOM     51  F   UNL A   1      52.434  25.625  24.994  1.00  0.00    -0.200 F 
ENDBRANCH  27  41
BRANCH  28  52
ATOM     52  C   UNL A   1      39.573  29.020  29.720  1.00  0.00     0.064 A 
ATOM     53  C   UNL A   1      39.156  28.800  31.040  1.00  0.00     0.173 A 
ATOM     54  C   UNL A   1      38.635  29.531  28.814  1.00  0.00     0.173 A 
ATOM     55  F   UNL A   1      40.017  28.309  31.943  1.00  0.00    -0.203 F 
ATOM     56  C   UNL A   1      37.845  29.057  31.433  1.00  0.00     0.198 A 
ATOM     57  C   UNL A   1      37.331  29.815  29.215  1.00  0.00     0.198 A 
ATOM     58  F   UNL A   1      38.992  29.777  27.545  1.00  0.00    -0.203 F 
ATOM     59  F   UNL A   1      37.463  28.802  32.691  1.00  0.00    -0.200 F 
ATOM     60  C   UNL A   1      36.935  29.569  30.521  1.00  0.00     0.200 A 
ATOM     61  F   UNL A   1      36.460  30.333  28.338  1.00  0.00    -0.200 F 
ATOM     62  F   UNL A   1      35.677  29.830  30.902  1.00  0.00    -0.200 F 
ENDBRANCH  28  52
BRANCH  40  63
ATOM     63  C   UNL A   1      45.450  32.717  29.171  1.00  0.00     0.064 A 
ATOM     64  C   UNL A   1      45.301  33.738  28.223  1.00  0.00     0.173 A 
ATOM     65  C   UNL A   1      45.964  33.054  30.431  1.00  0.00     0.173 A 
ATOM     66  F   UNL A   1      44.819  33.463  27.001  1.00  0.00    -0.203 F 
ATOM     67  C   UNL A   1      45.658  35.049  28.523  1.00  0.00     0.198 A 
ATOM     68  C   UNL A   1      46.298  34.370  30.736  1.00  0.00     0.198 A 
ATOM     69  F   UNL A   1      46.111  32.112  31.375  1.00  0.00    -0.203 F 
ATOM     70  F   UNL A   1      45.526  36.008  27.595  1.00  0.00    -0.200 F 
ATOM     71  C   UNL A   1      46.151  35.365  29.781  1.00  0.00     0.200 A 
ATOM     72  F   UNL A   1      46.750  34.678  31.960  1.00  0.00    -0.200 F 
ATOM     73  F   UNL A   1      46.479  36.631  30.074  1.00  0.00    -0.200 F 
ENDBRANCH  40  63
ENDBRANCH  14  15
ENDBRANCH   7   9
ENDBRANCH   4   5
ENDBRANCH   3   4
ENDBRANCH   2   3
ENDBRANCH   1   2
BRANCH   1  74
ATOM     74  C   UNL A   1      36.429  22.559  23.477  1.00  0.00     0.021 C 
BRANCH  74  75
ATOM     75  C   UNL A   1      35.115  23.203  23.915  1.00  0.00     0.116 C 
BRANCH  75  76
ATOM     76  N   UNL A   1      33.998  22.292  23.788  1.00  0.00    -0.354 N 
ATOM     77  C   UNL A   1      33.104  21.872  24.734  1.00  0.00     0.244 C 
ATOM     78  H   UNL A   1      33.861  21.920  22.886  1.00  0.00     0.163 HD
ATOM     79  O   UNL A   1      32.310  20.987  24.408  1.00  0.00    -0.273 OA
BRANCH  77  80
ATOM     80  C   UNL A   1      33.184  22.412  26.179  1.00  0.00     0.197 C 
BRANCH  80  81
ATOM     81  N   UNL A   1      31.842  22.583  26.762  1.00  0.00    -0.340 N 
ATOM     82  C   UNL A   1      30.992  23.646  26.806  1.00  0.00     0.244 C 
ATOM     83  H   UNL A   1      31.493  21.775  27.203  1.00  0.00     0.164 HD
ATOM     84  O   UNL A   1      29.860  23.418  27.251  1.00  0.00    -0.273 OA
BRANCH  82  85
ATOM     85  C   UNL A   1      31.288  25.019  26.159  1.00  0.00     0.181 C 
BRANCH  85  86
ATOM     86  N   UNL A   1      32.697  25.188  25.807  1.00  0.00    -0.339 N 
ATOM     87  C   UNL A   1      33.418  26.325  25.572  1.00  0.00     0.251 C 
ATOM     88  H   UNL A   1      33.207  24.349  25.727  1.00  0.00     0.164 HD
ATOM     89  O   UNL A   1      34.579  26.266  25.176  1.00  0.00    -0.269 OA
BRANCH  87  90
ATOM     90  C   UNL A   1      32.799  27.638  25.813  1.00  0.00     0.040 A 
ATOM     91  C   UNL A   1      32.163  28.321  24.767  1.00  0.00     0.017 A 
ATOM     92  C   UNL A   1      32.845  28.182  27.100  1.00  0.00     0.017 A 
ATOM     93  C   UNL A   1      31.645  29.593  24.994  1.00  0.00     0.040 A 
ATOM     94  C   UNL A   1      32.315  29.451  27.322  1.00  0.00     0.040 A 
ATOM     95  C   UNL A   1      31.734  30.150  26.266  1.00  0.00     0.123 A 
ATOM     96  F   UNL A   1      31.252  31.381  26.478  1.00  0.00    -0.207 F 
ENDBRANCH  87  90
ENDBRANCH  85  86
BRANCH  85  97
ATOM     97  C   UNL A   1      30.332  25.252  24.980  1.00  0.00     0.101 C 
BRANCH  97  98
ATOM     98  S   UNL A   1      30.817  24.423  23.428  1.00  0.00    -0.177 SA
ATOM     99  H   UNL A   1      30.115  23.265  23.296  1.00  0.00     0.102 HD
ENDBRANCH  97  98
ENDBRANCH  85  97
ENDBRANCH  82  85
ENDBRANCH  80  81
BRANCH  80 100
ATOM    100  C   UNL A   1      34.028  21.447  27.030  1.00  0.00     0.191 C 
BRANCH 100 101
ATOM    101  O   UNL A   1      33.396  20.170  27.061  1.00  0.00    -0.394 OA
ATOM    102  H   UNL A   1      33.414  19.822  27.967  1.00  0.00     0.210 HD
ENDBRANCH 100 101
ENDBRANCH  80 100
ENDBRANCH  77  80
ENDBRANCH  75  76
ENDBRANCH  74  75
ENDBRANCH   1  74
TORSDOF 21
ENDMDL
MODEL 3
REMARK VINA RESULT:     -11.0      5.946     10.501
REMARK SMILES O=C(NCCCCCCNC(=O)[C@H](CO)NC(=O)[C@H](CS)NC(=O)c1ccc(F)cc1)c1ccc(-c2c3nc(c(-c4c(F)c(F)c(F)c(F)c4F)c4ccc([nH]4)c(-c4c(F)c(F)c(F)c(F)c4F)c4nc(c(-c5c(F)c(F)c(F)c(F)c5F)c5ccc2[nH]5)C=C4)C=C3)cc1
REMARK SMILES IDX 7 1 6 2 5 3 4 4 3 5 1 6 2 7 32 9 33 10 94 11 34 12 93 13
REMARK SMILES IDX 35 14 36 15 37 16 87 17 38 18 92 19 86 20 88 21 39 22 91 23
REMARK SMILES IDX 85 24 84 25 40 27 72 28 52 29 71 30 53 31 56 32 70 33 89 34
REMARK SMILES IDX 54 35 55 36 69 38 90 39 57 40 41 41 42 42 50 43 43 44 44 45
REMARK SMILES IDX 48 46 51 47 45 48 46 49 49 50 47 51 73 52 74 53 82 54 75 55
REMARK SMILES IDX 76 56 80 57 83 58 77 59 78 60 81 61 79 62 58 63 59 64 67 65
REMARK SMILES IDX 60 66 61 67 65 68 68 69 62 70 63 71 66 72 64 73 8 74 9 75
REMARK SMILES IDX 10 76 11 77 12 79 13 80 16 81 17 82 18 84 19 85 22 86 23 87
REMARK SMILES IDX 24 89 25 90 26 91 31 92 27 93 30 94 28 95 29 96 20 97 21 98
REMARK SMILES IDX 14 100 15 101
REMARK H PARENT 3 8 88 26 56 37 10 78 16 83 22 88 21 99 15 102
REMARK Flexibility Score: inf
ROOT
ATOM      1  C   UNL A   1      33.710  31.931  27.943  1.00  0.00     0.002 C 
ENDROOT
BRANCH   1   2
ATOM      2  C   UNL A   1      34.091  33.369  28.322  1.00  0.00     0.002 C 
BRANCH   2   3
ATOM      3  C   UNL A   1      32.924  34.353  28.437  1.00  0.00     0.021 C 
BRANCH   3   4
ATOM      4  C   UNL A   1      33.324  35.769  28.833  1.00  0.00     0.116 C 
BRANCH   4   5
ATOM      5  N   UNL A   1      32.611  36.227  30.015  1.00  0.00    -0.352 N 
ATOM      6  O   UNL A   1      31.926  36.192  32.161  1.00  0.00    -0.269 OA
ATOM      7  C   UNL A   1      32.754  35.845  31.325  1.00  0.00     0.251 C 
ATOM      8  H   UNL A   1      31.926  36.915  29.851  1.00  0.00     0.163 HD
BRANCH   7   9
ATOM      9  C   UNL A   1      33.901  35.003  31.733  1.00  0.00     0.039 A 
ATOM     10  C   UNL A   1      35.164  35.564  31.925  1.00  0.00     0.014 A 
ATOM     11  C   UNL A   1      33.698  33.639  31.971  1.00  0.00     0.014 A 
ATOM     12  C   UNL A   1      36.245  34.747  32.232  1.00  0.00     0.010 A 
ATOM     13  C   UNL A   1      34.772  32.831  32.363  1.00  0.00     0.010 A 
ATOM     14  C   UNL A   1      36.057  33.377  32.479  1.00  0.00    -0.014 A 
BRANCH  14  15
ATOM     15  C   UNL A   1      37.216  32.575  32.947  1.00  0.00     0.031 A 
ATOM     16  C   UNL A   1      37.867  31.546  32.068  1.00  0.00     0.074 A 
ATOM     17  C   UNL A   1      37.722  32.844  34.168  1.00  0.00     0.049 A 
ATOM     18  N   UNL A   1      38.944  30.836  32.296  1.00  0.00    -0.248 NA
ATOM     19  C   UNL A   1      37.234  31.272  30.770  1.00  0.00     0.031 C 
ATOM     20  C   UNL A   1      37.156  33.810  35.112  1.00  0.00     0.029 A 
ATOM     21  N   UNL A   1      38.839  32.372  34.806  1.00  0.00    -0.354 N 
ATOM     22  C   UNL A   1      39.112  30.027  31.182  1.00  0.00     0.074 A 
ATOM     23  C   UNL A   1      38.015  30.315  30.282  1.00  0.00     0.031 C 
ATOM     24  C   UNL A   1      37.970  33.918  36.171  1.00  0.00     0.029 A 
ATOM     25  C   UNL A   1      39.081  32.988  36.010  1.00  0.00     0.049 A 
ATOM     26  H   UNL A   1      39.411  31.661  34.438  1.00  0.00     0.167 HD
ATOM     27  C   UNL A   1      40.102  29.136  30.932  1.00  0.00     0.037 A 
ATOM     28  C   UNL A   1      40.089  32.827  36.886  1.00  0.00     0.037 A 
ATOM     29  C   UNL A   1      41.203  28.870  31.823  1.00  0.00     0.049 A 
ATOM     30  C   UNL A   1      41.168  31.830  36.579  1.00  0.00     0.074 A 
ATOM     31  C   UNL A   1      42.263  27.999  31.645  1.00  0.00     0.029 A 
ATOM     32  N   UNL A   1      41.386  29.474  33.058  1.00  0.00    -0.354 N 
ATOM     33  N   UNL A   1      41.322  31.084  35.513  1.00  0.00    -0.248 NA
ATOM     34  C   UNL A   1      42.205  31.641  37.603  1.00  0.00     0.031 C 
ATOM     35  C   UNL A   1      43.070  28.050  32.786  1.00  0.00     0.029 A 
ATOM     36  C   UNL A   1      42.533  28.982  33.658  1.00  0.00     0.049 A 
ATOM     37  H   UNL A   1      40.788  30.152  33.450  1.00  0.00     0.167 HD
ATOM     38  C   UNL A   1      42.468  30.338  35.734  1.00  0.00     0.074 A 
ATOM     39  C   UNL A   1      42.991  30.745  37.022  1.00  0.00     0.031 C 
ATOM     40  C   UNL A   1      43.031  29.390  34.947  1.00  0.00     0.037 A 
BRANCH  27  41
ATOM     41  C   UNL A   1      40.058  28.372  29.643  1.00  0.00     0.064 A 
ATOM     42  C   UNL A   1      39.423  27.123  29.578  1.00  0.00     0.173 A 
ATOM     43  C   UNL A   1      40.740  28.824  28.503  1.00  0.00     0.173 A 
ATOM     44  F   UNL A   1      38.763  26.644  30.643  1.00  0.00    -0.203 F 
ATOM     45  C   UNL A   1      39.490  26.343  28.426  1.00  0.00     0.198 A 
ATOM     46  C   UNL A   1      40.788  28.050  27.346  1.00  0.00     0.198 A 
ATOM     47  F   UNL A   1      41.355  30.016  28.513  1.00  0.00    -0.203 F 
ATOM     48  F   UNL A   1      38.907  25.138  28.398  1.00  0.00    -0.200 F 
ATOM     49  C   UNL A   1      40.174  26.807  27.312  1.00  0.00     0.200 A 
ATOM     50  F   UNL A   1      41.436  28.506  26.265  1.00  0.00    -0.200 F 
ATOM     51  F   UNL A   1      40.242  26.054  26.205  1.00  0.00    -0.200 F 
ENDBRANCH  27  41
BRANCH  28  52
ATOM     52  C   UNL A   1      40.125  33.644  38.126  1.00  0.00     0.064 A 
ATOM     53  C   UNL A   1      40.937  34.783  38.224  1.00  0.00     0.173 A 
ATOM     54  C   UNL A   1      39.367  33.282  39.247  1.00  0.00     0.173 A 
ATOM     55  F   UNL A   1      41.684  35.167  37.180  1.00  0.00    -0.203 F 
ATOM     56  C   UNL A   1      41.005  35.518  39.405  1.00  0.00     0.198 A 
ATOM     57  C   UNL A   1      39.414  34.035  40.419  1.00  0.00     0.198 A 
ATOM     58  F   UNL A   1      38.561  32.212  39.195  1.00  0.00    -0.203 F 
ATOM     59  F   UNL A   1      41.817  36.580  39.484  1.00  0.00    -0.200 F 
ATOM     60  C   UNL A   1      40.240  35.147  40.500  1.00  0.00     0.200 A 
ATOM     61  F   UNL A   1      38.655  33.687  41.467  1.00  0.00    -0.200 F 
ATOM     62  F   UNL A   1      40.295  35.862  41.632  1.00  0.00    -0.200 F 
ENDBRANCH  28  52
BRANCH  40  63
ATOM     63  C   UNL A   1      44.271  28.723  35.461  1.00  0.00     0.064 A 
ATOM     64  C   UNL A   1      45.539  29.234  35.152  1.00  0.00     0.173 A 
ATOM     65  C   UNL A   1      44.199  27.551  36.227  1.00  0.00     0.173 A 
ATOM     66  F   UNL A   1      45.658  30.350  34.416  1.00  0.00    -0.203 F 
ATOM     67  C   UNL A   1      46.694  28.592  35.589  1.00  0.00     0.198 A 
ATOM     68  C   UNL A   1      45.355  26.925  36.683  1.00  0.00     0.198 A 
ATOM     69  F   UNL A   1      43.006  27.034  36.559  1.00  0.00    -0.203 F 
ATOM     70  F   UNL A   1      47.897  29.086  35.265  1.00  0.00    -0.200 F 
ATOM     71  C   UNL A   1      46.600  27.442  36.358  1.00  0.00     0.200 A 
ATOM     72  F   UNL A   1      45.264  25.828  37.448  1.00  0.00    -0.200 F 
ATOM     73  F   UNL A   1      47.713  26.834  36.793  1.00  0.00    -0.200 F 
ENDBRANCH  40  63
ENDBRANCH  14  15
ENDBRANCH   7   9
ENDBRANCH   4   5
ENDBRANCH   3   4
ENDBRANCH   2   3
ENDBRANCH   1   2
BRANCH   1  74
ATOM     74  C   UNL A   1      34.884  30.958  27.810  1.00  0.00     0.021 C 
BRANCH  74  75
ATOM     75  C   UNL A   1      34.500  29.601  27.225  1.00  0.00     0.116 C 
BRANCH  75  76
ATOM     76  N   UNL A   1      33.303  29.067  27.837  1.00  0.00    -0.354 N 
ATOM     77  C   UNL A   1      32.246  28.416  27.263  1.00  0.00     0.244 C 
ATOM     78  H   UNL A   1      33.240  29.190  28.813  1.00  0.00     0.163 HD
ATOM     79  O   UNL A   1      31.277  28.167  27.984  1.00  0.00    -0.273 OA
BRANCH  77  80
ATOM     80  C   UNL A   1      32.239  28.122  25.746  1.00  0.00     0.197 C 
BRANCH  80  81
ATOM     81  N   UNL A   1      31.167  27.178  25.388  1.00  0.00    -0.340 N 
ATOM     82  C   UNL A   1      31.162  26.042  24.639  1.00  0.00     0.244 C 
ATOM     83  H   UNL A   1      30.287  27.414  25.762  1.00  0.00     0.164 HD
ATOM     84  O   UNL A   1      30.111  25.388  24.650  1.00  0.00    -0.273 OA
BRANCH  82  85
ATOM     85  C   UNL A   1      32.420  25.439  23.971  1.00  0.00     0.181 C 
BRANCH  85  86
ATOM     86  N   UNL A   1      32.233  24.046  23.566  1.00  0.00    -0.339 N 
ATOM     87  C   UNL A   1      33.113  23.000  23.569  1.00  0.00     0.251 C 
ATOM     88  H   UNL A   1      31.330  23.828  23.238  1.00  0.00     0.164 HD
ATOM     89  O   UNL A   1      32.807  21.915  23.082  1.00  0.00    -0.269 OA
BRANCH  87  90
ATOM     90  C   UNL A   1      34.441  23.173  24.179  1.00  0.00     0.040 A 
ATOM     91  C   UNL A   1      34.561  23.402  25.556  1.00  0.00     0.017 A 
ATOM     92  C   UNL A   1      35.575  23.094  23.365  1.00  0.00     0.017 A 
ATOM     93  C   UNL A   1      35.819  23.634  26.106  1.00  0.00     0.040 A 
ATOM     94  C   UNL A   1      36.831  23.318  23.922  1.00  0.00     0.040 A 
ATOM     95  C   UNL A   1      36.941  23.600  25.282  1.00  0.00     0.123 A 
ATOM     96  F   UNL A   1      38.148  23.843  25.808  1.00  0.00    -0.207 F 
ENDBRANCH  87  90
ENDBRANCH  85  86
BRANCH  85  97
ATOM     97  C   UNL A   1      32.887  26.351  22.827  1.00  0.00     0.101 C 
BRANCH  97  98
ATOM     98  S   UNL A   1      32.520  25.725  21.153  1.00  0.00    -0.177 SA
ATOM     99  H   UNL A   1      33.136  24.526  20.973  1.00  0.00     0.102 HD
ENDBRANCH  97  98
ENDBRANCH  85  97
ENDBRANCH  82  85
ENDBRANCH  80  81
BRANCH  80 100
ATOM    100  C   UNL A   1      32.077  29.447  24.980  1.00  0.00     0.191 C 
BRANCH 100 101
ATOM    101  O   UNL A   1      33.262  29.708  24.234  1.00  0.00    -0.394 OA
ATOM    102  H   UNL A   1      33.104  29.515  23.296  1.00  0.00     0.210 HD
ENDBRANCH 100 101
ENDBRANCH  80 100
ENDBRANCH  77  80
ENDBRANCH  75  76
ENDBRANCH  74  75
ENDBRANCH   1  74
TORSDOF 21
ENDMDL
