MODEL 1
REMARK VINA RESULT:     -11.4      0.000      0.000
REMARK SMILES CC[C@@H](C(=O)NCCCCCCNC(=O)c1ccc(-c2c3nc(c(-c4c(F)c(F)c(F)c(F)c4F)c4ccc([nH]4)c(-c4c(F)c(F)c(F)c(F)c4F)c4nc(c(-c5c(F)c(F)c(F)c(F)c5F)c5ccc2[nH]5)C=C4)C=C3)cc1)c1cc(Br)ccc1F
REMARK SMILES IDX 10 1 9 2 8 3 7 4 6 5 4 6 5 7 3 9 2 10 1 11 79 12 80 13 85 14
REMARK SMILES IDX 81 15 84 16 86 17 82 18 83 19 11 20 12 21 13 22 14 23 15 25
REMARK SMILES IDX 16 26 17 27 78 28 18 29 77 30 19 31 20 32 21 33 71 34 22 35
REMARK SMILES IDX 76 36 70 37 72 38 23 39 75 40 69 41 68 42 24 44 56 45 36 46
REMARK SMILES IDX 55 47 37 48 40 49 54 50 73 51 38 52 39 53 53 55 74 56 41 57
REMARK SMILES IDX 25 58 26 59 34 60 27 61 28 62 32 63 35 64 29 65 30 66 33 67
REMARK SMILES IDX 31 68 57 69 58 70 66 71 59 72 60 73 64 74 67 75 61 76 62 77
REMARK SMILES IDX 65 78 63 79 42 80 43 81 51 82 44 83 45 84 49 85 52 86 46 87
REMARK SMILES IDX 47 88 50 89 48 90
REMARK H PARENT 6 8 13 24 72 43 40 54
REMARK Flexibility Score: inf
ROOT
ATOM      1  C   UNL A   1      31.386  30.854  26.100  1.00  0.00     0.002 C 
ENDROOT
BRANCH   1   2
ATOM      2  C   UNL A   1      32.118  29.965  27.106  1.00  0.00     0.002 C 
BRANCH   2   3
ATOM      3  C   UNL A   1      32.573  28.611  26.554  1.00  0.00     0.021 C 
BRANCH   3   4
ATOM      4  C   UNL A   1      34.005  28.604  26.002  1.00  0.00     0.116 C 
BRANCH   4   5
ATOM      5  N   UNL A   1      33.973  28.979  24.603  1.00  0.00    -0.356 N 
ATOM      6  C   UNL A   1      33.844  28.190  23.496  1.00  0.00     0.227 C 
ATOM      7  O   UNL A   1      34.356  28.608  22.454  1.00  0.00    -0.274 OA
ATOM      8  H   UNL A   1      34.058  29.943  24.425  1.00  0.00     0.163 HD
BRANCH   6   9
ATOM      9  C   UNL A   1      33.023  26.877  23.540  1.00  0.00     0.111 C 
BRANCH   9  10
ATOM     10  C   UNL A   1      33.499  25.855  22.479  1.00  0.00     0.015 C 
ATOM     11  C   UNL A   1      33.976  24.493  22.940  1.00  0.00     0.005 C 
ENDBRANCH   9  10
BRANCH   9  12
ATOM     12  C   UNL A   1      31.523  27.218  23.345  1.00  0.00     0.001 A 
ATOM     13  C   UNL A   1      31.077  28.390  22.701  1.00  0.00     0.023 A 
ATOM     14  C   UNL A   1      30.536  26.373  23.880  1.00  0.00     0.127 A 
ATOM     15  C   UNL A   1      29.719  28.722  22.659  1.00  0.00     0.018 A 
ATOM     16  C   UNL A   1      29.182  26.713  23.854  1.00  0.00     0.041 A 
ATOM     17  F   UNL A   1      30.887  25.214  24.455  1.00  0.00    -0.207 F 
ATOM     18  Br  UNL A   1      29.181  30.325  21.808  1.00  0.00    -0.051 Br
ATOM     19  C   UNL A   1      28.770  27.899  23.250  1.00  0.00     0.019 A 
ENDBRANCH   9  12
ENDBRANCH   6   9
ENDBRANCH   4   5
ENDBRANCH   3   4
ENDBRANCH   2   3
ENDBRANCH   1   2
BRANCH   1  20
ATOM     20  C   UNL A   1      31.305  32.333  26.480  1.00  0.00     0.021 C 
BRANCH  20  21
ATOM     21  C   UNL A   1      32.531  32.874  27.209  1.00  0.00     0.116 C 
BRANCH  21  22
ATOM     22  N   UNL A   1      32.366  34.266  27.598  1.00  0.00    -0.352 N 
ATOM     23  C   UNL A   1      32.980  34.962  28.605  1.00  0.00     0.251 C 
ATOM     24  H   UNL A   1      31.722  34.780  27.060  1.00  0.00     0.163 HD
ATOM     25  O   UNL A   1      32.565  36.073  28.935  1.00  0.00    -0.269 OA
BRANCH  23  26
ATOM     26  C   UNL A   1      34.140  34.376  29.306  1.00  0.00     0.039 A 
ATOM     27  C   UNL A   1      33.924  33.609  30.454  1.00  0.00     0.014 A 
ATOM     28  C   UNL A   1      35.439  34.598  28.840  1.00  0.00     0.014 A 
ATOM     29  C   UNL A   1      35.010  33.027  31.109  1.00  0.00     0.010 A 
ATOM     30  C   UNL A   1      36.511  33.954  29.448  1.00  0.00     0.010 A 
ATOM     31  C   UNL A   1      36.310  33.174  30.597  1.00  0.00    -0.014 A 
BRANCH  31  32
ATOM     32  C   UNL A   1      37.477  32.547  31.268  1.00  0.00     0.031 A 
ATOM     33  C   UNL A   1      38.220  31.429  30.590  1.00  0.00     0.074 A 
ATOM     34  C   UNL A   1      37.833  32.943  32.504  1.00  0.00     0.049 A 
ATOM     35  N   UNL A   1      39.218  30.707  31.032  1.00  0.00    -0.248 NA
ATOM     36  C   UNL A   1      37.759  31.053  29.244  1.00  0.00     0.031 C 
ATOM     37  C   UNL A   1      37.168  33.990  33.282  1.00  0.00     0.029 A 
ATOM     38  N   UNL A   1      38.839  32.507  33.329  1.00  0.00    -0.354 N 
ATOM     39  C   UNL A   1      39.492  29.788  30.028  1.00  0.00     0.074 A 
ATOM     40  C   UNL A   1      38.517  30.000  28.981  1.00  0.00     0.031 C 
ATOM     41  C   UNL A   1      37.799  34.132  34.458  1.00  0.00     0.029 A 
ATOM     42  C   UNL A   1      38.887  33.162  34.535  1.00  0.00     0.049 A 
ATOM     43  H   UNL A   1      39.468  31.791  33.079  1.00  0.00     0.167 HD
ATOM     44  C   UNL A   1      40.485  28.867  29.972  1.00  0.00     0.037 A 
ATOM     45  C   UNL A   1      39.712  32.993  35.585  1.00  0.00     0.037 A 
ATOM     46  C   UNL A   1      41.465  28.672  31.008  1.00  0.00     0.049 A 
ATOM     47  C   UNL A   1      40.798  31.953  35.504  1.00  0.00     0.074 A 
ATOM     48  C   UNL A   1      42.537  27.799  31.031  1.00  0.00     0.029 A 
ATOM     49  N   UNL A   1      41.489  29.366  32.210  1.00  0.00    -0.354 N 
ATOM     50  N   UNL A   1      41.086  31.129  34.526  1.00  0.00    -0.248 NA
ATOM     51  C   UNL A   1      41.680  31.827  36.673  1.00  0.00     0.031 C 
ATOM     52  C   UNL A   1      43.180  27.927  32.267  1.00  0.00     0.029 A 
ATOM     53  C   UNL A   1      42.547  28.926  32.989  1.00  0.00     0.049 A 
ATOM     54  H   UNL A   1      40.849  30.068  32.471  1.00  0.00     0.167 HD
ATOM     55  C   UNL A   1      42.202  30.416  34.943  1.00  0.00     0.074 A 
ATOM     56  C   UNL A   1      42.545  30.912  36.260  1.00  0.00     0.031 C 
ATOM     57  C   UNL A   1      42.884  29.442  34.292  1.00  0.00     0.037 A 
BRANCH  44  58
ATOM     58  C   UNL A   1      40.556  28.000  28.747  1.00  0.00     0.064 A 
ATOM     59  C   UNL A   1      39.869  26.778  28.667  1.00  0.00     0.173 A 
ATOM     60  C   UNL A   1      41.305  28.403  27.630  1.00  0.00     0.173 A 
ATOM     61  F   UNL A   1      39.150  26.340  29.709  1.00  0.00    -0.203 F 
ATOM     62  C   UNL A   1      39.960  25.976  27.531  1.00  0.00     0.198 A 
ATOM     63  C   UNL A   1      41.364  27.616  26.483  1.00  0.00     0.198 A 
ATOM     64  F   UNL A   1      41.977  29.564  27.648  1.00  0.00    -0.203 F 
ATOM     65  F   UNL A   1      39.345  24.787  27.503  1.00  0.00    -0.200 F 
ATOM     66  C   UNL A   1      40.701  26.399  26.438  1.00  0.00     0.200 A 
ATOM     67  F   UNL A   1      42.068  28.031  25.422  1.00  0.00    -0.200 F 
ATOM     68  F   UNL A   1      40.783  25.628  25.345  1.00  0.00    -0.200 F 
ENDBRANCH  44  58
BRANCH  45  69
ATOM     69  C   UNL A   1      39.568  33.852  36.790  1.00  0.00     0.064 A 
ATOM     70  C   UNL A   1      38.797  33.432  37.883  1.00  0.00     0.173 A 
ATOM     71  C   UNL A   1      40.187  35.107  36.873  1.00  0.00     0.173 A 
ATOM     72  F   UNL A   1      38.169  32.247  37.843  1.00  0.00    -0.203 F 
ATOM     73  C   UNL A   1      38.633  34.244  39.004  1.00  0.00     0.198 A 
ATOM     74  C   UNL A   1      40.047  35.905  38.007  1.00  0.00     0.198 A 
ATOM     75  F   UNL A   1      40.940  35.555  35.857  1.00  0.00    -0.203 F 
ATOM     76  F   UNL A   1      37.851  33.837  40.014  1.00  0.00    -0.200 F 
ATOM     77  C   UNL A   1      39.262  35.478  39.067  1.00  0.00     0.200 A 
ATOM     78  F   UNL A   1      40.669  37.090  38.071  1.00  0.00    -0.200 F 
ATOM     79  F   UNL A   1      39.107  36.256  40.146  1.00  0.00    -0.200 F 
ENDBRANCH  45  69
BRANCH  57  80
ATOM     80  C   UNL A   1      44.104  28.884  34.968  1.00  0.00     0.064 A 
ATOM     81  C   UNL A   1      45.372  29.459  34.805  1.00  0.00     0.173 A 
ATOM     82  C   UNL A   1      43.992  27.776  35.823  1.00  0.00     0.173 A 
ATOM     83  F   UNL A   1      45.537  30.511  33.987  1.00  0.00    -0.203 F 
ATOM     84  C   UNL A   1      46.487  28.928  35.449  1.00  0.00     0.198 A 
ATOM     85  C   UNL A   1      45.102  27.269  36.492  1.00  0.00     0.198 A 
ATOM     86  F   UNL A   1      42.800  27.192  36.021  1.00  0.00    -0.203 F 
ATOM     87  F   UNL A   1      47.698  29.462  35.235  1.00  0.00    -0.200 F 
ATOM     88  C   UNL A   1      46.350  27.840  36.297  1.00  0.00     0.200 A 
ATOM     89  F   UNL A   1      44.964  26.228  37.324  1.00  0.00    -0.200 F 
ATOM     90  F   UNL A   1      47.423  27.335  36.921  1.00  0.00    -0.200 F 
ENDBRANCH  57  80
ENDBRANCH  31  32
ENDBRANCH  23  26
ENDBRANCH  21  22
ENDBRANCH  20  21
ENDBRANCH   1  20
TORSDOF 15
ENDMDL
MODEL 2
REMARK VINA RESULT:     -11.2      0.866      7.503
REMARK SMILES CC[C@@H](C(=O)NCCCCCCNC(=O)c1ccc(-c2c3nc(c(-c4c(F)c(F)c(F)c(F)c4F)c4ccc([nH]4)c(-c4c(F)c(F)c(F)c(F)c4F)c4nc(c(-c5c(F)c(F)c(F)c(F)c5F)c5ccc2[nH]5)C=C4)C=C3)cc1)c1cc(Br)ccc1F
REMARK SMILES IDX 10 1 9 2 8 3 7 4 6 5 4 6 5 7 3 9 2 10 1 11 79 12 80 13 85 14
REMARK SMILES IDX 81 15 84 16 86 17 82 18 83 19 11 20 12 21 13 22 14 23 15 25
REMARK SMILES IDX 16 26 17 27 78 28 18 29 77 30 19 31 20 32 21 33 71 34 22 35
REMARK SMILES IDX 76 36 70 37 72 38 23 39 75 40 69 41 68 42 24 44 56 45 36 46
REMARK SMILES IDX 55 47 37 48 40 49 54 50 73 51 38 52 39 53 53 55 74 56 41 57
REMARK SMILES IDX 25 58 26 59 34 60 27 61 28 62 32 63 35 64 29 65 30 66 33 67
REMARK SMILES IDX 31 68 57 69 58 70 66 71 59 72 60 73 64 74 67 75 61 76 62 77
REMARK SMILES IDX 65 78 63 79 42 80 43 81 51 82 44 83 45 84 49 85 52 86 46 87
REMARK SMILES IDX 47 88 50 89 48 90
REMARK H PARENT 6 8 13 24 72 43 40 54
REMARK Flexibility Score: inf
ROOT
ATOM      1  C   UNL A   1      31.337  30.852  26.217  1.00  0.00     0.002 C 
ENDROOT
BRANCH   1   2
ATOM      2  C   UNL A   1      32.200  29.989  27.138  1.00  0.00     0.002 C 
BRANCH   2   3
ATOM      3  C   UNL A   1      32.290  28.513  26.735  1.00  0.00     0.021 C 
BRANCH   3   4
ATOM      4  C   UNL A   1      33.626  28.115  26.094  1.00  0.00     0.116 C 
BRANCH   4   5
ATOM      5  N   UNL A   1      33.772  28.815  24.834  1.00  0.00    -0.356 N 
ATOM      6  C   UNL A   1      33.774  28.319  23.561  1.00  0.00     0.227 C 
ATOM      7  O   UNL A   1      34.415  28.954  22.720  1.00  0.00    -0.274 OA
ATOM      8  H   UNL A   1      33.887  29.789  24.906  1.00  0.00     0.163 HD
BRANCH   6   9
ATOM      9  C   UNL A   1      32.942  27.066  23.189  1.00  0.00     0.111 C 
BRANCH   9  10
ATOM     10  C   UNL A   1      33.428  26.413  21.872  1.00  0.00     0.015 C 
ATOM     11  C   UNL A   1      32.470  25.533  21.097  1.00  0.00     0.005 C 
ENDBRANCH   9  10
BRANCH   9  12
ATOM     12  C   UNL A   1      31.448  27.470  23.087  1.00  0.00     0.001 A 
ATOM     13  C   UNL A   1      31.010  28.645  22.443  1.00  0.00     0.023 A 
ATOM     14  C   UNL A   1      30.465  26.684  23.711  1.00  0.00     0.127 A 
ATOM     15  C   UNL A   1      29.669  29.037  22.484  1.00  0.00     0.018 A 
ATOM     16  C   UNL A   1      29.129  27.084  23.767  1.00  0.00     0.041 A 
ATOM     17  F   UNL A   1      30.804  25.525  24.292  1.00  0.00    -0.207 F 
ATOM     18  Br  UNL A   1      29.143  30.641  21.628  1.00  0.00    -0.051 Br
ATOM     19  C   UNL A   1      28.727  28.272  23.160  1.00  0.00     0.019 A 
ENDBRANCH   9  12
ENDBRANCH   6   9
ENDBRANCH   4   5
ENDBRANCH   3   4
ENDBRANCH   2   3
ENDBRANCH   1   2
BRANCH   1  20
ATOM     20  C   UNL A   1      31.386  32.354  26.503  1.00  0.00     0.021 C 
BRANCH  20  21
ATOM     21  C   UNL A   1      32.737  32.867  26.990  1.00  0.00     0.116 C 
BRANCH  21  22
ATOM     22  N   UNL A   1      32.629  34.172  27.626  1.00  0.00    -0.352 N 
ATOM     23  C   UNL A   1      33.276  34.651  28.734  1.00  0.00     0.251 C 
ATOM     24  H   UNL A   1      32.002  34.798  27.199  1.00  0.00     0.163 HD
ATOM     25  O   UNL A   1      32.907  35.699  29.265  1.00  0.00    -0.269 OA
BRANCH  23  26
ATOM     26  C   UNL A   1      34.416  33.904  29.303  1.00  0.00     0.039 A 
ATOM     27  C   UNL A   1      35.716  34.335  29.028  1.00  0.00     0.014 A 
ATOM     28  C   UNL A   1      34.201  32.770  30.091  1.00  0.00     0.014 A 
ATOM     29  C   UNL A   1      36.800  33.654  29.583  1.00  0.00     0.010 A 
ATOM     30  C   UNL A   1      35.278  32.139  30.705  1.00  0.00     0.010 A 
ATOM     31  C   UNL A   1      36.589  32.566  30.445  1.00  0.00    -0.014 A 
BRANCH  31  32
ATOM     32  C   UNL A   1      37.728  31.839  31.062  1.00  0.00     0.031 A 
ATOM     33  C   UNL A   1      38.162  32.174  32.462  1.00  0.00     0.074 A 
ATOM     34  C   UNL A   1      38.405  30.921  30.345  1.00  0.00     0.049 A 
ATOM     35  N   UNL A   1      39.171  31.706  33.154  1.00  0.00    -0.248 NA
ATOM     36  C   UNL A   1      37.374  33.196  33.169  1.00  0.00     0.031 C 
ATOM     37  C   UNL A   1      38.105  30.536  28.965  1.00  0.00     0.029 A 
ATOM     38  N   UNL A   1      39.490  30.149  30.677  1.00  0.00    -0.354 N 
ATOM     39  C   UNL A   1      39.143  32.383  34.365  1.00  0.00     0.074 A 
ATOM     40  C   UNL A   1      38.060  33.339  34.292  1.00  0.00     0.031 C 
ATOM     41  C   UNL A   1      38.968  29.583  28.578  1.00  0.00     0.029 A 
ATOM     42  C   UNL A   1      39.905  29.319  29.665  1.00  0.00     0.049 A 
ATOM     43  H   UNL A   1      39.929  30.187  31.557  1.00  0.00     0.167 HD
ATOM     44  C   UNL A   1      39.933  32.206  35.452  1.00  0.00     0.037 A 
ATOM     45  C   UNL A   1      40.930  28.447  29.620  1.00  0.00     0.037 A 
ATOM     46  C   UNL A   1      40.998  31.240  35.527  1.00  0.00     0.049 A 
ATOM     47  C   UNL A   1      41.803  28.279  30.836  1.00  0.00     0.074 A 
ATOM     48  C   UNL A   1      41.828  30.950  36.594  1.00  0.00     0.029 A 
ATOM     49  N   UNL A   1      41.379  30.406  34.485  1.00  0.00    -0.354 N 
ATOM     50  N   UNL A   1      41.732  28.882  31.998  1.00  0.00    -0.248 NA
ATOM     51  C   UNL A   1      42.894  27.300  30.734  1.00  0.00     0.031 C 
ATOM     52  C   UNL A   1      42.745  29.975  36.183  1.00  0.00     0.029 A 
ATOM     53  C   UNL A   1      42.445  29.613  34.879  1.00  0.00     0.049 A 
ATOM     54  H   UNL A   1      40.955  30.380  33.597  1.00  0.00     0.167 HD
ATOM     55  C   UNL A   1      42.740  28.330  32.777  1.00  0.00     0.074 A 
ATOM     56  C   UNL A   1      43.403  27.336  31.957  1.00  0.00     0.031 C 
ATOM     57  C   UNL A   1      43.083  28.617  34.057  1.00  0.00     0.037 A 
BRANCH  44  58
ATOM     58  C   UNL A   1      39.673  33.078  36.647  1.00  0.00     0.064 A 
ATOM     59  C   UNL A   1      40.358  34.289  36.840  1.00  0.00     0.173 A 
ATOM     60  C   UNL A   1      38.714  32.711  37.603  1.00  0.00     0.173 A 
ATOM     61  F   UNL A   1      41.293  34.682  35.963  1.00  0.00    -0.203 F 
ATOM     62  C   UNL A   1      40.118  35.079  37.962  1.00  0.00     0.198 A 
ATOM     63  C   UNL A   1      38.452  33.521  38.706  1.00  0.00     0.198 A 
ATOM     64  F   UNL A   1      38.024  31.568  37.467  1.00  0.00    -0.203 F 
ATOM     65  F   UNL A   1      40.829  36.199  38.154  1.00  0.00    -0.200 F 
ATOM     66  C   UNL A   1      39.161  34.697  38.890  1.00  0.00     0.200 A 
ATOM     67  F   UNL A   1      37.516  33.159  39.594  1.00  0.00    -0.200 F 
ATOM     68  F   UNL A   1      38.929  35.461  39.967  1.00  0.00    -0.200 F 
ENDBRANCH  44  58
BRANCH  45  69
ATOM     69  C   UNL A   1      41.166  27.640  28.394  1.00  0.00     0.064 A 
ATOM     70  C   UNL A   1      40.512  26.415  28.204  1.00  0.00     0.173 A 
ATOM     71  C   UNL A   1      42.051  28.069  27.394  1.00  0.00     0.173 A 
ATOM     72  F   UNL A   1      39.671  25.952  29.141  1.00  0.00    -0.203 F 
ATOM     73  C   UNL A   1      40.750  25.639  27.071  1.00  0.00     0.198 A 
ATOM     74  C   UNL A   1      42.265  27.307  26.248  1.00  0.00     0.198 A 
ATOM     75  F   UNL A   1      42.698  29.236  27.525  1.00  0.00    -0.203 F 
ATOM     76  F   UNL A   1      40.148  24.449  26.938  1.00  0.00    -0.200 F 
ATOM     77  C   UNL A   1      41.623  26.088  26.091  1.00  0.00     0.200 A 
ATOM     78  F   UNL A   1      43.097  27.751  25.296  1.00  0.00    -0.200 F 
ATOM     79  F   UNL A   1      41.848  25.344  25.001  1.00  0.00    -0.200 F 
ENDBRANCH  45  69
BRANCH  57  80
ATOM     80  C   UNL A   1      44.190  27.809  34.672  1.00  0.00     0.064 A 
ATOM     81  C   UNL A   1      45.526  28.234  34.640  1.00  0.00     0.173 A 
ATOM     82  C   UNL A   1      43.901  26.607  35.336  1.00  0.00     0.173 A 
ATOM     83  F   UNL A   1      45.859  29.369  34.005  1.00  0.00    -0.203 F 
ATOM     84  C   UNL A   1      46.534  27.471  35.224  1.00  0.00     0.198 A 
ATOM     85  C   UNL A   1      44.906  25.864  35.949  1.00  0.00     0.198 A 
ATOM     86  F   UNL A   1      42.638  26.158  35.403  1.00  0.00    -0.203 F 
ATOM     87  F   UNL A   1      47.810  27.871  35.134  1.00  0.00    -0.200 F 
ATOM     88  C   UNL A   1      46.222  26.292  35.884  1.00  0.00     0.200 A 
ATOM     89  F   UNL A   1      44.599  24.734  36.599  1.00  0.00    -0.200 F 
ATOM     90  F   UNL A   1      47.193  25.563  36.452  1.00  0.00    -0.200 F 
ENDBRANCH  57  80
ENDBRANCH  31  32
ENDBRANCH  23  26
ENDBRANCH  21  22
ENDBRANCH  20  21
ENDBRANCH   1  20
TORSDOF 15
ENDMDL
MODEL 3
REMARK VINA RESULT:     -11.2      1.475      2.376
REMARK SMILES CC[C@@H](C(=O)NCCCCCCNC(=O)c1ccc(-c2c3nc(c(-c4c(F)c(F)c(F)c(F)c4F)c4ccc([nH]4)c(-c4c(F)c(F)c(F)c(F)c4F)c4nc(c(-c5c(F)c(F)c(F)c(F)c5F)c5ccc2[nH]5)C=C4)C=C3)cc1)c1cc(Br)ccc1F
REMARK SMILES IDX 10 1 9 2 8 3 7 4 6 5 4 6 5 7 3 9 2 10 1 11 79 12 80 13 85 14
REMARK SMILES IDX 81 15 84 16 86 17 82 18 83 19 11 20 12 21 13 22 14 23 15 25
REMARK SMILES IDX 16 26 17 27 78 28 18 29 77 30 19 31 20 32 21 33 71 34 22 35
REMARK SMILES IDX 76 36 70 37 72 38 23 39 75 40 69 41 68 42 24 44 56 45 36 46
REMARK SMILES IDX 55 47 37 48 40 49 54 50 73 51 38 52 39 53 53 55 74 56 41 57
REMARK SMILES IDX 25 58 26 59 34 60 27 61 28 62 32 63 35 64 29 65 30 66 33 67
REMARK SMILES IDX 31 68 57 69 58 70 66 71 59 72 60 73 64 74 67 75 61 76 62 77
REMARK SMILES IDX 65 78 63 79 42 80 43 81 51 82 44 83 45 84 49 85 52 86 46 87
REMARK SMILES IDX 47 88 50 89 48 90
REMARK H PARENT 6 8 13 24 72 43 40 54
REMARK Flexibility Score: inf
ROOT
ATOM      1  C   UNL A   1      31.400  30.868  26.008  1.00  0.00     0.002 C 
ENDROOT
BRANCH   1   2
ATOM      2  C   UNL A   1      32.399  29.891  26.628  1.00  0.00     0.002 C 
BRANCH   2   3
ATOM      3  C   UNL A   1      31.773  28.632  27.237  1.00  0.00     0.021 C 
BRANCH   3   4
ATOM      4  C   UNL A   1      32.512  27.331  26.896  1.00  0.00     0.116 C 
BRANCH   4   5
ATOM      5  N   UNL A   1      31.556  26.245  26.840  1.00  0.00    -0.356 N 
ATOM      6  C   UNL A   1      30.458  26.095  26.041  1.00  0.00     0.227 C 
ATOM      7  O   UNL A   1      29.531  25.417  26.492  1.00  0.00    -0.274 OA
ATOM      8  H   UNL A   1      31.720  25.508  27.471  1.00  0.00     0.163 HD
BRANCH   6   9
ATOM      9  C   UNL A   1      30.425  26.684  24.609  1.00  0.00     0.111 C 
BRANCH   9  10
ATOM     10  C   UNL A   1      28.990  26.731  24.029  1.00  0.00     0.015 C 
ATOM     11  C   UNL A   1      28.604  27.885  23.127  1.00  0.00     0.005 C 
ENDBRANCH   9  10
BRANCH   9  12
ATOM     12  C   UNL A   1      31.361  25.845  23.700  1.00  0.00     0.001 A 
ATOM     13  C   UNL A   1      31.351  24.435  23.677  1.00  0.00     0.023 A 
ATOM     14  C   UNL A   1      32.321  26.485  22.899  1.00  0.00     0.127 A 
ATOM     15  C   UNL A   1      32.296  23.715  22.940  1.00  0.00     0.018 A 
ATOM     16  C   UNL A   1      33.276  25.767  22.177  1.00  0.00     0.041 A 
ATOM     17  F   UNL A   1      32.350  27.824  22.830  1.00  0.00    -0.207 F 
ATOM     18  Br  UNL A   1      32.253  21.823  22.971  1.00  0.00    -0.051 Br
ATOM     19  C   UNL A   1      33.273  24.374  22.205  1.00  0.00     0.019 A 
ENDBRANCH   9  12
ENDBRANCH   6   9
ENDBRANCH   4   5
ENDBRANCH   3   4
ENDBRANCH   2   3
ENDBRANCH   1   2
BRANCH   1  20
ATOM     20  C   UNL A   1      31.244  32.195  26.753  1.00  0.00     0.021 C 
BRANCH  20  21
ATOM     21  C   UNL A   1      32.551  32.813  27.238  1.00  0.00     0.116 C 
BRANCH  21  22
ATOM     22  N   UNL A   1      32.386  34.206  27.626  1.00  0.00    -0.352 N 
ATOM     23  C   UNL A   1      32.996  34.901  28.636  1.00  0.00     0.251 C 
ATOM     24  H   UNL A   1      31.745  34.721  27.086  1.00  0.00     0.163 HD
ATOM     25  O   UNL A   1      32.581  36.013  28.965  1.00  0.00    -0.269 OA
BRANCH  23  26
ATOM     26  C   UNL A   1      34.152  34.313  29.343  1.00  0.00     0.039 A 
ATOM     27  C   UNL A   1      33.934  33.584  30.514  1.00  0.00     0.014 A 
ATOM     28  C   UNL A   1      35.450  34.497  28.857  1.00  0.00     0.014 A 
ATOM     29  C   UNL A   1      35.016  33.000  31.175  1.00  0.00     0.010 A 
ATOM     30  C   UNL A   1      36.517  33.851  29.473  1.00  0.00     0.010 A 
ATOM     31  C   UNL A   1      36.313  33.108  30.647  1.00  0.00    -0.014 A 
BRANCH  31  32
ATOM     32  C   UNL A   1      37.475  32.479  31.323  1.00  0.00     0.031 A 
ATOM     33  C   UNL A   1      38.221  31.361  30.648  1.00  0.00     0.074 A 
ATOM     34  C   UNL A   1      37.823  32.872  32.563  1.00  0.00     0.049 A 
ATOM     35  N   UNL A   1      39.216  30.637  31.095  1.00  0.00    -0.248 NA
ATOM     36  C   UNL A   1      37.768  30.988  29.298  1.00  0.00     0.031 C 
ATOM     37  C   UNL A   1      37.154  33.918  33.338  1.00  0.00     0.029 A 
ATOM     38  N   UNL A   1      38.824  32.433  33.393  1.00  0.00    -0.354 N 
ATOM     39  C   UNL A   1      39.495  29.719  30.091  1.00  0.00     0.074 A 
ATOM     40  C   UNL A   1      38.527  29.935  29.038  1.00  0.00     0.031 C 
ATOM     41  C   UNL A   1      37.778  34.057  34.519  1.00  0.00     0.029 A 
ATOM     42  C   UNL A   1      38.865  33.085  34.601  1.00  0.00     0.049 A 
ATOM     43  H   UNL A   1      39.454  31.717  33.146  1.00  0.00     0.167 HD
ATOM     44  C   UNL A   1      40.487  28.798  30.039  1.00  0.00     0.037 A 
ATOM     45  C   UNL A   1      39.683  32.914  35.656  1.00  0.00     0.037 A 
ATOM     46  C   UNL A   1      41.461  28.600  31.082  1.00  0.00     0.049 A 
ATOM     47  C   UNL A   1      40.769  31.873  35.579  1.00  0.00     0.074 A 
ATOM     48  C   UNL A   1      42.531  27.725  31.109  1.00  0.00     0.029 A 
ATOM     49  N   UNL A   1      41.478  29.291  32.285  1.00  0.00    -0.354 N 
ATOM     50  N   UNL A   1      41.062  31.050  34.602  1.00  0.00    -0.248 NA
ATOM     51  C   UNL A   1      41.643  31.743  36.754  1.00  0.00     0.031 C 
ATOM     52  C   UNL A   1      43.167  27.851  32.349  1.00  0.00     0.029 A 
ATOM     53  C   UNL A   1      42.530  28.849  33.070  1.00  0.00     0.049 A 
ATOM     54  H   UNL A   1      40.837  29.994  32.543  1.00  0.00     0.167 HD
ATOM     55  C   UNL A   1      42.174  30.336  35.024  1.00  0.00     0.074 A 
ATOM     56  C   UNL A   1      42.509  30.828  36.345  1.00  0.00     0.031 C 
ATOM     57  C   UNL A   1      42.860  29.362  34.376  1.00  0.00     0.037 A 
BRANCH  44  58
ATOM     58  C   UNL A   1      40.566  27.933  28.813  1.00  0.00     0.064 A 
ATOM     59  C   UNL A   1      39.869  26.718  28.722  1.00  0.00     0.173 A 
ATOM     60  C   UNL A   1      41.331  28.332  27.707  1.00  0.00     0.173 A 
ATOM     61  F   UNL A   1      39.133  26.283  29.755  1.00  0.00    -0.203 F 
ATOM     62  C   UNL A   1      39.965  25.918  27.585  1.00  0.00     0.198 A 
ATOM     63  C   UNL A   1      41.397  27.547  26.558  1.00  0.00     0.198 A 
ATOM     64  F   UNL A   1      42.013  29.487  27.735  1.00  0.00    -0.203 F 
ATOM     65  F   UNL A   1      39.340  24.734  27.547  1.00  0.00    -0.200 F 
ATOM     66  C   UNL A   1      40.724  26.337  26.503  1.00  0.00     0.200 A 
ATOM     67  F   UNL A   1      42.118  27.959  25.507  1.00  0.00    -0.200 F 
ATOM     68  F   UNL A   1      40.812  25.568  25.408  1.00  0.00    -0.200 F 
ENDBRANCH  44  58
BRANCH  45  69
ATOM     69  C   UNL A   1      39.532  33.771  36.861  1.00  0.00     0.064 A 
ATOM     70  C   UNL A   1      40.174  35.014  36.944  1.00  0.00     0.173 A 
ATOM     71  C   UNL A   1      38.752  33.366  37.954  1.00  0.00     0.173 A 
ATOM     72  F   UNL A   1      40.946  35.437  35.931  1.00  0.00    -0.203 F 
ATOM     73  C   UNL A   1      40.060  35.810  38.082  1.00  0.00     0.198 A 
ATOM     74  C   UNL A   1      38.615  34.176  39.079  1.00  0.00     0.198 A 
ATOM     75  F   UNL A   1      38.112  32.188  37.924  1.00  0.00    -0.203 F 
ATOM     76  F   UNL A   1      40.724  36.972  38.153  1.00  0.00    -0.200 F 
ATOM     77  C   UNL A   1      39.277  35.393  39.147  1.00  0.00     0.200 A 
ATOM     78  F   UNL A   1      37.844  33.776  40.100  1.00  0.00    -0.200 F 
ATOM     79  F   UNL A   1      39.165  36.160  40.239  1.00  0.00    -0.200 F 
ENDBRANCH  45  69
BRANCH  57  80
ATOM     80  C   UNL A   1      44.075  28.801  35.059  1.00  0.00     0.064 A 
ATOM     81  C   UNL A   1      45.344  29.376  34.905  1.00  0.00     0.173 A 
ATOM     82  C   UNL A   1      43.956  27.692  35.910  1.00  0.00     0.173 A 
ATOM     83  F   UNL A   1      45.515  30.429  34.091  1.00  0.00    -0.203 F 
ATOM     84  C   UNL A   1      46.454  28.842  35.555  1.00  0.00     0.198 A 
ATOM     85  C   UNL A   1      45.061  27.182  36.586  1.00  0.00     0.198 A 
ATOM     86  F   UNL A   1      42.762  27.108  36.099  1.00  0.00    -0.203 F 
ATOM     87  F   UNL A   1      47.667  29.375  35.350  1.00  0.00    -0.200 F 
ATOM     88  C   UNL A   1      46.311  27.752  36.400  1.00  0.00     0.200 A 
ATOM     89  F   UNL A   1      44.917  26.139  37.414  1.00  0.00    -0.200 F 
ATOM     90  F   UNL A   1      47.380  27.246  37.030  1.00  0.00    -0.200 F 
ENDBRANCH  57  80
ENDBRANCH  31  32
ENDBRANCH  23  26
ENDBRANCH  21  22
ENDBRANCH  20  21
ENDBRANCH   1  20
TORSDOF 15
ENDMDL
