MODEL 1
REMARK VINA RESULT:     -11.7      0.000      0.000
REMARK SMILES CC[C@@H](NC(=O)c1cscc1C)C(=O)NCCCCCCNC(=O)c1ccc(-c2c3nc(c(-c4c(F)c(F)c(F)c(F)c4F)c4ccc([nH]4)c(-c4c(F)c(F)c(F)c(F)c4F)c4nc(c(-c5c(F)c(F)c(F)c(F)c5F)c5ccc2[nH]5)C=C4)C=C3)cc1
REMARK SMILES IDX 18 1 17 2 16 3 15 4 13 5 14 6 3 8 2 9 1 10 4 11 5 12 6 14
REMARK SMILES IDX 7 15 8 16 11 17 9 18 10 19 12 20 19 21 20 22 21 23 22 24
REMARK SMILES IDX 23 25 24 27 25 28 26 29 87 30 27 31 86 32 28 33 29 34 30 35
REMARK SMILES IDX 80 36 31 37 85 38 79 39 81 40 32 41 84 42 78 43 77 44 33 46
REMARK SMILES IDX 65 47 45 48 64 49 46 50 49 51 63 52 82 53 47 54 48 55 62 57
REMARK SMILES IDX 83 58 50 59 34 60 35 61 43 62 36 63 37 64 41 65 44 66 38 67
REMARK SMILES IDX 39 68 42 69 40 70 66 71 67 72 75 73 68 74 69 75 73 76 76 77
REMARK SMILES IDX 70 78 71 79 74 80 72 81 51 82 52 83 60 84 53 85 54 86 58 87
REMARK SMILES IDX 61 88 55 89 56 90 59 91 57 92
REMARK H PARENT 15 7 4 13 22 26 81 45 49 56
REMARK Flexibility Score: inf
ROOT
ATOM      1  C   UNL A   1      32.465  29.745  27.169  1.00  0.00     0.002 C 
ENDROOT
BRANCH   1   2
ATOM      2  C   UNL A   1      31.834  28.352  27.236  1.00  0.00     0.021 C 
BRANCH   2   3
ATOM      3  C   UNL A   1      32.466  27.360  26.266  1.00  0.00     0.116 C 
BRANCH   3   4
ATOM      4  N   UNL A   1      33.393  28.052  25.392  1.00  0.00    -0.354 N 
ATOM      5  C   UNL A   1      33.415  28.119  24.034  1.00  0.00     0.242 C 
ATOM      6  O   UNL A   1      34.455  28.493  23.485  1.00  0.00    -0.273 OA
ATOM      7  H   UNL A   1      34.113  28.545  25.850  1.00  0.00     0.163 HD
BRANCH   5   8
ATOM      8  C   UNL A   1      32.226  27.603  23.199  1.00  0.00     0.171 C 
BRANCH   8   9
ATOM      9  C   UNL A   1      31.291  28.817  22.982  1.00  0.00     0.032 C 
ATOM     10  C   UNL A   1      29.842  28.604  23.390  1.00  0.00     0.006 C 
ENDBRANCH   8   9
BRANCH   8  11
ATOM     11  N   UNL A   1      32.620  26.968  21.933  1.00  0.00    -0.340 N 
ATOM     12  C   UNL A   1      32.883  25.659  21.607  1.00  0.00     0.253 C 
ATOM     13  H   UNL A   1      32.712  27.595  21.181  1.00  0.00     0.164 HD
ATOM     14  O   UNL A   1      33.066  25.413  20.414  1.00  0.00    -0.269 OA
BRANCH  12  15
ATOM     15  C   UNL A   1      33.064  24.629  22.632  1.00  0.00     0.053 A 
ATOM     16  C   UNL A   1      34.290  24.171  23.084  1.00  0.00     0.079 A 
ATOM     17  C   UNL A   1      31.984  23.996  23.378  1.00  0.00    -0.028 A 
ATOM     18  S   UNL A   1      34.164  22.952  24.273  1.00  0.00    -0.151 S 
ATOM     19  C   UNL A   1      32.466  23.062  24.279  1.00  0.00     0.069 A 
ATOM     20  C   UNL A   1      30.522  24.282  23.226  1.00  0.00     0.046 C 
ENDBRANCH  12  15
ENDBRANCH   8  11
ENDBRANCH   5   8
ENDBRANCH   3   4
ENDBRANCH   2   3
ENDBRANCH   1   2
BRANCH   1  21
ATOM     21  C   UNL A   1      31.765  30.708  26.204  1.00  0.00     0.002 C 
BRANCH  21  22
ATOM     22  C   UNL A   1      31.448  32.082  26.798  1.00  0.00     0.021 C 
BRANCH  22  23
ATOM     23  C   UNL A   1      32.667  32.817  27.348  1.00  0.00     0.116 C 
BRANCH  23  24
ATOM     24  N   UNL A   1      32.381  34.219  27.609  1.00  0.00    -0.352 N 
ATOM     25  C   UNL A   1      32.936  35.052  28.545  1.00  0.00     0.251 C 
ATOM     26  H   UNL A   1      31.695  34.627  27.032  1.00  0.00     0.163 HD
ATOM     27  O   UNL A   1      32.438  36.150  28.780  1.00  0.00    -0.269 OA
BRANCH  25  28
ATOM     28  C   UNL A   1      34.128  34.605  29.290  1.00  0.00     0.039 A 
ATOM     29  C   UNL A   1      33.972  34.124  30.592  1.00  0.00     0.014 A 
ATOM     30  C   UNL A   1      35.390  34.636  28.690  1.00  0.00     0.014 A 
ATOM     31  C   UNL A   1      35.077  33.603  31.267  1.00  0.00     0.010 A 
ATOM     32  C   UNL A   1      36.473  34.053  29.337  1.00  0.00     0.010 A 
ATOM     33  C   UNL A   1      36.325  33.523  30.628  1.00  0.00    -0.014 A 
BRANCH  33  34
ATOM     34  C   UNL A   1      37.482  32.856  31.276  1.00  0.00     0.031 A 
ATOM     35  C   UNL A   1      38.129  31.667  30.628  1.00  0.00     0.074 A 
ATOM     36  C   UNL A   1      37.887  33.272  32.493  1.00  0.00     0.049 A 
ATOM     37  N   UNL A   1      39.076  30.889  31.087  1.00  0.00    -0.248 NA
ATOM     38  C   UNL A   1      37.628  31.282  29.299  1.00  0.00     0.031 C 
ATOM     39  C   UNL A   1      37.304  34.387  33.243  1.00  0.00     0.029 A 
ATOM     40  N   UNL A   1      38.869  32.793  33.325  1.00  0.00    -0.354 N 
ATOM     41  C   UNL A   1      39.269  29.916  30.116  1.00  0.00     0.074 A 
ATOM     42  C   UNL A   1      38.316  30.174  29.059  1.00  0.00     0.031 C 
ATOM     43  C   UNL A   1      37.942  34.509  34.417  1.00  0.00     0.029 A 
ATOM     44  C   UNL A   1      38.945  33.455  34.526  1.00  0.00     0.049 A 
ATOM     45  H   UNL A   1      39.461  32.045  33.083  1.00  0.00     0.167 HD
ATOM     46  C   UNL A   1      40.172  28.906  30.105  1.00  0.00     0.037 A 
ATOM     47  C   UNL A   1      39.717  33.223  35.605  1.00  0.00     0.037 A 
ATOM     48  C   UNL A   1      41.140  28.677  31.146  1.00  0.00     0.049 A 
ATOM     49  C   UNL A   1      40.700  32.082  35.568  1.00  0.00     0.074 A 
ATOM     50  C   UNL A   1      42.161  27.744  31.180  1.00  0.00     0.029 A 
ATOM     51  N   UNL A   1      41.197  29.378  32.341  1.00  0.00    -0.354 N 
ATOM     52  N   UNL A   1      40.942  31.229  34.603  1.00  0.00    -0.248 NA
ATOM     53  C   UNL A   1      41.518  31.871  36.771  1.00  0.00     0.031 C 
ATOM     54  C   UNL A   1      42.794  27.835  32.423  1.00  0.00     0.029 A 
ATOM     55  C   UNL A   1      42.208  28.866  33.139  1.00  0.00     0.049 A 
ATOM     56  H   UNL A   1      40.609  30.129  32.586  1.00  0.00     0.167 HD
ATOM     57  C   UNL A   1      41.950  30.398  35.071  1.00  0.00     0.074 A 
ATOM     58  C   UNL A   1      42.291  30.861  36.399  1.00  0.00     0.031 C 
ATOM     59  C   UNL A   1      42.537  29.341  34.458  1.00  0.00     0.037 A 
BRANCH  46  60
ATOM     60  C   UNL A   1      40.163  27.963  28.940  1.00  0.00     0.064 A 
ATOM     61  C   UNL A   1      40.886  28.227  27.768  1.00  0.00     0.173 A 
ATOM     62  C   UNL A   1      39.481  26.738  29.028  1.00  0.00     0.173 A 
ATOM     63  F   UNL A   1      41.548  29.385  27.628  1.00  0.00    -0.203 F 
ATOM     64  C   UNL A   1      40.913  27.308  26.720  1.00  0.00     0.198 A 
ATOM     65  C   UNL A   1      39.535  25.810  27.993  1.00  0.00     0.198 A 
ATOM     66  F   UNL A   1      38.779  26.433  30.130  1.00  0.00    -0.203 F 
ATOM     67  F   UNL A   1      41.581  27.598  25.595  1.00  0.00    -0.200 F 
ATOM     68  C   UNL A   1      40.247  26.097  26.838  1.00  0.00     0.200 A 
ATOM     69  F   UNL A   1      38.903  24.635  28.115  1.00  0.00    -0.200 F 
ATOM     70  F   UNL A   1      40.289  25.208  25.836  1.00  0.00    -0.200 F 
ENDBRANCH  46  60
BRANCH  47  71
ATOM     71  C   UNL A   1      39.584  34.072  36.819  1.00  0.00     0.064 A 
ATOM     72  C   UNL A   1      40.276  35.287  36.932  1.00  0.00     0.173 A 
ATOM     73  C   UNL A   1      38.788  33.673  37.902  1.00  0.00     0.173 A 
ATOM     74  F   UNL A   1      41.068  35.702  35.932  1.00  0.00    -0.203 F 
ATOM     75  C   UNL A   1      40.201  36.053  38.094  1.00  0.00     0.198 A 
ATOM     76  C   UNL A   1      38.686  34.458  39.049  1.00  0.00     0.198 A 
ATOM     77  F   UNL A   1      38.102  32.523  37.846  1.00  0.00    -0.203 F 
ATOM     78  F   UNL A   1      40.920  37.179  38.197  1.00  0.00    -0.200 F 
ATOM     79  C   UNL A   1      39.402  35.641  39.149  1.00  0.00     0.200 A 
ATOM     80  F   UNL A   1      37.901  34.063  40.060  1.00  0.00    -0.200 F 
ATOM     81  F   UNL A   1      39.333  36.377  40.267  1.00  0.00    -0.200 F 
ENDBRANCH  47  71
BRANCH  59  82
ATOM     82  C   UNL A   1      43.623  28.622  35.205  1.00  0.00     0.064 A 
ATOM     83  C   UNL A   1      44.966  29.013  35.107  1.00  0.00     0.173 A 
ATOM     84  C   UNL A   1      43.307  27.568  36.077  1.00  0.00     0.173 A 
ATOM     85  F   UNL A   1      45.320  30.005  34.275  1.00  0.00    -0.203 F 
ATOM     86  C   UNL A   1      45.955  28.366  35.841  1.00  0.00     0.198 A 
ATOM     87  C   UNL A   1      44.295  26.945  36.834  1.00  0.00     0.198 A 
ATOM     88  F   UNL A   1      42.036  27.159  36.212  1.00  0.00    -0.203 F 
ATOM     89  F   UNL A   1      47.237  28.731  35.701  1.00  0.00    -0.200 F 
ATOM     90  C   UNL A   1      45.618  27.341  36.712  1.00  0.00     0.200 A 
ATOM     91  F   UNL A   1      43.964  25.965  37.687  1.00  0.00    -0.200 F 
ATOM     92  F   UNL A   1      46.570  26.730  37.431  1.00  0.00    -0.200 F 
ENDBRANCH  59  82
ENDBRANCH  33  34
ENDBRANCH  25  28
ENDBRANCH  23  24
ENDBRANCH  22  23
ENDBRANCH  21  22
ENDBRANCH   1  21
TORSDOF 16
ENDMDL
MODEL 2
REMARK VINA RESULT:     -11.7      0.426      1.666
REMARK SMILES CC[C@@H](NC(=O)c1cscc1C)C(=O)NCCCCCCNC(=O)c1ccc(-c2c3nc(c(-c4c(F)c(F)c(F)c(F)c4F)c4ccc([nH]4)c(-c4c(F)c(F)c(F)c(F)c4F)c4nc(c(-c5c(F)c(F)c(F)c(F)c5F)c5ccc2[nH]5)C=C4)C=C3)cc1
REMARK SMILES IDX 18 1 17 2 16 3 15 4 13 5 14 6 3 8 2 9 1 10 4 11 5 12 6 14
REMARK SMILES IDX 7 15 8 16 11 17 9 18 10 19 12 20 19 21 20 22 21 23 22 24
REMARK SMILES IDX 23 25 24 27 25 28 26 29 87 30 27 31 86 32 28 33 29 34 30 35
REMARK SMILES IDX 80 36 31 37 85 38 79 39 81 40 32 41 84 42 78 43 77 44 33 46
REMARK SMILES IDX 65 47 45 48 64 49 46 50 49 51 63 52 82 53 47 54 48 55 62 57
REMARK SMILES IDX 83 58 50 59 34 60 35 61 43 62 36 63 37 64 41 65 44 66 38 67
REMARK SMILES IDX 39 68 42 69 40 70 66 71 67 72 75 73 68 74 69 75 73 76 76 77
REMARK SMILES IDX 70 78 71 79 74 80 72 81 51 82 52 83 60 84 53 85 54 86 58 87
REMARK SMILES IDX 61 88 55 89 56 90 59 91 57 92
REMARK H PARENT 15 7 4 13 22 26 81 45 49 56
REMARK Flexibility Score: inf
ROOT
ATOM      1  C   UNL A   1      33.227  29.987  26.652  1.00  0.00     0.002 C 
ENDROOT
BRANCH   1   2
ATOM      2  C   UNL A   1      33.419  28.521  27.047  1.00  0.00     0.021 C 
BRANCH   2   3
ATOM      3  C   UNL A   1      33.821  27.632  25.875  1.00  0.00     0.116 C 
BRANCH   3   4
ATOM      4  N   UNL A   1      34.180  28.454  24.736  1.00  0.00    -0.354 N 
ATOM      5  C   UNL A   1      33.780  28.357  23.440  1.00  0.00     0.242 C 
ATOM      6  O   UNL A   1      34.438  28.952  22.581  1.00  0.00    -0.273 OA
ATOM      7  H   UNL A   1      34.805  29.190  24.930  1.00  0.00     0.163 HD
BRANCH   5   8
ATOM      8  C   UNL A   1      32.629  27.415  23.037  1.00  0.00     0.171 C 
BRANCH   8   9
ATOM      9  C   UNL A   1      31.340  28.271  23.065  1.00  0.00     0.032 C 
ATOM     10  C   UNL A   1      30.390  27.979  24.215  1.00  0.00     0.006 C 
ENDBRANCH   8   9
BRANCH   8  11
ATOM     11  N   UNL A   1      32.831  26.750  21.741  1.00  0.00    -0.340 N 
ATOM     12  C   UNL A   1      32.834  25.424  21.381  1.00  0.00     0.253 C 
ATOM     13  H   UNL A   1      32.993  27.369  20.994  1.00  0.00     0.164 HD
ATOM     14  O   UNL A   1      32.903  25.178  20.177  1.00  0.00    -0.269 OA
BRANCH  12  15
ATOM     15  C   UNL A   1      32.883  24.353  22.379  1.00  0.00     0.053 A 
ATOM     16  C   UNL A   1      34.027  23.668  22.748  1.00  0.00     0.079 A 
ATOM     17  C   UNL A   1      31.750  23.911  23.183  1.00  0.00    -0.028 A 
ATOM     18  S   UNL A   1      33.749  22.463  23.926  1.00  0.00    -0.151 S 
ATOM     19  C   UNL A   1      32.103  22.883  24.039  1.00  0.00     0.069 A 
ATOM     20  C   UNL A   1      30.360  24.464  23.127  1.00  0.00     0.046 C 
ENDBRANCH  12  15
ENDBRANCH   8  11
ENDBRANCH   5   8
ENDBRANCH   3   4
ENDBRANCH   2   3
ENDBRANCH   1   2
BRANCH   1  21
ATOM     21  C   UNL A   1      31.771  30.466  26.699  1.00  0.00     0.002 C 
BRANCH  21  22
ATOM     22  C   UNL A   1      31.606  31.985  26.761  1.00  0.00     0.021 C 
BRANCH  22  23
ATOM     23  C   UNL A   1      32.788  32.714  27.394  1.00  0.00     0.116 C 
BRANCH  23  24
ATOM     24  N   UNL A   1      32.496  34.120  27.626  1.00  0.00    -0.352 N 
ATOM     25  C   UNL A   1      33.031  34.968  28.560  1.00  0.00     0.251 C 
ATOM     26  H   UNL A   1      31.819  34.517  27.031  1.00  0.00     0.163 HD
ATOM     27  O   UNL A   1      32.528  36.069  28.767  1.00  0.00    -0.269 OA
BRANCH  25  28
ATOM     28  C   UNL A   1      34.210  34.535  29.334  1.00  0.00     0.039 A 
ATOM     29  C   UNL A   1      34.027  34.042  30.627  1.00  0.00     0.014 A 
ATOM     30  C   UNL A   1      35.487  34.591  28.768  1.00  0.00     0.014 A 
ATOM     31  C   UNL A   1      35.121  33.534  31.329  1.00  0.00     0.010 A 
ATOM     32  C   UNL A   1      36.562  34.021  29.441  1.00  0.00     0.010 A 
ATOM     33  C   UNL A   1      36.388  33.479  30.724  1.00  0.00    -0.014 A 
BRANCH  33  34
ATOM     34  C   UNL A   1      37.537  32.827  31.399  1.00  0.00     0.031 A 
ATOM     35  C   UNL A   1      38.221  31.652  30.760  1.00  0.00     0.074 A 
ATOM     36  C   UNL A   1      37.902  33.240  32.629  1.00  0.00     0.049 A 
ATOM     37  N   UNL A   1      39.168  30.886  31.239  1.00  0.00    -0.248 NA
ATOM     38  C   UNL A   1      37.763  31.269  29.416  1.00  0.00     0.031 C 
ATOM     39  C   UNL A   1      37.280  34.340  33.370  1.00  0.00     0.029 A 
ATOM     40  N   UNL A   1      38.868  32.770  33.484  1.00  0.00    -0.354 N 
ATOM     41  C   UNL A   1      39.403  29.924  30.268  1.00  0.00     0.074 A 
ATOM     42  C   UNL A   1      38.475  30.175  29.187  1.00  0.00     0.031 C 
ATOM     43  C   UNL A   1      37.884  34.463  34.562  1.00  0.00     0.029 A 
ATOM     44  C   UNL A   1      38.901  33.425  34.692  1.00  0.00     0.049 A 
ATOM     45  H   UNL A   1      39.480  32.034  33.253  1.00  0.00     0.167 HD
ATOM     46  C   UNL A   1      40.323  28.930  30.274  1.00  0.00     0.037 A 
ATOM     47  C   UNL A   1      39.647  33.197  35.789  1.00  0.00     0.037 A 
ATOM     48  C   UNL A   1      41.265  28.708  31.340  1.00  0.00     0.049 A 
ATOM     49  C   UNL A   1      40.649  32.073  35.771  1.00  0.00     0.074 A 
ATOM     50  C   UNL A   1      42.300  27.791  31.395  1.00  0.00     0.029 A 
ATOM     51  N   UNL A   1      41.279  29.401  32.541  1.00  0.00    -0.354 N 
ATOM     52  N   UNL A   1      40.932  31.231  34.807  1.00  0.00    -0.248 NA
ATOM     53  C   UNL A   1      41.437  31.865  36.995  1.00  0.00     0.031 C 
ATOM     54  C   UNL A   1      42.898  27.883  32.655  1.00  0.00     0.029 A 
ATOM     55  C   UNL A   1      42.275  28.900  33.363  1.00  0.00     0.049 A 
ATOM     56  H   UNL A   1      40.672  30.140  32.775  1.00  0.00     0.167 HD
ATOM     57  C   UNL A   1      41.940  30.413  35.297  1.00  0.00     0.074 A 
ATOM     58  C   UNL A   1      42.237  30.871  36.638  1.00  0.00     0.031 C 
ATOM     59  C   UNL A   1      42.561  29.371  34.693  1.00  0.00     0.037 A 
BRANCH  46  60
ATOM     60  C   UNL A   1      40.360  27.994  29.103  1.00  0.00     0.064 A 
ATOM     61  C   UNL A   1      39.616  26.806  29.080  1.00  0.00     0.173 A 
ATOM     62  C   UNL A   1      41.093  28.332  27.953  1.00  0.00     0.173 A 
ATOM     63  F   UNL A   1      38.905  26.433  30.153  1.00  0.00    -0.203 F 
ATOM     64  C   UNL A   1      39.617  25.982  27.956  1.00  0.00     0.198 A 
ATOM     65  C   UNL A   1      41.068  27.521  26.822  1.00  0.00     0.198 A 
ATOM     66  F   UNL A   1      41.818  29.461  27.920  1.00  0.00    -0.203 F 
ATOM     67  F   UNL A   1      38.926  24.833  27.970  1.00  0.00    -0.200 F 
ATOM     68  C   UNL A   1      40.334  26.345  26.826  1.00  0.00     0.200 A 
ATOM     69  F   UNL A   1      41.750  27.881  25.726  1.00  0.00    -0.200 F 
ATOM     70  F   UNL A   1      40.320  25.558  25.741  1.00  0.00    -0.200 F 
ENDBRANCH  46  60
BRANCH  47  71
ATOM     71  C   UNL A   1      39.467  34.035  37.005  1.00  0.00     0.064 A 
ATOM     72  C   UNL A   1      40.097  35.282  37.125  1.00  0.00     0.173 A 
ATOM     73  C   UNL A   1      38.688  33.594  38.084  1.00  0.00     0.173 A 
ATOM     74  F   UNL A   1      40.871  35.739  36.130  1.00  0.00    -0.203 F 
ATOM     75  C   UNL A   1      39.979  36.041  38.288  1.00  0.00     0.198 A 
ATOM     76  C   UNL A   1      38.542  34.369  39.233  1.00  0.00     0.198 A 
ATOM     77  F   UNL A   1      38.060  32.410  38.022  1.00  0.00    -0.203 F 
ATOM     78  F   UNL A   1      40.641  37.200  38.398  1.00  0.00    -0.200 F 
ATOM     79  C   UNL A   1      39.198  35.586  39.339  1.00  0.00     0.200 A 
ATOM     80  F   UNL A   1      37.773  33.932  40.240  1.00  0.00    -0.200 F 
ATOM     81  F   UNL A   1      39.087  36.314  40.458  1.00  0.00    -0.200 F 
ENDBRANCH  47  71
BRANCH  59  82
ATOM     82  C   UNL A   1      43.637  28.663  35.465  1.00  0.00     0.064 A 
ATOM     83  C   UNL A   1      43.340  27.614  36.346  1.00  0.00     0.173 A 
ATOM     84  C   UNL A   1      44.986  29.000  35.275  1.00  0.00     0.173 A 
ATOM     85  F   UNL A   1      42.064  27.266  36.574  1.00  0.00    -0.203 F 
ATOM     86  C   UNL A   1      44.353  26.938  37.020  1.00  0.00     0.198 A 
ATOM     87  C   UNL A   1      45.998  28.300  35.925  1.00  0.00     0.198 A 
ATOM     88  F   UNL A   1      45.325  29.993  34.438  1.00  0.00    -0.203 F 
ATOM     89  F   UNL A   1      44.042  25.964  37.888  1.00  0.00    -0.200 F 
ATOM     90  C   UNL A   1      45.680  27.273  36.801  1.00  0.00     0.200 A 
ATOM     91  F   UNL A   1      47.281  28.615  35.699  1.00  0.00    -0.200 F 
ATOM     92  F   UNL A   1      46.654  26.609  37.438  1.00  0.00    -0.200 F 
ENDBRANCH  59  82
ENDBRANCH  33  34
ENDBRANCH  25  28
ENDBRANCH  23  24
ENDBRANCH  22  23
ENDBRANCH  21  22
ENDBRANCH   1  21
TORSDOF 16
ENDMDL
MODEL 3
REMARK VINA RESULT:     -11.5      1.160      2.257
REMARK SMILES CC[C@@H](NC(=O)c1cscc1C)C(=O)NCCCCCCNC(=O)c1ccc(-c2c3nc(c(-c4c(F)c(F)c(F)c(F)c4F)c4ccc([nH]4)c(-c4c(F)c(F)c(F)c(F)c4F)c4nc(c(-c5c(F)c(F)c(F)c(F)c5F)c5ccc2[nH]5)C=C4)C=C3)cc1
REMARK SMILES IDX 18 1 17 2 16 3 15 4 13 5 14 6 3 8 2 9 1 10 4 11 5 12 6 14
REMARK SMILES IDX 7 15 8 16 11 17 9 18 10 19 12 20 19 21 20 22 21 23 22 24
REMARK SMILES IDX 23 25 24 27 25 28 26 29 87 30 27 31 86 32 28 33 29 34 30 35
REMARK SMILES IDX 80 36 31 37 85 38 79 39 81 40 32 41 84 42 78 43 77 44 33 46
REMARK SMILES IDX 65 47 45 48 64 49 46 50 49 51 63 52 82 53 47 54 48 55 62 57
REMARK SMILES IDX 83 58 50 59 34 60 35 61 43 62 36 63 37 64 41 65 44 66 38 67
REMARK SMILES IDX 39 68 42 69 40 70 66 71 67 72 75 73 68 74 69 75 73 76 76 77
REMARK SMILES IDX 70 78 71 79 74 80 72 81 51 82 52 83 60 84 53 85 54 86 58 87
REMARK SMILES IDX 61 88 55 89 56 90 59 91 57 92
REMARK H PARENT 15 7 4 13 22 26 81 45 49 56
REMARK Flexibility Score: inf
ROOT
ATOM      1  C   UNL A   1      32.450  29.704  27.291  1.00  0.00     0.002 C 
ENDROOT
BRANCH   1   2
ATOM      2  C   UNL A   1      32.006  28.240  27.248  1.00  0.00     0.021 C 
BRANCH   2   3
ATOM      3  C   UNL A   1      32.817  27.396  26.271  1.00  0.00     0.116 C 
BRANCH   3   4
ATOM      4  N   UNL A   1      32.194  26.097  26.111  1.00  0.00    -0.354 N 
ATOM      5  C   UNL A   1      32.550  25.061  25.305  1.00  0.00     0.242 C 
ATOM      6  O   UNL A   1      31.717  24.176  25.090  1.00  0.00    -0.273 OA
ATOM      7  H   UNL A   1      31.395  25.943  26.666  1.00  0.00     0.163 HD
BRANCH   5   8
ATOM      8  C   UNL A   1      33.903  25.065  24.565  1.00  0.00     0.171 C 
BRANCH   8   9
ATOM      9  C   UNL A   1      34.771  23.980  25.248  1.00  0.00     0.032 C 
ATOM     10  C   UNL A   1      36.172  23.817  24.681  1.00  0.00     0.006 C 
ENDBRANCH   8   9
BRANCH   8  11
ATOM     11  N   UNL A   1      33.788  24.858  23.115  1.00  0.00    -0.340 N 
ATOM     12  C   UNL A   1      33.202  25.609  22.124  1.00  0.00     0.253 C 
ATOM     13  H   UNL A   1      34.208  24.028  22.794  1.00  0.00     0.164 HD
ATOM     14  O   UNL A   1      33.384  25.234  20.966  1.00  0.00    -0.269 OA
BRANCH  12  15
ATOM     15  C   UNL A   1      32.302  26.723  22.430  1.00  0.00     0.053 A 
ATOM     16  C   UNL A   1      30.927  26.618  22.550  1.00  0.00     0.079 A 
ATOM     17  C   UNL A   1      32.732  28.083  22.731  1.00  0.00    -0.028 A 
ATOM     18  S   UNL A   1      30.159  28.104  22.896  1.00  0.00    -0.151 S 
ATOM     19  C   UNL A   1      31.653  28.914  22.981  1.00  0.00     0.069 A 
ATOM     20  C   UNL A   1      34.146  28.571  22.776  1.00  0.00     0.046 C 
ENDBRANCH  12  15
ENDBRANCH   8  11
ENDBRANCH   5   8
ENDBRANCH   3   4
ENDBRANCH   2   3
ENDBRANCH   1   2
BRANCH   1  21
ATOM     21  C   UNL A   1      31.827  30.583  26.201  1.00  0.00     0.002 C 
BRANCH  21  22
ATOM     22  C   UNL A   1      31.509  32.012  26.643  1.00  0.00     0.021 C 
BRANCH  22  23
ATOM     23  C   UNL A   1      32.642  32.693  27.406  1.00  0.00     0.116 C 
BRANCH  23  24
ATOM     24  N   UNL A   1      32.364  34.101  27.644  1.00  0.00    -0.352 N 
ATOM     25  C   UNL A   1      32.939  34.951  28.552  1.00  0.00     0.251 C 
ATOM     26  H   UNL A   1      31.666  34.499  27.074  1.00  0.00     0.163 HD
ATOM     27  O   UNL A   1      32.449  36.055  28.775  1.00  0.00    -0.269 OA
BRANCH  25  28
ATOM     28  C   UNL A   1      34.146  34.517  29.280  1.00  0.00     0.039 A 
ATOM     29  C   UNL A   1      34.004  33.950  30.549  1.00  0.00     0.014 A 
ATOM     30  C   UNL A   1      35.409  34.644  28.696  1.00  0.00     0.014 A 
ATOM     31  C   UNL A   1      35.127  33.441  31.202  1.00  0.00     0.010 A 
ATOM     32  C   UNL A   1      36.515  34.075  29.318  1.00  0.00     0.010 A 
ATOM     33  C   UNL A   1      36.383  33.461  30.573  1.00  0.00    -0.014 A 
BRANCH  33  34
ATOM     34  C   UNL A   1      37.565  32.811  31.192  1.00  0.00     0.031 A 
ATOM     35  C   UNL A   1      38.197  31.614  30.541  1.00  0.00     0.074 A 
ATOM     36  C   UNL A   1      38.010  33.249  32.386  1.00  0.00     0.049 A 
ATOM     37  N   UNL A   1      39.164  30.849  30.979  1.00  0.00    -0.248 NA
ATOM     38  C   UNL A   1      37.652  31.204  29.237  1.00  0.00     0.031 C 
ATOM     39  C   UNL A   1      37.446  34.374  33.137  1.00  0.00     0.029 A 
ATOM     40  N   UNL A   1      39.023  32.789  33.191  1.00  0.00    -0.354 N 
ATOM     41  C   UNL A   1      39.329  29.861  30.019  1.00  0.00     0.074 A 
ATOM     42  C   UNL A   1      38.338  30.097  28.991  1.00  0.00     0.031 C 
ATOM     43  C   UNL A   1      38.124  34.519  34.286  1.00  0.00     0.029 A 
ATOM     44  C   UNL A   1      39.137  33.472  34.378  1.00  0.00     0.049 A 
ATOM     45  H   UNL A   1      39.611  32.041  32.941  1.00  0.00     0.167 HD
ATOM     46  C   UNL A   1      40.237  28.857  29.993  1.00  0.00     0.037 A 
ATOM     47  C   UNL A   1      39.948  33.262  35.432  1.00  0.00     0.037 A 
ATOM     48  C   UNL A   1      41.242  28.650  31.003  1.00  0.00     0.049 A 
ATOM     49  C   UNL A   1      40.936  32.126  35.380  1.00  0.00     0.074 A 
ATOM     50  C   UNL A   1      42.269  27.723  31.017  1.00  0.00     0.029 A 
ATOM     51  N   UNL A   1      41.336  29.371  32.183  1.00  0.00    -0.354 N 
ATOM     52  N   UNL A   1      41.149  31.258  34.421  1.00  0.00    -0.248 NA
ATOM     53  C   UNL A   1      41.796  31.939  36.558  1.00  0.00     0.031 C 
ATOM     54  C   UNL A   1      42.944  27.838  32.235  1.00  0.00     0.029 A 
ATOM     55  C   UNL A   1      42.377  28.878  32.954  1.00  0.00     0.049 A 
ATOM     56  H   UNL A   1      40.753  30.123  32.436  1.00  0.00     0.167 HD
ATOM     57  C   UNL A   1      42.178  30.441  34.868  1.00  0.00     0.074 A 
ATOM     58  C   UNL A   1      42.562  30.928  36.176  1.00  0.00     0.031 C 
ATOM     59  C   UNL A   1      42.750  29.377  34.253  1.00  0.00     0.037 A 
BRANCH  46  60
ATOM     60  C   UNL A   1      40.192  27.893  28.844  1.00  0.00     0.064 A 
ATOM     61  C   UNL A   1      40.891  28.131  27.651  1.00  0.00     0.173 A 
ATOM     62  C   UNL A   1      39.503  26.677  28.969  1.00  0.00     0.173 A 
ATOM     63  F   UNL A   1      41.559  29.280  27.477  1.00  0.00    -0.203 F 
ATOM     64  C   UNL A   1      40.886  27.195  26.619  1.00  0.00     0.198 A 
ATOM     65  C   UNL A   1      39.525  25.731  27.948  1.00  0.00     0.198 A 
ATOM     66  F   UNL A   1      38.824  26.396  30.092  1.00  0.00    -0.203 F 
ATOM     67  F   UNL A   1      41.531  27.460  25.475  1.00  0.00    -0.200 F 
ATOM     68  C   UNL A   1      40.212  25.992  26.773  1.00  0.00     0.200 A 
ATOM     69  F   UNL A   1      38.886  24.563  28.105  1.00  0.00    -0.200 F 
ATOM     70  F   UNL A   1      40.224  25.086  25.786  1.00  0.00    -0.200 F 
ENDBRANCH  46  60
BRANCH  47  71
ATOM     71  C   UNL A   1      39.852  34.131  36.636  1.00  0.00     0.064 A 
ATOM     72  C   UNL A   1      40.624  35.296  36.752  1.00  0.00     0.173 A 
ATOM     73  C   UNL A   1      39.011  33.799  37.708  1.00  0.00     0.173 A 
ATOM     74  F   UNL A   1      41.461  35.645  35.763  1.00  0.00    -0.203 F 
ATOM     75  C   UNL A   1      40.581  36.077  37.905  1.00  0.00     0.198 A 
ATOM     76  C   UNL A   1      38.942  34.601  38.846  1.00  0.00     0.198 A 
ATOM     77  F   UNL A   1      38.248  32.698  37.649  1.00  0.00    -0.203 F 
ATOM     78  F   UNL A   1      41.375  37.152  38.012  1.00  0.00    -0.200 F 
ATOM     79  C   UNL A   1      39.737  35.732  38.949  1.00  0.00     0.200 A 
ATOM     80  F   UNL A   1      38.114  34.271  39.846  1.00  0.00    -0.200 F 
ATOM     81  F   UNL A   1      39.699  36.483  40.058  1.00  0.00    -0.200 F 
ENDBRANCH  47  71
BRANCH  59  82
ATOM     82  C   UNL A   1      43.865  28.676  34.974  1.00  0.00     0.064 A 
ATOM     83  C   UNL A   1      43.625  27.561  35.788  1.00  0.00     0.173 A 
ATOM     84  C   UNL A   1      45.194  29.090  34.798  1.00  0.00     0.173 A 
ATOM     85  F   UNL A   1      42.370  27.138  36.000  1.00  0.00    -0.203 F 
ATOM     86  C   UNL A   1      44.675  26.893  36.414  1.00  0.00     0.198 A 
ATOM     87  C   UNL A   1      46.244  28.400  35.399  1.00  0.00     0.198 A 
ATOM     88  F   UNL A   1      45.478  30.148  34.024  1.00  0.00    -0.203 F 
ATOM     89  F   UNL A   1      44.418  25.854  37.220  1.00  0.00    -0.200 F 
ATOM     90  C   UNL A   1      45.982  27.306  36.210  1.00  0.00     0.200 A 
ATOM     91  F   UNL A   1      47.508  28.790  35.187  1.00  0.00    -0.200 F 
ATOM     92  F   UNL A   1      46.992  26.652  36.799  1.00  0.00    -0.200 F 
ENDBRANCH  59  82
ENDBRANCH  33  34
ENDBRANCH  25  28
ENDBRANCH  23  24
ENDBRANCH  22  23
ENDBRANCH  21  22
ENDBRANCH   1  21
TORSDOF 16
ENDMDL
