MODEL 1
REMARK VINA RESULT:     -10.9      0.000      0.000
REMARK SMILES CCCCCCNC(=O)Oc1cccc(-c2ccc([C@@H](C)C(=O)NCCCCCCNC(=O)c3ccc(-c4c5nc(c(-c6c(F)c(F)c(F)c(F)c6F)c6ccc([nH]6)c(-c6c(F)c(F)c(F)c(F)c6F)c6nc(c(-c7c(F)c(F)c(F)c(F)c7F)c7ccc4[nH]7)C=C6)C=C5)cc3)cc2)c1
REMARK SMILES IDX 22 1 23 2 24 3 20 5 21 6 19 7 16 8 17 9 98 10 18 11 97 12
REMARK SMILES IDX 15 13 11 14 12 15 99 16 13 17 14 18 10 19 8 20 7 21 9 23
REMARK SMILES IDX 6 24 5 25 4 26 3 27 2 28 1 29 25 30 26 31 27 32 28 33 29 34
REMARK SMILES IDX 30 35 31 36 32 37 33 39 34 40 35 41 96 42 36 43 95 44 37 45
REMARK SMILES IDX 38 46 39 47 89 48 40 49 94 50 88 51 90 52 41 53 93 54 87 55
REMARK SMILES IDX 86 56 42 58 74 59 54 60 73 61 55 62 58 63 72 64 91 65 56 66
REMARK SMILES IDX 57 67 71 69 92 70 59 71 43 72 44 73 52 74 45 75 46 76 50 77
REMARK SMILES IDX 53 78 47 79 48 80 51 81 49 82 75 83 76 84 84 85 77 86 78 87
REMARK SMILES IDX 82 88 85 89 79 90 80 91 83 92 81 93 60 94 61 95 69 96 62 97
REMARK SMILES IDX 63 98 67 99 70 100 64 101 65 102 68 103 66 104
REMARK H PARENT 24 4 7 22 31 38 90 57 58 68
REMARK Flexibility Score: inf
ROOT
ATOM      1  C   UNL A   1      29.771  25.941  24.194  1.00  0.00     0.227 C 
ATOM      2  O   UNL A   1      28.709  26.270  23.652  1.00  0.00    -0.274 OA
ATOM      3  N   UNL A   1      29.668  25.123  25.277  1.00  0.00    -0.356 N 
ATOM      4  H   UNL A   1      28.751  24.821  25.469  1.00  0.00     0.163 HD
ENDROOT
BRANCH   1   5
ATOM      5  C   UNL A   1      31.107  26.436  23.623  1.00  0.00     0.105 C 
ATOM      6  C   UNL A   1      31.920  25.350  22.918  1.00  0.00     0.023 C 
BRANCH   5   7
ATOM      7  C   UNL A   1      31.885  27.337  24.570  1.00  0.00    -0.036 A 
ATOM      8  C   UNL A   1      33.459  29.028  26.261  1.00  0.00    -0.018 A 
ATOM      9  C   UNL A   1      32.161  29.383  25.861  1.00  0.00     0.009 A 
ATOM     10  C   UNL A   1      33.942  27.791  25.807  1.00  0.00     0.009 A 
ATOM     11  C   UNL A   1      31.378  28.540  25.064  1.00  0.00     0.005 A 
ATOM     12  C   UNL A   1      33.180  26.971  24.962  1.00  0.00     0.005 A 
BRANCH   8  13
ATOM     13  C   UNL A   1      34.266  29.927  27.119  1.00  0.00    -0.015 A 
ATOM     14  C   UNL A   1      34.598  32.035  28.289  1.00  0.00     0.133 A 
ATOM     15  C   UNL A   1      35.833  31.616  28.775  1.00  0.00     0.047 A 
ATOM     16  C   UNL A   1      33.818  31.212  27.472  1.00  0.00     0.056 A 
ATOM     17  C   UNL A   1      36.293  30.349  28.443  1.00  0.00     0.004 A 
ATOM     18  C   UNL A   1      35.524  29.524  27.616  1.00  0.00     0.009 A 
BRANCH  14  19
ATOM     19  O   UNL A   1      34.251  33.372  28.540  1.00  0.00    -0.410 OA
BRANCH  19  20
ATOM     20  C   UNL A   1      33.085  33.890  27.999  1.00  0.00     0.412 C 
ATOM     21  N   UNL A   1      32.992  35.247  28.151  1.00  0.00    -0.321 N 
ATOM     22  H   UNL A   1      32.177  35.677  27.807  1.00  0.00     0.167 HD
ATOM     23  O   UNL A   1      32.199  33.250  27.447  1.00  0.00    -0.224 OA
BRANCH  21  24
ATOM     24  C   UNL A   1      33.975  36.113  28.771  1.00  0.00     0.119 C 
BRANCH  24  25
ATOM     25  C   UNL A   1      33.321  37.255  29.547  1.00  0.00     0.021 C 
BRANCH  25  26
ATOM     26  C   UNL A   1      33.153  36.993  31.049  1.00  0.00     0.002 C 
BRANCH  26  27
ATOM     27  C   UNL A   1      32.893  35.534  31.439  1.00  0.00    -0.000 C 
BRANCH  27  28
ATOM     28  C   UNL A   1      34.045  34.830  32.159  1.00  0.00    -0.003 C 
ATOM     29  C   UNL A   1      34.728  35.705  33.198  1.00  0.00     0.004 C 
ENDBRANCH  27  28
ENDBRANCH  26  27
ENDBRANCH  25  26
ENDBRANCH  24  25
ENDBRANCH  21  24
ENDBRANCH  19  20
ENDBRANCH  14  19
ENDBRANCH   8  13
ENDBRANCH   5   7
ENDBRANCH   1   5
BRANCH   3  30
ATOM     30  C   UNL A   1      30.663  24.617  26.197  1.00  0.00     0.116 C 
BRANCH  30  31
ATOM     31  C   UNL A   1      31.192  23.248  25.764  1.00  0.00     0.021 C 
BRANCH  31  32
ATOM     32  C   UNL A   1      32.436  22.793  26.536  1.00  0.00     0.002 C 
BRANCH  32  33
ATOM     33  C   UNL A   1      33.723  23.562  26.209  1.00  0.00     0.002 C 
BRANCH  33  34
ATOM     34  C   UNL A   1      34.866  22.721  25.632  1.00  0.00     0.021 C 
BRANCH  34  35
ATOM     35  C   UNL A   1      36.255  23.102  26.134  1.00  0.00     0.116 C 
BRANCH  35  36
ATOM     36  N   UNL A   1      37.189  21.991  26.040  1.00  0.00    -0.352 N 
ATOM     37  C   UNL A   1      38.557  21.981  26.138  1.00  0.00     0.251 C 
ATOM     38  H   UNL A   1      36.776  21.111  25.881  1.00  0.00     0.163 HD
ATOM     39  O   UNL A   1      39.193  20.986  25.803  1.00  0.00    -0.269 OA
BRANCH  37  40
ATOM     40  C   UNL A   1      39.276  23.172  26.643  1.00  0.00     0.039 A 
ATOM     41  C   UNL A   1      40.299  22.996  27.580  1.00  0.00     0.014 A 
ATOM     42  C   UNL A   1      38.918  24.456  26.227  1.00  0.00     0.014 A 
ATOM     43  C   UNL A   1      40.996  24.106  28.061  1.00  0.00     0.010 A 
ATOM     44  C   UNL A   1      39.657  25.555  26.656  1.00  0.00     0.010 A 
ATOM     45  C   UNL A   1      40.700  25.392  27.582  1.00  0.00    -0.014 A 
BRANCH  45  46
ATOM     46  C   UNL A   1      41.463  26.579  28.042  1.00  0.00     0.031 A 
ATOM     47  C   UNL A   1      42.898  26.759  27.631  1.00  0.00     0.074 A 
ATOM     48  C   UNL A   1      40.883  27.461  28.878  1.00  0.00     0.049 A 
ATOM     49  N   UNL A   1      43.752  27.685  27.988  1.00  0.00    -0.248 NA
ATOM     50  C   UNL A   1      43.455  25.749  26.718  1.00  0.00     0.031 C 
ATOM     51  C   UNL A   1      39.510  27.374  29.378  1.00  0.00     0.029 A 
ATOM     52  N   UNL A   1      41.379  28.600  29.462  1.00  0.00    -0.354 N 
ATOM     53  C   UNL A   1      44.945  27.363  27.355  1.00  0.00     0.074 A 
ATOM     54  C   UNL A   1      44.722  26.129  26.634  1.00  0.00     0.031 C 
ATOM     55  C   UNL A   1      39.267  28.424  30.178  1.00  0.00     0.029 A 
ATOM     56  C   UNL A   1      40.476  29.237  30.277  1.00  0.00     0.049 A 
ATOM     57  H   UNL A   1      42.294  28.928  29.313  1.00  0.00     0.167 HD
ATOM     58  C   UNL A   1      46.114  28.048  27.355  1.00  0.00     0.037 A 
ATOM     59  C   UNL A   1      40.611  30.350  31.024  1.00  0.00     0.037 A 
ATOM     60  C   UNL A   1      46.327  29.288  28.055  1.00  0.00     0.049 A 
ATOM     61  C   UNL A   1      41.924  31.084  31.017  1.00  0.00     0.074 A 
ATOM     62  C   UNL A   1      47.457  30.085  28.077  1.00  0.00     0.029 A 
ATOM     63  N   UNL A   1      45.382  29.912  28.858  1.00  0.00    -0.354 N 
ATOM     64  N   UNL A   1      43.027  30.802  30.366  1.00  0.00    -0.248 NA
ATOM     65  C   UNL A   1      42.008  32.296  31.844  1.00  0.00     0.031 C 
ATOM     66  C   UNL A   1      47.212  31.170  28.926  1.00  0.00     0.029 A 
ATOM     67  C   UNL A   1      45.912  31.074  29.396  1.00  0.00     0.049 A 
ATOM     68  H   UNL A   1      44.471  29.579  29.021  1.00  0.00     0.167 HD
ATOM     69  C   UNL A   1      43.923  31.814  30.681  1.00  0.00     0.074 A 
ATOM     70  C   UNL A   1      43.232  32.725  31.569  1.00  0.00     0.031 C 
ATOM     71  C   UNL A   1      45.205  31.974  30.270  1.00  0.00     0.037 A 
BRANCH  58  72
ATOM     72  C   UNL A   1      47.256  27.472  26.570  1.00  0.00     0.064 A 
ATOM     73  C   UNL A   1      48.165  26.572  27.150  1.00  0.00     0.173 A 
ATOM     74  C   UNL A   1      47.426  27.791  25.215  1.00  0.00     0.173 A 
ATOM     75  F   UNL A   1      48.054  26.241  28.445  1.00  0.00    -0.203 F 
ATOM     76  C   UNL A   1      49.216  26.038  26.409  1.00  0.00     0.198 A 
ATOM     77  C   UNL A   1      48.461  27.233  24.470  1.00  0.00     0.198 A 
ATOM     78  F   UNL A   1      46.582  28.641  24.610  1.00  0.00    -0.203 F 
ATOM     79  F   UNL A   1      50.100  25.219  26.998  1.00  0.00    -0.200 F 
ATOM     80  C   UNL A   1      49.360  26.363  25.069  1.00  0.00     0.200 A 
ATOM     81  F   UNL A   1      48.591  27.537  23.171  1.00  0.00    -0.200 F 
ATOM     82  F   UNL A   1      50.369  25.843  24.356  1.00  0.00    -0.200 F 
ENDBRANCH  58  72
BRANCH  59  83
ATOM     83  C   UNL A   1      39.463  30.852  31.823  1.00  0.00     0.064 A 
ATOM     84  C   UNL A   1      39.240  30.388  33.128  1.00  0.00     0.173 A 
ATOM     85  C   UNL A   1      38.564  31.794  31.303  1.00  0.00     0.173 A 
ATOM     86  F   UNL A   1      40.060  29.472  33.661  1.00  0.00    -0.203 F 
ATOM     87  C   UNL A   1      38.149  30.832  33.872  1.00  0.00     0.198 A 
ATOM     88  C   UNL A   1      37.489  32.257  32.059  1.00  0.00     0.198 A 
ATOM     89  F   UNL A   1      38.736  32.272  30.062  1.00  0.00    -0.203 F 
ATOM     90  F   UNL A   1      37.933  30.337  35.099  1.00  0.00    -0.200 F 
ATOM     91  C   UNL A   1      37.278  31.769  33.339  1.00  0.00     0.200 A 
ATOM     92  F   UNL A   1      36.658  33.174  31.546  1.00  0.00    -0.200 F 
ATOM     93  F   UNL A   1      36.230  32.197  34.057  1.00  0.00    -0.200 F 
ENDBRANCH  59  83
BRANCH  71  94
ATOM     94  C   UNL A   1      45.931  33.198  30.748  1.00  0.00     0.064 A 
ATOM     95  C   UNL A   1      46.677  33.195  31.935  1.00  0.00     0.173 A 
ATOM     96  C   UNL A   1      45.910  34.377  29.987  1.00  0.00     0.173 A 
ATOM     97  F   UNL A   1      46.715  32.097  32.705  1.00  0.00    -0.203 F 
ATOM     98  C   UNL A   1      47.355  34.335  32.356  1.00  0.00     0.198 A 
ATOM     99  C   UNL A   1      46.612  35.507  30.396  1.00  0.00     0.198 A 
ATOM    100  F   UNL A   1      45.216  34.429  28.840  1.00  0.00    -0.203 F 
ATOM    101  F   UNL A   1      48.022  34.324  33.519  1.00  0.00    -0.200 F 
ATOM    102  C   UNL A   1      47.328  35.488  31.584  1.00  0.00     0.200 A 
ATOM    103  F   UNL A   1      46.596  36.614  29.642  1.00  0.00    -0.200 F 
ATOM    104  F   UNL A   1      47.986  36.582  31.988  1.00  0.00    -0.200 F 
ENDBRANCH  71  94
ENDBRANCH  45  46
ENDBRANCH  37  40
ENDBRANCH  35  36
ENDBRANCH  34  35
ENDBRANCH  33  34
ENDBRANCH  32  33
ENDBRANCH  31  32
ENDBRANCH  30  31
ENDBRANCH   3  30
TORSDOF 22
ENDMDL
MODEL 2
REMARK VINA RESULT:     -10.8      0.529      6.957
REMARK SMILES CCCCCCNC(=O)Oc1cccc(-c2ccc([C@@H](C)C(=O)NCCCCCCNC(=O)c3ccc(-c4c5nc(c(-c6c(F)c(F)c(F)c(F)c6F)c6ccc([nH]6)c(-c6c(F)c(F)c(F)c(F)c6F)c6nc(c(-c7c(F)c(F)c(F)c(F)c7F)c7ccc4[nH]7)C=C6)C=C5)cc3)cc2)c1
REMARK SMILES IDX 22 1 23 2 24 3 20 5 21 6 19 7 16 8 17 9 98 10 18 11 97 12
REMARK SMILES IDX 15 13 11 14 12 15 99 16 13 17 14 18 10 19 8 20 7 21 9 23
REMARK SMILES IDX 6 24 5 25 4 26 3 27 2 28 1 29 25 30 26 31 27 32 28 33 29 34
REMARK SMILES IDX 30 35 31 36 32 37 33 39 34 40 35 41 96 42 36 43 95 44 37 45
REMARK SMILES IDX 38 46 39 47 89 48 40 49 94 50 88 51 90 52 41 53 93 54 87 55
REMARK SMILES IDX 86 56 42 58 74 59 54 60 73 61 55 62 58 63 72 64 91 65 56 66
REMARK SMILES IDX 57 67 71 69 92 70 59 71 43 72 44 73 52 74 45 75 46 76 50 77
REMARK SMILES IDX 53 78 47 79 48 80 51 81 49 82 75 83 76 84 84 85 77 86 78 87
REMARK SMILES IDX 82 88 85 89 79 90 80 91 83 92 81 93 60 94 61 95 69 96 62 97
REMARK SMILES IDX 63 98 67 99 70 100 64 101 65 102 68 103 66 104
REMARK H PARENT 24 4 7 22 31 38 90 57 58 68
REMARK Flexibility Score: inf
ROOT
ATOM      1  C   UNL A   1      29.781  26.418  24.023  1.00  0.00     0.227 C 
ATOM      2  O   UNL A   1      28.716  26.833  23.552  1.00  0.00    -0.274 OA
ATOM      3  N   UNL A   1      29.683  25.457  24.983  1.00  0.00    -0.356 N 
ATOM      4  H   UNL A   1      28.765  25.142  25.147  1.00  0.00     0.163 HD
ENDROOT
BRANCH   1   5
ATOM      5  C   UNL A   1      31.116  26.971  23.503  1.00  0.00     0.105 C 
ATOM      6  C   UNL A   1      31.967  25.940  22.761  1.00  0.00     0.023 C 
BRANCH   5   7
ATOM      7  C   UNL A   1      31.854  27.841  24.508  1.00  0.00    -0.036 A 
ATOM      8  C   UNL A   1      33.367  29.449  26.331  1.00  0.00    -0.018 A 
ATOM      9  C   UNL A   1      32.231  29.946  25.673  1.00  0.00     0.009 A 
ATOM     10  C   UNL A   1      33.715  28.115  26.067  1.00  0.00     0.009 A 
ATOM     11  C   UNL A   1      31.471  29.149  24.809  1.00  0.00     0.005 A 
ATOM     12  C   UNL A   1      32.987  27.333  25.159  1.00  0.00     0.005 A 
BRANCH   8  13
ATOM     13  C   UNL A   1      34.149  30.305  27.254  1.00  0.00    -0.015 A 
ATOM     14  C   UNL A   1      34.502  32.394  28.449  1.00  0.00     0.133 A 
ATOM     15  C   UNL A   1      35.665  31.908  29.037  1.00  0.00     0.047 A 
ATOM     16  C   UNL A   1      33.748  31.614  27.569  1.00  0.00     0.056 A 
ATOM     17  C   UNL A   1      36.078  30.616  28.745  1.00  0.00     0.004 A 
ATOM     18  C   UNL A   1      35.336  29.832  27.855  1.00  0.00     0.009 A 
BRANCH  14  19
ATOM     19  O   UNL A   1      34.212  33.751  28.670  1.00  0.00    -0.410 OA
BRANCH  19  20
ATOM     20  C   UNL A   1      33.025  34.284  28.194  1.00  0.00     0.412 C 
ATOM     21  N   UNL A   1      32.783  35.541  28.675  1.00  0.00    -0.321 N 
ATOM     22  H   UNL A   1      31.945  35.972  28.392  1.00  0.00     0.167 HD
ATOM     23  O   UNL A   1      32.239  33.731  27.435  1.00  0.00    -0.224 OA
BRANCH  21  24
ATOM     24  C   UNL A   1      33.639  36.304  29.563  1.00  0.00     0.119 C 
BRANCH  24  25
ATOM     25  C   UNL A   1      32.919  36.697  30.852  1.00  0.00     0.021 C 
BRANCH  25  26
ATOM     26  C   UNL A   1      32.848  35.588  31.909  1.00  0.00     0.002 C 
BRANCH  26  27
ATOM     27  C   UNL A   1      34.125  34.757  32.079  1.00  0.00    -0.000 C 
BRANCH  27  28
ATOM     28  C   UNL A   1      35.198  35.378  32.977  1.00  0.00    -0.003 C 
ATOM     29  C   UNL A   1      35.280  34.730  34.351  1.00  0.00     0.004 C 
ENDBRANCH  27  28
ENDBRANCH  26  27
ENDBRANCH  25  26
ENDBRANCH  24  25
ENDBRANCH  21  24
ENDBRANCH  19  20
ENDBRANCH  14  19
ENDBRANCH   8  13
ENDBRANCH   5   7
ENDBRANCH   1   5
BRANCH   3  30
ATOM     30  C   UNL A   1      30.686  24.814  25.804  1.00  0.00     0.116 C 
BRANCH  30  31
ATOM     31  C   UNL A   1      31.223  23.539  25.151  1.00  0.00     0.021 C 
BRANCH  31  32
ATOM     32  C   UNL A   1      32.390  22.899  25.910  1.00  0.00     0.002 C 
BRANCH  32  33
ATOM     33  C   UNL A   1      33.645  23.773  26.033  1.00  0.00     0.002 C 
BRANCH  33  34
ATOM     34  C   UNL A   1      34.893  23.241  25.321  1.00  0.00     0.021 C 
BRANCH  34  35
ATOM     35  C   UNL A   1      36.186  23.365  26.121  1.00  0.00     0.116 C 
BRANCH  35  36
ATOM     36  N   UNL A   1      37.018  22.179  25.993  1.00  0.00    -0.352 N 
ATOM     37  C   UNL A   1      38.380  22.046  26.082  1.00  0.00     0.251 C 
ATOM     38  H   UNL A   1      36.528  21.343  25.816  1.00  0.00     0.163 HD
ATOM     39  O   UNL A   1      38.924  21.008  25.718  1.00  0.00    -0.269 OA
BRANCH  37  40
ATOM     40  C   UNL A   1      39.204  23.156  26.609  1.00  0.00     0.039 A 
ATOM     41  C   UNL A   1      40.260  22.861  27.476  1.00  0.00     0.014 A 
ATOM     42  C   UNL A   1      38.912  24.484  26.286  1.00  0.00     0.014 A 
ATOM     43  C   UNL A   1      41.056  23.893  27.977  1.00  0.00     0.010 A 
ATOM     44  C   UNL A   1      39.745  25.506  26.732  1.00  0.00     0.010 A 
ATOM     45  C   UNL A   1      40.822  25.221  27.587  1.00  0.00    -0.014 A 
BRANCH  45  46
ATOM     46  C   UNL A   1      41.687  26.328  28.068  1.00  0.00     0.031 A 
ATOM     47  C   UNL A   1      41.139  27.357  29.017  1.00  0.00     0.074 A 
ATOM     48  C   UNL A   1      42.946  26.439  27.603  1.00  0.00     0.049 A 
ATOM     49  N   UNL A   1      41.711  28.436  29.489  1.00  0.00    -0.248 NA
ATOM     50  C   UNL A   1      39.754  27.163  29.473  1.00  0.00     0.031 C 
ATOM     51  C   UNL A   1      43.578  25.525  26.650  1.00  0.00     0.029 A 
ATOM     52  N   UNL A   1      43.917  27.374  27.861  1.00  0.00    -0.354 N 
ATOM     53  C   UNL A   1      40.756  29.051  30.287  1.00  0.00     0.074 A 
ATOM     54  C   UNL A   1      39.550  28.256  30.193  1.00  0.00     0.031 C 
ATOM     55  C   UNL A   1      44.837  25.933  26.419  1.00  0.00     0.029 A 
ATOM     56  C   UNL A   1      45.087  27.155  27.177  1.00  0.00     0.049 A 
ATOM     57  H   UNL A   1      43.787  28.130  28.478  1.00  0.00     0.167 HD
ATOM     58  C   UNL A   1      40.880  30.166  31.047  1.00  0.00     0.037 A 
ATOM     59  C   UNL A   1      46.231  27.866  27.159  1.00  0.00     0.037 A 
ATOM     60  C   UNL A   1      42.087  30.942  31.156  1.00  0.00     0.049 A 
ATOM     61  C   UNL A   1      46.338  29.107  28.002  1.00  0.00     0.074 A 
ATOM     62  C   UNL A   1      42.330  32.057  31.938  1.00  0.00     0.029 A 
ATOM     63  N   UNL A   1      43.258  30.680  30.460  1.00  0.00    -0.354 N 
ATOM     64  N   UNL A   1      45.447  29.646  28.799  1.00  0.00    -0.248 NA
ATOM     65  C   UNL A   1      47.613  29.835  27.949  1.00  0.00     0.031 C 
ATOM     66  C   UNL A   1      43.634  32.496  31.684  1.00  0.00     0.029 A 
ATOM     67  C   UNL A   1      44.220  31.625  30.779  1.00  0.00     0.049 A 
ATOM     68  H   UNL A   1      43.387  29.934  29.831  1.00  0.00     0.167 HD
ATOM     69  C   UNL A   1      46.062  30.755  29.363  1.00  0.00     0.074 A 
ATOM     70  C   UNL A   1      47.407  30.806  28.828  1.00  0.00     0.031 C 
ATOM     71  C   UNL A   1      45.558  31.653  30.245  1.00  0.00     0.037 A 
BRANCH  58  72
ATOM     72  C   UNL A   1      39.677  30.611  31.826  1.00  0.00     0.064 A 
ATOM     73  C   UNL A   1      39.431  30.145  33.127  1.00  0.00     0.173 A 
ATOM     74  C   UNL A   1      38.778  31.542  31.284  1.00  0.00     0.173 A 
ATOM     75  F   UNL A   1      40.253  29.245  33.689  1.00  0.00    -0.203 F 
ATOM     76  C   UNL A   1      38.315  30.571  33.843  1.00  0.00     0.198 A 
ATOM     77  C   UNL A   1      37.679  31.989  32.013  1.00  0.00     0.198 A 
ATOM     78  F   UNL A   1      38.969  32.025  30.047  1.00  0.00    -0.203 F 
ATOM     79  F   UNL A   1      38.075  30.074  35.065  1.00  0.00    -0.200 F 
ATOM     80  C   UNL A   1      37.444  31.497  33.290  1.00  0.00     0.200 A 
ATOM     81  F   UNL A   1      36.846  32.893  31.482  1.00  0.00    -0.200 F 
ATOM     82  F   UNL A   1      36.374  31.911  33.982  1.00  0.00    -0.200 F 
ENDBRANCH  58  72
BRANCH  59  83
ATOM     83  C   UNL A   1      47.377  27.408  26.331  1.00  0.00     0.064 A 
ATOM     84  C   UNL A   1      47.484  27.782  24.984  1.00  0.00     0.173 A 
ATOM     85  C   UNL A   1      48.381  26.585  26.862  1.00  0.00     0.173 A 
ATOM     86  F   UNL A   1      46.537  28.551  24.426  1.00  0.00    -0.203 F 
ATOM     87  C   UNL A   1      48.539  27.332  24.194  1.00  0.00     0.198 A 
ATOM     88  C   UNL A   1      49.451  26.158  26.077  1.00  0.00     0.198 A 
ATOM     89  F   UNL A   1      48.327  26.203  28.146  1.00  0.00    -0.203 F 
ATOM     90  F   UNL A   1      48.591  27.667  22.897  1.00  0.00    -0.200 F 
ATOM     91  C   UNL A   1      49.525  26.525  24.742  1.00  0.00     0.200 A 
ATOM     92  F   UNL A   1      50.409  25.391  26.614  1.00  0.00    -0.200 F 
ATOM     93  F   UNL A   1      50.540  26.095  23.982  1.00  0.00    -0.200 F 
ENDBRANCH  59  83
BRANCH  71  94
ATOM     94  C   UNL A   1      46.475  32.744  30.714  1.00  0.00     0.064 A 
ATOM     95  C   UNL A   1      47.289  32.586  31.845  1.00  0.00     0.173 A 
ATOM     96  C   UNL A   1      46.566  33.949  30.001  1.00  0.00     0.173 A 
ATOM     97  F   UNL A   1      47.227  31.458  32.569  1.00  0.00    -0.203 F 
ATOM     98  C   UNL A   1      48.143  33.604  32.258  1.00  0.00     0.198 A 
ATOM     99  C   UNL A   1      47.442  34.954  30.400  1.00  0.00     0.198 A 
ATOM    100  F   UNL A   1      45.813  34.147  28.909  1.00  0.00    -0.203 F 
ATOM    101  F   UNL A   1      48.878  33.450  33.370  1.00  0.00    -0.200 F 
ATOM    102  C   UNL A   1      48.225  34.784  31.533  1.00  0.00     0.200 A 
ATOM    103  F   UNL A   1      47.529  36.087  29.691  1.00  0.00    -0.200 F 
ATOM    104  F   UNL A   1      49.052  35.760  31.929  1.00  0.00    -0.200 F 
ENDBRANCH  71  94
ENDBRANCH  45  46
ENDBRANCH  37  40
ENDBRANCH  35  36
ENDBRANCH  34  35
ENDBRANCH  33  34
ENDBRANCH  32  33
ENDBRANCH  31  32
ENDBRANCH  30  31
ENDBRANCH   3  30
TORSDOF 22
ENDMDL
MODEL 3
REMARK VINA RESULT:     -10.5      4.940      8.446
REMARK SMILES CCCCCCNC(=O)Oc1cccc(-c2ccc([C@@H](C)C(=O)NCCCCCCNC(=O)c3ccc(-c4c5nc(c(-c6c(F)c(F)c(F)c(F)c6F)c6ccc([nH]6)c(-c6c(F)c(F)c(F)c(F)c6F)c6nc(c(-c7c(F)c(F)c(F)c(F)c7F)c7ccc4[nH]7)C=C6)C=C5)cc3)cc2)c1
REMARK SMILES IDX 22 1 23 2 24 3 20 5 21 6 19 7 16 8 17 9 98 10 18 11 97 12
REMARK SMILES IDX 15 13 11 14 12 15 99 16 13 17 14 18 10 19 8 20 7 21 9 23
REMARK SMILES IDX 6 24 5 25 4 26 3 27 2 28 1 29 25 30 26 31 27 32 28 33 29 34
REMARK SMILES IDX 30 35 31 36 32 37 33 39 34 40 35 41 96 42 36 43 95 44 37 45
REMARK SMILES IDX 38 46 39 47 89 48 40 49 94 50 88 51 90 52 41 53 93 54 87 55
REMARK SMILES IDX 86 56 42 58 74 59 54 60 73 61 55 62 58 63 72 64 91 65 56 66
REMARK SMILES IDX 57 67 71 69 92 70 59 71 43 72 44 73 52 74 45 75 46 76 50 77
REMARK SMILES IDX 53 78 47 79 48 80 51 81 49 82 75 83 76 84 84 85 77 86 78 87
REMARK SMILES IDX 82 88 85 89 79 90 80 91 83 92 81 93 60 94 61 95 69 96 62 97
REMARK SMILES IDX 63 98 67 99 70 100 64 101 65 102 68 103 66 104
REMARK H PARENT 24 4 7 22 31 38 90 57 58 68
REMARK Flexibility Score: inf
ROOT
ATOM      1  C   UNL A   1      41.356  23.735  27.189  1.00  0.00     0.227 C 
ATOM      2  O   UNL A   1      40.748  22.792  26.668  1.00  0.00    -0.274 OA
ATOM      3  N   UNL A   1      42.185  23.422  28.222  1.00  0.00    -0.356 N 
ATOM      4  H   UNL A   1      42.266  22.457  28.396  1.00  0.00     0.163 HD
ENDROOT
BRANCH   1   5
ATOM      5  C   UNL A   1      41.169  25.159  26.646  1.00  0.00     0.105 C 
ATOM      6  C   UNL A   1      42.264  25.602  25.675  1.00  0.00     0.023 C 
BRANCH   5   7
ATOM      7  C   UNL A   1      40.774  26.174  27.707  1.00  0.00    -0.036 A 
ATOM      8  C   UNL A   1      40.031  28.188  29.603  1.00  0.00    -0.018 A 
ATOM      9  C   UNL A   1      39.304  26.994  29.467  1.00  0.00     0.009 A 
ATOM     10  C   UNL A   1      41.156  28.338  28.777  1.00  0.00     0.009 A 
ATOM     11  C   UNL A   1      39.688  25.995  28.565  1.00  0.00     0.005 A 
ATOM     12  C   UNL A   1      41.509  27.362  27.834  1.00  0.00     0.005 A 
BRANCH   8  13
ATOM     13  C   UNL A   1      39.618  29.226  30.576  1.00  0.00    -0.015 A 
ATOM     14  C   UNL A   1      38.953  31.503  31.118  1.00  0.00     0.133 A 
ATOM     15  C   UNL A   1      38.817  31.184  32.466  1.00  0.00     0.047 A 
ATOM     16  C   UNL A   1      39.347  30.547  30.179  1.00  0.00     0.056 A 
ATOM     17  C   UNL A   1      39.074  29.885  32.880  1.00  0.00     0.004 A 
ATOM     18  C   UNL A   1      39.481  28.925  31.948  1.00  0.00     0.009 A 
BRANCH  14  19
ATOM     19  O   UNL A   1      38.818  32.860  30.782  1.00  0.00    -0.410 OA
BRANCH  19  20
ATOM     20  C   UNL A   1      37.620  33.320  30.260  1.00  0.00     0.412 C 
ATOM     21  N   UNL A   1      36.972  34.178  31.106  1.00  0.00    -0.321 N 
ATOM     22  H   UNL A   1      36.103  34.527  30.805  1.00  0.00     0.167 HD
ATOM     23  O   UNL A   1      37.141  33.016  29.174  1.00  0.00    -0.224 OA
BRANCH  21  24
ATOM     24  C   UNL A   1      37.440  34.624  32.404  1.00  0.00     0.119 C 
BRANCH  24  25
ATOM     25  C   UNL A   1      36.330  34.588  33.454  1.00  0.00     0.021 C 
BRANCH  25  26
ATOM     26  C   UNL A   1      34.932  34.919  32.918  1.00  0.00     0.002 C 
BRANCH  26  27
ATOM     27  C   UNL A   1      34.404  36.315  33.271  1.00  0.00    -0.000 C 
BRANCH  27  28
ATOM     28  C   UNL A   1      33.352  36.881  32.315  1.00  0.00    -0.003 C 
ATOM     29  C   UNL A   1      32.145  35.973  32.143  1.00  0.00     0.004 C 
ENDBRANCH  27  28
ENDBRANCH  26  27
ENDBRANCH  25  26
ENDBRANCH  24  25
ENDBRANCH  21  24
ENDBRANCH  19  20
ENDBRANCH  14  19
ENDBRANCH   8  13
ENDBRANCH   5   7
ENDBRANCH   1   5
BRANCH   3  30
ATOM     30  C   UNL A   1      42.970  24.253  29.109  1.00  0.00     0.116 C 
BRANCH  30  31
ATOM     31  C   UNL A   1      44.356  23.658  29.367  1.00  0.00     0.021 C 
BRANCH  31  32
ATOM     32  C   UNL A   1      45.249  23.606  28.122  1.00  0.00     0.002 C 
BRANCH  32  33
ATOM     33  C   UNL A   1      46.248  24.762  27.988  1.00  0.00     0.002 C 
BRANCH  33  34
ATOM     34  C   UNL A   1      47.263  24.629  26.849  1.00  0.00     0.021 C 
BRANCH  34  35
ATOM     35  C   UNL A   1      46.653  24.591  25.451  1.00  0.00     0.116 C 
BRANCH  35  36
ATOM     36  N   UNL A   1      47.297  25.535  24.552  1.00  0.00    -0.352 N 
ATOM     37  C   UNL A   1      47.201  26.903  24.497  1.00  0.00     0.251 C 
ATOM     38  H   UNL A   1      47.894  25.132  23.881  1.00  0.00     0.163 HD
ATOM     39  O   UNL A   1      47.636  27.513  23.525  1.00  0.00    -0.269 OA
BRANCH  37  40
ATOM     40  C   UNL A   1      46.565  27.650  25.603  1.00  0.00     0.039 A 
ATOM     41  C   UNL A   1      45.170  27.748  25.638  1.00  0.00     0.014 A 
ATOM     42  C   UNL A   1      47.337  28.286  26.578  1.00  0.00     0.014 A 
ATOM     43  C   UNL A   1      44.550  28.440  26.680  1.00  0.00     0.010 A 
ATOM     44  C   UNL A   1      46.716  28.919  27.652  1.00  0.00     0.010 A 
ATOM     45  C   UNL A   1      45.317  29.007  27.710  1.00  0.00    -0.014 A 
BRANCH  45  46
ATOM     46  C   UNL A   1      44.674  29.703  28.853  1.00  0.00     0.031 A 
ATOM     47  C   UNL A   1      44.399  31.180  28.780  1.00  0.00     0.074 A 
ATOM     48  C   UNL A   1      44.395  29.018  29.978  1.00  0.00     0.049 A 
ATOM     49  N   UNL A   1      43.916  31.979  29.698  1.00  0.00    -0.248 NA
ATOM     50  C   UNL A   1      44.737  31.852  27.516  1.00  0.00     0.031 C 
ATOM     51  C   UNL A   1      44.650  27.592  30.184  1.00  0.00     0.029 A 
ATOM     52  N   UNL A   1      43.843  29.432  31.165  1.00  0.00    -0.354 N 
ATOM     53  C   UNL A   1      43.904  33.245  29.128  1.00  0.00     0.074 A 
ATOM     54  C   UNL A   1      44.475  33.118  27.805  1.00  0.00     0.031 C 
ATOM     55  C   UNL A   1      44.238  27.245  31.414  1.00  0.00     0.029 A 
ATOM     56  C   UNL A   1      43.726  28.430  32.096  1.00  0.00     0.049 A 
ATOM     57  H   UNL A   1      43.559  30.359  31.334  1.00  0.00     0.167 HD
ATOM     58  C   UNL A   1      43.435  34.403  29.651  1.00  0.00     0.037 A 
ATOM     59  C   UNL A   1      43.262  28.465  33.360  1.00  0.00     0.037 A 
ATOM     60  C   UNL A   1      42.846  34.521  30.960  1.00  0.00     0.049 A 
ATOM     61  C   UNL A   1      42.760  29.767  33.922  1.00  0.00     0.074 A 
ATOM     62  C   UNL A   1      42.296  35.639  31.562  1.00  0.00     0.029 A 
ATOM     63  N   UNL A   1      42.730  33.480  31.869  1.00  0.00    -0.354 N 
ATOM     64  N   UNL A   1      42.697  30.946  33.351  1.00  0.00    -0.248 NA
ATOM     65  C   UNL A   1      42.257  29.742  35.302  1.00  0.00     0.031 C 
ATOM     66  C   UNL A   1      41.885  35.284  32.852  1.00  0.00     0.029 A 
ATOM     67  C   UNL A   1      42.135  33.933  33.035  1.00  0.00     0.049 A 
ATOM     68  H   UNL A   1      43.026  32.555  31.709  1.00  0.00     0.167 HD
ATOM     69  C   UNL A   1      42.124  31.793  34.289  1.00  0.00     0.074 A 
ATOM     70  C   UNL A   1      41.843  30.991  35.462  1.00  0.00     0.031 C 
ATOM     71  C   UNL A   1      41.853  33.117  34.188  1.00  0.00     0.037 A 
BRANCH  58  72
ATOM     72  C   UNL A   1      43.538  35.638  28.805  1.00  0.00     0.064 A 
ATOM     73  C   UNL A   1      42.449  36.105  28.053  1.00  0.00     0.173 A 
ATOM     74  C   UNL A   1      44.724  36.386  28.772  1.00  0.00     0.173 A 
ATOM     75  F   UNL A   1      41.294  35.421  28.040  1.00  0.00    -0.203 F 
ATOM     76  C   UNL A   1      42.554  37.256  27.277  1.00  0.00     0.198 A 
ATOM     77  C   UNL A   1      44.817  37.553  28.018  1.00  0.00     0.198 A 
ATOM     78  F   UNL A   1      45.794  35.989  29.477  1.00  0.00    -0.203 F 
ATOM     79  F   UNL A   1      41.515  37.655  26.528  1.00  0.00    -0.200 F 
ATOM     80  C   UNL A   1      43.734  37.983  27.265  1.00  0.00     0.200 A 
ATOM     81  F   UNL A   1      45.954  38.262  28.018  1.00  0.00    -0.200 F 
ATOM     82  F   UNL A   1      43.832  39.095  26.523  1.00  0.00    -0.200 F 
ENDBRANCH  58  72
BRANCH  59  83
ATOM     83  C   UNL A   1      43.227  27.222  34.174  1.00  0.00     0.064 A 
ATOM     84  C   UNL A   1      42.014  26.569  34.434  1.00  0.00     0.173 A 
ATOM     85  C   UNL A   1      44.397  26.667  34.714  1.00  0.00     0.173 A 
ATOM     86  F   UNL A   1      40.867  27.072  33.956  1.00  0.00    -0.203 F 
ATOM     87  C   UNL A   1      41.970  25.420  35.221  1.00  0.00     0.198 A 
ATOM     88  C   UNL A   1      44.354  25.503  35.479  1.00  0.00     0.198 A 
ATOM     89  F   UNL A   1      45.583  27.252  34.491  1.00  0.00    -0.203 F 
ATOM     90  F   UNL A   1      40.792  24.842  35.493  1.00  0.00    -0.200 F 
ATOM     91  C   UNL A   1      43.140  24.885  35.739  1.00  0.00     0.200 A 
ATOM     92  F   UNL A   1      45.488  24.982  35.965  1.00  0.00    -0.200 F 
ATOM     93  F   UNL A   1      43.097  23.780  36.494  1.00  0.00    -0.200 F 
ENDBRANCH  59  83
BRANCH  71  94
ATOM     94  C   UNL A   1      41.189  33.774  35.363  1.00  0.00     0.064 A 
ATOM     95  C   UNL A   1      41.913  34.547  36.282  1.00  0.00     0.173 A 
ATOM     96  C   UNL A   1      39.802  33.657  35.549  1.00  0.00     0.173 A 
ATOM     97  F   UNL A   1      43.243  34.675  36.155  1.00  0.00    -0.203 F 
ATOM     98  C   UNL A   1      41.278  35.159  37.358  1.00  0.00     0.198 A 
ATOM     99  C   UNL A   1      39.166  34.295  36.610  1.00  0.00     0.198 A 
ATOM    100  F   UNL A   1      39.064  32.935  34.694  1.00  0.00    -0.203 F 
ATOM    101  F   UNL A   1      41.997  35.854  38.251  1.00  0.00    -0.200 F 
ATOM    102  C   UNL A   1      39.905  35.039  37.518  1.00  0.00     0.200 A 
ATOM    103  F   UNL A   1      37.838  34.188  36.755  1.00  0.00    -0.200 F 
ATOM    104  F   UNL A   1      39.295  35.634  38.551  1.00  0.00    -0.200 F 
ENDBRANCH  71  94
ENDBRANCH  45  46
ENDBRANCH  37  40
ENDBRANCH  35  36
ENDBRANCH  34  35
ENDBRANCH  33  34
ENDBRANCH  32  33
ENDBRANCH  31  32
ENDBRANCH  30  31
ENDBRANCH   3  30
TORSDOF 22
ENDMDL
