MODEL 1
REMARK VINA RESULT:     -12.7      0.000      0.000
REMARK SMILES NS(=O)(=O)c1ccc(-c2coc(=O)n2-c2ccc(C(=O)NCCCCCCNC(=O)c3ccc(-c4c5nc(c(-c6c(F)c(F)c(F)c(F)c6F)c6ccc([nH]6)c(-c6c(F)c(F)c(F)c(F)c6F)c6nc(c(-c7c(F)c(F)c(F)c(F)c7F)c7ccc4[nH]7)C=C6)C=C5)cc3)cc2)cc1
REMARK SMILES IDX 23 1 22 2 21 3 19 4 20 5 18 7 15 8 16 9 95 10 17 11 94 12
REMARK SMILES IDX 14 13 9 14 10 15 11 16 12 17 13 18 8 19 5 20 6 21 97 22 7 23
REMARK SMILES IDX 96 24 2 25 3 26 4 27 1 28 24 31 25 32 26 33 27 34 28 35
REMARK SMILES IDX 29 36 30 38 31 39 32 40 93 41 33 42 92 43 34 44 35 45 36 46
REMARK SMILES IDX 86 47 37 48 91 49 85 50 87 51 38 52 90 53 84 54 83 55 39 57
REMARK SMILES IDX 71 58 51 59 70 60 52 61 55 62 69 63 88 64 53 65 54 66 68 68
REMARK SMILES IDX 89 69 56 70 40 71 41 72 49 73 42 74 43 75 47 76 50 77 44 78
REMARK SMILES IDX 45 79 48 80 46 81 72 82 73 83 81 84 74 85 75 86 79 87 82 88
REMARK SMILES IDX 76 89 77 90 80 91 78 92 57 93 58 94 66 95 59 96 60 97 64 98
REMARK SMILES IDX 67 99 61 100 62 101 65 102 63 103
REMARK H PARENT 21 6 1 29 1 30 28 37 87 56 55 67
REMARK Flexibility Score: inf
ROOT
ATOM      1  C   UNL A   1      39.899  20.650  26.626  1.00  0.00     0.021 C 
ENDROOT
BRANCH   1   2
ATOM      2  C   UNL A   1      38.957  21.457  25.730  1.00  0.00     0.116 C 
BRANCH   2   3
ATOM      3  N   UNL A   1      38.973  22.850  26.131  1.00  0.00    -0.352 N 
ATOM      4  C   UNL A   1      38.041  23.851  26.084  1.00  0.00     0.251 C 
ATOM      5  O   UNL A   1      38.391  24.965  26.475  1.00  0.00    -0.269 OA
ATOM      6  H   UNL A   1      39.833  23.134  26.518  1.00  0.00     0.163 HD
BRANCH   4   7
ATOM      7  C   UNL A   1      36.624  23.640  25.668  1.00  0.00     0.039 A 
ATOM      8  C   UNL A   1      33.992  23.509  24.694  1.00  0.00     0.053 A 
ATOM      9  C   UNL A   1      35.062  23.461  23.802  1.00  0.00     0.028 A 
ATOM     10  C   UNL A   1      34.237  23.530  26.068  1.00  0.00     0.028 A 
ATOM     11  C   UNL A   1      36.370  23.566  24.288  1.00  0.00     0.016 A 
ATOM     12  C   UNL A   1      35.548  23.521  26.547  1.00  0.00     0.016 A 
BRANCH   8  13
ATOM     13  N   UNL A   1      32.667  23.512  24.236  1.00  0.00    -0.242 N 
ATOM     14  C   UNL A   1      31.925  22.463  23.774  1.00  0.00     0.095 A 
ATOM     15  C   UNL A   1      30.827  23.000  23.255  1.00  0.00     0.228 A 
ATOM     16  O   UNL A   1      30.767  24.389  23.339  1.00  0.00    -0.415 OA
ATOM     17  C   UNL A   1      31.964  24.688  23.988  1.00  0.00     0.424 A 
ATOM     18  O   UNL A   1      32.311  25.835  24.238  1.00  0.00    -0.223 OA
BRANCH  14  19
ATOM     19  C   UNL A   1      32.212  21.041  23.974  1.00  0.00     0.002 A 
ATOM     20  C   UNL A   1      32.895  18.335  24.298  1.00  0.00     0.082 A 
ATOM     21  C   UNL A   1      32.573  18.816  23.030  1.00  0.00     0.022 A 
ATOM     22  C   UNL A   1      32.864  19.188  25.407  1.00  0.00     0.022 A 
ATOM     23  C   UNL A   1      32.234  20.164  22.873  1.00  0.00     0.012 A 
ATOM     24  C   UNL A   1      32.531  20.536  25.241  1.00  0.00     0.012 A 
BRANCH  20  25
ATOM     25  S   UNL A   1      33.330  16.640  24.556  1.00  0.00     0.238 S 
ATOM     26  O   UNL A   1      33.727  16.074  23.295  1.00  0.00    -0.207 OA
ATOM     27  O   UNL A   1      32.320  16.041  25.406  1.00  0.00    -0.207 OA
BRANCH  25  28
ATOM     28  N   UNL A   1      34.733  16.692  25.480  1.00  0.00    -0.225 NA
ATOM     29  H   UNL A   1      34.493  16.617  26.468  1.00  0.00     0.137 HD
ATOM     30  H   UNL A   1      35.217  17.574  25.313  1.00  0.00     0.137 HD
ENDBRANCH  25  28
ENDBRANCH  20  25
ENDBRANCH  14  19
ENDBRANCH   8  13
ENDBRANCH   4   7
ENDBRANCH   2   3
ENDBRANCH   1   2
BRANCH   1  31
ATOM     31  C   UNL A   1      40.930  21.531  27.344  1.00  0.00     0.002 C 
BRANCH  31  32
ATOM     32  C   UNL A   1      42.243  20.823  27.715  1.00  0.00     0.002 C 
BRANCH  32  33
ATOM     33  C   UNL A   1      42.509  19.497  26.984  1.00  0.00     0.021 C 
BRANCH  33  34
ATOM     34  C   UNL A   1      42.537  19.663  25.475  1.00  0.00     0.116 C 
BRANCH  34  35
ATOM     35  N   UNL A   1      43.887  19.492  24.942  1.00  0.00    -0.352 N 
ATOM     36  C   UNL A   1      44.799  20.463  24.593  1.00  0.00     0.251 C 
ATOM     37  H   UNL A   1      44.183  18.562  24.814  1.00  0.00     0.163 HD
ATOM     38  O   UNL A   1      45.739  20.215  23.848  1.00  0.00    -0.269 OA
BRANCH  36  39
ATOM     39  C   UNL A   1      44.630  21.812  25.152  1.00  0.00     0.039 A 
ATOM     40  C   UNL A   1      43.641  22.678  24.675  1.00  0.00     0.014 A 
ATOM     41  C   UNL A   1      45.487  22.199  26.180  1.00  0.00     0.014 A 
ATOM     42  C   UNL A   1      43.489  23.917  25.285  1.00  0.00     0.010 A 
ATOM     43  C   UNL A   1      45.232  23.342  26.883  1.00  0.00     0.010 A 
ATOM     44  C   UNL A   1      44.286  24.234  26.396  1.00  0.00    -0.014 A 
BRANCH  44  45
ATOM     45  C   UNL A   1      44.077  25.459  27.152  1.00  0.00     0.031 A 
ATOM     46  C   UNL A   1      45.040  26.541  26.811  1.00  0.00     0.074 A 
ATOM     47  C   UNL A   1      42.963  25.657  27.890  1.00  0.00     0.049 A 
ATOM     48  N   UNL A   1      45.942  27.066  27.572  1.00  0.00    -0.248 NA
ATOM     49  C   UNL A   1      45.116  26.987  25.409  1.00  0.00     0.031 C 
ATOM     50  C   UNL A   1      41.794  24.777  28.022  1.00  0.00     0.029 A 
ATOM     51  N   UNL A   1      42.585  26.751  28.605  1.00  0.00    -0.354 N 
ATOM     52  C   UNL A   1      46.554  28.059  26.810  1.00  0.00     0.074 A 
ATOM     53  C   UNL A   1      46.154  27.826  25.449  1.00  0.00     0.031 C 
ATOM     54  C   UNL A   1      40.764  25.461  28.565  1.00  0.00     0.029 A 
ATOM     55  C   UNL A   1      41.244  26.765  28.978  1.00  0.00     0.049 A 
ATOM     56  H   UNL A   1      43.211  27.475  28.839  1.00  0.00     0.167 HD
ATOM     57  C   UNL A   1      47.104  29.150  27.413  1.00  0.00     0.037 A 
ATOM     58  C   UNL A   1      40.579  27.796  29.558  1.00  0.00     0.037 A 
ATOM     59  C   UNL A   1      47.305  28.901  28.820  1.00  0.00     0.049 A 
ATOM     60  C   UNL A   1      41.604  28.703  30.131  1.00  0.00     0.074 A 
ATOM     61  C   UNL A   1      48.054  28.011  29.563  1.00  0.00     0.029 A 
ATOM     62  N   UNL A   1      46.356  29.399  29.678  1.00  0.00    -0.354 N 
ATOM     63  N   UNL A   1      42.381  28.379  31.127  1.00  0.00    -0.248 NA
ATOM     64  C   UNL A   1      42.081  29.790  29.292  1.00  0.00     0.031 C 
ATOM     65  C   UNL A   1      47.234  27.679  30.683  1.00  0.00     0.029 A 
ATOM     66  C   UNL A   1      46.066  28.439  30.608  1.00  0.00     0.049 A 
ATOM     67  H   UNL A   1      45.953  30.296  29.632  1.00  0.00     0.167 HD
ATOM     68  C   UNL A   1      43.620  28.901  30.788  1.00  0.00     0.074 A 
ATOM     69  C   UNL A   1      43.352  29.835  29.697  1.00  0.00     0.031 C 
ATOM     70  C   UNL A   1      44.767  28.302  31.227  1.00  0.00     0.037 A 
BRANCH  57  71
ATOM     71  C   UNL A   1      47.045  30.560  26.859  1.00  0.00     0.064 A 
ATOM     72  C   UNL A   1      48.211  31.353  26.912  1.00  0.00     0.173 A 
ATOM     73  C   UNL A   1      45.851  31.266  26.590  1.00  0.00     0.173 A 
ATOM     74  F   UNL A   1      49.406  30.797  27.163  1.00  0.00    -0.203 F 
ATOM     75  C   UNL A   1      48.167  32.748  26.817  1.00  0.00     0.198 A 
ATOM     76  C   UNL A   1      45.818  32.652  26.444  1.00  0.00     0.198 A 
ATOM     77  F   UNL A   1      44.653  30.674  26.567  1.00  0.00    -0.203 F 
ATOM     78  F   UNL A   1      49.280  33.464  27.018  1.00  0.00    -0.200 F 
ATOM     79  C   UNL A   1      46.967  33.397  26.594  1.00  0.00     0.200 A 
ATOM     80  F   UNL A   1      44.642  33.263  26.244  1.00  0.00    -0.200 F 
ATOM     81  F   UNL A   1      46.908  34.734  26.574  1.00  0.00    -0.200 F 
ENDBRANCH  57  71
BRANCH  58  82
ATOM     82  C   UNL A   1      39.174  28.227  29.357  1.00  0.00     0.064 A 
ATOM     83  C   UNL A   1      38.305  28.396  30.448  1.00  0.00     0.173 A 
ATOM     84  C   UNL A   1      38.748  28.770  28.129  1.00  0.00     0.173 A 
ATOM     85  F   UNL A   1      38.657  27.953  31.663  1.00  0.00    -0.203 F 
ATOM     86  C   UNL A   1      37.098  29.094  30.326  1.00  0.00     0.198 A 
ATOM     87  C   UNL A   1      37.541  29.462  28.006  1.00  0.00     0.198 A 
ATOM     88  F   UNL A   1      39.542  28.729  27.049  1.00  0.00    -0.203 F 
ATOM     89  F   UNL A   1      36.328  29.293  31.404  1.00  0.00    -0.200 F 
ATOM     90  C   UNL A   1      36.723  29.636  29.107  1.00  0.00     0.200 A 
ATOM     91  F   UNL A   1      37.212  30.021  26.833  1.00  0.00    -0.200 F 
ATOM     92  F   UNL A   1      35.602  30.363  29.005  1.00  0.00    -0.200 F 
ENDBRANCH  58  82
BRANCH  70  93
ATOM     93  C   UNL A   1      44.639  27.266  32.310  1.00  0.00     0.064 A 
ATOM     94  C   UNL A   1      44.495  25.885  32.083  1.00  0.00     0.173 A 
ATOM     95  C   UNL A   1      44.800  27.683  33.637  1.00  0.00     0.173 A 
ATOM     96  F   UNL A   1      44.430  25.394  30.839  1.00  0.00    -0.203 F 
ATOM     97  C   UNL A   1      44.472  24.975  33.140  1.00  0.00     0.198 A 
ATOM     98  C   UNL A   1      44.814  26.770  34.687  1.00  0.00     0.198 A 
ATOM     99  F   UNL A   1      44.992  28.982  33.912  1.00  0.00    -0.203 F 
ATOM    100  F   UNL A   1      44.320  23.664  32.897  1.00  0.00    -0.200 F 
ATOM    101  C   UNL A   1      44.639  25.419  34.440  1.00  0.00     0.200 A 
ATOM    102  F   UNL A   1      45.024  27.200  35.939  1.00  0.00    -0.200 F 
ATOM    103  F   UNL A   1      44.657  24.541  35.454  1.00  0.00    -0.200 F 
ENDBRANCH  70  93
ENDBRANCH  44  45
ENDBRANCH  36  39
ENDBRANCH  34  35
ENDBRANCH  33  34
ENDBRANCH  32  33
ENDBRANCH  31  32
ENDBRANCH   1  31
TORSDOF 17
ENDMDL
MODEL 2
REMARK VINA RESULT:     -12.4      2.799      8.481
REMARK SMILES NS(=O)(=O)c1ccc(-c2coc(=O)n2-c2ccc(C(=O)NCCCCCCNC(=O)c3ccc(-c4c5nc(c(-c6c(F)c(F)c(F)c(F)c6F)c6ccc([nH]6)c(-c6c(F)c(F)c(F)c(F)c6F)c6nc(c(-c7c(F)c(F)c(F)c(F)c7F)c7ccc4[nH]7)C=C6)C=C5)cc3)cc2)cc1
REMARK SMILES IDX 23 1 22 2 21 3 19 4 20 5 18 7 15 8 16 9 95 10 17 11 94 12
REMARK SMILES IDX 14 13 9 14 10 15 11 16 12 17 13 18 8 19 5 20 6 21 97 22 7 23
REMARK SMILES IDX 96 24 2 25 3 26 4 27 1 28 24 31 25 32 26 33 27 34 28 35
REMARK SMILES IDX 29 36 30 38 31 39 32 40 93 41 33 42 92 43 34 44 35 45 36 46
REMARK SMILES IDX 86 47 37 48 91 49 85 50 87 51 38 52 90 53 84 54 83 55 39 57
REMARK SMILES IDX 71 58 51 59 70 60 52 61 55 62 69 63 88 64 53 65 54 66 68 68
REMARK SMILES IDX 89 69 56 70 40 71 41 72 49 73 42 74 43 75 47 76 50 77 44 78
REMARK SMILES IDX 45 79 48 80 46 81 72 82 73 83 81 84 74 85 75 86 79 87 82 88
REMARK SMILES IDX 76 89 77 90 80 91 78 92 57 93 58 94 66 95 59 96 60 97 64 98
REMARK SMILES IDX 67 99 61 100 62 101 65 102 63 103
REMARK H PARENT 21 6 1 29 1 30 28 37 87 56 55 67
REMARK Flexibility Score: inf
ROOT
ATOM      1  C   UNL A   1      32.381  28.894  24.484  1.00  0.00     0.021 C 
ENDROOT
BRANCH   1   2
ATOM      2  C   UNL A   1      32.213  27.404  24.180  1.00  0.00     0.116 C 
BRANCH   2   3
ATOM      3  N   UNL A   1      31.572  26.746  25.301  1.00  0.00    -0.352 N 
ATOM      4  C   UNL A   1      31.853  25.606  26.007  1.00  0.00     0.251 C 
ATOM      5  O   UNL A   1      31.066  25.288  26.899  1.00  0.00    -0.269 OA
ATOM      6  H   UNL A   1      30.768  27.216  25.622  1.00  0.00     0.163 HD
BRANCH   4   7
ATOM      7  C   UNL A   1      33.086  24.793  25.803  1.00  0.00     0.039 A 
ATOM      8  C   UNL A   1      35.511  23.377  25.710  1.00  0.00     0.053 A 
ATOM      9  C   UNL A   1      34.627  23.164  26.766  1.00  0.00     0.028 A 
ATOM     10  C   UNL A   1      35.146  24.222  24.662  1.00  0.00     0.028 A 
ATOM     11  C   UNL A   1      33.438  23.899  26.828  1.00  0.00     0.016 A 
ATOM     12  C   UNL A   1      33.908  24.867  24.679  1.00  0.00     0.016 A 
BRANCH   8  13
ATOM     13  N   UNL A   1      36.757  22.735  25.669  1.00  0.00    -0.242 N 
ATOM     14  C   UNL A   1      37.023  21.404  25.532  1.00  0.00     0.095 A 
ATOM     15  C   UNL A   1      38.321  21.268  25.774  1.00  0.00     0.228 A 
ATOM     16  O   UNL A   1      38.981  22.459  26.073  1.00  0.00    -0.415 OA
ATOM     17  C   UNL A   1      37.945  23.389  25.985  1.00  0.00     0.424 A 
ATOM     18  O   UNL A   1      38.109  24.581  26.205  1.00  0.00    -0.223 OA
BRANCH  14  19
ATOM     19  C   UNL A   1      36.097  20.377  25.047  1.00  0.00     0.002 A 
ATOM     20  C   UNL A   1      34.311  18.359  24.255  1.00  0.00     0.082 A 
ATOM     21  C   UNL A   1      35.633  18.031  24.547  1.00  0.00     0.022 A 
ATOM     22  C   UNL A   1      33.876  19.686  24.339  1.00  0.00     0.022 A 
ATOM     23  C   UNL A   1      36.519  19.039  24.941  1.00  0.00     0.012 A 
ATOM     24  C   UNL A   1      34.766  20.688  24.742  1.00  0.00     0.012 A 
BRANCH  20  25
ATOM     25  S   UNL A   1      33.146  17.126  23.750  1.00  0.00     0.238 S 
ATOM     26  O   UNL A   1      33.715  15.830  24.008  1.00  0.00    -0.207 OA
ATOM     27  O   UNL A   1      32.615  17.512  22.457  1.00  0.00    -0.207 OA
BRANCH  25  28
ATOM     28  N   UNL A   1      31.868  17.273  24.832  1.00  0.00    -0.225 NA
ATOM     29  H   UNL A   1      31.739  18.255  25.074  1.00  0.00     0.137 HD
ATOM     30  H   UNL A   1      32.075  16.739  25.676  1.00  0.00     0.137 HD
ENDBRANCH  25  28
ENDBRANCH  20  25
ENDBRANCH  14  19
ENDBRANCH   8  13
ENDBRANCH   4   7
ENDBRANCH   2   3
ENDBRANCH   1   2
BRANCH   1  31
ATOM     31  C   UNL A   1      31.441  29.380  25.596  1.00  0.00     0.002 C 
BRANCH  31  32
ATOM     32  C   UNL A   1      32.145  29.978  26.825  1.00  0.00     0.002 C 
BRANCH  32  33
ATOM     33  C   UNL A   1      33.420  29.248  27.278  1.00  0.00     0.021 C 
BRANCH  33  34
ATOM     34  C   UNL A   1      34.635  30.158  27.288  1.00  0.00     0.116 C 
BRANCH  34  35
ATOM     35  N   UNL A   1      34.455  31.285  28.201  1.00  0.00    -0.352 N 
ATOM     36  C   UNL A   1      35.106  31.538  29.388  1.00  0.00     0.251 C 
ATOM     37  H   UNL A   1      33.779  31.949  27.934  1.00  0.00     0.163 HD
ATOM     38  O   UNL A   1      34.636  32.305  30.219  1.00  0.00    -0.269 OA
BRANCH  36  39
ATOM     39  C   UNL A   1      36.396  30.876  29.632  1.00  0.00     0.039 A 
ATOM     40  C   UNL A   1      36.461  29.541  30.043  1.00  0.00     0.014 A 
ATOM     41  C   UNL A   1      37.554  31.624  29.433  1.00  0.00     0.014 A 
ATOM     42  C   UNL A   1      37.710  28.951  30.196  1.00  0.00     0.010 A 
ATOM     43  C   UNL A   1      38.771  31.001  29.425  1.00  0.00     0.010 A 
ATOM     44  C   UNL A   1      38.859  29.691  29.875  1.00  0.00    -0.014 A 
BRANCH  44  45
ATOM     45  C   UNL A   1      40.180  29.082  29.890  1.00  0.00     0.031 A 
ATOM     46  C   UNL A   1      40.750  28.930  31.256  1.00  0.00     0.074 A 
ATOM     47  C   UNL A   1      40.701  28.489  28.794  1.00  0.00     0.049 A 
ATOM     48  N   UNL A   1      41.793  29.513  31.746  1.00  0.00    -0.248 NA
ATOM     49  C   UNL A   1      39.982  28.159  32.249  1.00  0.00     0.031 C 
ATOM     50  C   UNL A   1      40.070  28.293  27.482  1.00  0.00     0.029 A 
ATOM     51  N   UNL A   1      41.882  27.830  28.649  1.00  0.00    -0.354 N 
ATOM     52  C   UNL A   1      41.937  29.015  33.039  1.00  0.00     0.074 A 
ATOM     53  C   UNL A   1      40.698  28.358  33.357  1.00  0.00     0.031 C 
ATOM     54  C   UNL A   1      40.764  27.379  26.770  1.00  0.00     0.029 A 
ATOM     55  C   UNL A   1      41.976  27.055  27.496  1.00  0.00     0.049 A 
ATOM     56  H   UNL A   1      42.612  27.896  29.307  1.00  0.00     0.167 HD
ATOM     57  C   UNL A   1      43.168  28.944  33.619  1.00  0.00     0.037 A 
ATOM     58  C   UNL A   1      42.973  26.188  27.187  1.00  0.00     0.037 A 
ATOM     59  C   UNL A   1      44.106  29.783  32.913  1.00  0.00     0.049 A 
ATOM     60  C   UNL A   1      44.134  26.543  28.038  1.00  0.00     0.074 A 
ATOM     61  C   UNL A   1      44.214  31.135  32.656  1.00  0.00     0.029 A 
ATOM     62  N   UNL A   1      44.933  29.163  32.010  1.00  0.00    -0.354 N 
ATOM     63  N   UNL A   1      44.798  27.660  27.928  1.00  0.00    -0.248 NA
ATOM     64  C   UNL A   1      44.259  25.864  29.318  1.00  0.00     0.031 C 
ATOM     65  C   UNL A   1      44.732  31.220  31.328  1.00  0.00     0.029 A 
ATOM     66  C   UNL A   1      44.985  29.924  30.875  1.00  0.00     0.049 A 
ATOM     67  H   UNL A   1      45.409  28.313  32.155  1.00  0.00     0.167 HD
ATOM     68  C   UNL A   1      45.056  28.046  29.235  1.00  0.00     0.074 A 
ATOM     69  C   UNL A   1      44.782  26.858  30.040  1.00  0.00     0.031 C 
ATOM     70  C   UNL A   1      45.176  29.368  29.555  1.00  0.00     0.037 A 
BRANCH  57  71
ATOM     71  C   UNL A   1      43.636  27.811  34.512  1.00  0.00     0.064 A 
ATOM     72  C   UNL A   1      43.618  26.497  33.997  1.00  0.00     0.173 A 
ATOM     73  C   UNL A   1      43.782  27.905  35.913  1.00  0.00     0.173 A 
ATOM     74  F   UNL A   1      43.481  26.280  32.681  1.00  0.00    -0.203 F 
ATOM     75  C   UNL A   1      43.631  25.373  34.829  1.00  0.00     0.198 A 
ATOM     76  C   UNL A   1      43.847  26.781  36.736  1.00  0.00     0.198 A 
ATOM     77  F   UNL A   1      43.756  29.072  36.565  1.00  0.00    -0.203 F 
ATOM     78  F   UNL A   1      43.466  24.153  34.302  1.00  0.00    -0.200 F 
ATOM     79  C   UNL A   1      43.734  25.517  36.200  1.00  0.00     0.200 A 
ATOM     80  F   UNL A   1      43.931  26.944  38.064  1.00  0.00    -0.200 F 
ATOM     81  F   UNL A   1      43.674  24.449  37.005  1.00  0.00    -0.200 F 
ENDBRANCH  57  71
BRANCH  58  82
ATOM     82  C   UNL A   1      42.888  24.887  26.479  1.00  0.00     0.064 A 
ATOM     83  C   UNL A   1      43.670  24.628  25.340  1.00  0.00     0.173 A 
ATOM     84  C   UNL A   1      42.268  23.772  27.078  1.00  0.00     0.173 A 
ATOM     85  F   UNL A   1      44.333  25.626  24.740  1.00  0.00    -0.203 F 
ATOM     86  C   UNL A   1      43.848  23.330  24.850  1.00  0.00     0.198 A 
ATOM     87  C   UNL A   1      42.443  22.477  26.585  1.00  0.00     0.198 A 
ATOM     88  F   UNL A   1      41.568  23.905  28.213  1.00  0.00    -0.203 F 
ATOM     89  F   UNL A   1      44.656  23.115  23.803  1.00  0.00    -0.200 F 
ATOM     90  C   UNL A   1      43.244  22.254  25.480  1.00  0.00     0.200 A 
ATOM     91  F   UNL A   1      41.890  21.440  27.230  1.00  0.00    -0.200 F 
ATOM     92  F   UNL A   1      43.469  21.004  25.053  1.00  0.00    -0.200 F 
ENDBRANCH  58  82
BRANCH  70  93
ATOM     93  C   UNL A   1      45.320  30.347  28.422  1.00  0.00     0.064 A 
ATOM     94  C   UNL A   1      44.249  31.016  27.802  1.00  0.00     0.173 A 
ATOM     95  C   UNL A   1      46.615  30.719  28.039  1.00  0.00     0.173 A 
ATOM     96  F   UNL A   1      42.984  30.787  28.176  1.00  0.00    -0.203 F 
ATOM     97  C   UNL A   1      44.468  31.977  26.815  1.00  0.00     0.198 A 
ATOM     98  C   UNL A   1      46.833  31.705  27.082  1.00  0.00     0.198 A 
ATOM     99  F   UNL A   1      47.678  30.153  28.632  1.00  0.00    -0.203 F 
ATOM    100  F   UNL A   1      43.428  32.590  26.230  1.00  0.00    -0.200 F 
ATOM    101  C   UNL A   1      45.761  32.326  26.463  1.00  0.00     0.200 A 
ATOM    102  F   UNL A   1      48.085  32.073  26.779  1.00  0.00    -0.200 F 
ATOM    103  F   UNL A   1      45.974  33.279  25.543  1.00  0.00    -0.200 F 
ENDBRANCH  70  93
ENDBRANCH  44  45
ENDBRANCH  36  39
ENDBRANCH  34  35
ENDBRANCH  33  34
ENDBRANCH  32  33
ENDBRANCH  31  32
ENDBRANCH   1  31
TORSDOF 17
ENDMDL
MODEL 3
REMARK VINA RESULT:     -12.3      4.652     10.213
REMARK SMILES NS(=O)(=O)c1ccc(-c2coc(=O)n2-c2ccc(C(=O)NCCCCCCNC(=O)c3ccc(-c4c5nc(c(-c6c(F)c(F)c(F)c(F)c6F)c6ccc([nH]6)c(-c6c(F)c(F)c(F)c(F)c6F)c6nc(c(-c7c(F)c(F)c(F)c(F)c7F)c7ccc4[nH]7)C=C6)C=C5)cc3)cc2)cc1
REMARK SMILES IDX 23 1 22 2 21 3 19 4 20 5 18 7 15 8 16 9 95 10 17 11 94 12
REMARK SMILES IDX 14 13 9 14 10 15 11 16 12 17 13 18 8 19 5 20 6 21 97 22 7 23
REMARK SMILES IDX 96 24 2 25 3 26 4 27 1 28 24 31 25 32 26 33 27 34 28 35
REMARK SMILES IDX 29 36 30 38 31 39 32 40 93 41 33 42 92 43 34 44 35 45 36 46
REMARK SMILES IDX 86 47 37 48 91 49 85 50 87 51 38 52 90 53 84 54 83 55 39 57
REMARK SMILES IDX 71 58 51 59 70 60 52 61 55 62 69 63 88 64 53 65 54 66 68 68
REMARK SMILES IDX 89 69 56 70 40 71 41 72 49 73 42 74 43 75 47 76 50 77 44 78
REMARK SMILES IDX 45 79 48 80 46 81 72 82 73 83 81 84 74 85 75 86 79 87 82 88
REMARK SMILES IDX 76 89 77 90 80 91 78 92 57 93 58 94 66 95 59 96 60 97 64 98
REMARK SMILES IDX 67 99 61 100 62 101 65 102 63 103
REMARK H PARENT 21 6 1 29 1 30 28 37 87 56 55 67
REMARK Flexibility Score: inf
ROOT
ATOM      1  C   UNL A   1      32.492  33.035  27.571  1.00  0.00     0.021 C 
ENDROOT
BRANCH   1   2
ATOM      2  C   UNL A   1      32.533  31.561  27.159  1.00  0.00     0.116 C 
BRANCH   2   3
ATOM      3  N   UNL A   1      33.721  30.934  27.703  1.00  0.00    -0.352 N 
ATOM      4  C   UNL A   1      34.189  29.647  27.700  1.00  0.00     0.251 C 
ATOM      5  O   UNL A   1      35.239  29.429  28.304  1.00  0.00    -0.269 OA
ATOM      6  H   UNL A   1      34.315  31.565  28.173  1.00  0.00     0.163 HD
BRANCH   4   7
ATOM      7  C   UNL A   1      33.542  28.537  26.944  1.00  0.00     0.039 A 
ATOM      8  C   UNL A   1      32.319  26.649  25.260  1.00  0.00     0.053 A 
ATOM      9  C   UNL A   1      33.558  27.184  24.913  1.00  0.00     0.028 A 
ATOM     10  C   UNL A   1      31.738  26.986  26.483  1.00  0.00     0.028 A 
ATOM     11  C   UNL A   1      34.145  28.152  25.734  1.00  0.00     0.016 A 
ATOM     12  C   UNL A   1      32.386  27.869  27.348  1.00  0.00     0.016 A 
BRANCH   8  13
ATOM     13  N   UNL A   1      31.652  25.755  24.410  1.00  0.00    -0.242 N 
ATOM     14  C   UNL A   1      30.521  25.965  23.676  1.00  0.00     0.095 A 
ATOM     15  C   UNL A   1      30.161  24.771  23.220  1.00  0.00     0.228 A 
ATOM     16  O   UNL A   1      31.002  23.728  23.603  1.00  0.00    -0.415 OA
ATOM     17  C   UNL A   1      31.961  24.399  24.360  1.00  0.00     0.424 A 
ATOM     18  O   UNL A   1      32.889  23.821  24.910  1.00  0.00    -0.223 OA
BRANCH  14  19
ATOM     19  C   UNL A   1      29.938  27.263  23.328  1.00  0.00     0.002 A 
ATOM     20  C   UNL A   1      28.824  29.712  22.519  1.00  0.00     0.082 A 
ATOM     21  C   UNL A   1      30.188  29.484  22.339  1.00  0.00     0.022 A 
ATOM     22  C   UNL A   1      28.016  28.737  23.112  1.00  0.00     0.022 A 
ATOM     23  C   UNL A   1      30.737  28.262  22.743  1.00  0.00     0.012 A 
ATOM     24  C   UNL A   1      28.571  27.515  23.507  1.00  0.00     0.012 A 
BRANCH  20  25
ATOM     25  S   UNL A   1      28.075  31.238  22.029  1.00  0.00     0.238 S 
ATOM     26  O   UNL A   1      27.181  31.662  23.073  1.00  0.00    -0.207 OA
ATOM     27  O   UNL A   1      27.668  31.115  20.643  1.00  0.00    -0.207 OA
BRANCH  25  28
ATOM     28  N   UNL A   1      29.330  32.357  22.039  1.00  0.00    -0.225 NA
ATOM     29  H   UNL A   1      30.171  31.927  21.655  1.00  0.00     0.137 HD
ATOM     30  H   UNL A   1      29.509  32.658  22.997  1.00  0.00     0.137 HD
ENDBRANCH  25  28
ENDBRANCH  20  25
ENDBRANCH  14  19
ENDBRANCH   8  13
ENDBRANCH   4   7
ENDBRANCH   2   3
ENDBRANCH   1   2
BRANCH   1  31
ATOM     31  C   UNL A   1      33.727  33.457  28.379  1.00  0.00     0.002 C 
BRANCH  31  32
ATOM     32  C   UNL A   1      33.854  34.969  28.627  1.00  0.00     0.002 C 
BRANCH  32  33
ATOM     33  C   UNL A   1      32.945  35.538  29.728  1.00  0.00     0.021 C 
BRANCH  33  34
ATOM     34  C   UNL A   1      33.710  35.872  30.996  1.00  0.00     0.116 C 
BRANCH  34  35
ATOM     35  N   UNL A   1      33.166  35.163  32.153  1.00  0.00    -0.352 N 
ATOM     36  C   UNL A   1      33.559  33.952  32.678  1.00  0.00     0.251 C 
ATOM     37  H   UNL A   1      32.421  35.610  32.617  1.00  0.00     0.163 HD
ATOM     38  O   UNL A   1      32.820  33.309  33.414  1.00  0.00    -0.269 OA
BRANCH  36  39
ATOM     39  C   UNL A   1      34.900  33.450  32.349  1.00  0.00     0.039 A 
ATOM     40  C   UNL A   1      36.050  34.167  32.698  1.00  0.00     0.014 A 
ATOM     41  C   UNL A   1      34.989  32.231  31.681  1.00  0.00     0.014 A 
ATOM     42  C   UNL A   1      37.292  33.612  32.416  1.00  0.00     0.010 A 
ATOM     43  C   UNL A   1      36.202  31.614  31.553  1.00  0.00     0.010 A 
ATOM     44  C   UNL A   1      37.355  32.328  31.851  1.00  0.00    -0.014 A 
BRANCH  44  45
ATOM     45  C   UNL A   1      38.625  31.647  31.659  1.00  0.00     0.031 A 
ATOM     46  C   UNL A   1      39.342  31.353  32.929  1.00  0.00     0.074 A 
ATOM     47  C   UNL A   1      38.974  31.116  30.467  1.00  0.00     0.049 A 
ATOM     48  N   UNL A   1      40.471  31.834  33.330  1.00  0.00    -0.248 NA
ATOM     49  C   UNL A   1      38.647  30.548  33.949  1.00  0.00     0.031 C 
ATOM     50  C   UNL A   1      38.181  31.064  29.231  1.00  0.00     0.029 A 
ATOM     51  N   UNL A   1      40.084  30.406  30.130  1.00  0.00    -0.354 N 
ATOM     52  C   UNL A   1      40.733  31.226  34.555  1.00  0.00     0.074 A 
ATOM     53  C   UNL A   1      39.500  30.616  34.973  1.00  0.00     0.031 C 
ATOM     54  C   UNL A   1      38.725  30.173  28.374  1.00  0.00     0.029 A 
ATOM     55  C   UNL A   1      39.991  29.723  28.920  1.00  0.00     0.049 A 
ATOM     56  H   UNL A   1      40.889  30.377  30.696  1.00  0.00     0.167 HD
ATOM     57  C   UNL A   1      42.017  31.039  34.973  1.00  0.00     0.037 A 
ATOM     58  C   UNL A   1      40.885  28.829  28.428  1.00  0.00     0.037 A 
ATOM     59  C   UNL A   1      42.919  31.878  34.221  1.00  0.00     0.049 A 
ATOM     60  C   UNL A   1      42.159  29.048  29.154  1.00  0.00     0.074 A 
ATOM     61  C   UNL A   1      43.084  33.238  34.053  1.00  0.00     0.029 A 
ATOM     62  N   UNL A   1      43.591  31.288  33.181  1.00  0.00    -0.354 N 
ATOM     63  N   UNL A   1      42.877  30.132  29.046  1.00  0.00    -0.248 NA
ATOM     64  C   UNL A   1      42.389  28.262  30.355  1.00  0.00     0.031 C 
ATOM     65  C   UNL A   1      43.446  33.402  32.682  1.00  0.00     0.029 A 
ATOM     66  C   UNL A   1      43.558  32.135  32.107  1.00  0.00     0.049 A 
ATOM     67  H   UNL A   1      44.023  30.403  33.203  1.00  0.00     0.167 HD
ATOM     68  C   UNL A   1      43.311  30.395  30.336  1.00  0.00     0.074 A 
ATOM     69  C   UNL A   1      43.058  29.162  31.079  1.00  0.00     0.031 C 
ATOM     70  C   UNL A   1      43.556  31.678  30.736  1.00  0.00     0.037 A 
BRANCH  57  71
ATOM     71  C   UNL A   1      42.511  29.813  35.716  1.00  0.00     0.064 A 
ATOM     72  C   UNL A   1      43.391  29.995  36.804  1.00  0.00     0.173 A 
ATOM     73  C   UNL A   1      42.431  28.492  35.223  1.00  0.00     0.173 A 
ATOM     74  F   UNL A   1      43.553  31.206  37.357  1.00  0.00    -0.203 F 
ATOM     75  C   UNL A   1      44.205  28.963  37.282  1.00  0.00     0.198 A 
ATOM     76  C   UNL A   1      43.207  27.453  35.736  1.00  0.00     0.198 A 
ATOM     77  F   UNL A   1      41.693  28.162  34.159  1.00  0.00    -0.203 F 
ATOM     78  F   UNL A   1      45.126  29.222  38.219  1.00  0.00    -0.200 F 
ATOM     79  C   UNL A   1      44.120  27.695  36.739  1.00  0.00     0.200 A 
ATOM     80  F   UNL A   1      43.121  26.235  35.185  1.00  0.00    -0.200 F 
ATOM     81  F   UNL A   1      44.947  26.723  37.143  1.00  0.00    -0.200 F 
ENDBRANCH  57  71
BRANCH  58  82
ATOM     82  C   UNL A   1      40.631  27.597  27.642  1.00  0.00     0.064 A 
ATOM     83  C   UNL A   1      41.409  27.284  26.514  1.00  0.00     0.173 A 
ATOM     84  C   UNL A   1      39.828  26.559  28.154  1.00  0.00     0.173 A 
ATOM     85  F   UNL A   1      42.238  28.199  25.994  1.00  0.00    -0.203 F 
ATOM     86  C   UNL A   1      41.408  26.001  25.953  1.00  0.00     0.198 A 
ATOM     87  C   UNL A   1      39.824  25.281  27.591  1.00  0.00     0.198 A 
ATOM     88  F   UNL A   1      39.111  26.737  29.274  1.00  0.00    -0.203 F 
ATOM     89  F   UNL A   1      42.214  25.723  24.919  1.00  0.00    -0.200 F 
ATOM     90  C   UNL A   1      40.624  24.999  26.499  1.00  0.00     0.200 A 
ATOM     91  F   UNL A   1      39.096  24.308  28.156  1.00  0.00    -0.200 F 
ATOM     92  F   UNL A   1      40.674  23.754  26.006  1.00  0.00    -0.200 F 
ENDBRANCH  58  82
BRANCH  70  93
ATOM     93  C   UNL A   1      43.629  32.736  29.669  1.00  0.00     0.064 A 
ATOM     94  C   UNL A   1      42.575  33.605  29.330  1.00  0.00     0.173 A 
ATOM     95  C   UNL A   1      44.867  32.961  29.055  1.00  0.00     0.173 A 
ATOM     96  F   UNL A   1      41.387  33.517  29.939  1.00  0.00    -0.203 F 
ATOM     97  C   UNL A   1      42.747  34.620  28.390  1.00  0.00     0.198 A 
ATOM     98  C   UNL A   1      45.048  33.999  28.146  1.00  0.00     0.198 A 
ATOM     99  F   UNL A   1      45.924  32.198  29.376  1.00  0.00    -0.203 F 
ATOM    100  F   UNL A   1      41.723  35.427  28.075  1.00  0.00    -0.200 F 
ATOM    101  C   UNL A   1      43.986  34.821  27.805  1.00  0.00     0.200 A 
ATOM    102  F   UNL A   1      46.260  34.218  27.618  1.00  0.00    -0.200 F 
ATOM    103  F   UNL A   1      44.164  35.822  26.931  1.00  0.00    -0.200 F 
ENDBRANCH  70  93
ENDBRANCH  44  45
ENDBRANCH  36  39
ENDBRANCH  34  35
ENDBRANCH  33  34
ENDBRANCH  32  33
ENDBRANCH  31  32
ENDBRANCH   1  31
TORSDOF 17
ENDMDL
