MODEL 1
REMARK VINA RESULT:     -12.4      0.000      0.000
REMARK SMILES O=C(NCCCCCCNC(=O)[C@@H](F)[C@H]1CCCc2cccnc21)c1ccc(-c2c3nc(c(-c4c(F)c(F)c(F)c(F)c4F)c4ccc([nH]4)c(-c4c(F)c(F)c(F)c(F)c4F)c4nc(c(-c5c(F)c(F)c(F)c(F)c5F)c5ccc2[nH]5)C=C4)C=C3)cc1
REMARK SMILES IDX 6 1 5 2 4 3 3 4 1 5 2 6 25 8 26 9 87 10 27 11 86 12 28 13
REMARK SMILES IDX 29 14 30 15 80 16 31 17 85 18 79 19 81 20 32 21 84 22 78 23
REMARK SMILES IDX 77 24 33 26 65 27 45 28 64 29 46 30 49 31 63 32 82 33 47 34
REMARK SMILES IDX 48 35 62 37 83 38 50 39 34 40 35 41 43 42 36 43 37 44 41 45
REMARK SMILES IDX 44 46 38 47 39 48 42 49 40 50 66 51 67 52 75 53 68 54 69 55
REMARK SMILES IDX 73 56 76 57 70 58 71 59 74 60 72 61 51 62 52 63 60 64 53 65
REMARK SMILES IDX 54 66 58 67 61 68 55 69 56 70 59 71 57 72 7 73 8 74 9 75
REMARK SMILES IDX 10 76 11 77 12 79 13 80 14 81 15 82 16 83 24 84 17 85 19 86
REMARK SMILES IDX 23 87 18 88 20 89 22 90 21 91
REMARK H PARENT 3 7 81 25 49 36 10 78
REMARK Flexibility Score: inf
ROOT
ATOM      1  C   UNL A   1      31.501  30.762  25.988  1.00  0.00     0.002 C 
ENDROOT
BRANCH   1   2
ATOM      2  C   UNL A   1      31.312  32.190  26.500  1.00  0.00     0.021 C 
BRANCH   2   3
ATOM      3  C   UNL A   1      32.516  32.826  27.180  1.00  0.00     0.116 C 
BRANCH   3   4
ATOM      4  N   UNL A   1      32.279  34.187  27.627  1.00  0.00    -0.352 N 
ATOM      5  O   UNL A   1      32.526  36.050  28.871  1.00  0.00    -0.269 OA
ATOM      6  C   UNL A   1      32.943  34.933  28.572  1.00  0.00     0.251 C 
ATOM      7  H   UNL A   1      31.529  34.646  27.185  1.00  0.00     0.163 HD
BRANCH   6   8
ATOM      8  C   UNL A   1      34.134  34.389  29.265  1.00  0.00     0.039 A 
ATOM      9  C   UNL A   1      35.418  34.532  28.736  1.00  0.00     0.014 A 
ATOM     10  C   UNL A   1      33.959  33.722  30.484  1.00  0.00     0.014 A 
ATOM     11  C   UNL A   1      36.491  33.871  29.328  1.00  0.00     0.010 A 
ATOM     12  C   UNL A   1      35.054  33.135  31.126  1.00  0.00     0.010 A 
ATOM     13  C   UNL A   1      36.323  33.164  30.530  1.00  0.00    -0.014 A 
BRANCH  13  14
ATOM     14  C   UNL A   1      37.494  32.489  31.147  1.00  0.00     0.031 A 
ATOM     15  C   UNL A   1      37.932  32.817  32.550  1.00  0.00     0.074 A 
ATOM     16  C   UNL A   1      38.143  31.537  30.448  1.00  0.00     0.049 A 
ATOM     17  N   UNL A   1      38.892  32.278  33.262  1.00  0.00    -0.248 NA
ATOM     18  C   UNL A   1      37.205  33.891  33.243  1.00  0.00     0.031 C 
ATOM     19  C   UNL A   1      37.828  31.145  29.073  1.00  0.00     0.029 A 
ATOM     20  N   UNL A   1      39.178  30.710  30.801  1.00  0.00    -0.354 N 
ATOM     21  C   UNL A   1      38.903  32.964  34.471  1.00  0.00     0.074 A 
ATOM     22  C   UNL A   1      37.867  33.972  34.390  1.00  0.00     0.031 C 
ATOM     23  C   UNL A   1      38.612  30.116  28.719  1.00  0.00     0.029 A 
ATOM     24  C   UNL A   1      39.519  29.811  29.821  1.00  0.00     0.049 A 
ATOM     25  H   UNL A   1      39.635  30.758  31.672  1.00  0.00     0.167 HD
ATOM     26  C   UNL A   1      39.698  32.764  35.550  1.00  0.00     0.037 A 
ATOM     27  C   UNL A   1      40.457  28.846  29.808  1.00  0.00     0.037 A 
ATOM     28  C   UNL A   1      40.707  31.741  35.640  1.00  0.00     0.049 A 
ATOM     29  C   UNL A   1      41.315  28.640  31.024  1.00  0.00     0.074 A 
ATOM     30  C   UNL A   1      41.529  31.430  36.711  1.00  0.00     0.029 A 
ATOM     31  N   UNL A   1      41.035  30.861  34.620  1.00  0.00    -0.354 N 
ATOM     32  N   UNL A   1      41.281  29.266  32.174  1.00  0.00    -0.248 NA
ATOM     33  C   UNL A   1      42.341  27.593  30.936  1.00  0.00     0.031 C 
ATOM     34  C   UNL A   1      42.380  30.389  36.326  1.00  0.00     0.029 A 
ATOM     35  C   UNL A   1      42.059  30.020  35.029  1.00  0.00     0.049 A 
ATOM     36  H   UNL A   1      40.604  30.837  33.735  1.00  0.00     0.167 HD
ATOM     37  C   UNL A   1      42.266  28.678  32.956  1.00  0.00     0.074 A 
ATOM     38  C   UNL A   1      42.866  27.632  32.153  1.00  0.00     0.031 C 
ATOM     39  C   UNL A   1      42.641  28.980  34.221  1.00  0.00     0.037 A 
BRANCH  26  40
ATOM     40  C   UNL A   1      39.520  33.682  36.725  1.00  0.00     0.064 A 
ATOM     41  C   UNL A   1      38.727  33.327  37.826  1.00  0.00     0.173 A 
ATOM     42  C   UNL A   1      40.194  34.912  36.772  1.00  0.00     0.173 A 
ATOM     43  F   UNL A   1      38.052  32.168  37.828  1.00  0.00    -0.203 F 
ATOM     44  C   UNL A   1      38.596  34.181  38.920  1.00  0.00     0.198 A 
ATOM     45  C   UNL A   1      40.081  35.751  37.877  1.00  0.00     0.198 A 
ATOM     46  F   UNL A   1      40.971  35.296  35.748  1.00  0.00    -0.203 F 
ATOM     47  F   UNL A   1      37.800  33.839  39.943  1.00  0.00    -0.200 F 
ATOM     48  C   UNL A   1      39.278  35.388  38.947  1.00  0.00     0.200 A 
ATOM     49  F   UNL A   1      40.750  36.913  37.907  1.00  0.00    -0.200 F 
ATOM     50  F   UNL A   1      39.157  36.205  40.004  1.00  0.00    -0.200 F 
ENDBRANCH  26  40
BRANCH  27  51
ATOM     51  C   UNL A   1      40.613  27.987  28.608  1.00  0.00     0.064 A 
ATOM     52  C   UNL A   1      41.431  28.383  27.541  1.00  0.00     0.173 A 
ATOM     53  C   UNL A   1      39.960  26.750  28.508  1.00  0.00     0.173 A 
ATOM     54  F   UNL A   1      42.060  29.566  27.583  1.00  0.00    -0.203 F 
ATOM     55  C   UNL A   1      41.581  27.579  26.412  1.00  0.00     0.198 A 
ATOM     56  C   UNL A   1      40.132  25.934  27.392  1.00  0.00     0.198 A 
ATOM     57  F   UNL A   1      39.171  26.325  29.505  1.00  0.00    -0.203 F 
ATOM     58  F   UNL A   1      42.339  27.997  25.391  1.00  0.00    -0.200 F 
ATOM     59  C   UNL A   1      40.937  26.351  26.343  1.00  0.00     0.200 A 
ATOM     60  F   UNL A   1      39.522  24.743  27.335  1.00  0.00    -0.200 F 
ATOM     61  F   UNL A   1      41.089  25.575  25.261  1.00  0.00    -0.200 F 
ENDBRANCH  27  51
BRANCH  39  62
ATOM     62  C   UNL A   1      43.730  28.144  34.827  1.00  0.00     0.064 A 
ATOM     63  C   UNL A   1      45.078  28.521  34.743  1.00  0.00     0.173 A 
ATOM     64  C   UNL A   1      43.417  26.962  35.513  1.00  0.00     0.173 A 
ATOM     65  F   UNL A   1      45.427  29.634  34.082  1.00  0.00    -0.203 F 
ATOM     66  C   UNL A   1      46.077  27.727  35.299  1.00  0.00     0.198 A 
ATOM     67  C   UNL A   1      44.417  26.185  36.092  1.00  0.00     0.198 A 
ATOM     68  F   UNL A   1      42.142  26.561  35.626  1.00  0.00    -0.203 F 
ATOM     69  F   UNL A   1      47.363  28.079  35.163  1.00  0.00    -0.200 F 
ATOM     70  C   UNL A   1      45.746  26.563  35.977  1.00  0.00     0.200 A 
ATOM     71  F   UNL A   1      44.095  25.066  36.754  1.00  0.00    -0.200 F 
ATOM     72  F   UNL A   1      46.710  25.800  36.512  1.00  0.00    -0.200 F 
ENDBRANCH  39  62
ENDBRANCH  13  14
ENDBRANCH   6   8
ENDBRANCH   3   4
ENDBRANCH   2   3
ENDBRANCH   1   2
BRANCH   1  73
ATOM     73  C   UNL A   1      31.970  29.721  27.008  1.00  0.00     0.002 C 
BRANCH  73  74
ATOM     74  C   UNL A   1      33.125  28.806  26.586  1.00  0.00     0.021 C 
BRANCH  74  75
ATOM     75  C   UNL A   1      32.766  27.340  26.378  1.00  0.00     0.116 C 
BRANCH  75  76
ATOM     76  N   UNL A   1      33.362  26.741  25.202  1.00  0.00    -0.354 N 
ATOM     77  C   UNL A   1      33.242  27.156  23.899  1.00  0.00     0.255 C 
ATOM     78  H   UNL A   1      33.917  25.943  25.356  1.00  0.00     0.163 HD
ATOM     79  O   UNL A   1      34.002  26.665  23.060  1.00  0.00    -0.272 OA
BRANCH  77  80
ATOM     80  C   UNL A   1      32.162  28.166  23.498  1.00  0.00     0.264 C 
ATOM     81  F   UNL A   1      32.710  29.322  23.016  1.00  0.00    -0.236 F 
BRANCH  80  82
ATOM     82  C   UNL A   1      31.048  27.657  22.558  1.00  0.00     0.082 C 
ATOM     83  C   UNL A   1      30.662  26.196  22.871  1.00  0.00     0.014 C 
ATOM     84  C   UNL A   1      29.814  28.525  22.487  1.00  0.00     0.050 A 
ATOM     85  C   UNL A   1      29.727  26.088  24.075  1.00  0.00     0.006 C 
ATOM     86  C   UNL A   1      28.620  28.179  23.127  1.00  0.00    -0.026 A 
ATOM     87  N   UNL A   1      29.934  29.653  21.741  1.00  0.00    -0.261 NA
ATOM     88  C   UNL A   1      28.444  26.890  23.877  1.00  0.00     0.037 C 
ATOM     89  C   UNL A   1      27.530  29.050  22.996  1.00  0.00     0.007 A 
ATOM     90  C   UNL A   1      28.861  30.463  21.629  1.00  0.00     0.111 A 
ATOM     91  C   UNL A   1      27.649  30.210  22.240  1.00  0.00     0.020 A 
ENDBRANCH  80  82
ENDBRANCH  77  80
ENDBRANCH  75  76
ENDBRANCH  74  75
ENDBRANCH  73  74
ENDBRANCH   1  73
TORSDOF 14
ENDMDL
MODEL 2
REMARK VINA RESULT:     -12.4      1.586      2.446
REMARK SMILES O=C(NCCCCCCNC(=O)[C@@H](F)[C@H]1CCCc2cccnc21)c1ccc(-c2c3nc(c(-c4c(F)c(F)c(F)c(F)c4F)c4ccc([nH]4)c(-c4c(F)c(F)c(F)c(F)c4F)c4nc(c(-c5c(F)c(F)c(F)c(F)c5F)c5ccc2[nH]5)C=C4)C=C3)cc1
REMARK SMILES IDX 6 1 5 2 4 3 3 4 1 5 2 6 25 8 26 9 87 10 27 11 86 12 28 13
REMARK SMILES IDX 29 14 30 15 80 16 31 17 85 18 79 19 81 20 32 21 84 22 78 23
REMARK SMILES IDX 77 24 33 26 65 27 45 28 64 29 46 30 49 31 63 32 82 33 47 34
REMARK SMILES IDX 48 35 62 37 83 38 50 39 34 40 35 41 43 42 36 43 37 44 41 45
REMARK SMILES IDX 44 46 38 47 39 48 42 49 40 50 66 51 67 52 75 53 68 54 69 55
REMARK SMILES IDX 73 56 76 57 70 58 71 59 74 60 72 61 51 62 52 63 60 64 53 65
REMARK SMILES IDX 54 66 58 67 61 68 55 69 56 70 59 71 57 72 7 73 8 74 9 75
REMARK SMILES IDX 10 76 11 77 12 79 13 80 14 81 15 82 16 83 24 84 17 85 19 86
REMARK SMILES IDX 23 87 18 88 20 89 22 90 21 91
REMARK H PARENT 3 7 81 25 49 36 10 78
REMARK Flexibility Score: inf
ROOT
ATOM      1  C   UNL A   1      32.247  27.493  26.719  1.00  0.00     0.002 C 
ENDROOT
BRANCH   1   2
ATOM      2  C   UNL A   1      31.778  28.942  26.588  1.00  0.00     0.021 C 
BRANCH   2   3
ATOM      3  C   UNL A   1      32.799  29.934  26.050  1.00  0.00     0.116 C 
BRANCH   3   4
ATOM      4  N   UNL A   1      32.557  31.303  26.470  1.00  0.00    -0.352 N 
ATOM      5  O   UNL A   1      32.850  33.215  27.626  1.00  0.00    -0.269 OA
ATOM      6  C   UNL A   1      33.275  32.101  27.329  1.00  0.00     0.251 C 
ATOM      7  H   UNL A   1      31.757  31.723  26.081  1.00  0.00     0.163 HD
BRANCH   6   8
ATOM      8  C   UNL A   1      34.538  31.618  27.934  1.00  0.00     0.039 A 
ATOM      9  C   UNL A   1      34.689  30.294  28.352  1.00  0.00     0.014 A 
ATOM     10  C   UNL A   1      35.603  32.515  28.081  1.00  0.00     0.014 A 
ATOM     11  C   UNL A   1      35.825  29.916  29.062  1.00  0.00     0.010 A 
ATOM     12  C   UNL A   1      36.782  32.108  28.714  1.00  0.00     0.010 A 
ATOM     13  C   UNL A   1      36.886  30.817  29.252  1.00  0.00    -0.014 A 
BRANCH  13  14
ATOM     14  C   UNL A   1      38.094  30.373  29.995  1.00  0.00     0.031 A 
ATOM     15  C   UNL A   1      38.321  30.778  31.427  1.00  0.00     0.074 A 
ATOM     16  C   UNL A   1      38.974  29.557  29.382  1.00  0.00     0.049 A 
ATOM     17  N   UNL A   1      39.289  30.430  32.241  1.00  0.00    -0.248 NA
ATOM     18  C   UNL A   1      37.343  31.699  32.023  1.00  0.00     0.031 C 
ATOM     19  C   UNL A   1      38.877  29.111  27.991  1.00  0.00     0.029 A 
ATOM     20  N   UNL A   1      40.105  28.938  29.851  1.00  0.00    -0.354 N 
ATOM     21  C   UNL A   1      39.051  31.108  33.430  1.00  0.00     0.074 A 
ATOM     22  C   UNL A   1      37.860  31.904  33.227  1.00  0.00     0.031 C 
ATOM     23  C   UNL A   1      39.870  28.246  27.737  1.00  0.00     0.029 A 
ATOM     24  C   UNL A   1      40.702  28.116  28.928  1.00  0.00     0.049 A 
ATOM     25  H   UNL A   1      40.455  29.071  30.762  1.00  0.00     0.167 HD
ATOM     26  C   UNL A   1      39.757  31.061  34.586  1.00  0.00     0.037 A 
ATOM     27  C   UNL A   1      41.800  27.343  29.027  1.00  0.00     0.037 A 
ATOM     28  C   UNL A   1      40.924  30.244  34.795  1.00  0.00     0.049 A 
ATOM     29  C   UNL A   1      42.554  27.303  30.324  1.00  0.00     0.074 A 
ATOM     30  C   UNL A   1      41.678  30.093  35.948  1.00  0.00     0.029 A 
ATOM     31  N   UNL A   1      41.510  29.439  33.830  1.00  0.00    -0.354 N 
ATOM     32  N   UNL A   1      42.291  27.913  31.453  1.00  0.00    -0.248 NA
ATOM     33  C   UNL A   1      43.760  26.465  30.359  1.00  0.00     0.031 C 
ATOM     34  C   UNL A   1      42.741  29.228  35.668  1.00  0.00     0.029 A 
ATOM     35  C   UNL A   1      42.626  28.803  34.354  1.00  0.00     0.049 A 
ATOM     36  H   UNL A   1      41.182  29.333  32.907  1.00  0.00     0.167 HD
ATOM     37  C   UNL A   1      43.284  27.520  32.339  1.00  0.00     0.074 A 
ATOM     38  C   UNL A   1      44.145  26.602  31.620  1.00  0.00     0.031 C 
ATOM     39  C   UNL A   1      43.468  27.889  33.629  1.00  0.00     0.037 A 
BRANCH  26  40
ATOM     40  C   UNL A   1      39.296  31.931  35.719  1.00  0.00     0.064 A 
ATOM     41  C   UNL A   1      38.365  31.480  36.666  1.00  0.00     0.173 A 
ATOM     42  C   UNL A   1      39.832  33.217  35.888  1.00  0.00     0.173 A 
ATOM     43  F   UNL A   1      37.814  30.263  36.545  1.00  0.00    -0.203 F 
ATOM     44  C   UNL A   1      37.970  32.292  37.727  1.00  0.00     0.198 A 
ATOM     45  C   UNL A   1      39.453  34.018  36.963  1.00  0.00     0.198 A 
ATOM     46  F   UNL A   1      40.731  33.695  35.014  1.00  0.00    -0.203 F 
ATOM     47  F   UNL A   1      37.049  31.855  38.597  1.00  0.00    -0.200 F 
ATOM     48  C   UNL A   1      38.520  33.557  37.878  1.00  0.00     0.200 A 
ATOM     49  F   UNL A   1      39.994  35.235  37.114  1.00  0.00    -0.200 F 
ATOM     50  F   UNL A   1      38.143  34.335  38.904  1.00  0.00    -0.200 F 
ENDBRANCH  26  40
BRANCH  27  51
ATOM     51  C   UNL A   1      42.231  26.526  27.865  1.00  0.00     0.064 A 
ATOM     52  C   UNL A   1      41.667  25.266  27.623  1.00  0.00     0.173 A 
ATOM     53  C   UNL A   1      43.203  26.991  26.968  1.00  0.00     0.173 A 
ATOM     54  F   UNL A   1      40.748  24.771  28.464  1.00  0.00    -0.203 F 
ATOM     55  C   UNL A   1      42.068  24.496  26.533  1.00  0.00     0.198 A 
ATOM     56  C   UNL A   1      43.583  26.233  25.863  1.00  0.00     0.198 A 
ATOM     57  F   UNL A   1      43.768  28.193  27.153  1.00  0.00    -0.203 F 
ATOM     58  F   UNL A   1      41.540  23.279  26.345  1.00  0.00    -0.200 F 
ATOM     59  C   UNL A   1      43.021  24.984  25.649  1.00  0.00     0.200 A 
ATOM     60  F   UNL A   1      44.491  26.714  25.003  1.00  0.00    -0.200 F 
ATOM     61  F   UNL A   1      43.399  24.246  24.597  1.00  0.00    -0.200 F 
ENDBRANCH  27  51
BRANCH  39  62
ATOM     62  C   UNL A   1      44.627  27.272  34.355  1.00  0.00     0.064 A 
ATOM     63  C   UNL A   1      45.882  27.895  34.400  1.00  0.00     0.173 A 
ATOM     64  C   UNL A   1      44.473  26.050  35.027  1.00  0.00     0.173 A 
ATOM     65  F   UNL A   1      46.082  29.055  33.758  1.00  0.00    -0.203 F 
ATOM     66  C   UNL A   1      46.950  27.302  35.068  1.00  0.00     0.198 A 
ATOM     67  C   UNL A   1      45.536  25.474  35.716  1.00  0.00     0.198 A 
ATOM     68  F   UNL A   1      43.291  25.416  35.018  1.00  0.00    -0.203 F 
ATOM     69  F   UNL A   1      48.155  27.890  35.055  1.00  0.00    -0.200 F 
ATOM     70  C   UNL A   1      46.775  26.095  35.729  1.00  0.00     0.200 A 
ATOM     71  F   UNL A   1      45.364  24.313  36.362  1.00  0.00    -0.200 F 
ATOM     72  F   UNL A   1      47.806  25.526  36.370  1.00  0.00    -0.200 F 
ENDBRANCH  39  62
ENDBRANCH  13  14
ENDBRANCH   6   8
ENDBRANCH   3   4
ENDBRANCH   2   3
ENDBRANCH   1   2
BRANCH   1  73
ATOM     73  C   UNL A   1      33.693  27.197  26.309  1.00  0.00     0.002 C 
BRANCH  73  74
ATOM     74  C   UNL A   1      33.980  25.806  25.734  1.00  0.00     0.021 C 
BRANCH  74  75
ATOM     75  C   UNL A   1      33.264  25.466  24.434  1.00  0.00     0.116 C 
BRANCH  75  76
ATOM     76  N   UNL A   1      33.817  26.109  23.261  1.00  0.00    -0.354 N 
ATOM     77  C   UNL A   1      33.433  27.301  22.700  1.00  0.00     0.255 C 
ATOM     78  H   UNL A   1      34.556  25.635  22.814  1.00  0.00     0.163 HD
ATOM     79  O   UNL A   1      34.166  27.805  21.843  1.00  0.00    -0.272 OA
BRANCH  77  80
ATOM     80  C   UNL A   1      32.108  27.959  23.097  1.00  0.00     0.264 C 
ATOM     81  F   UNL A   1      32.223  29.320  23.165  1.00  0.00    -0.236 F 
BRANCH  80  82
ATOM     82  C   UNL A   1      30.860  27.557  22.281  1.00  0.00     0.082 C 
ATOM     83  C   UNL A   1      30.400  26.123  22.614  1.00  0.00     0.014 C 
ATOM     84  C   UNL A   1      29.696  28.517  22.364  1.00  0.00     0.050 A 
ATOM     85  C   UNL A   1      29.600  26.057  23.914  1.00  0.00     0.006 C 
ATOM     86  C   UNL A   1      28.558  28.247  23.129  1.00  0.00    -0.026 A 
ATOM     87  N   UNL A   1      29.819  29.650  21.626  1.00  0.00    -0.261 NA
ATOM     88  C   UNL A   1      28.368  26.957  23.875  1.00  0.00     0.037 C 
ATOM     89  C   UNL A   1      27.531  29.200  23.136  1.00  0.00     0.007 A 
ATOM     90  C   UNL A   1      28.806  30.541  21.649  1.00  0.00     0.111 A 
ATOM     91  C   UNL A   1      27.654  30.366  22.389  1.00  0.00     0.020 A 
ENDBRANCH  80  82
ENDBRANCH  77  80
ENDBRANCH  75  76
ENDBRANCH  74  75
ENDBRANCH  73  74
ENDBRANCH   1  73
TORSDOF 14
ENDMDL
MODEL 3
REMARK VINA RESULT:     -12.4      0.332      2.002
REMARK SMILES O=C(NCCCCCCNC(=O)[C@@H](F)[C@H]1CCCc2cccnc21)c1ccc(-c2c3nc(c(-c4c(F)c(F)c(F)c(F)c4F)c4ccc([nH]4)c(-c4c(F)c(F)c(F)c(F)c4F)c4nc(c(-c5c(F)c(F)c(F)c(F)c5F)c5ccc2[nH]5)C=C4)C=C3)cc1
REMARK SMILES IDX 6 1 5 2 4 3 3 4 1 5 2 6 25 8 26 9 87 10 27 11 86 12 28 13
REMARK SMILES IDX 29 14 30 15 80 16 31 17 85 18 79 19 81 20 32 21 84 22 78 23
REMARK SMILES IDX 77 24 33 26 65 27 45 28 64 29 46 30 49 31 63 32 82 33 47 34
REMARK SMILES IDX 48 35 62 37 83 38 50 39 34 40 35 41 43 42 36 43 37 44 41 45
REMARK SMILES IDX 44 46 38 47 39 48 42 49 40 50 66 51 67 52 75 53 68 54 69 55
REMARK SMILES IDX 73 56 76 57 70 58 71 59 74 60 72 61 51 62 52 63 60 64 53 65
REMARK SMILES IDX 54 66 58 67 61 68 55 69 56 70 59 71 57 72 7 73 8 74 9 75
REMARK SMILES IDX 10 76 11 77 12 79 13 80 14 81 15 82 16 83 24 84 17 85 19 86
REMARK SMILES IDX 23 87 18 88 20 89 22 90 21 91
REMARK H PARENT 3 7 81 25 49 36 10 78
REMARK Flexibility Score: inf
ROOT
ATOM      1  C   UNL A   1      31.554  30.507  26.003  1.00  0.00     0.002 C 
ENDROOT
BRANCH   1   2
ATOM      2  C   UNL A   1      31.370  31.941  26.500  1.00  0.00     0.021 C 
BRANCH   2   3
ATOM      3  C   UNL A   1      32.590  32.597  27.130  1.00  0.00     0.116 C 
BRANCH   3   4
ATOM      4  N   UNL A   1      32.354  33.960  27.572  1.00  0.00    -0.352 N 
ATOM      5  O   UNL A   1      32.604  35.829  28.807  1.00  0.00    -0.269 OA
ATOM      6  C   UNL A   1      33.020  34.711  28.511  1.00  0.00     0.251 C 
ATOM      7  H   UNL A   1      31.602  34.416  27.130  1.00  0.00     0.163 HD
BRANCH   6   8
ATOM      8  C   UNL A   1      34.213  34.170  29.204  1.00  0.00     0.039 A 
ATOM      9  C   UNL A   1      35.507  34.475  28.778  1.00  0.00     0.014 A 
ATOM     10  C   UNL A   1      34.029  33.340  30.316  1.00  0.00     0.014 A 
ATOM     11  C   UNL A   1      36.597  33.823  29.348  1.00  0.00     0.010 A 
ATOM     12  C   UNL A   1      35.132  32.757  30.947  1.00  0.00     0.010 A 
ATOM     13  C   UNL A   1      36.425  32.956  30.439  1.00  0.00    -0.014 A 
BRANCH  13  14
ATOM     14  C   UNL A   1      37.613  32.295  31.039  1.00  0.00     0.031 A 
ATOM     15  C   UNL A   1      38.059  32.617  32.440  1.00  0.00     0.074 A 
ATOM     16  C   UNL A   1      38.269  31.359  30.326  1.00  0.00     0.049 A 
ATOM     17  N   UNL A   1      39.036  32.089  33.138  1.00  0.00    -0.248 NA
ATOM     18  C   UNL A   1      37.323  33.674  33.149  1.00  0.00     0.031 C 
ATOM     19  C   UNL A   1      37.946  30.972  28.950  1.00  0.00     0.029 A 
ATOM     20  N   UNL A   1      39.321  30.546  30.661  1.00  0.00    -0.354 N 
ATOM     21  C   UNL A   1      39.048  32.765  34.352  1.00  0.00     0.074 A 
ATOM     22  C   UNL A   1      37.995  33.756  34.290  1.00  0.00     0.031 C 
ATOM     23  C   UNL A   1      38.743  29.960  28.580  1.00  0.00     0.029 A 
ATOM     24  C   UNL A   1      39.665  29.659  29.670  1.00  0.00     0.049 A 
ATOM     25  H   UNL A   1      39.786  30.593  31.528  1.00  0.00     0.167 HD
ATOM     26  C   UNL A   1      39.857  32.569  35.421  1.00  0.00     0.037 A 
ATOM     27  C   UNL A   1      40.619  28.710  29.640  1.00  0.00     0.037 A 
ATOM     28  C   UNL A   1      40.883  31.561  35.493  1.00  0.00     0.049 A 
ATOM     29  C   UNL A   1      41.492  28.508  30.844  1.00  0.00     0.074 A 
ATOM     30  C   UNL A   1      41.721  31.254  36.553  1.00  0.00     0.029 A 
ATOM     31  N   UNL A   1      41.214  30.695  34.462  1.00  0.00    -0.354 N 
ATOM     32  N   UNL A   1      41.460  29.123  32.000  1.00  0.00    -0.248 NA
ATOM     33  C   UNL A   1      42.533  27.478  30.738  1.00  0.00     0.031 C 
ATOM     34  C   UNL A   1      42.584  30.230  36.150  1.00  0.00     0.029 A 
ATOM     35  C   UNL A   1      42.255  29.866  34.853  1.00  0.00     0.049 A 
ATOM     36  H   UNL A   1      40.775  30.671  33.581  1.00  0.00     0.167 HD
ATOM     37  C   UNL A   1      42.463  28.544  32.767  1.00  0.00     0.074 A 
ATOM     38  C   UNL A   1      43.071  27.515  31.949  1.00  0.00     0.031 C 
ATOM     39  C   UNL A   1      42.846  28.842  34.031  1.00  0.00     0.037 A 
BRANCH  26  40
ATOM     40  C   UNL A   1      39.677  33.474  36.606  1.00  0.00     0.064 A 
ATOM     41  C   UNL A   1      40.323  34.715  36.692  1.00  0.00     0.173 A 
ATOM     42  C   UNL A   1      38.808  33.113  37.647  1.00  0.00     0.173 A 
ATOM     43  F   UNL A   1      41.173  35.104  35.729  1.00  0.00    -0.203 F 
ATOM     44  C   UNL A   1      40.122  35.554  37.787  1.00  0.00     0.198 A 
ATOM     45  C   UNL A   1      38.590  33.964  38.728  1.00  0.00     0.198 A 
ATOM     46  F   UNL A   1      38.160  31.939  37.611  1.00  0.00    -0.203 F 
ATOM     47  F   UNL A   1      40.780  36.719  37.866  1.00  0.00    -0.200 F 
ATOM     48  C   UNL A   1      39.251  35.180  38.800  1.00  0.00     0.200 A 
ATOM     49  F   UNL A   1      37.739  33.606  39.701  1.00  0.00    -0.200 F 
ATOM     50  F   UNL A   1      39.054  35.992  39.849  1.00  0.00    -0.200 F 
ENDBRANCH  26  40
BRANCH  27  51
ATOM     51  C   UNL A   1      40.775  27.863  28.431  1.00  0.00     0.064 A 
ATOM     52  C   UNL A   1      40.109  26.635  28.322  1.00  0.00     0.173 A 
ATOM     53  C   UNL A   1      41.581  28.268  27.357  1.00  0.00     0.173 A 
ATOM     54  F   UNL A   1      39.343  26.197  29.331  1.00  0.00    -0.203 F 
ATOM     55  C   UNL A   1      40.253  25.837  27.188  1.00  0.00     0.198 A 
ATOM     56  C   UNL A   1      41.702  27.484  26.212  1.00  0.00     0.198 A 
ATOM     57  F   UNL A   1      42.235  29.437  27.412  1.00  0.00    -0.203 F 
ATOM     58  F   UNL A   1      39.634  24.651  27.124  1.00  0.00    -0.200 F 
ATOM     59  C   UNL A   1      41.043  26.266  26.131  1.00  0.00     0.200 A 
ATOM     60  F   UNL A   1      42.453  27.908  25.188  1.00  0.00    -0.200 F 
ATOM     61  F   UNL A   1      41.173  25.502  25.038  1.00  0.00    -0.200 F 
ENDBRANCH  27  51
BRANCH  39  62
ATOM     62  C   UNL A   1      43.954  28.019  34.619  1.00  0.00     0.064 A 
ATOM     63  C   UNL A   1      43.699  26.812  35.285  1.00  0.00     0.173 A 
ATOM     64  C   UNL A   1      45.287  28.438  34.499  1.00  0.00     0.173 A 
ATOM     65  F   UNL A   1      42.439  26.380  35.440  1.00  0.00    -0.203 F 
ATOM     66  C   UNL A   1      44.738  26.067  35.836  1.00  0.00     0.198 A 
ATOM     67  C   UNL A   1      46.326  27.676  35.027  1.00  0.00     0.198 A 
ATOM     68  F   UNL A   1      45.584  29.583  33.866  1.00  0.00    -0.203 F 
ATOM     69  F   UNL A   1      44.468  24.943  36.513  1.00  0.00    -0.200 F 
ATOM     70  C   UNL A   1      46.050  26.497  35.702  1.00  0.00     0.200 A 
ATOM     71  F   UNL A   1      47.594  28.088  34.890  1.00  0.00    -0.200 F 
ATOM     72  F   UNL A   1      47.049  25.778  36.234  1.00  0.00    -0.200 F 
ENDBRANCH  39  62
ENDBRANCH  13  14
ENDBRANCH   6   8
ENDBRANCH   3   4
ENDBRANCH   2   3
ENDBRANCH   1   2
BRANCH   1  73
ATOM     73  C   UNL A   1      31.772  29.431  27.070  1.00  0.00     0.002 C 
BRANCH  73  74
ATOM     74  C   UNL A   1      32.312  28.079  26.592  1.00  0.00     0.021 C 
BRANCH  74  75
ATOM     75  C   UNL A   1      33.668  28.115  25.899  1.00  0.00     0.116 C 
BRANCH  75  76
ATOM     76  N   UNL A   1      33.828  27.131  24.849  1.00  0.00    -0.354 N 
ATOM     77  C   UNL A   1      33.351  27.193  23.563  1.00  0.00     0.255 C 
ATOM     78  H   UNL A   1      34.339  26.323  25.085  1.00  0.00     0.163 HD
ATOM     79  O   UNL A   1      33.779  26.375  22.743  1.00  0.00    -0.272 OA
BRANCH  77  80
ATOM     80  C   UNL A   1      32.284  28.222  23.176  1.00  0.00     0.264 C 
ATOM     81  F   UNL A   1      32.840  29.329  22.597  1.00  0.00    -0.236 F 
BRANCH  80  82
ATOM     82  C   UNL A   1      31.094  27.707  22.338  1.00  0.00     0.082 C 
ATOM     83  C   UNL A   1      30.746  26.244  22.681  1.00  0.00     0.014 C 
ATOM     84  C   UNL A   1      29.853  28.568  22.381  1.00  0.00     0.050 A 
ATOM     85  C   UNL A   1      29.923  26.128  23.964  1.00  0.00     0.006 C 
ATOM     86  C   UNL A   1      28.723  28.214  23.124  1.00  0.00    -0.026 A 
ATOM     87  N   UNL A   1      29.899  29.698  21.630  1.00  0.00    -0.261 NA
ATOM     88  C   UNL A   1      28.623  26.922  23.884  1.00  0.00     0.037 C 
ATOM     89  C   UNL A   1      27.620  29.078  23.094  1.00  0.00     0.007 A 
ATOM     90  C   UNL A   1      28.815  30.502  21.616  1.00  0.00     0.111 A 
ATOM     91  C   UNL A   1      27.664  30.241  22.333  1.00  0.00     0.020 A 
ENDBRANCH  80  82
ENDBRANCH  77  80
ENDBRANCH  75  76
ENDBRANCH  74  75
ENDBRANCH  73  74
ENDBRANCH   1  73
TORSDOF 14
ENDMDL
