MODEL 1
REMARK VINA RESULT:     -12.3      0.000      0.000
REMARK SMILES COc1ccc(OC)c(/C=C2\S/C(=[NH+]\c3ccc(C(=O)NCCCCCCNC(=O)c4ccc(-c5c6nc(c(-c7c(F)c(F)c(F)c(F)c7F)c7ccc([nH]7)c(-c7c(F)c(F)c(F)c(F)c7F)c7nc(c(-c8c(F)c(F)c(F)c(F)c8F)c8ccc5[nH]8)C=C7)C=C6)cc4)cc3)N(C)C2=O)c1
REMARK SMILES IDX 24 1 23 2 22 3 21 4 19 5 20 6 18 8 15 9 16 10 95 11 17 12
REMARK SMILES IDX 94 13 14 14 10 15 11 16 12 17 98 18 13 19 96 20 99 21 97 22
REMARK SMILES IDX 9 24 3 25 4 26 100 27 5 28 6 29 2 30 1 31 7 32 8 33 25 34
REMARK SMILES IDX 26 35 27 36 28 37 29 38 30 40 31 41 32 42 93 43 33 44 92 45
REMARK SMILES IDX 34 46 35 47 36 48 86 49 37 50 91 51 85 52 87 53 38 54 90 55
REMARK SMILES IDX 84 56 83 57 39 59 71 60 51 61 70 62 52 63 55 64 69 65 88 66
REMARK SMILES IDX 53 67 54 68 68 70 89 71 56 72 40 73 41 74 49 75 42 76 43 77
REMARK SMILES IDX 47 78 50 79 44 80 45 81 48 82 46 83 72 84 73 85 81 86 74 87
REMARK SMILES IDX 75 88 79 89 82 90 76 91 77 92 80 93 78 94 57 95 58 96 66 97
REMARK SMILES IDX 59 98 60 99 64 100 67 101 61 102 62 103 65 104 63 105
REMARK H PARENT 21 7 14 23 28 39 87 58 55 69
REMARK Flexibility Score: inf
ROOT
ATOM      1  C   UNL A   1      35.122  32.723  28.224  1.00  0.00     0.002 C 
ENDROOT
BRANCH   1   2
ATOM      2  C   UNL A   1      34.682  31.264  28.014  1.00  0.00     0.021 C 
BRANCH   2   3
ATOM      3  C   UNL A   1      33.396  31.108  27.199  1.00  0.00     0.116 C 
BRANCH   3   4
ATOM      4  N   UNL A   1      32.562  30.064  27.763  1.00  0.00    -0.352 N 
ATOM      5  C   UNL A   1      31.978  28.946  27.225  1.00  0.00     0.251 C 
ATOM      6  O   UNL A   1      31.374  28.200  27.997  1.00  0.00    -0.269 OA
ATOM      7  H   UNL A   1      32.378  30.181  28.722  1.00  0.00     0.163 HD
BRANCH   5   8
ATOM      8  C   UNL A   1      32.070  28.567  25.786  1.00  0.00     0.040 A 
ATOM      9  C   UNL A   1      32.102  27.691  23.090  1.00  0.00     0.125 A 
ATOM     10  C   UNL A   1      31.313  27.040  24.045  1.00  0.00     0.052 A 
ATOM     11  C   UNL A   1      32.818  28.826  23.481  1.00  0.00     0.052 A 
ATOM     12  C   UNL A   1      31.298  27.470  25.376  1.00  0.00     0.018 A 
ATOM     13  C   UNL A   1      32.800  29.265  24.819  1.00  0.00     0.018 A 
BRANCH   9  14
ATOM     14  N   UNL A   1      32.206  27.121  21.799  1.00  0.00    -0.234 N 
ATOM     15  C   UNL A   1      33.494  22.739  23.226  1.00  0.00     0.036 C 
ATOM     16  C   UNL A   1      33.633  23.824  22.449  1.00  0.00     0.110 C 
ATOM     17  S   UNL A   1      34.029  25.417  22.875  1.00  0.00     0.007 SA
ATOM     18  C   UNL A   1      33.215  23.856  21.005  1.00  0.00     0.348 C 
ATOM     19  C   UNL A   1      32.923  26.047  21.696  1.00  0.00     0.324 C 
ATOM     20  N   UNL A   1      32.872  25.155  20.659  1.00  0.00    -0.189 N 
ATOM     21  O   UNL A   1      33.115  22.859  20.303  1.00  0.00    -0.240 OA
ATOM     22  C   UNL A   1      32.305  25.483  19.373  1.00  0.00     0.301 C 
ATOM     23  H   UNL A   1      31.758  27.521  21.019  1.00  0.00     0.313 HD
BRANCH  15  24
ATOM     24  C   UNL A   1      33.598  22.467  24.698  1.00  0.00     0.022 A 
ATOM     25  C   UNL A   1      32.431  22.813  26.840  1.00  0.00     0.119 A 
ATOM     26  C   UNL A   1      33.532  22.364  27.548  1.00  0.00     0.050 A 
ATOM     27  C   UNL A   1      32.458  22.862  25.440  1.00  0.00     0.058 A 
ATOM     28  C   UNL A   1      34.656  21.937  26.855  1.00  0.00     0.051 A 
ATOM     29  C   UNL A   1      34.692  21.983  25.449  1.00  0.00     0.126 A 
BRANCH  25  30
ATOM     30  O   UNL A   1      31.397  23.328  27.571  1.00  0.00    -0.497 OA
ATOM     31  C   UNL A   1      30.156  23.271  26.876  1.00  0.00     0.278 C 
ENDBRANCH  25  30
BRANCH  29  32
ATOM     32  O   UNL A   1      35.910  21.690  24.901  1.00  0.00    -0.496 OA
ATOM     33  C   UNL A   1      36.987  22.094  25.751  1.00  0.00     0.278 C 
ENDBRANCH  29  32
ENDBRANCH  15  24
ENDBRANCH   9  14
ENDBRANCH   5   8
ENDBRANCH   3   4
ENDBRANCH   2   3
ENDBRANCH   1   2
BRANCH   1  34
ATOM     34  C   UNL A   1      34.406  33.474  29.355  1.00  0.00     0.002 C 
BRANCH  34  35
ATOM     35  C   UNL A   1      33.326  34.463  28.908  1.00  0.00     0.021 C 
BRANCH  35  36
ATOM     36  C   UNL A   1      33.494  35.881  29.449  1.00  0.00     0.116 C 
BRANCH  36  37
ATOM     37  N   UNL A   1      32.530  36.188  30.495  1.00  0.00    -0.352 N 
ATOM     38  C   UNL A   1      32.507  35.779  31.807  1.00  0.00     0.251 C 
ATOM     39  H   UNL A   1      31.787  36.774  30.224  1.00  0.00     0.163 HD
ATOM     40  O   UNL A   1      31.517  35.974  32.503  1.00  0.00    -0.269 OA
BRANCH  38  41
ATOM     41  C   UNL A   1      33.678  35.079  32.378  1.00  0.00     0.039 A 
ATOM     42  C   UNL A   1      33.516  33.785  32.881  1.00  0.00     0.014 A 
ATOM     43  C   UNL A   1      34.930  35.696  32.411  1.00  0.00     0.014 A 
ATOM     44  C   UNL A   1      34.629  33.078  33.342  1.00  0.00     0.010 A 
ATOM     45  C   UNL A   1      36.048  34.969  32.810  1.00  0.00     0.010 A 
ATOM     46  C   UNL A   1      35.910  33.650  33.270  1.00  0.00    -0.014 A 
BRANCH  46  47
ATOM     47  C   UNL A   1      37.126  32.882  33.641  1.00  0.00     0.031 A 
ATOM     48  C   UNL A   1      37.858  33.194  34.914  1.00  0.00     0.074 A 
ATOM     49  C   UNL A   1      37.620  31.970  32.783  1.00  0.00     0.049 A 
ATOM     50  N   UNL A   1      38.989  32.709  35.358  1.00  0.00    -0.248 NA
ATOM     51  C   UNL A   1      37.248  34.203  35.792  1.00  0.00     0.031 C 
ATOM     52  C   UNL A   1      37.016  31.600  31.502  1.00  0.00     0.029 A 
ATOM     53  N   UNL A   1      38.751  31.195  32.852  1.00  0.00    -0.354 N 
ATOM     54  C   UNL A   1      39.238  33.368  36.555  1.00  0.00     0.074 A 
ATOM     55  C   UNL A   1      38.162  34.318  36.744  1.00  0.00     0.031 C 
ATOM     56  C   UNL A   1      37.768  30.655  30.918  1.00  0.00     0.029 A 
ATOM     57  C   UNL A   1      38.931  30.385  31.759  1.00  0.00     0.049 A 
ATOM     58  H   UNL A   1      39.374  31.219  33.614  1.00  0.00     0.167 HD
ATOM     59  C   UNL A   1      40.260  33.183  37.423  1.00  0.00     0.037 A 
ATOM     60  C   UNL A   1      39.928  29.531  31.461  1.00  0.00     0.037 A 
ATOM     61  C   UNL A   1      41.314  32.219  37.240  1.00  0.00     0.049 A 
ATOM     62  C   UNL A   1      41.079  29.381  32.418  1.00  0.00     0.074 A 
ATOM     63  C   UNL A   1      42.343  31.891  38.104  1.00  0.00     0.029 A 
ATOM     64  N   UNL A   1      41.478  31.437  36.106  1.00  0.00    -0.354 N 
ATOM     65  N   UNL A   1      41.265  29.950  33.584  1.00  0.00    -0.248 NA
ATOM     66  C   UNL A   1      42.164  28.478  32.012  1.00  0.00     0.031 C 
ATOM     67  C   UNL A   1      43.164  30.952  37.468  1.00  0.00     0.029 A 
ATOM     68  C   UNL A   1      42.620  30.660  36.228  1.00  0.00     0.049 A 
ATOM     69  H   UNL A   1      40.875  31.434  35.328  1.00  0.00     0.167 HD
ATOM     70  C   UNL A   1      42.472  29.461  34.061  1.00  0.00     0.074 A 
ATOM     71  C   UNL A   1      42.971  28.537  33.062  1.00  0.00     0.031 C 
ATOM     72  C   UNL A   1      43.109  29.751  35.222  1.00  0.00     0.037 A 
BRANCH  59  73
ATOM     73  C   UNL A   1      40.294  34.054  38.646  1.00  0.00     0.064 A 
ATOM     74  C   UNL A   1      39.640  33.690  39.833  1.00  0.00     0.173 A 
ATOM     75  C   UNL A   1      41.000  35.267  38.633  1.00  0.00     0.173 A 
ATOM     76  F   UNL A   1      38.943  32.545  39.897  1.00  0.00    -0.203 F 
ATOM     77  C   UNL A   1      39.657  34.527  40.946  1.00  0.00     0.198 A 
ATOM     78  C   UNL A   1      41.041  36.086  39.759  1.00  0.00     0.198 A 
ATOM     79  F   UNL A   1      41.649  35.660  37.527  1.00  0.00    -0.203 F 
ATOM     80  F   UNL A   1      38.973  34.187  42.048  1.00  0.00    -0.200 F 
ATOM     81  C   UNL A   1      40.360  35.721  40.910  1.00  0.00     0.200 A 
ATOM     82  F   UNL A   1      41.733  37.233  39.726  1.00  0.00    -0.200 F 
ATOM     83  F   UNL A   1      40.373  36.526  41.982  1.00  0.00    -0.200 F 
ENDBRANCH  59  73
BRANCH  60  84
ATOM     84  C   UNL A   1      39.869  28.733  30.209  1.00  0.00     0.064 A 
ATOM     85  C   UNL A   1      40.408  29.237  29.018  1.00  0.00     0.173 A 
ATOM     86  C   UNL A   1      39.293  27.454  30.178  1.00  0.00     0.173 A 
ATOM     87  F   UNL A   1      40.949  30.464  28.995  1.00  0.00    -0.203 F 
ATOM     88  C   UNL A   1      40.368  28.495  27.840  1.00  0.00     0.198 A 
ATOM     89  C   UNL A   1      39.277  26.703  29.005  1.00  0.00     0.198 A 
ATOM     90  F   UNL A   1      38.765  26.927  31.292  1.00  0.00    -0.203 F 
ATOM     91  F   UNL A   1      40.864  29.013  26.708  1.00  0.00    -0.200 F 
ATOM     92  C   UNL A   1      39.810  27.226  27.835  1.00  0.00     0.200 A 
ATOM     93  F   UNL A   1      38.749  25.472  29.008  1.00  0.00    -0.200 F 
ATOM     94  F   UNL A   1      39.782  26.507  26.705  1.00  0.00    -0.200 F 
ENDBRANCH  60  84
BRANCH  72  95
ATOM     95  C   UNL A   1      44.412  29.055  35.485  1.00  0.00     0.064 A 
ATOM     96  C   UNL A   1      45.637  29.633  35.121  1.00  0.00     0.173 A 
ATOM     97  C   UNL A   1      44.441  27.823  36.156  1.00  0.00     0.173 A 
ATOM     98  F   UNL A   1      45.662  30.800  34.458  1.00  0.00    -0.203 F 
ATOM     99  C   UNL A   1      46.841  28.998  35.408  1.00  0.00     0.198 A 
ATOM    100  C   UNL A   1      45.647  27.205  36.467  1.00  0.00     0.198 A 
ATOM    101  F   UNL A   1      43.297  27.230  36.529  1.00  0.00    -0.203 F 
ATOM    102  F   UNL A   1      47.999  29.551  35.017  1.00  0.00    -0.200 F 
ATOM    103  C   UNL A   1      46.847  27.789  36.089  1.00  0.00     0.200 A 
ATOM    104  F   UNL A   1      45.651  26.043  37.137  1.00  0.00    -0.200 F 
ATOM    105  F   UNL A   1      48.008  27.185  36.377  1.00  0.00    -0.200 F 
ENDBRANCH  72  95
ENDBRANCH  46  47
ENDBRANCH  38  41
ENDBRANCH  36  37
ENDBRANCH  35  36
ENDBRANCH  34  35
ENDBRANCH   1  34
TORSDOF 17
ENDMDL
MODEL 2
REMARK VINA RESULT:     -11.7      0.467      6.989
REMARK SMILES COc1ccc(OC)c(/C=C2\S/C(=[NH+]\c3ccc(C(=O)NCCCCCCNC(=O)c4ccc(-c5c6nc(c(-c7c(F)c(F)c(F)c(F)c7F)c7ccc([nH]7)c(-c7c(F)c(F)c(F)c(F)c7F)c7nc(c(-c8c(F)c(F)c(F)c(F)c8F)c8ccc5[nH]8)C=C7)C=C6)cc4)cc3)N(C)C2=O)c1
REMARK SMILES IDX 24 1 23 2 22 3 21 4 19 5 20 6 18 8 15 9 16 10 95 11 17 12
REMARK SMILES IDX 94 13 14 14 10 15 11 16 12 17 98 18 13 19 96 20 99 21 97 22
REMARK SMILES IDX 9 24 3 25 4 26 100 27 5 28 6 29 2 30 1 31 7 32 8 33 25 34
REMARK SMILES IDX 26 35 27 36 28 37 29 38 30 40 31 41 32 42 93 43 33 44 92 45
REMARK SMILES IDX 34 46 35 47 36 48 86 49 37 50 91 51 85 52 87 53 38 54 90 55
REMARK SMILES IDX 84 56 83 57 39 59 71 60 51 61 70 62 52 63 55 64 69 65 88 66
REMARK SMILES IDX 53 67 54 68 68 70 89 71 56 72 40 73 41 74 49 75 42 76 43 77
REMARK SMILES IDX 47 78 50 79 44 80 45 81 48 82 46 83 72 84 73 85 81 86 74 87
REMARK SMILES IDX 75 88 79 89 82 90 76 91 77 92 80 93 78 94 57 95 58 96 66 97
REMARK SMILES IDX 59 98 60 99 64 100 67 101 61 102 62 103 65 104 63 105
REMARK H PARENT 21 7 14 23 28 39 87 58 55 69
REMARK Flexibility Score: inf
ROOT
ATOM      1  C   UNL A   1      35.341  32.390  28.140  1.00  0.00     0.002 C 
ENDROOT
BRANCH   1   2
ATOM      2  C   UNL A   1      34.027  31.710  27.721  1.00  0.00     0.021 C 
BRANCH   2   3
ATOM      3  C   UNL A   1      34.125  30.188  27.586  1.00  0.00     0.116 C 
BRANCH   3   4
ATOM      4  N   UNL A   1      32.885  29.561  28.000  1.00  0.00    -0.352 N 
ATOM      5  C   UNL A   1      31.962  28.793  27.338  1.00  0.00     0.251 C 
ATOM      6  O   UNL A   1      31.028  28.339  28.000  1.00  0.00    -0.269 OA
ATOM      7  H   UNL A   1      32.661  29.718  28.946  1.00  0.00     0.163 HD
BRANCH   5   8
ATOM      8  C   UNL A   1      32.049  28.448  25.890  1.00  0.00     0.040 A 
ATOM      9  C   UNL A   1      32.085  27.626  23.177  1.00  0.00     0.125 A 
ATOM     10  C   UNL A   1      31.365  26.903  24.135  1.00  0.00     0.052 A 
ATOM     11  C   UNL A   1      32.726  28.803  23.575  1.00  0.00     0.052 A 
ATOM     12  C   UNL A   1      31.349  27.306  25.475  1.00  0.00     0.018 A 
ATOM     13  C   UNL A   1      32.706  29.215  24.922  1.00  0.00     0.018 A 
BRANCH   9  14
ATOM     14  N   UNL A   1      32.201  27.089  21.873  1.00  0.00    -0.234 N 
ATOM     15  C   UNL A   1      33.556  22.695  23.200  1.00  0.00     0.036 C 
ATOM     16  C   UNL A   1      33.680  23.801  22.449  1.00  0.00     0.110 C 
ATOM     17  S   UNL A   1      34.049  25.390  22.914  1.00  0.00     0.007 SA
ATOM     18  C   UNL A   1      33.265  23.860  21.005  1.00  0.00     0.348 C 
ATOM     19  C   UNL A   1      32.935  26.029  21.746  1.00  0.00     0.324 C 
ATOM     20  N   UNL A   1      32.902  25.162  20.689  1.00  0.00    -0.189 N 
ATOM     21  O   UNL A   1      33.182  22.879  20.279  1.00  0.00    -0.240 OA
ATOM     22  C   UNL A   1      32.332  25.511  19.409  1.00  0.00     0.301 C 
ATOM     23  H   UNL A   1      31.748  27.500  21.102  1.00  0.00     0.313 HD
BRANCH  15  24
ATOM     24  C   UNL A   1      33.661  22.390  24.665  1.00  0.00     0.022 A 
ATOM     25  C   UNL A   1      32.515  22.721  26.820  1.00  0.00     0.119 A 
ATOM     26  C   UNL A   1      33.608  22.229  27.513  1.00  0.00     0.050 A 
ATOM     27  C   UNL A   1      32.536  22.799  25.421  1.00  0.00     0.058 A 
ATOM     28  C   UNL A   1      34.717  21.789  26.804  1.00  0.00     0.051 A 
ATOM     29  C   UNL A   1      34.747  21.863  25.399  1.00  0.00     0.126 A 
BRANCH  25  30
ATOM     30  O   UNL A   1      31.498  23.246  27.568  1.00  0.00    -0.497 OA
ATOM     31  C   UNL A   1      30.261  23.274  26.863  1.00  0.00     0.278 C 
ENDBRANCH  25  30
BRANCH  29  32
ATOM     32  O   UNL A   1      35.954  21.551  24.838  1.00  0.00    -0.496 OA
ATOM     33  C   UNL A   1      36.965  22.502  25.187  1.00  0.00     0.278 C 
ENDBRANCH  29  32
ENDBRANCH  15  24
ENDBRANCH   9  14
ENDBRANCH   5   8
ENDBRANCH   3   4
ENDBRANCH   2   3
ENDBRANCH   1   2
BRANCH   1  34
ATOM     34  C   UNL A   1      35.188  33.696  28.933  1.00  0.00     0.002 C 
BRANCH  34  35
ATOM     35  C   UNL A   1      33.791  34.322  28.905  1.00  0.00     0.021 C 
BRANCH  35  36
ATOM     36  C   UNL A   1      33.708  35.724  29.504  1.00  0.00     0.116 C 
BRANCH  36  37
ATOM     37  N   UNL A   1      32.691  35.820  30.540  1.00  0.00    -0.352 N 
ATOM     38  C   UNL A   1      32.705  35.325  31.823  1.00  0.00     0.251 C 
ATOM     39  H   UNL A   1      31.875  36.308  30.287  1.00  0.00     0.163 HD
ATOM     40  O   UNL A   1      31.684  35.329  32.503  1.00  0.00    -0.269 OA
BRANCH  38  41
ATOM     41  C   UNL A   1      33.954  34.766  32.380  1.00  0.00     0.039 A 
ATOM     42  C   UNL A   1      33.963  33.444  32.837  1.00  0.00     0.014 A 
ATOM     43  C   UNL A   1      35.115  35.540  32.446  1.00  0.00     0.014 A 
ATOM     44  C   UNL A   1      35.157  32.874  33.284  1.00  0.00     0.010 A 
ATOM     45  C   UNL A   1      36.317  34.953  32.830  1.00  0.00     0.010 A 
ATOM     46  C   UNL A   1      36.351  33.611  33.243  1.00  0.00    -0.014 A 
BRANCH  46  47
ATOM     47  C   UNL A   1      37.656  32.998  33.598  1.00  0.00     0.031 A 
ATOM     48  C   UNL A   1      38.290  31.987  32.687  1.00  0.00     0.074 A 
ATOM     49  C   UNL A   1      38.220  33.284  34.786  1.00  0.00     0.049 A 
ATOM     50  N   UNL A   1      39.367  31.267  32.871  1.00  0.00    -0.248 NA
ATOM     51  C   UNL A   1      37.607  31.735  31.410  1.00  0.00     0.031 C 
ATOM     52  C   UNL A   1      37.685  34.227  35.771  1.00  0.00     0.029 A 
ATOM     53  N   UNL A   1      39.362  32.801  35.376  1.00  0.00    -0.354 N 
ATOM     54  C   UNL A   1      39.480  30.463  31.745  1.00  0.00     0.074 A 
ATOM     55  C   UNL A   1      38.337  30.751  30.904  1.00  0.00     0.031 C 
ATOM     56  C   UNL A   1      38.509  34.271  36.829  1.00  0.00     0.029 A 
ATOM     57  C   UNL A   1      39.604  33.327  36.621  1.00  0.00     0.049 A 
ATOM     58  H   UNL A   1      39.951  32.140  34.946  1.00  0.00     0.167 HD
ATOM     59  C   UNL A   1      40.458  29.579  31.434  1.00  0.00     0.037 A 
ATOM     60  C   UNL A   1      40.589  33.068  37.501  1.00  0.00     0.037 A 
ATOM     61  C   UNL A   1      41.604  29.314  32.264  1.00  0.00     0.049 A 
ATOM     62  C   UNL A   1      41.635  32.044  37.154  1.00  0.00     0.074 A 
ATOM     63  C   UNL A   1      42.694  28.505  31.998  1.00  0.00     0.029 A 
ATOM     64  N   UNL A   1      41.798  29.844  33.531  1.00  0.00    -0.354 N 
ATOM     65  N   UNL A   1      41.776  31.346  36.053  1.00  0.00    -0.248 NA
ATOM     66  C   UNL A   1      42.651  31.763  38.177  1.00  0.00     0.031 C 
ATOM     67  C   UNL A   1      43.520  28.501  33.128  1.00  0.00     0.029 A 
ATOM     68  C   UNL A   1      42.970  29.344  34.079  1.00  0.00     0.049 A 
ATOM     69  H   UNL A   1      41.194  30.481  33.977  1.00  0.00     0.167 HD
ATOM     70  C   UNL A   1      42.905  30.562  36.240  1.00  0.00     0.074 A 
ATOM     71  C   UNL A   1      43.419  30.878  37.557  1.00  0.00     0.031 C 
ATOM     72  C   UNL A   1      43.465  29.662  35.395  1.00  0.00     0.037 A 
BRANCH  59  73
ATOM     73  C   UNL A   1      40.319  28.821  30.145  1.00  0.00     0.064 A 
ATOM     74  C   UNL A   1      40.858  29.303  28.941  1.00  0.00     0.173 A 
ATOM     75  C   UNL A   1      39.647  27.590  30.114  1.00  0.00     0.173 A 
ATOM     76  F   UNL A   1      41.503  30.479  28.913  1.00  0.00    -0.203 F 
ATOM     77  C   UNL A   1      40.692  28.601  27.750  1.00  0.00     0.198 A 
ATOM     78  C   UNL A   1      39.511  26.875  28.927  1.00  0.00     0.198 A 
ATOM     79  F   UNL A   1      39.119  27.079  31.237  1.00  0.00    -0.203 F 
ATOM     80  F   UNL A   1      41.161  29.111  26.603  1.00  0.00    -0.200 F 
ATOM     81  C   UNL A   1      40.023  27.387  27.744  1.00  0.00     0.200 A 
ATOM     82  F   UNL A   1      38.875  25.695  28.925  1.00  0.00    -0.200 F 
ATOM     83  F   UNL A   1      39.862  26.714  26.596  1.00  0.00    -0.200 F 
ENDBRANCH  59  73
BRANCH  60  84
ATOM     84  C   UNL A   1      40.646  33.811  38.786  1.00  0.00     0.064 A 
ATOM     85  C   UNL A   1      41.446  34.955  38.912  1.00  0.00     0.173 A 
ATOM     86  C   UNL A   1      39.896  33.411  39.902  1.00  0.00     0.173 A 
ATOM     87  F   UNL A   1      42.197  35.362  37.878  1.00  0.00    -0.203 F 
ATOM     88  C   UNL A   1      41.500  35.666  40.108  1.00  0.00     0.198 A 
ATOM     89  C   UNL A   1      39.932  34.138  41.089  1.00  0.00     0.198 A 
ATOM     90  F   UNL A   1      39.113  32.324  39.831  1.00  0.00    -0.203 F 
ATOM     91  F   UNL A   1      42.297  36.738  40.212  1.00  0.00    -0.200 F 
ATOM     92  C   UNL A   1      40.737  35.263  41.193  1.00  0.00     0.200 A 
ATOM     93  F   UNL A   1      39.182  33.752  42.131  1.00  0.00    -0.200 F 
ATOM     94  F   UNL A   1      40.780  35.953  42.340  1.00  0.00    -0.200 F 
ENDBRANCH  60  84
BRANCH  72  95
ATOM     95  C   UNL A   1      44.706  28.958  35.862  1.00  0.00     0.064 A 
ATOM     96  C   UNL A   1      44.641  27.734  36.545  1.00  0.00     0.173 A 
ATOM     97  C   UNL A   1      45.974  29.485  35.577  1.00  0.00     0.173 A 
ATOM     98  F   UNL A   1      43.450  27.200  36.859  1.00  0.00    -0.203 F 
ATOM     99  C   UNL A   1      45.800  27.071  36.935  1.00  0.00     0.198 A 
ATOM    100  C   UNL A   1      47.131  28.805  35.943  1.00  0.00     0.198 A 
ATOM    101  F   UNL A   1      46.091  30.651  34.923  1.00  0.00    -0.203 F 
ATOM    102  F   UNL A   1      45.714  25.921  37.619  1.00  0.00    -0.200 F 
ATOM    103  C   UNL A   1      47.045  27.601  36.626  1.00  0.00     0.200 A 
ATOM    104  F   UNL A   1      48.333  29.312  35.633  1.00  0.00    -0.200 F 
ATOM    105  F   UNL A   1      48.160  26.954  36.991  1.00  0.00    -0.200 F 
ENDBRANCH  72  95
ENDBRANCH  46  47
ENDBRANCH  38  41
ENDBRANCH  36  37
ENDBRANCH  35  36
ENDBRANCH  34  35
ENDBRANCH   1  34
TORSDOF 17
ENDMDL
MODEL 3
REMARK VINA RESULT:     -11.1      5.729      9.414
REMARK SMILES COc1ccc(OC)c(/C=C2\S/C(=[NH+]\c3ccc(C(=O)NCCCCCCNC(=O)c4ccc(-c5c6nc(c(-c7c(F)c(F)c(F)c(F)c7F)c7ccc([nH]7)c(-c7c(F)c(F)c(F)c(F)c7F)c7nc(c(-c8c(F)c(F)c(F)c(F)c8F)c8ccc5[nH]8)C=C7)C=C6)cc4)cc3)N(C)C2=O)c1
REMARK SMILES IDX 24 1 23 2 22 3 21 4 19 5 20 6 18 8 15 9 16 10 95 11 17 12
REMARK SMILES IDX 94 13 14 14 10 15 11 16 12 17 98 18 13 19 96 20 99 21 97 22
REMARK SMILES IDX 9 24 3 25 4 26 100 27 5 28 6 29 2 30 1 31 7 32 8 33 25 34
REMARK SMILES IDX 26 35 27 36 28 37 29 38 30 40 31 41 32 42 93 43 33 44 92 45
REMARK SMILES IDX 34 46 35 47 36 48 86 49 37 50 91 51 85 52 87 53 38 54 90 55
REMARK SMILES IDX 84 56 83 57 39 59 71 60 51 61 70 62 52 63 55 64 69 65 88 66
REMARK SMILES IDX 53 67 54 68 68 70 89 71 56 72 40 73 41 74 49 75 42 76 43 77
REMARK SMILES IDX 47 78 50 79 44 80 45 81 48 82 46 83 72 84 73 85 81 86 74 87
REMARK SMILES IDX 75 88 79 89 82 90 76 91 77 92 80 93 78 94 57 95 58 96 66 97
REMARK SMILES IDX 59 98 60 99 64 100 67 101 61 102 62 103 65 104 63 105
REMARK H PARENT 21 7 14 23 28 39 87 58 55 69
REMARK Flexibility Score: inf
ROOT
ATOM      1  C   UNL A   1      37.262  31.928  29.878  1.00  0.00     0.002 C 
ENDROOT
BRANCH   1   2
ATOM      2  C   UNL A   1      37.641  30.956  28.749  1.00  0.00     0.021 C 
BRANCH   2   3
ATOM      3  C   UNL A   1      38.963  30.218  28.975  1.00  0.00     0.116 C 
BRANCH   3   4
ATOM      4  N   UNL A   1      38.726  28.801  29.169  1.00  0.00    -0.352 N 
ATOM      5  C   UNL A   1      39.429  27.680  28.806  1.00  0.00     0.251 C 
ATOM      6  O   UNL A   1      38.993  26.594  29.190  1.00  0.00    -0.269 OA
ATOM      7  H   UNL A   1      37.896  28.603  29.660  1.00  0.00     0.163 HD
BRANCH   5   8
ATOM      8  C   UNL A   1      40.695  27.708  28.020  1.00  0.00     0.040 A 
ATOM      9  C   UNL A   1      43.209  27.765  26.712  1.00  0.00     0.125 A 
ATOM     10  C   UNL A   1      43.128  27.792  28.108  1.00  0.00     0.052 A 
ATOM     11  C   UNL A   1      42.025  27.636  25.979  1.00  0.00     0.052 A 
ATOM     12  C   UNL A   1      41.888  27.767  28.755  1.00  0.00     0.018 A 
ATOM     13  C   UNL A   1      40.776  27.603  26.627  1.00  0.00     0.018 A 
BRANCH   9  14
ATOM     14  N   UNL A   1      44.474  27.954  26.105  1.00  0.00    -0.234 N 
ATOM     15  C   UNL A   1      45.194  23.383  24.886  1.00  0.00     0.036 C 
ATOM     16  C   UNL A   1      45.594  24.547  25.422  1.00  0.00     0.110 C 
ATOM     17  S   UNL A   1      45.000  25.374  26.778  1.00  0.00     0.007 SA
ATOM     18  C   UNL A   1      46.549  25.481  24.732  1.00  0.00     0.348 C 
ATOM     19  C   UNL A   1      45.223  26.904  25.988  1.00  0.00     0.324 C 
ATOM     20  N   UNL A   1      46.292  26.781  25.143  1.00  0.00    -0.189 N 
ATOM     21  O   UNL A   1      47.350  25.127  23.877  1.00  0.00    -0.240 OA
ATOM     22  C   UNL A   1      46.959  27.918  24.556  1.00  0.00     0.301 C 
ATOM     23  H   UNL A   1      44.769  28.838  25.788  1.00  0.00     0.313 HD
BRANCH  15  24
ATOM     24  C   UNL A   1      44.125  22.380  25.203  1.00  0.00     0.022 A 
ATOM     25  C   UNL A   1      41.816  22.179  26.040  1.00  0.00     0.119 A 
ATOM     26  C   UNL A   1      41.940  20.803  26.140  1.00  0.00     0.050 A 
ATOM     27  C   UNL A   1      42.886  22.956  25.578  1.00  0.00     0.058 A 
ATOM     28  C   UNL A   1      43.127  20.199  25.752  1.00  0.00     0.051 A 
ATOM     29  C   UNL A   1      44.207  20.972  25.287  1.00  0.00     0.126 A 
BRANCH  25  30
ATOM     30  O   UNL A   1      40.671  22.732  26.542  1.00  0.00    -0.497 OA
ATOM     31  C   UNL A   1      39.522  21.930  26.286  1.00  0.00     0.278 C 
ENDBRANCH  25  30
BRANCH  29  32
ATOM     32  O   UNL A   1      45.366  20.273  25.093  1.00  0.00    -0.496 OA
ATOM     33  C   UNL A   1      45.195  18.877  25.350  1.00  0.00     0.278 C 
ENDBRANCH  29  32
ENDBRANCH  15  24
ENDBRANCH   9  14
ENDBRANCH   5   8
ENDBRANCH   3   4
ENDBRANCH   2   3
ENDBRANCH   1   2
BRANCH   1  34
ATOM     34  C   UNL A   1      35.803  31.859  30.351  1.00  0.00     0.002 C 
BRANCH  34  35
ATOM     35  C   UNL A   1      35.562  32.281  31.803  1.00  0.00     0.021 C 
BRANCH  35  36
ATOM     36  C   UNL A   1      36.708  33.060  32.441  1.00  0.00     0.116 C 
BRANCH  36  37
ATOM     37  N   UNL A   1      36.686  32.980  33.894  1.00  0.00    -0.352 N 
ATOM     38  C   UNL A   1      37.487  32.250  34.740  1.00  0.00     0.251 C 
ATOM     39  H   UNL A   1      35.998  33.528  34.336  1.00  0.00     0.163 HD
ATOM     40  O   UNL A   1      37.208  32.148  35.930  1.00  0.00    -0.269 OA
BRANCH  38  41
ATOM     41  C   UNL A   1      38.683  31.564  34.207  1.00  0.00     0.039 A 
ATOM     42  C   UNL A   1      38.516  30.516  33.296  1.00  0.00     0.014 A 
ATOM     43  C   UNL A   1      39.965  31.958  34.599  1.00  0.00     0.014 A 
ATOM     44  C   UNL A   1      39.637  29.918  32.717  1.00  0.00     0.010 A 
ATOM     45  C   UNL A   1      41.079  31.405  33.974  1.00  0.00     0.010 A 
ATOM     46  C   UNL A   1      40.926  30.388  33.020  1.00  0.00    -0.014 A 
BRANCH  46  47
ATOM     47  C   UNL A   1      42.129  29.853  32.333  1.00  0.00     0.031 A 
ATOM     48  C   UNL A   1      42.845  28.655  32.885  1.00  0.00     0.074 A 
ATOM     49  C   UNL A   1      42.627  30.506  31.266  1.00  0.00     0.049 A 
ATOM     50  N   UNL A   1      43.966  28.106  32.490  1.00  0.00    -0.248 NA
ATOM     51  C   UNL A   1      42.232  28.003  34.051  1.00  0.00     0.031 C 
ATOM     52  C   UNL A   1      42.038  31.700  30.655  1.00  0.00     0.029 A 
ATOM     53  N   UNL A   1      43.750  30.268  30.514  1.00  0.00    -0.354 N 
ATOM     54  C   UNL A   1      44.203  27.059  33.370  1.00  0.00     0.074 A 
ATOM     55  C   UNL A   1      43.133  27.077  34.346  1.00  0.00     0.031 C 
ATOM     56  C   UNL A   1      42.790  32.074  29.609  1.00  0.00     0.029 A 
ATOM     57  C   UNL A   1      43.939  31.178  29.503  1.00  0.00     0.049 A 
ATOM     58  H   UNL A   1      44.362  29.516  30.684  1.00  0.00     0.167 HD
ATOM     59  C   UNL A   1      45.211  26.154  33.353  1.00  0.00     0.037 A 
ATOM     60  C   UNL A   1      44.932  31.286  28.601  1.00  0.00     0.037 A 
ATOM     61  C   UNL A   1      46.258  26.127  32.366  1.00  0.00     0.049 A 
ATOM     62  C   UNL A   1      46.067  30.299  28.635  1.00  0.00     0.074 A 
ATOM     63  C   UNL A   1      47.272  25.200  32.208  1.00  0.00     0.029 A 
ATOM     64  N   UNL A   1      46.432  27.083  31.375  1.00  0.00    -0.354 N 
ATOM     65  N   UNL A   1      46.241  29.266  29.422  1.00  0.00    -0.248 NA
ATOM     66  C   UNL A   1      47.150  30.503  27.663  1.00  0.00     0.031 C 
ATOM     67  C   UNL A   1      48.094  25.625  31.158  1.00  0.00     0.029 A 
ATOM     68  C   UNL A   1      47.564  26.792  30.630  1.00  0.00     0.049 A 
ATOM     69  H   UNL A   1      45.839  27.854  31.223  1.00  0.00     0.167 HD
ATOM     70  C   UNL A   1      47.437  28.683  29.029  1.00  0.00     0.074 A 
ATOM     71  C   UNL A   1      47.942  29.472  27.923  1.00  0.00     0.031 C 
ATOM     72  C   UNL A   1      48.059  27.591  29.538  1.00  0.00     0.037 A 
BRANCH  59  73
ATOM     73  C   UNL A   1      45.235  25.127  34.449  1.00  0.00     0.064 A 
ATOM     74  C   UNL A   1      44.712  23.837  34.265  1.00  0.00     0.173 A 
ATOM     75  C   UNL A   1      45.798  25.434  35.696  1.00  0.00     0.173 A 
ATOM     76  F   UNL A   1      44.154  23.494  33.094  1.00  0.00    -0.203 F 
ATOM     77  C   UNL A   1      44.716  22.908  35.303  1.00  0.00     0.198 A 
ATOM     78  C   UNL A   1      45.829  24.491  36.722  1.00  0.00     0.198 A 
ATOM     79  F   UNL A   1      46.318  26.649  35.924  1.00  0.00    -0.203 F 
ATOM     80  F   UNL A   1      44.155  21.704  35.123  1.00  0.00    -0.200 F 
ATOM     81  C   UNL A   1      45.277  23.234  36.528  1.00  0.00     0.200 A 
ATOM     82  F   UNL A   1      46.383  24.804  37.901  1.00  0.00    -0.200 F 
ATOM     83  F   UNL A   1      45.277  22.339  37.526  1.00  0.00    -0.200 F 
ENDBRANCH  59  73
BRANCH  60  84
ATOM     84  C   UNL A   1      44.883  32.356  27.572  1.00  0.00     0.064 A 
ATOM     85  C   UNL A   1      45.591  33.553  27.756  1.00  0.00     0.173 A 
ATOM     86  C   UNL A   1      44.151  32.205  26.386  1.00  0.00     0.173 A 
ATOM     87  F   UNL A   1      46.287  33.750  28.885  1.00  0.00    -0.203 F 
ATOM     88  C   UNL A   1      45.562  34.560  26.795  1.00  0.00     0.198 A 
ATOM     89  C   UNL A   1      44.144  33.204  25.415  1.00  0.00     0.198 A 
ATOM     90  F   UNL A   1      43.459  31.079  26.162  1.00  0.00    -0.203 F 
ATOM     91  F   UNL A   1      46.222  35.706  27.010  1.00  0.00    -0.200 F 
ATOM     92  C   UNL A   1      44.846  34.382  25.622  1.00  0.00     0.200 A 
ATOM     93  F   UNL A   1      43.462  33.022  24.276  1.00  0.00    -0.200 F 
ATOM     94  F   UNL A   1      44.827  35.347  24.692  1.00  0.00    -0.200 F 
ENDBRANCH  60  84
BRANCH  72  95
ATOM     95  C   UNL A   1      49.353  27.176  28.899  1.00  0.00     0.064 A 
ATOM     96  C   UNL A   1      49.388  26.225  27.868  1.00  0.00     0.173 A 
ATOM     97  C   UNL A   1      50.562  27.774  29.284  1.00  0.00     0.173 A 
ATOM     98  F   UNL A   1      48.260  25.610  27.479  1.00  0.00    -0.203 F 
ATOM     99  C   UNL A   1      50.588  25.879  27.256  1.00  0.00     0.198 A 
ATOM    100  C   UNL A   1      51.756  27.447  28.649  1.00  0.00     0.198 A 
ATOM    101  F   UNL A   1      50.582  28.691  30.262  1.00  0.00    -0.203 F 
ATOM    102  F   UNL A   1      50.603  24.941  26.298  1.00  0.00    -0.200 F 
ATOM    103  C   UNL A   1      51.770  26.497  27.639  1.00  0.00     0.200 A 
ATOM    104  F   UNL A   1      52.896  28.053  29.012  1.00  0.00    -0.200 F 
ATOM    105  F   UNL A   1      52.923  26.172  27.038  1.00  0.00    -0.200 F 
ENDBRANCH  72  95
ENDBRANCH  46  47
ENDBRANCH  38  41
ENDBRANCH  36  37
ENDBRANCH  35  36
ENDBRANCH  34  35
ENDBRANCH   1  34
TORSDOF 17
ENDMDL
