MODEL 1
REMARK VINA RESULT:     -12.0      0.000      0.000
REMARK SMILES COc1cccc(-c2cc(OCC(=O)NCCCCCCNC(=O)c3ccc(-c4c5nc(c(-c6c(F)c(F)c(F)c(F)c6F)c6ccc([nH]6)c(-c6c(F)c(F)c(F)c(F)c6F)c6nc(c(-c7c(F)c(F)c(F)c(F)c7F)c7ccc4[nH]7)C=C6)C=C5)cc3)nc(Nc3ccccc3Br)n2)c1
REMARK SMILES IDX 17 1 16 2 15 3 13 4 14 5 12 7 11 8 10 9 8 10 9 11 98 12
REMARK SMILES IDX 89 13 88 14 7 15 3 16 4 17 99 18 5 19 6 20 2 21 1 22 90 23
REMARK SMILES IDX 91 25 92 26 96 27 93 28 95 29 97 30 94 31 18 32 19 33 20 34
REMARK SMILES IDX 21 35 22 36 23 37 24 39 25 40 26 41 87 42 27 43 86 44 28 45
REMARK SMILES IDX 29 46 30 47 80 48 31 49 85 50 79 51 81 52 32 53 84 54 78 55
REMARK SMILES IDX 77 56 33 58 65 59 45 60 64 61 46 62 49 63 63 64 82 65 47 66
REMARK SMILES IDX 48 67 62 69 83 70 50 71 34 72 35 73 43 74 36 75 37 76 41 77
REMARK SMILES IDX 44 78 38 79 39 80 42 81 40 82 66 83 67 84 75 85 68 86 69 87
REMARK SMILES IDX 73 88 76 89 70 90 71 91 74 92 72 93 51 94 52 95 60 96 53 97
REMARK SMILES IDX 54 98 58 99 61 100 55 101 56 102 59 103 57 104
REMARK H PARENT 15 6 90 24 22 38 81 57 49 68
REMARK Flexibility Score: inf
ROOT
ATOM      1  C   UNL A   1      32.637  23.523  23.697  1.00  0.00     0.021 C 
ENDROOT
BRANCH   1   2
ATOM      2  C   UNL A   1      31.127  23.706  23.841  1.00  0.00     0.116 C 
BRANCH   2   3
ATOM      3  N   UNL A   1      30.667  23.342  25.166  1.00  0.00    -0.353 N 
ATOM      4  C   UNL A   1      30.450  24.152  26.239  1.00  0.00     0.258 C 
ATOM      5  O   UNL A   1      30.077  23.646  27.298  1.00  0.00    -0.271 OA
ATOM      6  H   UNL A   1      30.490  22.385  25.310  1.00  0.00     0.163 HD
BRANCH   4   7
ATOM      7  C   UNL A   1      30.647  25.668  26.103  1.00  0.00     0.331 C 
BRANCH   7   8
ATOM      8  O   UNL A   1      31.584  26.282  26.971  1.00  0.00    -0.467 OA
BRANCH   8   9
ATOM      9  C   UNL A   1      32.072  27.511  26.628  1.00  0.00     0.219 A 
ATOM     10  C   UNL A   1      33.452  29.385  26.774  1.00  0.00     0.080 A 
ATOM     11  C   UNL A   1      33.046  28.188  27.315  1.00  0.00     0.097 A 
ATOM     12  N   UNL A   1      32.898  29.896  25.665  1.00  0.00    -0.212 NA
ATOM     13  C   UNL A   1      31.948  29.176  25.054  1.00  0.00     0.231 A 
ATOM     14  N   UNL A   1      31.505  27.997  25.511  1.00  0.00    -0.177 NA
BRANCH  10  15
ATOM     15  C   UNL A   1      34.538  30.159  27.374  1.00  0.00     0.004 A 
ATOM     16  C   UNL A   1      35.417  32.285  28.176  1.00  0.00     0.119 A 
ATOM     17  C   UNL A   1      36.664  31.695  28.369  1.00  0.00     0.046 A 
ATOM     18  C   UNL A   1      34.365  31.526  27.662  1.00  0.00     0.056 A 
ATOM     19  C   UNL A   1      36.846  30.336  28.114  1.00  0.00     0.005 A 
ATOM     20  C   UNL A   1      35.785  29.569  27.632  1.00  0.00     0.010 A 
BRANCH  16  21
ATOM     21  O   UNL A   1      35.331  33.624  28.444  1.00  0.00    -0.497 OA
ATOM     22  C   UNL A   1      34.300  33.967  29.367  1.00  0.00     0.278 C 
ENDBRANCH  16  21
ENDBRANCH  10  15
BRANCH  13  23
ATOM     23  N   UNL A   1      31.338  29.675  23.905  1.00  0.00    -0.323 N 
ATOM     24  H   UNL A   1      31.937  29.884  23.154  1.00  0.00     0.170 HD
BRANCH  23  25
ATOM     25  C   UNL A   1      29.973  29.916  23.694  1.00  0.00     0.055 A 
ATOM     26  C   UNL A   1      29.483  31.208  23.944  1.00  0.00     0.027 A 
ATOM     27  C   UNL A   1      29.086  28.968  23.147  1.00  0.00     0.041 A 
ATOM     28  C   UNL A   1      28.166  31.556  23.630  1.00  0.00     0.002 A 
ATOM     29  C   UNL A   1      27.766  29.317  22.834  1.00  0.00     0.018 A 
ATOM     30  Br  UNL A   1      29.560  27.135  22.921  1.00  0.00    -0.049 Br
ATOM     31  C   UNL A   1      27.311  30.614  23.067  1.00  0.00     0.001 A 
ENDBRANCH  23  25
ENDBRANCH  13  23
ENDBRANCH   8   9
ENDBRANCH   7   8
ENDBRANCH   4   7
ENDBRANCH   2   3
ENDBRANCH   1   2
BRANCH   1  32
ATOM     32  C   UNL A   1      33.460  24.801  23.914  1.00  0.00     0.002 C 
BRANCH  32  33
ATOM     33  C   UNL A   1      34.585  24.695  24.948  1.00  0.00     0.002 C 
BRANCH  33  34
ATOM     34  C   UNL A   1      35.448  23.436  24.848  1.00  0.00     0.021 C 
BRANCH  34  35
ATOM     35  C   UNL A   1      36.243  23.103  26.105  1.00  0.00     0.116 C 
BRANCH  35  36
ATOM     36  N   UNL A   1      37.138  21.973  25.911  1.00  0.00    -0.352 N 
ATOM     37  C   UNL A   1      38.503  21.914  26.026  1.00  0.00     0.251 C 
ATOM     38  H   UNL A   1      36.700  21.128  25.661  1.00  0.00     0.163 HD
ATOM     39  O   UNL A   1      39.114  20.916  25.648  1.00  0.00    -0.269 OA
BRANCH  37  40
ATOM     40  C   UNL A   1      39.252  23.063  26.580  1.00  0.00     0.039 A 
ATOM     41  C   UNL A   1      40.206  22.831  27.574  1.00  0.00     0.014 A 
ATOM     42  C   UNL A   1      39.016  24.363  26.125  1.00  0.00     0.014 A 
ATOM     43  C   UNL A   1      40.970  23.893  28.062  1.00  0.00     0.010 A 
ATOM     44  C   UNL A   1      39.829  25.407  26.558  1.00  0.00     0.010 A 
ATOM     45  C   UNL A   1      40.815  25.185  27.531  1.00  0.00    -0.014 A 
BRANCH  45  46
ATOM     46  C   UNL A   1      41.681  26.308  27.973  1.00  0.00     0.031 A 
ATOM     47  C   UNL A   1      41.138  27.369  28.889  1.00  0.00     0.074 A 
ATOM     48  C   UNL A   1      42.941  26.403  27.502  1.00  0.00     0.049 A 
ATOM     49  N   UNL A   1      41.714  28.462  29.324  1.00  0.00    -0.248 NA
ATOM     50  C   UNL A   1      39.757  27.190  29.365  1.00  0.00     0.031 C 
ATOM     51  C   UNL A   1      43.572  25.460  26.577  1.00  0.00     0.029 A 
ATOM     52  N   UNL A   1      43.915  27.345  27.729  1.00  0.00    -0.354 N 
ATOM     53  C   UNL A   1      40.767  29.099  30.116  1.00  0.00     0.074 A 
ATOM     54  C   UNL A   1      39.561  28.304  30.056  1.00  0.00     0.031 C 
ATOM     55  C   UNL A   1      44.830  25.859  26.330  1.00  0.00     0.029 A 
ATOM     56  C   UNL A   1      45.082  27.107  27.043  1.00  0.00     0.049 A 
ATOM     57  H   UNL A   1      43.788  28.117  28.327  1.00  0.00     0.167 HD
ATOM     58  C   UNL A   1      40.901  30.232  30.846  1.00  0.00     0.037 A 
ATOM     59  C   UNL A   1      46.221  27.825  26.984  1.00  0.00     0.037 A 
ATOM     60  C   UNL A   1      42.107  31.014  30.917  1.00  0.00     0.049 A 
ATOM     61  C   UNL A   1      46.328  29.098  27.781  1.00  0.00     0.074 A 
ATOM     62  C   UNL A   1      42.352  32.156  31.660  1.00  0.00     0.029 A 
ATOM     63  N   UNL A   1      43.271  30.736  30.216  1.00  0.00    -0.354 N 
ATOM     64  N   UNL A   1      45.446  29.656  28.575  1.00  0.00    -0.248 NA
ATOM     65  C   UNL A   1      47.594  29.839  27.680  1.00  0.00     0.031 C 
ATOM     66  C   UNL A   1      43.647  32.596  31.372  1.00  0.00     0.029 A 
ATOM     67  C   UNL A   1      44.231  31.697  30.494  1.00  0.00     0.049 A 
ATOM     68  H   UNL A   1      43.397  29.970  29.611  1.00  0.00     0.167 HD
ATOM     69  C   UNL A   1      46.061  30.788  29.092  1.00  0.00     0.074 A 
ATOM     70  C   UNL A   1      47.397  30.829  28.537  1.00  0.00     0.031 C 
ATOM     71  C   UNL A   1      45.563  31.714  29.948  1.00  0.00     0.037 A 
BRANCH  58  72
ATOM     72  C   UNL A   1      39.715  30.695  31.644  1.00  0.00     0.064 A 
ATOM     73  C   UNL A   1      39.426  30.156  32.907  1.00  0.00     0.173 A 
ATOM     74  C   UNL A   1      38.898  31.734  31.173  1.00  0.00     0.173 A 
ATOM     75  F   UNL A   1      40.169  29.153  33.399  1.00  0.00    -0.203 F 
ATOM     76  C   UNL A   1      38.353  30.625  33.659  1.00  0.00     0.198 A 
ATOM     77  C   UNL A   1      37.845  32.223  31.942  1.00  0.00     0.198 A 
ATOM     78  F   UNL A   1      39.135  32.290  29.976  1.00  0.00    -0.203 F 
ATOM     79  F   UNL A   1      38.074  30.068  34.846  1.00  0.00    -0.200 F 
ATOM     80  C   UNL A   1      37.571  31.665  33.182  1.00  0.00     0.200 A 
ATOM     81  F   UNL A   1      37.100  33.239  31.485  1.00  0.00    -0.200 F 
ATOM     82  F   UNL A   1      36.550  32.129  33.915  1.00  0.00    -0.200 F 
ENDBRANCH  58  72
BRANCH  59  83
ATOM     83  C   UNL A   1      47.359  27.362  26.143  1.00  0.00     0.064 A 
ATOM     84  C   UNL A   1      48.412  26.622  26.699  1.00  0.00     0.173 A 
ATOM     85  C   UNL A   1      47.440  27.686  24.781  1.00  0.00     0.173 A 
ATOM     86  F   UNL A   1      48.393  26.304  28.002  1.00  0.00    -0.203 F 
ATOM     87  C   UNL A   1      49.517  26.255  25.934  1.00  0.00     0.198 A 
ATOM     88  C   UNL A   1      48.529  27.288  24.009  1.00  0.00     0.198 A 
ATOM     89  F   UNL A   1      46.457  28.389  24.197  1.00  0.00    -0.203 F 
ATOM     90  F   UNL A   1      50.540  25.606  26.507  1.00  0.00    -0.200 F 
ATOM     91  C   UNL A   1      49.575  26.585  24.589  1.00  0.00     0.200 A 
ATOM     92  F   UNL A   1      48.571  27.596  22.705  1.00  0.00    -0.200 F 
ATOM     93  F   UNL A   1      50.640  26.239  23.855  1.00  0.00    -0.200 F 
ENDBRANCH  59  83
BRANCH  71  94
ATOM     94  C   UNL A   1      46.481  32.824  30.376  1.00  0.00     0.064 A 
ATOM     95  C   UNL A   1      47.300  32.709  31.509  1.00  0.00     0.173 A 
ATOM     96  C   UNL A   1      46.571  34.001  29.617  1.00  0.00     0.173 A 
ATOM     97  F   UNL A   1      47.242  31.611  32.276  1.00  0.00    -0.203 F 
ATOM     98  C   UNL A   1      48.153  33.746  31.882  1.00  0.00     0.198 A 
ATOM     99  C   UNL A   1      47.448  35.019  29.973  1.00  0.00     0.198 A 
ATOM    100  F   UNL A   1      45.815  34.158  28.519  1.00  0.00    -0.203 F 
ATOM    101  F   UNL A   1      48.886  33.636  32.998  1.00  0.00    -0.200 F 
ATOM    102  C   UNL A   1      48.232  34.895  31.110  1.00  0.00     0.200 A 
ATOM    103  F   UNL A   1      47.537  36.123  29.217  1.00  0.00    -0.200 F 
ATOM    104  F   UNL A   1      49.060  35.887  31.467  1.00  0.00    -0.200 F 
ENDBRANCH  71  94
ENDBRANCH  45  46
ENDBRANCH  37  40
ENDBRANCH  35  36
ENDBRANCH  34  35
ENDBRANCH  33  34
ENDBRANCH  32  33
ENDBRANCH   1  32
TORSDOF 19
ENDMDL
MODEL 2
REMARK VINA RESULT:     -11.7      1.138      6.941
REMARK SMILES COc1cccc(-c2cc(OCC(=O)NCCCCCCNC(=O)c3ccc(-c4c5nc(c(-c6c(F)c(F)c(F)c(F)c6F)c6ccc([nH]6)c(-c6c(F)c(F)c(F)c(F)c6F)c6nc(c(-c7c(F)c(F)c(F)c(F)c7F)c7ccc4[nH]7)C=C6)C=C5)cc3)nc(Nc3ccccc3Br)n2)c1
REMARK SMILES IDX 17 1 16 2 15 3 13 4 14 5 12 7 11 8 10 9 8 10 9 11 98 12
REMARK SMILES IDX 89 13 88 14 7 15 3 16 4 17 99 18 5 19 6 20 2 21 1 22 90 23
REMARK SMILES IDX 91 25 92 26 96 27 93 28 95 29 97 30 94 31 18 32 19 33 20 34
REMARK SMILES IDX 21 35 22 36 23 37 24 39 25 40 26 41 87 42 27 43 86 44 28 45
REMARK SMILES IDX 29 46 30 47 80 48 31 49 85 50 79 51 81 52 32 53 84 54 78 55
REMARK SMILES IDX 77 56 33 58 65 59 45 60 64 61 46 62 49 63 63 64 82 65 47 66
REMARK SMILES IDX 48 67 62 69 83 70 50 71 34 72 35 73 43 74 36 75 37 76 41 77
REMARK SMILES IDX 44 78 38 79 39 80 42 81 40 82 66 83 67 84 75 85 68 86 69 87
REMARK SMILES IDX 73 88 76 89 70 90 71 91 74 92 72 93 51 94 52 95 60 96 53 97
REMARK SMILES IDX 54 98 58 99 61 100 55 101 56 102 59 103 57 104
REMARK H PARENT 15 6 90 24 22 38 81 57 49 68
REMARK Flexibility Score: inf
ROOT
ATOM      1  C   UNL A   1      33.321  21.668  25.046  1.00  0.00     0.021 C 
ENDROOT
BRANCH   1   2
ATOM      2  C   UNL A   1      31.819  21.488  24.833  1.00  0.00     0.116 C 
BRANCH   2   3
ATOM      3  N   UNL A   1      31.068  21.790  26.034  1.00  0.00    -0.353 N 
ATOM      4  C   UNL A   1      30.773  23.010  26.564  1.00  0.00     0.258 C 
ATOM      5  O   UNL A   1      30.136  23.061  27.617  1.00  0.00    -0.271 OA
ATOM      6  H   UNL A   1      30.726  21.014  26.533  1.00  0.00     0.163 HD
BRANCH   4   7
ATOM      7  C   UNL A   1      31.215  24.286  25.834  1.00  0.00     0.331 C 
BRANCH   7   8
ATOM      8  O   UNL A   1      32.273  25.032  26.413  1.00  0.00    -0.467 OA
BRANCH   8   9
ATOM      9  C   UNL A   1      32.385  26.353  26.083  1.00  0.00     0.219 A 
ATOM     10  C   UNL A   1      33.133  28.553  26.276  1.00  0.00     0.080 A 
ATOM     11  C   UNL A   1      33.081  27.286  26.807  1.00  0.00     0.097 A 
ATOM     12  N   UNL A   1      32.501  28.882  25.141  1.00  0.00    -0.212 NA
ATOM     13  C   UNL A   1      31.837  27.916  24.495  1.00  0.00     0.231 A 
ATOM     14  N   UNL A   1      31.747  26.655  24.939  1.00  0.00    -0.177 NA
BRANCH  10  15
ATOM     15  C   UNL A   1      33.912  29.612  26.918  1.00  0.00     0.004 A 
ATOM     16  C   UNL A   1      34.078  31.898  27.744  1.00  0.00     0.119 A 
ATOM     17  C   UNL A   1      35.436  31.707  27.994  1.00  0.00     0.046 A 
ATOM     18  C   UNL A   1      33.325  30.863  27.191  1.00  0.00     0.056 A 
ATOM     19  C   UNL A   1      36.027  30.466  27.754  1.00  0.00     0.005 A 
ATOM     20  C   UNL A   1      35.265  29.421  27.233  1.00  0.00     0.010 A 
BRANCH  16  21
ATOM     21  O   UNL A   1      33.584  33.148  28.001  1.00  0.00    -0.497 OA
ATOM     22  C   UNL A   1      34.564  34.182  27.950  1.00  0.00     0.278 C 
ENDBRANCH  16  21
ENDBRANCH  10  15
BRANCH  13  23
ATOM     23  N   UNL A   1      31.156  28.217  23.317  1.00  0.00    -0.323 N 
ATOM     24  H   UNL A   1      31.586  27.927  22.482  1.00  0.00     0.170 HD
BRANCH  23  25
ATOM     25  C   UNL A   1      29.931  28.885  23.182  1.00  0.00     0.055 A 
ATOM     26  C   UNL A   1      29.956  30.252  22.859  1.00  0.00     0.027 A 
ATOM     27  C   UNL A   1      28.677  28.246  23.248  1.00  0.00     0.041 A 
ATOM     28  C   UNL A   1      28.777  30.951  22.577  1.00  0.00     0.002 A 
ATOM     29  C   UNL A   1      27.498  28.947  22.967  1.00  0.00     0.018 A 
ATOM     30  Br  UNL A   1      28.479  26.446  23.844  1.00  0.00    -0.049 Br
ATOM     31  C   UNL A   1      27.551  30.296  22.622  1.00  0.00     0.001 A 
ENDBRANCH  23  25
ENDBRANCH  13  23
ENDBRANCH   8   9
ENDBRANCH   7   8
ENDBRANCH   4   7
ENDBRANCH   2   3
ENDBRANCH   1   2
BRANCH   1  32
ATOM     32  C   UNL A   1      34.019  22.530  23.984  1.00  0.00     0.002 C 
BRANCH  32  33
ATOM     33  C   UNL A   1      35.530  22.319  23.851  1.00  0.00     0.002 C 
BRANCH  33  34
ATOM     34  C   UNL A   1      36.399  23.313  24.624  1.00  0.00     0.021 C 
BRANCH  34  35
ATOM     35  C   UNL A   1      36.774  22.873  26.034  1.00  0.00     0.116 C 
BRANCH  35  36
ATOM     36  N   UNL A   1      37.812  21.854  26.039  1.00  0.00    -0.352 N 
ATOM     37  C   UNL A   1      39.159  21.984  26.261  1.00  0.00     0.251 C 
ATOM     38  H   UNL A   1      37.502  20.938  25.855  1.00  0.00     0.163 HD
ATOM     39  O   UNL A   1      39.916  21.039  26.047  1.00  0.00    -0.269 OA
BRANCH  37  40
ATOM     40  C   UNL A   1      39.712  23.272  26.734  1.00  0.00     0.039 A 
ATOM     41  C   UNL A   1      40.496  23.286  27.890  1.00  0.00     0.014 A 
ATOM     42  C   UNL A   1      39.460  24.461  26.045  1.00  0.00     0.014 A 
ATOM     43  C   UNL A   1      41.082  24.480  28.315  1.00  0.00     0.010 A 
ATOM     44  C   UNL A   1      40.105  25.634  26.426  1.00  0.00     0.010 A 
ATOM     45  C   UNL A   1      40.924  25.657  27.565  1.00  0.00    -0.014 A 
BRANCH  45  46
ATOM     46  C   UNL A   1      41.613  26.915  27.952  1.00  0.00     0.031 A 
ATOM     47  C   UNL A   1      43.063  27.120  27.610  1.00  0.00     0.074 A 
ATOM     48  C   UNL A   1      40.948  27.849  28.661  1.00  0.00     0.049 A 
ATOM     49  N   UNL A   1      43.855  28.115  27.925  1.00  0.00    -0.248 NA
ATOM     50  C   UNL A   1      43.717  26.059  26.828  1.00  0.00     0.031 C 
ATOM     51  C   UNL A   1      39.551  27.751  29.088  1.00  0.00     0.029 A 
ATOM     52  N   UNL A   1      41.361  29.061  29.157  1.00  0.00    -0.354 N 
ATOM     53  C   UNL A   1      45.095  27.796  27.386  1.00  0.00     0.074 A 
ATOM     54  C   UNL A   1      44.969  26.492  26.775  1.00  0.00     0.031 C 
ATOM     55  C   UNL A   1      39.217  28.861  29.765  1.00  0.00     0.029 A 
ATOM     56  C   UNL A   1      40.386  29.731  29.857  1.00  0.00     0.049 A 
ATOM     57  H   UNL A   1      42.269  29.417  29.024  1.00  0.00     0.167 HD
ATOM     58  C   UNL A   1      46.229  28.536  27.381  1.00  0.00     0.037 A 
ATOM     59  C   UNL A   1      40.435  30.907  30.514  1.00  0.00     0.037 A 
ATOM     60  C   UNL A   1      46.350  29.841  27.976  1.00  0.00     0.049 A 
ATOM     61  C   UNL A   1      41.720  31.692  30.518  1.00  0.00     0.074 A 
ATOM     62  C   UNL A   1      47.446  30.686  27.987  1.00  0.00     0.029 A 
ATOM     63  N   UNL A   1      45.337  30.491  28.667  1.00  0.00    -0.354 N 
ATOM     64  N   UNL A   1      42.867  31.407  29.951  1.00  0.00    -0.248 NA
ATOM     65  C   UNL A   1      41.715  32.967  31.248  1.00  0.00     0.031 C 
ATOM     66  C   UNL A   1      47.114  31.825  28.727  1.00  0.00     0.029 A 
ATOM     67  C   UNL A   1      45.791  31.717  29.127  1.00  0.00     0.049 A 
ATOM     68  H   UNL A   1      44.431  30.133  28.810  1.00  0.00     0.167 HD
ATOM     69  C   UNL A   1      43.705  32.479  30.225  1.00  0.00     0.074 A 
ATOM     70  C   UNL A   1      42.930  33.430  30.994  1.00  0.00     0.031 C 
ATOM     71  C   UNL A   1      45.003  32.660  29.875  1.00  0.00     0.037 A 
BRANCH  58  72
ATOM     72  C   UNL A   1      47.437  27.961  26.697  1.00  0.00     0.064 A 
ATOM     73  C   UNL A   1      48.444  27.304  27.419  1.00  0.00     0.173 A 
ATOM     74  C   UNL A   1      47.557  28.008  25.300  1.00  0.00     0.173 A 
ATOM     75  F   UNL A   1      48.384  27.240  28.759  1.00  0.00    -0.203 F 
ATOM     76  C   UNL A   1      49.536  26.732  26.771  1.00  0.00     0.198 A 
ATOM     77  C   UNL A   1      48.633  27.407  24.652  1.00  0.00     0.198 A 
ATOM     78  F   UNL A   1      46.619  28.617  24.561  1.00  0.00    -0.203 F 
ATOM     79  F   UNL A   1      50.504  26.142  27.486  1.00  0.00    -0.200 F 
ATOM     80  C   UNL A   1      49.624  26.774  25.389  1.00  0.00     0.200 A 
ATOM     81  F   UNL A   1      48.709  27.435  23.314  1.00  0.00    -0.200 F 
ATOM     82  F   UNL A   1      50.665  26.207  24.764  1.00  0.00    -0.200 F 
ENDBRANCH  58  72
BRANCH  59  83
ATOM     83  C   UNL A   1      39.232  31.424  31.223  1.00  0.00     0.064 A 
ATOM     84  C   UNL A   1      38.950  31.039  32.542  1.00  0.00     0.173 A 
ATOM     85  C   UNL A   1      38.320  32.276  30.585  1.00  0.00     0.173 A 
ATOM     86  F   UNL A   1      39.781  30.208  33.189  1.00  0.00    -0.203 F 
ATOM     87  C   UNL A   1      37.785  31.456  33.181  1.00  0.00     0.198 A 
ATOM     88  C   UNL A   1      37.172  32.722  31.239  1.00  0.00     0.198 A 
ATOM     89  F   UNL A   1      38.543  32.680  29.326  1.00  0.00    -0.203 F 
ATOM     90  F   UNL A   1      37.508  31.019  34.417  1.00  0.00    -0.200 F 
ATOM     91  C   UNL A   1      36.898  32.300  32.531  1.00  0.00     0.200 A 
ATOM     92  F   UNL A   1      36.326  33.551  30.611  1.00  0.00    -0.200 F 
ATOM     93  F   UNL A   1      35.774  32.697  33.143  1.00  0.00    -0.200 F 
ENDBRANCH  59  83
BRANCH  71  94
ATOM     94  C   UNL A   1      45.652  33.954  30.277  1.00  0.00     0.064 A 
ATOM     95  C   UNL A   1      46.367  34.081  31.477  1.00  0.00     0.173 A 
ATOM     96  C   UNL A   1      45.592  35.070  29.428  1.00  0.00     0.173 A 
ATOM     97  F   UNL A   1      46.443  33.048  32.330  1.00  0.00    -0.203 F 
ATOM     98  C   UNL A   1      46.972  35.286  31.825  1.00  0.00     0.198 A 
ATOM     99  C   UNL A   1      46.225  36.262  29.763  1.00  0.00     0.198 A 
ATOM    100  F   UNL A   1      44.927  35.000  28.264  1.00  0.00    -0.203 F 
ATOM    101  F   UNL A   1      47.603  35.400  33.001  1.00  0.00    -0.200 F 
ATOM    102  C   UNL A   1      46.907  36.372  30.965  1.00  0.00     0.200 A 
ATOM    103  F   UNL A   1      46.177  37.306  28.923  1.00  0.00    -0.200 F 
ATOM    104  F   UNL A   1      47.497  37.528  31.299  1.00  0.00    -0.200 F 
ENDBRANCH  71  94
ENDBRANCH  45  46
ENDBRANCH  37  40
ENDBRANCH  35  36
ENDBRANCH  34  35
ENDBRANCH  33  34
ENDBRANCH  32  33
ENDBRANCH   1  32
TORSDOF 19
ENDMDL
MODEL 3
REMARK VINA RESULT:     -11.5      1.831      7.819
REMARK SMILES COc1cccc(-c2cc(OCC(=O)NCCCCCCNC(=O)c3ccc(-c4c5nc(c(-c6c(F)c(F)c(F)c(F)c6F)c6ccc([nH]6)c(-c6c(F)c(F)c(F)c(F)c6F)c6nc(c(-c7c(F)c(F)c(F)c(F)c7F)c7ccc4[nH]7)C=C6)C=C5)cc3)nc(Nc3ccccc3Br)n2)c1
REMARK SMILES IDX 17 1 16 2 15 3 13 4 14 5 12 7 11 8 10 9 8 10 9 11 98 12
REMARK SMILES IDX 89 13 88 14 7 15 3 16 4 17 99 18 5 19 6 20 2 21 1 22 90 23
REMARK SMILES IDX 91 25 92 26 96 27 93 28 95 29 97 30 94 31 18 32 19 33 20 34
REMARK SMILES IDX 21 35 22 36 23 37 24 39 25 40 26 41 87 42 27 43 86 44 28 45
REMARK SMILES IDX 29 46 30 47 80 48 31 49 85 50 79 51 81 52 32 53 84 54 78 55
REMARK SMILES IDX 77 56 33 58 65 59 45 60 64 61 46 62 49 63 63 64 82 65 47 66
REMARK SMILES IDX 48 67 62 69 83 70 50 71 34 72 35 73 43 74 36 75 37 76 41 77
REMARK SMILES IDX 44 78 38 79 39 80 42 81 40 82 66 83 67 84 75 85 68 86 69 87
REMARK SMILES IDX 73 88 76 89 70 90 71 91 74 92 72 93 51 94 52 95 60 96 53 97
REMARK SMILES IDX 54 98 58 99 61 100 55 101 56 102 59 103 57 104
REMARK H PARENT 15 6 90 24 22 38 81 57 49 68
REMARK Flexibility Score: inf
ROOT
ATOM      1  C   UNL A   1      33.452  20.406  25.847  1.00  0.00     0.021 C 
ENDROOT
BRANCH   1   2
ATOM      2  C   UNL A   1      32.145  21.010  25.336  1.00  0.00     0.116 C 
BRANCH   2   3
ATOM      3  N   UNL A   1      31.504  21.830  26.343  1.00  0.00    -0.353 N 
ATOM      4  C   UNL A   1      31.089  23.123  26.243  1.00  0.00     0.258 C 
ATOM      5  O   UNL A   1      30.581  23.660  27.229  1.00  0.00    -0.271 OA
ATOM      6  H   UNL A   1      31.349  21.397  27.213  1.00  0.00     0.163 HD
BRANCH   4   7
ATOM      7  C   UNL A   1      31.237  23.872  24.912  1.00  0.00     0.331 C 
BRANCH   7   8
ATOM      8  O   UNL A   1      32.256  24.853  24.828  1.00  0.00    -0.467 OA
BRANCH   8   9
ATOM      9  C   UNL A   1      31.891  26.168  24.876  1.00  0.00     0.219 A 
ATOM     10  C   UNL A   1      30.682  28.078  24.301  1.00  0.00     0.080 A 
ATOM     11  C   UNL A   1      30.964  26.756  24.054  1.00  0.00     0.097 A 
ATOM     12  N   UNL A   1      31.309  28.779  25.257  1.00  0.00    -0.212 NA
ATOM     13  C   UNL A   1      32.206  28.136  26.015  1.00  0.00     0.231 A 
ATOM     14  N   UNL A   1      32.529  26.846  25.846  1.00  0.00    -0.177 NA
BRANCH  10  15
ATOM     15  C   UNL A   1      29.654  28.789  23.541  1.00  0.00     0.004 A 
ATOM     16  C   UNL A   1      28.926  30.772  22.328  1.00  0.00     0.119 A 
ATOM     17  C   UNL A   1      27.643  30.237  22.226  1.00  0.00     0.046 A 
ATOM     18  C   UNL A   1      29.920  30.061  22.999  1.00  0.00     0.056 A 
ATOM     19  C   UNL A   1      27.369  28.968  22.736  1.00  0.00     0.005 A 
ATOM     20  C   UNL A   1      28.373  28.242  23.377  1.00  0.00     0.010 A 
BRANCH  16  21
ATOM     21  O   UNL A   1      29.103  32.025  21.808  1.00  0.00    -0.497 OA
ATOM     22  C   UNL A   1      28.718  33.079  22.687  1.00  0.00     0.278 C 
ENDBRANCH  16  21
ENDBRANCH  10  15
BRANCH  13  23
ATOM     23  N   UNL A   1      32.888  28.829  27.012  1.00  0.00    -0.323 N 
ATOM     24  H   UNL A   1      33.315  28.279  27.707  1.00  0.00     0.170 HD
BRANCH  23  25
ATOM     25  C   UNL A   1      33.038  30.216  27.144  1.00  0.00     0.055 A 
ATOM     26  C   UNL A   1      31.926  31.030  26.875  1.00  0.00     0.027 A 
ATOM     27  C   UNL A   1      34.207  30.836  27.629  1.00  0.00     0.041 A 
ATOM     28  C   UNL A   1      31.962  32.408  27.112  1.00  0.00     0.002 A 
ATOM     29  C   UNL A   1      34.242  32.216  27.865  1.00  0.00     0.018 A 
ATOM     30  Br  UNL A   1      35.843  29.887  27.869  1.00  0.00    -0.049 Br
ATOM     31  C   UNL A   1      33.116  32.999  27.616  1.00  0.00     0.001 A 
ENDBRANCH  23  25
ENDBRANCH  13  23
ENDBRANCH   8   9
ENDBRANCH   7   8
ENDBRANCH   4   7
ENDBRANCH   2   3
ENDBRANCH   1   2
BRANCH   1  32
ATOM     32  C   UNL A   1      34.617  20.464  24.848  1.00  0.00     0.002 C 
BRANCH  32  33
ATOM     33  C   UNL A   1      34.909  21.845  24.254  1.00  0.00     0.002 C 
BRANCH  33  34
ATOM     34  C   UNL A   1      36.365  22.304  24.352  1.00  0.00     0.021 C 
BRANCH  34  35
ATOM     35  C   UNL A   1      36.932  22.334  25.767  1.00  0.00     0.116 C 
BRANCH  35  36
ATOM     36  N   UNL A   1      37.959  21.324  25.973  1.00  0.00    -0.352 N 
ATOM     37  C   UNL A   1      39.272  21.479  26.335  1.00  0.00     0.251 C 
ATOM     38  H   UNL A   1      37.668  20.395  25.832  1.00  0.00     0.163 HD
ATOM     39  O   UNL A   1      40.045  20.524  26.286  1.00  0.00    -0.269 OA
BRANCH  37  40
ATOM     40  C   UNL A   1      39.774  22.805  26.759  1.00  0.00     0.039 A 
ATOM     41  C   UNL A   1      40.729  22.871  27.775  1.00  0.00     0.014 A 
ATOM     42  C   UNL A   1      39.305  23.977  26.160  1.00  0.00     0.014 A 
ATOM     43  C   UNL A   1      41.264  24.108  28.144  1.00  0.00     0.010 A 
ATOM     44  C   UNL A   1      39.892  25.199  26.475  1.00  0.00     0.010 A 
ATOM     45  C   UNL A   1      40.879  25.279  27.471  1.00  0.00    -0.014 A 
BRANCH  45  46
ATOM     46  C   UNL A   1      41.503  26.589  27.787  1.00  0.00     0.031 A 
ATOM     47  C   UNL A   1      42.932  26.860  27.406  1.00  0.00     0.074 A 
ATOM     48  C   UNL A   1      40.798  27.516  28.467  1.00  0.00     0.049 A 
ATOM     49  N   UNL A   1      43.672  27.910  27.661  1.00  0.00    -0.248 NA
ATOM     50  C   UNL A   1      43.631  25.802  26.660  1.00  0.00     0.031 C 
ATOM     51  C   UNL A   1      39.417  27.360  28.927  1.00  0.00     0.029 A 
ATOM     52  N   UNL A   1      41.151  28.771  28.901  1.00  0.00    -0.354 N 
ATOM     53  C   UNL A   1      44.919  27.637  27.112  1.00  0.00     0.074 A 
ATOM     54  C   UNL A   1      44.855  26.301  26.562  1.00  0.00     0.031 C 
ATOM     55  C   UNL A   1      39.034  28.480  29.560  1.00  0.00     0.029 A 
ATOM     56  C   UNL A   1      40.153  29.416  29.590  1.00  0.00     0.049 A 
ATOM     57  H   UNL A   1      42.035  29.170  28.733  1.00  0.00     0.167 HD
ATOM     58  C   UNL A   1      46.009  28.438  27.051  1.00  0.00     0.037 A 
ATOM     59  C   UNL A   1      40.147  30.622  30.193  1.00  0.00     0.037 A 
ATOM     60  C   UNL A   1      46.066  29.773  27.584  1.00  0.00     0.049 A 
ATOM     61  C   UNL A   1      41.385  31.476  30.135  1.00  0.00     0.074 A 
ATOM     62  C   UNL A   1      47.113  30.678  27.536  1.00  0.00     0.029 A 
ATOM     63  N   UNL A   1      45.031  30.396  28.266  1.00  0.00    -0.354 N 
ATOM     64  N   UNL A   1      42.536  31.230  29.558  1.00  0.00    -0.248 NA
ATOM     65  C   UNL A   1      41.321  32.782  30.809  1.00  0.00     0.031 C 
ATOM     66  C   UNL A   1      46.730  31.828  28.231  1.00  0.00     0.029 A 
ATOM     67  C   UNL A   1      45.423  31.665  28.662  1.00  0.00     0.049 A 
ATOM     68  H   UNL A   1      44.149  29.995  28.444  1.00  0.00     0.167 HD
ATOM     69  C   UNL A   1      43.317  32.359  29.768  1.00  0.00     0.074 A 
ATOM     70  C   UNL A   1      42.503  33.299  30.510  1.00  0.00     0.031 C 
ATOM     71  C   UNL A   1      44.596  32.596  29.384  1.00  0.00     0.037 A 
BRANCH  58  72
ATOM     72  C   UNL A   1      47.235  27.900  26.369  1.00  0.00     0.064 A 
ATOM     73  C   UNL A   1      48.269  27.290  27.094  1.00  0.00     0.173 A 
ATOM     74  C   UNL A   1      47.348  27.934  24.970  1.00  0.00     0.173 A 
ATOM     75  F   UNL A   1      48.216  27.240  28.435  1.00  0.00    -0.203 F 
ATOM     76  C   UNL A   1      49.379  26.752  26.448  1.00  0.00     0.198 A 
ATOM     77  C   UNL A   1      48.443  27.367  24.326  1.00  0.00     0.198 A 
ATOM     78  F   UNL A   1      46.384  28.499  24.228  1.00  0.00    -0.203 F 
ATOM     79  F   UNL A   1      50.371  26.208  27.166  1.00  0.00    -0.200 F 
ATOM     80  C   UNL A   1      49.460  26.781  25.065  1.00  0.00     0.200 A 
ATOM     81  F   UNL A   1      48.512  27.381  22.987  1.00  0.00    -0.200 F 
ATOM     82  F   UNL A   1      50.520  26.245  24.443  1.00  0.00    -0.200 F 
ENDBRANCH  58  72
BRANCH  59  83
ATOM     83  C   UNL A   1      38.930  31.103  30.902  1.00  0.00     0.064 A 
ATOM     84  C   UNL A   1      37.987  31.912  30.252  1.00  0.00     0.173 A 
ATOM     85  C   UNL A   1      38.705  30.800  32.253  1.00  0.00     0.173 A 
ATOM     86  F   UNL A   1      38.166  32.247  28.966  1.00  0.00    -0.203 F 
ATOM     87  C   UNL A   1      36.888  32.429  30.934  1.00  0.00     0.198 A 
ATOM     88  C   UNL A   1      37.586  31.290  32.925  1.00  0.00     0.198 A 
ATOM     89  F   UNL A   1      39.572  30.026  32.923  1.00  0.00    -0.203 F 
ATOM     90  F   UNL A   1      36.040  33.254  30.305  1.00  0.00    -0.200 F 
ATOM     91  C   UNL A   1      36.686  32.116  32.269  1.00  0.00     0.200 A 
ATOM     92  F   UNL A   1      37.387  30.970  34.211  1.00  0.00    -0.200 F 
ATOM     93  F   UNL A   1      35.633  32.619  32.927  1.00  0.00    -0.200 F 
ENDBRANCH  59  83
BRANCH  71  94
ATOM     94  C   UNL A   1      45.178  33.941  29.715  1.00  0.00     0.064 A 
ATOM     95  C   UNL A   1      44.979  35.056  28.888  1.00  0.00     0.173 A 
ATOM     96  C   UNL A   1      45.912  34.123  30.897  1.00  0.00     0.173 A 
ATOM     97  F   UNL A   1      44.297  34.932  27.739  1.00  0.00    -0.203 F 
ATOM     98  C   UNL A   1      45.518  36.297  29.218  1.00  0.00     0.198 A 
ATOM     99  C   UNL A   1      46.420  35.371  31.241  1.00  0.00     0.198 A 
ATOM    100  F   UNL A   1      46.125  33.090  31.728  1.00  0.00    -0.203 F 
ATOM    101  F   UNL A   1      45.360  37.335  28.387  1.00  0.00    -0.200 F 
ATOM    102  C   UNL A   1      46.231  36.455  30.398  1.00  0.00     0.200 A 
ATOM    103  F   UNL A   1      47.094  35.527  32.389  1.00  0.00    -0.200 F 
ATOM    104  F   UNL A   1      46.741  37.653  30.717  1.00  0.00    -0.200 F 
ENDBRANCH  71  94
ENDBRANCH  45  46
ENDBRANCH  37  40
ENDBRANCH  35  36
ENDBRANCH  34  35
ENDBRANCH  33  34
ENDBRANCH  32  33
ENDBRANCH   1  32
TORSDOF 19
ENDMDL
