MODEL 1
REMARK VINA RESULT:     -12.2      0.000      0.000
REMARK SMILES C/C(=C/C[N@H+]1C[C@H]2CCC[N@H+]2C[C@@H]1C)C(=O)NCCCCCCNC(=O)c1ccc(-c2c3nc(c(-c4c(F)c(F)c(F)c(F)c4F)c4ccc([nH]4)c(-c4c(F)c(F)c(F)c(F)c4F)c4nc(c(-c5c(F)c(F)c(F)c(F)c5F)c5ccc2[nH]5)C=C4)C=C3)cc1
REMARK SMILES IDX 20 1 19 2 18 3 17 4 15 5 16 6 2 8 1 9 3 10 4 11 5 12 6 13
REMARK SMILES IDX 13 14 7 16 12 17 14 18 8 19 11 20 9 21 10 22 21 24 22 25
REMARK SMILES IDX 23 26 24 27 25 28 26 30 27 31 28 32 89 33 29 34 88 35 30 36
REMARK SMILES IDX 31 37 32 38 82 39 33 40 87 41 81 42 83 43 34 44 86 45 80 46
REMARK SMILES IDX 79 47 35 49 67 50 47 51 66 52 48 53 51 54 65 55 84 56 49 57
REMARK SMILES IDX 50 58 64 60 85 61 52 62 36 63 37 64 45 65 38 66 39 67 43 68
REMARK SMILES IDX 46 69 40 70 41 71 44 72 42 73 68 74 69 75 77 76 70 77 71 78
REMARK SMILES IDX 75 79 78 80 72 81 73 82 76 83 74 84 53 85 54 86 62 87 55 88
REMARK SMILES IDX 56 89 60 90 63 91 57 92 58 93 61 94 59 95
REMARK H PARENT 17 7 5 15 11 23 24 29 83 48 51 59
REMARK Flexibility Score: inf
ROOT
ATOM      1  C   UNL A   1      32.302  29.542  27.017  1.00  0.00     0.002 C 
ENDROOT
BRANCH   1   2
ATOM      2  C   UNL A   1      31.480  28.262  27.178  1.00  0.00     0.021 C 
BRANCH   2   3
ATOM      3  C   UNL A   1      32.165  27.047  26.555  1.00  0.00     0.116 C 
BRANCH   3   4
ATOM      4  N   UNL A   1      31.521  25.809  26.897  1.00  0.00    -0.352 N 
ATOM      5  C   UNL A   1      31.691  24.505  26.621  1.00  0.00     0.246 C 
ATOM      6  O   UNL A   1      30.996  23.762  27.329  1.00  0.00    -0.270 OA
ATOM      7  H   UNL A   1      30.750  25.955  27.492  1.00  0.00     0.163 HD
BRANCH   5   8
ATOM      8  C   UNL A   1      32.609  23.861  25.607  1.00  0.00     0.015 C 
ATOM      9  C   UNL A   1      33.906  23.452  26.309  1.00  0.00     0.050 C 
ATOM     10  C   UNL A   1      32.552  23.542  24.296  1.00  0.00     0.042 C 
BRANCH  10  11
ATOM     11  C   UNL A   1      31.532  23.636  23.212  1.00  0.00     0.292 C 
BRANCH  11  12
ATOM     12  N   UNL A   1      31.353  24.973  22.633  1.00  0.00    -0.320 N 
ATOM     13  C   UNL A   1      30.588  25.931  23.441  1.00  0.00     0.328 C 
ATOM     14  C   UNL A   1      32.607  25.579  22.122  1.00  0.00     0.237 C 
ATOM     15  H   UNL A   1      30.756  24.771  21.831  1.00  0.00     0.348 HD
ATOM     16  C   UNL A   1      30.270  27.195  22.617  1.00  0.00     0.240 C 
ATOM     17  C   UNL A   1      32.696  27.139  22.272  1.00  0.00     0.328 C 
ATOM     18  C   UNL A   1      32.782  25.163  20.658  1.00  0.00     0.081 C 
ATOM     19  C   UNL A   1      29.508  28.240  23.434  1.00  0.00     0.077 C 
ATOM     20  N   UNL A   1      31.446  27.882  22.047  1.00  0.00    -0.323 N 
ATOM     21  C   UNL A   1      30.037  29.559  22.909  1.00  0.00     0.068 C 
ATOM     22  C   UNL A   1      31.489  29.235  22.612  1.00  0.00     0.263 C 
ATOM     23  H   UNL A   1      31.356  27.934  21.032  1.00  0.00     0.348 HD
ENDBRANCH  11  12
ENDBRANCH  10  11
ENDBRANCH   5   8
ENDBRANCH   3   4
ENDBRANCH   2   3
ENDBRANCH   1   2
BRANCH   1  24
ATOM     24  C   UNL A   1      31.661  30.610  26.120  1.00  0.00     0.002 C 
BRANCH  24  25
ATOM     25  C   UNL A   1      31.435  31.967  26.787  1.00  0.00     0.021 C 
BRANCH  25  26
ATOM     26  C   UNL A   1      32.719  32.677  27.198  1.00  0.00     0.116 C 
BRANCH  26  27
ATOM     27  N   UNL A   1      32.476  34.074  27.541  1.00  0.00    -0.352 N 
ATOM     28  C   UNL A   1      33.000  34.818  28.565  1.00  0.00     0.251 C 
ATOM     29  H   UNL A   1      31.847  34.549  26.953  1.00  0.00     0.163 HD
ATOM     30  O   UNL A   1      32.501  35.896  28.877  1.00  0.00    -0.269 OA
BRANCH  28  31
ATOM     31  C   UNL A   1      34.177  34.311  29.289  1.00  0.00     0.039 A 
ATOM     32  C   UNL A   1      34.004  33.577  30.465  1.00  0.00     0.014 A 
ATOM     33  C   UNL A   1      35.457  34.565  28.790  1.00  0.00     0.014 A 
ATOM     34  C   UNL A   1      35.121  33.049  31.114  1.00  0.00     0.010 A 
ATOM     35  C   UNL A   1      36.557  33.970  29.388  1.00  0.00     0.010 A 
ATOM     36  C   UNL A   1      36.401  33.217  30.562  1.00  0.00    -0.014 A 
BRANCH  36  37
ATOM     37  C   UNL A   1      37.614  32.655  31.200  1.00  0.00     0.031 A 
ATOM     38  C   UNL A   1      38.347  31.534  30.520  1.00  0.00     0.074 A 
ATOM     39  C   UNL A   1      37.987  33.075  32.423  1.00  0.00     0.049 A 
ATOM     40  N   UNL A   1      39.320  30.785  30.969  1.00  0.00    -0.248 NA
ATOM     41  C   UNL A   1      37.898  31.186  29.161  1.00  0.00     0.031 C 
ATOM     42  C   UNL A   1      37.332  34.136  33.190  1.00  0.00     0.029 A 
ATOM     43  N   UNL A   1      38.995  32.642  33.246  1.00  0.00    -0.354 N 
ATOM     44  C   UNL A   1      39.580  29.865  29.962  1.00  0.00     0.074 A 
ATOM     45  C   UNL A   1      38.626  30.111  28.903  1.00  0.00     0.031 C 
ATOM     46  C   UNL A   1      37.963  34.279  34.367  1.00  0.00     0.029 A 
ATOM     47  C   UNL A   1      39.031  33.288  34.457  1.00  0.00     0.049 A 
ATOM     48  H   UNL A   1      39.632  31.935  32.992  1.00  0.00     0.167 HD
ATOM     49  C   UNL A   1      40.544  28.915  29.917  1.00  0.00     0.037 A 
ATOM     50  C   UNL A   1      39.825  33.086  35.525  1.00  0.00     0.037 A 
ATOM     51  C   UNL A   1      41.500  28.695  30.968  1.00  0.00     0.049 A 
ATOM     52  C   UNL A   1      40.870  32.003  35.464  1.00  0.00     0.074 A 
ATOM     53  C   UNL A   1      42.547  27.792  31.008  1.00  0.00     0.029 A 
ATOM     54  N   UNL A   1      41.521  29.388  32.171  1.00  0.00    -0.354 N 
ATOM     55  N   UNL A   1      41.144  31.171  34.488  1.00  0.00    -0.248 NA
ATOM     56  C   UNL A   1      41.718  31.831  36.652  1.00  0.00     0.031 C 
ATOM     57  C   UNL A   1      43.167  27.899  32.256  1.00  0.00     0.029 A 
ATOM     58  C   UNL A   1      42.550  28.916  32.968  1.00  0.00     0.049 A 
ATOM     59  H   UNL A   1      40.896  30.107  32.421  1.00  0.00     0.167 HD
ATOM     60  C   UNL A   1      42.220  30.410  34.925  1.00  0.00     0.074 A 
ATOM     61  C   UNL A   1      42.549  30.878  36.254  1.00  0.00     0.031 C 
ATOM     62  C   UNL A   1      42.879  29.417  34.279  1.00  0.00     0.037 A 
BRANCH  49  63
ATOM     63  C   UNL A   1      40.605  28.045  28.695  1.00  0.00     0.064 A 
ATOM     64  C   UNL A   1      41.367  28.402  27.570  1.00  0.00     0.173 A 
ATOM     65  C   UNL A   1      39.912  26.825  28.654  1.00  0.00     0.173 A 
ATOM     66  F   UNL A   1      42.040  29.562  27.551  1.00  0.00    -0.203 F 
ATOM     67  C   UNL A   1      41.400  27.592  26.439  1.00  0.00     0.198 A 
ATOM     68  C   UNL A   1      39.977  26.000  27.534  1.00  0.00     0.198 A 
ATOM     69  F   UNL A   1      39.174  26.431  29.702  1.00  0.00    -0.203 F 
ATOM     70  F   UNL A   1      42.084  27.985  25.355  1.00  0.00    -0.200 F 
ATOM     71  C   UNL A   1      40.712  26.388  26.425  1.00  0.00     0.200 A 
ATOM     72  F   UNL A   1      39.325  24.829  27.529  1.00  0.00    -0.200 F 
ATOM     73  F   UNL A   1      40.750  25.605  25.337  1.00  0.00    -0.200 F 
ENDBRANCH  49  63
BRANCH  50  74
ATOM     74  C   UNL A   1      39.677  33.939  36.734  1.00  0.00     0.064 A 
ATOM     75  C   UNL A   1      38.876  33.526  37.809  1.00  0.00     0.173 A 
ATOM     76  C   UNL A   1      40.324  35.178  36.843  1.00  0.00     0.173 A 
ATOM     77  F   UNL A   1      38.220  32.358  37.745  1.00  0.00    -0.203 F 
ATOM     78  C   UNL A   1      38.710  34.330  38.934  1.00  0.00     0.198 A 
ATOM     79  C   UNL A   1      40.183  35.968  37.983  1.00  0.00     0.198 A 
ATOM     80  F   UNL A   1      41.107  35.618  35.846  1.00  0.00    -0.203 F 
ATOM     81  F   UNL A   1      37.899  33.934  39.924  1.00  0.00    -0.200 F 
ATOM     82  C   UNL A   1      39.368  35.547  39.023  1.00  0.00     0.200 A 
ATOM     83  F   UNL A   1      40.832  37.136  38.071  1.00  0.00    -0.200 F 
ATOM     84  F   UNL A   1      39.211  36.319  40.107  1.00  0.00    -0.200 F 
ENDBRANCH  50  74
BRANCH  62  85
ATOM     85  C   UNL A   1      44.068  28.809  34.965  1.00  0.00     0.064 A 
ATOM     86  C   UNL A   1      43.952  27.688  35.800  1.00  0.00     0.173 A 
ATOM     87  C   UNL A   1      45.354  29.314  34.717  1.00  0.00     0.173 A 
ATOM     88  F   UNL A   1      42.743  27.177  36.079  1.00  0.00    -0.203 F 
ATOM     89  C   UNL A   1      45.080  27.104  36.371  1.00  0.00     0.198 A 
ATOM     90  C   UNL A   1      46.481  28.708  35.263  1.00  0.00     0.198 A 
ATOM     91  F   UNL A   1      45.520  30.381  33.920  1.00  0.00    -0.203 F 
ATOM     92  F   UNL A   1      44.943  26.055  37.194  1.00  0.00    -0.200 F 
ATOM     93  C   UNL A   1      46.343  27.605  36.092  1.00  0.00     0.200 A 
ATOM     94  F   UNL A   1      47.701  29.183  34.978  1.00  0.00    -0.200 F 
ATOM     95  F   UNL A   1      47.428  27.028  36.627  1.00  0.00    -0.200 F 
ENDBRANCH  62  85
ENDBRANCH  36  37
ENDBRANCH  28  31
ENDBRANCH  26  27
ENDBRANCH  25  26
ENDBRANCH  24  25
ENDBRANCH   1  24
TORSDOF 15
ENDMDL
MODEL 2
REMARK VINA RESULT:     -12.0      1.328      2.729
REMARK SMILES C/C(=C/C[N@H+]1C[C@H]2CCC[N@H+]2C[C@@H]1C)C(=O)NCCCCCCNC(=O)c1ccc(-c2c3nc(c(-c4c(F)c(F)c(F)c(F)c4F)c4ccc([nH]4)c(-c4c(F)c(F)c(F)c(F)c4F)c4nc(c(-c5c(F)c(F)c(F)c(F)c5F)c5ccc2[nH]5)C=C4)C=C3)cc1
REMARK SMILES IDX 20 1 19 2 18 3 17 4 15 5 16 6 2 8 1 9 3 10 4 11 5 12 6 13
REMARK SMILES IDX 13 14 7 16 12 17 14 18 8 19 11 20 9 21 10 22 21 24 22 25
REMARK SMILES IDX 23 26 24 27 25 28 26 30 27 31 28 32 89 33 29 34 88 35 30 36
REMARK SMILES IDX 31 37 32 38 82 39 33 40 87 41 81 42 83 43 34 44 86 45 80 46
REMARK SMILES IDX 79 47 35 49 67 50 47 51 66 52 48 53 51 54 65 55 84 56 49 57
REMARK SMILES IDX 50 58 64 60 85 61 52 62 36 63 37 64 45 65 38 66 39 67 43 68
REMARK SMILES IDX 46 69 40 70 41 71 44 72 42 73 68 74 69 75 77 76 70 77 71 78
REMARK SMILES IDX 75 79 78 80 72 81 73 82 76 83 74 84 53 85 54 86 62 87 55 88
REMARK SMILES IDX 56 89 60 90 63 91 57 92 58 93 61 94 59 95
REMARK H PARENT 17 7 5 15 11 23 24 29 83 48 51 59
REMARK Flexibility Score: inf
ROOT
ATOM      1  C   UNL A   1      32.926  30.173  25.917  1.00  0.00     0.002 C 
ENDROOT
BRANCH   1   2
ATOM      2  C   UNL A   1      32.945  28.827  25.189  1.00  0.00     0.021 C 
BRANCH   2   3
ATOM      3  C   UNL A   1      33.298  28.968  23.710  1.00  0.00     0.116 C 
BRANCH   3   4
ATOM      4  N   UNL A   1      32.148  29.215  22.885  1.00  0.00    -0.352 N 
ATOM      5  C   UNL A   1      30.975  28.612  22.628  1.00  0.00     0.246 C 
ATOM      6  O   UNL A   1      30.191  29.323  21.983  1.00  0.00    -0.270 OA
ATOM      7  H   UNL A   1      32.245  30.049  22.370  1.00  0.00     0.163 HD
BRANCH   5   8
ATOM      8  C   UNL A   1      30.508  27.232  23.036  1.00  0.00     0.015 C 
ATOM      9  C   UNL A   1      29.026  27.307  23.412  1.00  0.00     0.050 C 
ATOM     10  C   UNL A   1      31.048  25.997  23.113  1.00  0.00     0.042 C 
BRANCH  10  11
ATOM     11  C   UNL A   1      32.368  25.381  22.794  1.00  0.00     0.292 C 
BRANCH  11  12
ATOM     12  N   UNL A   1      32.813  24.334  23.720  1.00  0.00    -0.320 N 
ATOM     13  C   UNL A   1      32.569  22.949  23.297  1.00  0.00     0.328 C 
ATOM     14  C   UNL A   1      34.204  24.512  24.207  1.00  0.00     0.237 C 
ATOM     15  H   UNL A   1      32.186  24.480  24.512  1.00  0.00     0.348 HD
ATOM     16  C   UNL A   1      32.856  21.974  24.457  1.00  0.00     0.240 C 
ATOM     17  C   UNL A   1      34.991  23.178  24.460  1.00  0.00     0.328 C 
ATOM     18  C   UNL A   1      34.165  25.369  25.475  1.00  0.00     0.081 C 
ATOM     19  C   UNL A   1      32.654  20.514  24.048  1.00  0.00     0.077 C 
ATOM     20  N   UNL A   1      34.213  22.067  25.031  1.00  0.00    -0.323 N 
ATOM     21  C   UNL A   1      33.721  19.774  24.827  1.00  0.00     0.068 C 
ATOM     22  C   UNL A   1      34.867  20.767  24.839  1.00  0.00     0.263 C 
ATOM     23  H   UNL A   1      34.152  22.279  26.027  1.00  0.00     0.348 HD
ENDBRANCH  11  12
ENDBRANCH  10  11
ENDBRANCH   5   8
ENDBRANCH   3   4
ENDBRANCH   2   3
ENDBRANCH   1   2
BRANCH   1  24
ATOM     24  C   UNL A   1      31.530  30.667  26.318  1.00  0.00     0.002 C 
BRANCH  24  25
ATOM     25  C   UNL A   1      31.423  32.173  26.568  1.00  0.00     0.021 C 
BRANCH  25  26
ATOM     26  C   UNL A   1      32.628  32.769  27.284  1.00  0.00     0.116 C 
BRANCH  26  27
ATOM     27  N   UNL A   1      32.428  34.181  27.590  1.00  0.00    -0.352 N 
ATOM     28  C   UNL A   1      32.981  34.938  28.588  1.00  0.00     0.251 C 
ATOM     29  H   UNL A   1      31.808  34.658  26.993  1.00  0.00     0.163 HD
ATOM     30  O   UNL A   1      32.517  36.039  28.874  1.00  0.00    -0.269 OA
BRANCH  28  31
ATOM     31  C   UNL A   1      34.150  34.417  29.317  1.00  0.00     0.039 A 
ATOM     32  C   UNL A   1      33.976  33.821  30.568  1.00  0.00     0.014 A 
ATOM     33  C   UNL A   1      35.421  34.522  28.748  1.00  0.00     0.014 A 
ATOM     34  C   UNL A   1      35.080  33.276  31.227  1.00  0.00     0.010 A 
ATOM     35  C   UNL A   1      36.501  33.907  29.363  1.00  0.00     0.010 A 
ATOM     36  C   UNL A   1      36.343  33.290  30.614  1.00  0.00    -0.014 A 
BRANCH  36  37
ATOM     37  C   UNL A   1      37.538  32.703  31.262  1.00  0.00     0.031 A 
ATOM     38  C   UNL A   1      38.254  31.568  30.588  1.00  0.00     0.074 A 
ATOM     39  C   UNL A   1      37.910  33.116  32.488  1.00  0.00     0.049 A 
ATOM     40  N   UNL A   1      39.209  30.799  31.045  1.00  0.00    -0.248 NA
ATOM     41  C   UNL A   1      37.809  31.229  29.226  1.00  0.00     0.031 C 
ATOM     42  C   UNL A   1      37.271  34.190  33.250  1.00  0.00     0.029 A 
ATOM     43  N   UNL A   1      38.903  32.663  33.319  1.00  0.00    -0.354 N 
ATOM     44  C   UNL A   1      39.458  29.874  30.040  1.00  0.00     0.074 A 
ATOM     45  C   UNL A   1      38.518  30.139  28.974  1.00  0.00     0.031 C 
ATOM     46  C   UNL A   1      37.895  34.321  34.432  1.00  0.00     0.029 A 
ATOM     47  C   UNL A   1      38.942  33.308  34.531  1.00  0.00     0.049 A 
ATOM     48  H   UNL A   1      39.527  31.943  33.071  1.00  0.00     0.167 HD
ATOM     49  C   UNL A   1      40.402  28.904  30.003  1.00  0.00     0.037 A 
ATOM     50  C   UNL A   1      39.723  33.090  35.605  1.00  0.00     0.037 A 
ATOM     51  C   UNL A   1      41.345  28.665  31.063  1.00  0.00     0.049 A 
ATOM     52  C   UNL A   1      40.746  31.986  35.553  1.00  0.00     0.074 A 
ATOM     53  C   UNL A   1      42.373  27.741  31.111  1.00  0.00     0.029 A 
ATOM     54  N   UNL A   1      41.370  29.358  32.266  1.00  0.00    -0.354 N 
ATOM     55  N   UNL A   1      41.011  31.149  34.579  1.00  0.00    -0.248 NA
ATOM     56  C   UNL A   1      41.581  31.798  36.748  1.00  0.00     0.031 C 
ATOM     57  C   UNL A   1      42.985  27.836  32.364  1.00  0.00     0.029 A 
ATOM     58  C   UNL A   1      42.383  28.865  33.071  1.00  0.00     0.049 A 
ATOM     59  H   UNL A   1      40.758  30.089  32.510  1.00  0.00     0.167 HD
ATOM     60  C   UNL A   1      42.067  30.366  35.025  1.00  0.00     0.074 A 
ATOM     61  C   UNL A   1      42.395  30.828  36.357  1.00  0.00     0.031 C 
ATOM     62  C   UNL A   1      42.711  29.359  34.385  1.00  0.00     0.037 A 
BRANCH  49  63
ATOM     63  C   UNL A   1      40.456  28.033  28.782  1.00  0.00     0.064 A 
ATOM     64  C   UNL A   1      41.213  28.387  27.654  1.00  0.00     0.173 A 
ATOM     65  C   UNL A   1      39.759  26.815  28.745  1.00  0.00     0.173 A 
ATOM     66  F   UNL A   1      41.890  29.545  27.631  1.00  0.00    -0.203 F 
ATOM     67  C   UNL A   1      41.239  27.575  26.523  1.00  0.00     0.198 A 
ATOM     68  C   UNL A   1      39.817  25.988  27.626  1.00  0.00     0.198 A 
ATOM     69  F   UNL A   1      39.024  26.423  29.797  1.00  0.00    -0.203 F 
ATOM     70  F   UNL A   1      41.919  27.965  25.436  1.00  0.00    -0.200 F 
ATOM     71  C   UNL A   1      40.548  26.373  26.513  1.00  0.00     0.200 A 
ATOM     72  F   UNL A   1      39.162  24.819  27.625  1.00  0.00    -0.200 F 
ATOM     73  F   UNL A   1      40.579  25.589  25.426  1.00  0.00    -0.200 F 
ENDBRANCH  49  63
BRANCH  50  74
ATOM     74  C   UNL A   1      39.583  33.946  36.813  1.00  0.00     0.064 A 
ATOM     75  C   UNL A   1      38.807  33.526  37.903  1.00  0.00     0.173 A 
ATOM     76  C   UNL A   1      40.212  35.196  36.905  1.00  0.00     0.173 A 
ATOM     77  F   UNL A   1      38.168  32.348  37.856  1.00  0.00    -0.203 F 
ATOM     78  C   UNL A   1      38.647  34.333  39.028  1.00  0.00     0.198 A 
ATOM     79  C   UNL A   1      40.077  35.989  38.044  1.00  0.00     0.198 A 
ATOM     80  F   UNL A   1      40.970  35.643  35.893  1.00  0.00    -0.203 F 
ATOM     81  F   UNL A   1      37.861  33.928  40.034  1.00  0.00    -0.200 F 
ATOM     82  C   UNL A   1      39.288  35.560  39.100  1.00  0.00     0.200 A 
ATOM     83  F   UNL A   1      40.709  37.168  38.115  1.00  0.00    -0.200 F 
ATOM     84  F   UNL A   1      39.137  36.334  40.183  1.00  0.00    -0.200 F 
ENDBRANCH  50  74
BRANCH  62  85
ATOM     85  C   UNL A   1      43.882  28.728  35.081  1.00  0.00     0.064 A 
ATOM     86  C   UNL A   1      43.738  27.601  35.903  1.00  0.00     0.173 A 
ATOM     87  C   UNL A   1      45.179  29.216  34.854  1.00  0.00     0.173 A 
ATOM     88  F   UNL A   1      42.519  27.106  36.162  1.00  0.00    -0.203 F 
ATOM     89  C   UNL A   1      44.850  26.995  36.483  1.00  0.00     0.198 A 
ATOM     90  C   UNL A   1      46.290  28.588  35.409  1.00  0.00     0.198 A 
ATOM     91  F   UNL A   1      45.371  30.287  34.069  1.00  0.00    -0.203 F 
ATOM     92  F   UNL A   1      44.687  25.941  37.295  1.00  0.00    -0.200 F 
ATOM     93  C   UNL A   1      46.124  27.480  36.226  1.00  0.00     0.200 A 
ATOM     94  F   UNL A   1      47.520  29.047  35.144  1.00  0.00    -0.200 F 
ATOM     95  F   UNL A   1      47.193  26.881  36.769  1.00  0.00    -0.200 F 
ENDBRANCH  62  85
ENDBRANCH  36  37
ENDBRANCH  28  31
ENDBRANCH  26  27
ENDBRANCH  25  26
ENDBRANCH  24  25
ENDBRANCH   1  24
TORSDOF 15
ENDMDL
MODEL 3
REMARK VINA RESULT:     -12.0      5.640     11.012
REMARK SMILES C/C(=C/C[N@H+]1C[C@H]2CCC[N@H+]2C[C@@H]1C)C(=O)NCCCCCCNC(=O)c1ccc(-c2c3nc(c(-c4c(F)c(F)c(F)c(F)c4F)c4ccc([nH]4)c(-c4c(F)c(F)c(F)c(F)c4F)c4nc(c(-c5c(F)c(F)c(F)c(F)c5F)c5ccc2[nH]5)C=C4)C=C3)cc1
REMARK SMILES IDX 20 1 19 2 18 3 17 4 15 5 16 6 2 8 1 9 3 10 4 11 5 12 6 13
REMARK SMILES IDX 13 14 7 16 12 17 14 18 8 19 11 20 9 21 10 22 21 24 22 25
REMARK SMILES IDX 23 26 24 27 25 28 26 30 27 31 28 32 89 33 29 34 88 35 30 36
REMARK SMILES IDX 31 37 32 38 82 39 33 40 87 41 81 42 83 43 34 44 86 45 80 46
REMARK SMILES IDX 79 47 35 49 67 50 47 51 66 52 48 53 51 54 65 55 84 56 49 57
REMARK SMILES IDX 50 58 64 60 85 61 52 62 36 63 37 64 45 65 38 66 39 67 43 68
REMARK SMILES IDX 46 69 40 70 41 71 44 72 42 73 68 74 69 75 77 76 70 77 71 78
REMARK SMILES IDX 75 79 78 80 72 81 73 82 76 83 74 84 53 85 54 86 62 87 55 88
REMARK SMILES IDX 56 89 60 90 63 91 57 92 58 93 61 94 59 95
REMARK H PARENT 17 7 5 15 11 23 24 29 83 48 51 59
REMARK Flexibility Score: inf
ROOT
ATOM      1  C   UNL A   1      37.561  22.003  25.272  1.00  0.00     0.002 C 
ENDROOT
BRANCH   1   2
ATOM      2  C   UNL A   1      36.661  23.083  24.669  1.00  0.00     0.021 C 
BRANCH   2   3
ATOM      3  C   UNL A   1      35.793  23.772  25.719  1.00  0.00     0.116 C 
BRANCH   3   4
ATOM      4  N   UNL A   1      34.982  22.848  26.464  1.00  0.00    -0.352 N 
ATOM      5  C   UNL A   1      34.099  21.873  26.190  1.00  0.00     0.246 C 
ATOM      6  O   UNL A   1      33.801  21.191  27.181  1.00  0.00    -0.270 OA
ATOM      7  H   UNL A   1      35.107  22.960  27.435  1.00  0.00     0.163 HD
BRANCH   5   8
ATOM      8  C   UNL A   1      33.469  21.509  24.863  1.00  0.00     0.015 C 
ATOM      9  C   UNL A   1      33.655  20.008  24.628  1.00  0.00     0.050 C 
ATOM     10  C   UNL A   1      32.782  22.152  23.895  1.00  0.00     0.042 C 
BRANCH  10  11
ATOM     11  C   UNL A   1      32.273  23.537  23.679  1.00  0.00     0.292 C 
BRANCH  11  12
ATOM     12  N   UNL A   1      32.211  24.376  24.882  1.00  0.00    -0.320 N 
ATOM     13  C   UNL A   1      32.869  25.686  24.793  1.00  0.00     0.328 C 
ATOM     14  C   UNL A   1      30.850  24.496  25.461  1.00  0.00     0.237 C 
ATOM     15  H   UNL A   1      32.781  23.841  25.536  1.00  0.00     0.348 HD
ATOM     16  C   UNL A   1      32.939  26.348  26.183  1.00  0.00     0.240 C 
ATOM     17  C   UNL A   1      30.533  25.882  26.126  1.00  0.00     0.328 C 
ATOM     18  C   UNL A   1      30.650  23.355  26.464  1.00  0.00     0.081 C 
ATOM     19  C   UNL A   1      33.582  27.734  26.130  1.00  0.00     0.077 C 
ATOM     20  N   UNL A   1      31.640  26.512  26.864  1.00  0.00    -0.323 N 
ATOM     21  C   UNL A   1      32.828  28.519  27.184  1.00  0.00     0.068 C 
ATOM     22  C   UNL A   1      31.426  27.948  27.077  1.00  0.00     0.263 C 
ATOM     23  H   UNL A   1      31.658  26.028  27.762  1.00  0.00     0.348 HD
ENDBRANCH  11  12
ENDBRANCH  10  11
ENDBRANCH   5   8
ENDBRANCH   3   4
ENDBRANCH   2   3
ENDBRANCH   1   2
BRANCH   1  24
ATOM     24  C   UNL A   1      37.217  20.568  24.848  1.00  0.00     0.002 C 
BRANCH  24  25
ATOM     25  C   UNL A   1      38.355  19.557  25.001  1.00  0.00     0.021 C 
BRANCH  25  26
ATOM     26  C   UNL A   1      39.475  20.020  25.923  1.00  0.00     0.116 C 
BRANCH  26  27
ATOM     27  N   UNL A   1      40.518  19.009  26.055  1.00  0.00    -0.352 N 
ATOM     28  C   UNL A   1      41.876  19.169  26.126  1.00  0.00     0.251 C 
ATOM     29  H   UNL A   1      40.200  18.079  26.098  1.00  0.00     0.163 HD
ATOM     30  O   UNL A   1      42.631  18.212  25.971  1.00  0.00    -0.269 OA
BRANCH  28  31
ATOM     31  C   UNL A   1      42.426  20.507  26.398  1.00  0.00     0.039 A 
ATOM     32  C   UNL A   1      42.823  21.322  25.335  1.00  0.00     0.014 A 
ATOM     33  C   UNL A   1      42.541  20.952  27.717  1.00  0.00     0.014 A 
ATOM     34  C   UNL A   1      43.288  22.612  25.595  1.00  0.00     0.010 A 
ATOM     35  C   UNL A   1      42.923  22.260  27.969  1.00  0.00     0.010 A 
ATOM     36  C   UNL A   1      43.312  23.099  26.912  1.00  0.00    -0.014 A 
BRANCH  36  37
ATOM     37  C   UNL A   1      43.772  24.468  27.237  1.00  0.00     0.031 A 
ATOM     38  C   UNL A   1      42.780  25.474  27.746  1.00  0.00     0.074 A 
ATOM     39  C   UNL A   1      45.042  24.830  26.976  1.00  0.00     0.049 A 
ATOM     40  N   UNL A   1      42.922  26.761  27.932  1.00  0.00    -0.248 NA
ATOM     41  C   UNL A   1      41.432  24.967  28.053  1.00  0.00     0.031 C 
ATOM     42  C   UNL A   1      46.084  23.946  26.454  1.00  0.00     0.029 A 
ATOM     43  N   UNL A   1      45.665  26.046  27.094  1.00  0.00    -0.354 N 
ATOM     44  C   UNL A   1      41.679  27.218  28.352  1.00  0.00     0.074 A 
ATOM     45  C   UNL A   1      40.781  26.084  28.338  1.00  0.00     0.031 C 
ATOM     46  C   UNL A   1      47.221  24.646  26.307  1.00  0.00     0.029 A 
ATOM     47  C   UNL A   1      46.973  26.036  26.676  1.00  0.00     0.049 A 
ATOM     48  H   UNL A   1      45.217  26.849  27.444  1.00  0.00     0.167 HD
ATOM     49  C   UNL A   1      41.327  28.467  28.735  1.00  0.00     0.037 A 
ATOM     50  C   UNL A   1      47.862  27.043  26.582  1.00  0.00     0.037 A 
ATOM     51  C   UNL A   1      42.237  29.581  28.764  1.00  0.00     0.049 A 
ATOM     52  C   UNL A   1      47.439  28.431  26.986  1.00  0.00     0.074 A 
ATOM     53  C   UNL A   1      41.999  30.879  29.178  1.00  0.00     0.029 A 
ATOM     54  N   UNL A   1      43.563  29.526  28.356  1.00  0.00    -0.354 N 
ATOM     55  N   UNL A   1      46.277  28.846  27.431  1.00  0.00    -0.248 NA
ATOM     56  C   UNL A   1      48.451  29.491  26.876  1.00  0.00     0.031 C 
ATOM     57  C   UNL A   1      43.163  31.623  28.970  1.00  0.00     0.029 A 
ATOM     58  C   UNL A   1      44.149  30.774  28.490  1.00  0.00     0.049 A 
ATOM     59  H   UNL A   1      44.018  28.720  28.021  1.00  0.00     0.167 HD
ATOM     60  C   UNL A   1      46.430  30.200  27.694  1.00  0.00     0.074 A 
ATOM     61  C   UNL A   1      47.797  30.538  27.360  1.00  0.00     0.031 C 
ATOM     62  C   UNL A   1      45.521  31.082  28.177  1.00  0.00     0.037 A 
BRANCH  49  63
ATOM     63  C   UNL A   1      39.901  28.692  29.148  1.00  0.00     0.064 A 
ATOM     64  C   UNL A   1      39.477  28.502  30.473  1.00  0.00     0.173 A 
ATOM     65  C   UNL A   1      38.949  29.125  28.212  1.00  0.00     0.173 A 
ATOM     66  F   UNL A   1      40.343  28.078  31.406  1.00  0.00    -0.203 F 
ATOM     67  C   UNL A   1      38.148  28.698  30.836  1.00  0.00     0.198 A 
ATOM     68  C   UNL A   1      37.628  29.355  28.587  1.00  0.00     0.198 A 
ATOM     69  F   UNL A   1      39.299  29.328  26.934  1.00  0.00    -0.203 F 
ATOM     70  F   UNL A   1      37.754  28.451  32.093  1.00  0.00    -0.200 F 
ATOM     71  C   UNL A   1      37.226  29.133  29.895  1.00  0.00     0.200 A 
ATOM     72  F   UNL A   1      36.742  29.791  27.680  1.00  0.00    -0.200 F 
ATOM     73  F   UNL A   1      35.947  29.328  30.248  1.00  0.00    -0.200 F 
ENDBRANCH  49  63
BRANCH  50  74
ATOM     74  C   UNL A   1      49.244  26.773  26.107  1.00  0.00     0.064 A 
ATOM     75  C   UNL A   1      49.594  26.979  24.764  1.00  0.00     0.173 A 
ATOM     76  C   UNL A   1      50.241  26.301  26.973  1.00  0.00     0.173 A 
ATOM     77  F   UNL A   1      48.671  27.410  23.891  1.00  0.00    -0.203 F 
ATOM     78  C   UNL A   1      50.879  26.703  24.303  1.00  0.00     0.198 A 
ATOM     79  C   UNL A   1      51.535  26.056  26.518  1.00  0.00     0.198 A 
ATOM     80  F   UNL A   1      49.962  26.092  28.269  1.00  0.00    -0.203 F 
ATOM     81  F   UNL A   1      51.172  26.863  23.005  1.00  0.00    -0.200 F 
ATOM     82  C   UNL A   1      51.850  26.248  25.181  1.00  0.00     0.200 A 
ATOM     83  F   UNL A   1      52.475  25.629  27.372  1.00  0.00    -0.200 F 
ATOM     84  F   UNL A   1      53.087  25.986  24.738  1.00  0.00    -0.200 F 
ENDBRANCH  50  74
BRANCH  62  85
ATOM     85  C   UNL A   1      45.984  32.486  28.440  1.00  0.00     0.064 A 
ATOM     86  C   UNL A   1      46.572  32.859  29.657  1.00  0.00     0.173 A 
ATOM     87  C   UNL A   1      45.908  33.452  27.423  1.00  0.00     0.173 A 
ATOM     88  F   UNL A   1      46.655  31.976  30.664  1.00  0.00    -0.203 F 
ATOM     89  C   UNL A   1      47.053  34.151  29.851  1.00  0.00     0.198 A 
ATOM     90  C   UNL A   1      46.419  34.732  27.610  1.00  0.00     0.198 A 
ATOM     91  F   UNL A   1      45.360  33.143  26.237  1.00  0.00    -0.203 F 
ATOM     92  F   UNL A   1      47.578  34.497  31.034  1.00  0.00    -0.200 F 
ATOM     93  C   UNL A   1      46.988  35.081  28.824  1.00  0.00     0.200 A 
ATOM     94  F   UNL A   1      46.372  35.624  26.610  1.00  0.00    -0.200 F 
ATOM     95  F   UNL A   1      47.472  36.318  29.007  1.00  0.00    -0.200 F 
ENDBRANCH  62  85
ENDBRANCH  36  37
ENDBRANCH  28  31
ENDBRANCH  26  27
ENDBRANCH  25  26
ENDBRANCH  24  25
ENDBRANCH   1  24
TORSDOF 15
ENDMDL
