MODEL 1
REMARK VINA RESULT:     -12.2      0.000      0.000
REMARK SMILES O=C(NCCCCCCNC(=O)C1CN(S(=O)(=O)c2ccc(F)cc2)C1)c1ccc(-c2c3nc(c(-c4c(F)c(F)c(F)c(F)c4F)c4ccc([nH]4)c(-c4c(F)c(F)c(F)c(F)c4F)c4nc(c(-c5c(F)c(F)c(F)c(F)c5F)c5ccc2[nH]5)C=C4)C=C3)cc1
REMARK SMILES IDX 6 1 5 2 4 3 3 4 1 5 2 6 27 8 28 9 89 10 29 11 88 12 30 13
REMARK SMILES IDX 31 14 32 15 82 16 33 17 87 18 81 19 83 20 34 21 86 22 80 23
REMARK SMILES IDX 79 24 35 26 67 27 47 28 66 29 48 30 51 31 65 32 84 33 49 34
REMARK SMILES IDX 50 35 64 37 85 38 52 39 36 40 37 41 45 42 38 43 39 44 43 45
REMARK SMILES IDX 46 46 40 47 41 48 44 49 42 50 68 51 69 52 77 53 70 54 71 55
REMARK SMILES IDX 75 56 78 57 72 58 73 59 76 60 74 61 53 62 54 63 62 64 55 65
REMARK SMILES IDX 56 66 60 67 63 68 57 69 58 70 61 71 59 72 7 73 8 74 9 75
REMARK SMILES IDX 10 76 11 77 12 79 13 80 14 81 26 82 15 83 16 84 17 85 18 86
REMARK SMILES IDX 19 87 20 88 25 89 21 90 24 91 22 92 23 93
REMARK H PARENT 3 7 83 25 51 36 10 78
REMARK Flexibility Score: inf
ROOT
ATOM      1  C   UNL A   1      31.451  30.388  25.828  1.00  0.00     0.002 C 
ENDROOT
BRANCH   1   2
ATOM      2  C   UNL A   1      31.263  31.780  26.424  1.00  0.00     0.021 C 
BRANCH   2   3
ATOM      3  C   UNL A   1      32.523  32.432  26.973  1.00  0.00     0.116 C 
BRANCH   3   4
ATOM      4  N   UNL A   1      32.308  33.779  27.475  1.00  0.00    -0.352 N 
ATOM      5  O   UNL A   1      32.661  35.572  28.806  1.00  0.00    -0.269 OA
ATOM      6  C   UNL A   1      33.035  34.471  28.416  1.00  0.00     0.251 C 
ATOM      7  H   UNL A   1      31.540  34.260  27.090  1.00  0.00     0.163 HD
BRANCH   6   8
ATOM      8  C   UNL A   1      34.259  33.862  28.982  1.00  0.00     0.039 A 
ATOM      9  C   UNL A   1      34.172  32.777  29.855  1.00  0.00     0.014 A 
ATOM     10  C   UNL A   1      35.509  34.394  28.649  1.00  0.00     0.014 A 
ATOM     11  C   UNL A   1      35.309  32.330  30.514  1.00  0.00     0.010 A 
ATOM     12  C   UNL A   1      36.667  33.874  29.238  1.00  0.00     0.010 A 
ATOM     13  C   UNL A   1      36.573  32.857  30.198  1.00  0.00    -0.014 A 
BRANCH  13  14
ATOM     14  C   UNL A   1      37.773  32.248  30.829  1.00  0.00     0.031 A 
ATOM     15  C   UNL A   1      38.191  32.594  32.231  1.00  0.00     0.074 A 
ATOM     16  C   UNL A   1      38.445  31.309  30.133  1.00  0.00     0.049 A 
ATOM     17  N   UNL A   1      39.162  32.081  32.946  1.00  0.00    -0.248 NA
ATOM     18  C   UNL A   1      37.433  33.649  32.922  1.00  0.00     0.031 C 
ATOM     19  C   UNL A   1      38.135  30.908  28.758  1.00  0.00     0.029 A 
ATOM     20  N   UNL A   1      39.488  30.495  30.488  1.00  0.00    -0.354 N 
ATOM     21  C   UNL A   1      39.142  32.755  34.160  1.00  0.00     0.074 A 
ATOM     22  C   UNL A   1      38.076  33.731  34.082  1.00  0.00     0.031 C 
ATOM     23  C   UNL A   1      38.910  29.870  28.417  1.00  0.00     0.029 A 
ATOM     24  C   UNL A   1      39.820  29.579  29.518  1.00  0.00     0.049 A 
ATOM     25  H   UNL A   1      39.953  30.558  31.353  1.00  0.00     0.167 HD
ATOM     26  C   UNL A   1      39.937  32.565  35.239  1.00  0.00     0.037 A 
ATOM     27  C   UNL A   1      40.757  28.613  29.511  1.00  0.00     0.037 A 
ATOM     28  C   UNL A   1      40.982  31.575  35.316  1.00  0.00     0.049 A 
ATOM     29  C   UNL A   1      41.626  28.438  30.721  1.00  0.00     0.074 A 
ATOM     30  C   UNL A   1      41.824  31.293  36.379  1.00  0.00     0.029 A 
ATOM     31  N   UNL A   1      41.329  30.705  34.292  1.00  0.00    -0.354 N 
ATOM     32  N   UNL A   1      41.583  29.071  31.866  1.00  0.00    -0.248 NA
ATOM     33  C   UNL A   1      42.683  27.420  30.633  1.00  0.00     0.031 C 
ATOM     34  C   UNL A   1      42.705  30.282  35.986  1.00  0.00     0.029 A 
ATOM     35  C   UNL A   1      42.383  29.900  34.694  1.00  0.00     0.049 A 
ATOM     36  H   UNL A   1      40.889  30.665  33.413  1.00  0.00     0.167 HD
ATOM     37  C   UNL A   1      42.602  28.534  32.636  1.00  0.00     0.074 A 
ATOM     38  C   UNL A   1      43.224  27.495  31.840  1.00  0.00     0.031 C 
ATOM     39  C   UNL A   1      42.996  28.878  33.886  1.00  0.00     0.037 A 
BRANCH  26  40
ATOM     40  C   UNL A   1      39.723  33.433  36.445  1.00  0.00     0.064 A 
ATOM     41  C   UNL A   1      38.838  33.035  37.459  1.00  0.00     0.173 A 
ATOM     42  C   UNL A   1      40.296  34.709  36.537  1.00  0.00     0.173 A 
ATOM     43  F   UNL A   1      38.257  31.827  37.412  1.00  0.00    -0.203 F 
ATOM     44  C   UNL A   1      38.517  33.892  38.508  1.00  0.00     0.198 A 
ATOM     45  C   UNL A   1      39.989  35.556  37.600  1.00  0.00     0.198 A 
ATOM     46  F   UNL A   1      41.154  35.133  35.598  1.00  0.00    -0.203 F 
ATOM     47  F   UNL A   1      37.637  33.506  39.443  1.00  0.00    -0.200 F 
ATOM     48  C   UNL A   1      39.091  35.152  38.576  1.00  0.00     0.200 A 
ATOM     49  F   UNL A   1      40.557  36.768  37.675  1.00  0.00    -0.200 F 
ATOM     50  F   UNL A   1      38.775  35.980  39.583  1.00  0.00    -0.200 F 
ENDBRANCH  26  40
BRANCH  27  51
ATOM     51  C   UNL A   1      40.907  27.741  28.318  1.00  0.00     0.064 A 
ATOM     52  C   UNL A   1      41.704  28.129  27.229  1.00  0.00     0.173 A 
ATOM     53  C   UNL A   1      40.237  26.515  28.231  1.00  0.00     0.173 A 
ATOM     54  F   UNL A   1      42.362  29.297  27.260  1.00  0.00    -0.203 F 
ATOM     55  C   UNL A   1      41.803  27.332  26.091  1.00  0.00     0.198 A 
ATOM     56  C   UNL A   1      40.364  25.704  27.105  1.00  0.00     0.198 A 
ATOM     57  F   UNL A   1      39.479  26.093  29.254  1.00  0.00    -0.203 F 
ATOM     58  F   UNL A   1      42.538  27.747  25.049  1.00  0.00    -0.200 F 
ATOM     59  C   UNL A   1      41.138  26.118  26.032  1.00  0.00     0.200 A 
ATOM     60  F   UNL A   1      39.740  24.519  27.063  1.00  0.00    -0.200 F 
ATOM     61  F   UNL A   1      41.247  25.345  24.944  1.00  0.00    -0.200 F 
ENDBRANCH  27  51
BRANCH  39  62
ATOM     62  C   UNL A   1      44.155  28.127  34.467  1.00  0.00     0.064 A 
ATOM     63  C   UNL A   1      45.466  28.593  34.298  1.00  0.00     0.173 A 
ATOM     64  C   UNL A   1      43.968  26.920  35.159  1.00  0.00     0.173 A 
ATOM     65  F   UNL A   1      45.697  29.738  33.639  1.00  0.00    -0.203 F 
ATOM     66  C   UNL A   1      46.550  27.876  34.796  1.00  0.00     0.198 A 
ATOM     67  C   UNL A   1      45.053  26.221  35.681  1.00  0.00     0.198 A 
ATOM     68  F   UNL A   1      42.730  26.442  35.359  1.00  0.00    -0.203 F 
ATOM     69  F   UNL A   1      47.797  28.328  34.603  1.00  0.00    -0.200 F 
ATOM     70  C   UNL A   1      46.342  26.695  35.493  1.00  0.00     0.200 A 
ATOM     71  F   UNL A   1      44.848  25.094  36.377  1.00  0.00    -0.200 F 
ATOM     72  F   UNL A   1      47.385  26.016  35.989  1.00  0.00    -0.200 F 
ENDBRANCH  39  62
ENDBRANCH  13  14
ENDBRANCH   6   8
ENDBRANCH   3   4
ENDBRANCH   2   3
ENDBRANCH   1   2
BRANCH   1  73
ATOM     73  C   UNL A   1      32.886  29.855  25.812  1.00  0.00     0.002 C 
BRANCH  73  74
ATOM     74  C   UNL A   1      33.350  29.192  24.508  1.00  0.00     0.021 C 
BRANCH  74  75
ATOM     75  C   UNL A   1      33.375  27.666  24.512  1.00  0.00     0.116 C 
BRANCH  75  76
ATOM     76  N   UNL A   1      33.542  27.120  23.182  1.00  0.00    -0.356 N 
ATOM     77  C   UNL A   1      33.582  25.828  22.727  1.00  0.00     0.225 C 
ATOM     78  H   UNL A   1      33.645  27.800  22.477  1.00  0.00     0.163 HD
ATOM     79  O   UNL A   1      33.704  25.705  21.499  1.00  0.00    -0.275 OA
BRANCH  77  80
ATOM     80  C   UNL A   1      33.472  24.616  23.642  1.00  0.00     0.109 C 
ATOM     81  C   UNL A   1      33.146  23.228  23.085  1.00  0.00     0.117 C 
ATOM     82  C   UNL A   1      34.700  23.968  24.285  1.00  0.00     0.117 C 
ATOM     83  N   UNL A   1      34.123  22.596  24.048  1.00  0.00    -0.196 NA
BRANCH  83  84
ATOM     84  S   UNL A   1      33.561  21.598  25.328  1.00  0.00     0.243 S 
ATOM     85  O   UNL A   1      34.531  21.659  26.403  1.00  0.00    -0.207 OA
ATOM     86  O   UNL A   1      32.170  21.930  25.540  1.00  0.00    -0.207 OA
BRANCH  84  87
ATOM     87  C   UNL A   1      33.631  19.961  24.640  1.00  0.00     0.082 A 
ATOM     88  C   UNL A   1      32.569  19.470  23.872  1.00  0.00     0.025 A 
ATOM     89  C   UNL A   1      34.777  19.182  24.853  1.00  0.00     0.025 A 
ATOM     90  C   UNL A   1      32.652  18.189  23.323  1.00  0.00     0.040 A 
ATOM     91  C   UNL A   1      34.855  17.906  24.292  1.00  0.00     0.040 A 
ATOM     92  C   UNL A   1      33.793  17.421  23.535  1.00  0.00     0.123 A 
ATOM     93  F   UNL A   1      33.872  16.198  22.997  1.00  0.00    -0.207 F 
ENDBRANCH  84  87
ENDBRANCH  83  84
ENDBRANCH  77  80
ENDBRANCH  75  76
ENDBRANCH  74  75
ENDBRANCH  73  74
ENDBRANCH   1  73
TORSDOF 15
ENDMDL
MODEL 2
REMARK VINA RESULT:     -12.1      4.874      8.355
REMARK SMILES O=C(NCCCCCCNC(=O)C1CN(S(=O)(=O)c2ccc(F)cc2)C1)c1ccc(-c2c3nc(c(-c4c(F)c(F)c(F)c(F)c4F)c4ccc([nH]4)c(-c4c(F)c(F)c(F)c(F)c4F)c4nc(c(-c5c(F)c(F)c(F)c(F)c5F)c5ccc2[nH]5)C=C4)C=C3)cc1
REMARK SMILES IDX 6 1 5 2 4 3 3 4 1 5 2 6 27 8 28 9 89 10 29 11 88 12 30 13
REMARK SMILES IDX 31 14 32 15 82 16 33 17 87 18 81 19 83 20 34 21 86 22 80 23
REMARK SMILES IDX 79 24 35 26 67 27 47 28 66 29 48 30 51 31 65 32 84 33 49 34
REMARK SMILES IDX 50 35 64 37 85 38 52 39 36 40 37 41 45 42 38 43 39 44 43 45
REMARK SMILES IDX 46 46 40 47 41 48 44 49 42 50 68 51 69 52 77 53 70 54 71 55
REMARK SMILES IDX 75 56 78 57 72 58 73 59 76 60 74 61 53 62 54 63 62 64 55 65
REMARK SMILES IDX 56 66 60 67 63 68 57 69 58 70 61 71 59 72 7 73 8 74 9 75
REMARK SMILES IDX 10 76 11 77 12 79 13 80 14 81 26 82 15 83 16 84 17 85 18 86
REMARK SMILES IDX 19 87 20 88 25 89 21 90 24 91 22 92 23 93
REMARK H PARENT 3 7 83 25 51 36 10 78
REMARK Flexibility Score: inf
ROOT
ATOM      1  C   UNL A   1      34.825  34.943  28.598  1.00  0.00     0.002 C 
ENDROOT
BRANCH   1   2
ATOM      2  C   UNL A   1      34.252  33.652  28.022  1.00  0.00     0.021 C 
BRANCH   2   3
ATOM      3  C   UNL A   1      34.578  32.387  28.803  1.00  0.00     0.116 C 
BRANCH   3   4
ATOM      4  N   UNL A   1      33.975  31.189  28.242  1.00  0.00    -0.352 N 
ATOM      5  O   UNL A   1      33.942  29.096  27.388  1.00  0.00    -0.269 OA
ATOM      6  C   UNL A   1      34.571  29.982  27.956  1.00  0.00     0.251 C 
ATOM      7  H   UNL A   1      33.014  31.249  28.042  1.00  0.00     0.163 HD
BRANCH   6   8
ATOM      8  C   UNL A   1      35.993  29.770  28.307  1.00  0.00     0.039 A 
ATOM      9  C   UNL A   1      37.001  30.064  27.389  1.00  0.00     0.014 A 
ATOM     10  C   UNL A   1      36.320  29.255  29.566  1.00  0.00     0.014 A 
ATOM     11  C   UNL A   1      38.312  29.697  27.663  1.00  0.00     0.010 A 
ATOM     12  C   UNL A   1      37.656  28.980  29.880  1.00  0.00     0.010 A 
ATOM     13  C   UNL A   1      38.659  29.172  28.920  1.00  0.00    -0.014 A 
BRANCH  13  14
ATOM     14  C   UNL A   1      40.095  28.926  29.212  1.00  0.00     0.031 A 
ATOM     15  C   UNL A   1      40.882  29.821  30.127  1.00  0.00     0.074 A 
ATOM     16  C   UNL A   1      40.665  27.821  28.689  1.00  0.00     0.049 A 
ATOM     17  N   UNL A   1      42.116  29.685  30.545  1.00  0.00    -0.248 NA
ATOM     18  C   UNL A   1      40.209  31.026  30.638  1.00  0.00     0.031 C 
ATOM     19  C   UNL A   1      39.998  26.891  27.776  1.00  0.00     0.029 A 
ATOM     20  N   UNL A   1      41.904  27.269  28.878  1.00  0.00    -0.354 N 
ATOM     21  C   UNL A   1      42.372  30.785  31.352  1.00  0.00     0.074 A 
ATOM     22  C   UNL A   1      41.172  31.595  31.353  1.00  0.00     0.031 C 
ATOM     23  C   UNL A   1      40.801  25.842  27.550  1.00  0.00     0.029 A 
ATOM     24  C   UNL A   1      42.066  26.060  28.243  1.00  0.00     0.049 A 
ATOM     25  H   UNL A   1      42.610  27.694  29.416  1.00  0.00     0.167 HD
ATOM     26  C   UNL A   1      43.503  31.080  32.035  1.00  0.00     0.037 A 
ATOM     27  C   UNL A   1      43.115  25.218  28.217  1.00  0.00     0.037 A 
ATOM     28  C   UNL A   1      44.686  30.257  32.047  1.00  0.00     0.049 A 
ATOM     29  C   UNL A   1      44.356  25.583  28.978  1.00  0.00     0.074 A 
ATOM     30  C   UNL A   1      45.873  30.464  32.730  1.00  0.00     0.029 A 
ATOM     31  N   UNL A   1      44.833  29.069  31.346  1.00  0.00    -0.354 N 
ATOM     32  N   UNL A   1      44.575  26.618  29.750  1.00  0.00    -0.248 NA
ATOM     33  C   UNL A   1      45.499  24.668  28.854  1.00  0.00     0.031 C 
ATOM     34  C   UNL A   1      46.751  29.425  32.411  1.00  0.00     0.029 A 
ATOM     35  C   UNL A   1      46.097  28.544  31.566  1.00  0.00     0.049 A 
ATOM     36  H   UNL A   1      44.142  28.660  30.777  1.00  0.00     0.167 HD
ATOM     37  C   UNL A   1      45.878  26.483  30.204  1.00  0.00     0.074 A 
ATOM     38  C   UNL A   1      46.388  25.245  29.650  1.00  0.00     0.031 C 
ATOM     39  C   UNL A   1      46.591  27.316  30.999  1.00  0.00     0.037 A 
BRANCH  26  40
ATOM     40  C   UNL A   1      43.540  32.346  32.842  1.00  0.00     0.064 A 
ATOM     41  C   UNL A   1      43.096  32.352  34.173  1.00  0.00     0.173 A 
ATOM     42  C   UNL A   1      43.896  33.572  32.263  1.00  0.00     0.173 A 
ATOM     43  F   UNL A   1      42.736  31.207  34.771  1.00  0.00    -0.203 F 
ATOM     44  C   UNL A   1      42.984  33.543  34.887  1.00  0.00     0.198 A 
ATOM     45  C   UNL A   1      43.804  34.759  32.987  1.00  0.00     0.198 A 
ATOM     46  F   UNL A   1      44.334  33.618  30.996  1.00  0.00    -0.203 F 
ATOM     47  F   UNL A   1      42.518  33.530  36.144  1.00  0.00    -0.200 F 
ATOM     48  C   UNL A   1      43.336  34.745  34.292  1.00  0.00     0.200 A 
ATOM     49  F   UNL A   1      44.160  35.919  32.417  1.00  0.00    -0.200 F 
ATOM     50  F   UNL A   1      43.222  35.892  34.978  1.00  0.00    -0.200 F 
ENDBRANCH  26  40
BRANCH  27  51
ATOM     51  C   UNL A   1      43.025  23.952  27.446  1.00  0.00     0.064 A 
ATOM     52  C   UNL A   1      43.399  23.894  26.094  1.00  0.00     0.173 A 
ATOM     53  C   UNL A   1      42.540  22.779  28.039  1.00  0.00     0.173 A 
ATOM     54  F   UNL A   1      43.865  24.991  25.479  1.00  0.00    -0.203 F 
ATOM     55  C   UNL A   1      43.266  22.718  25.361  1.00  0.00     0.198 A 
ATOM     56  C   UNL A   1      42.439  21.595  27.313  1.00  0.00     0.198 A 
ATOM     57  F   UNL A   1      42.189  22.780  29.333  1.00  0.00    -0.203 F 
ATOM     58  F   UNL A   1      43.591  22.702  24.060  1.00  0.00    -0.200 F 
ATOM     59  C   UNL A   1      42.792  21.568  25.972  1.00  0.00     0.200 A 
ATOM     60  F   UNL A   1      42.004  20.479  27.914  1.00  0.00    -0.200 F 
ATOM     61  F   UNL A   1      42.680  20.432  25.270  1.00  0.00    -0.200 F 
ENDBRANCH  27  51
BRANCH  39  62
ATOM     62  C   UNL A   1      48.001  26.917  31.315  1.00  0.00     0.064 A 
ATOM     63  C   UNL A   1      49.068  27.388  30.536  1.00  0.00     0.173 A 
ATOM     64  C   UNL A   1      48.290  26.034  32.366  1.00  0.00     0.173 A 
ATOM     65  F   UNL A   1      48.842  28.229  29.516  1.00  0.00    -0.203 F 
ATOM     66  C   UNL A   1      50.375  26.984  30.796  1.00  0.00     0.198 A 
ATOM     67  C   UNL A   1      49.602  25.656  32.640  1.00  0.00     0.198 A 
ATOM     68  F   UNL A   1      47.304  25.569  33.148  1.00  0.00    -0.203 F 
ATOM     69  F   UNL A   1      51.377  27.428  30.024  1.00  0.00    -0.200 F 
ATOM     70  C   UNL A   1      50.641  26.125  31.851  1.00  0.00     0.200 A 
ATOM     71  F   UNL A   1      49.860  24.847  33.677  1.00  0.00    -0.200 F 
ATOM     72  F   UNL A   1      51.902  25.753  32.112  1.00  0.00    -0.200 F 
ENDBRANCH  39  62
ENDBRANCH  13  14
ENDBRANCH   6   8
ENDBRANCH   3   4
ENDBRANCH   2   3
ENDBRANCH   1   2
BRANCH   1  73
ATOM     73  C   UNL A   1      34.140  36.238  28.151  1.00  0.00     0.002 C 
BRANCH  73  74
ATOM     74  C   UNL A   1      33.293  36.959  29.208  1.00  0.00     0.021 C 
BRANCH  74  75
ATOM     75  C   UNL A   1      32.913  36.129  30.432  1.00  0.00     0.116 C 
BRANCH  75  76
ATOM     76  N   UNL A   1      33.154  36.840  31.669  1.00  0.00    -0.356 N 
ATOM     77  C   UNL A   1      34.008  36.589  32.711  1.00  0.00     0.225 C 
ATOM     78  H   UNL A   1      32.606  37.649  31.782  1.00  0.00     0.163 HD
ATOM     79  O   UNL A   1      33.992  37.432  33.620  1.00  0.00    -0.275 OA
BRANCH  77  80
ATOM     80  C   UNL A   1      34.930  35.379  32.764  1.00  0.00     0.109 C 
ATOM     81  C   UNL A   1      35.240  34.674  34.087  1.00  0.00     0.117 C 
ATOM     82  C   UNL A   1      34.502  34.007  32.239  1.00  0.00     0.117 C 
ATOM     83  N   UNL A   1      35.185  33.330  33.400  1.00  0.00    -0.196 NA
BRANCH  83  84
ATOM     84  S   UNL A   1      36.609  32.389  33.212  1.00  0.00     0.243 S 
ATOM     85  O   UNL A   1      37.427  32.573  34.395  1.00  0.00    -0.207 OA
ATOM     86  O   UNL A   1      36.192  31.077  32.773  1.00  0.00    -0.207 OA
BRANCH  84  87
ATOM     87  C   UNL A   1      37.450  33.175  31.857  1.00  0.00     0.082 A 
ATOM     88  C   UNL A   1      38.346  34.225  32.094  1.00  0.00     0.025 A 
ATOM     89  C   UNL A   1      37.226  32.710  30.554  1.00  0.00     0.025 A 
ATOM     90  C   UNL A   1      39.012  34.816  31.018  1.00  0.00     0.040 A 
ATOM     91  C   UNL A   1      37.903  33.299  29.486  1.00  0.00     0.040 A 
ATOM     92  C   UNL A   1      38.787  34.347  29.727  1.00  0.00     0.123 A 
ATOM     93  F   UNL A   1      39.437  34.910  28.701  1.00  0.00    -0.207 F 
ENDBRANCH  84  87
ENDBRANCH  83  84
ENDBRANCH  77  80
ENDBRANCH  75  76
ENDBRANCH  74  75
ENDBRANCH  73  74
ENDBRANCH   1  73
TORSDOF 15
ENDMDL
MODEL 3
REMARK VINA RESULT:     -12.1      0.209      1.686
REMARK SMILES O=C(NCCCCCCNC(=O)C1CN(S(=O)(=O)c2ccc(F)cc2)C1)c1ccc(-c2c3nc(c(-c4c(F)c(F)c(F)c(F)c4F)c4ccc([nH]4)c(-c4c(F)c(F)c(F)c(F)c4F)c4nc(c(-c5c(F)c(F)c(F)c(F)c5F)c5ccc2[nH]5)C=C4)C=C3)cc1
REMARK SMILES IDX 6 1 5 2 4 3 3 4 1 5 2 6 27 8 28 9 89 10 29 11 88 12 30 13
REMARK SMILES IDX 31 14 32 15 82 16 33 17 87 18 81 19 83 20 34 21 86 22 80 23
REMARK SMILES IDX 79 24 35 26 67 27 47 28 66 29 48 30 51 31 65 32 84 33 49 34
REMARK SMILES IDX 50 35 64 37 85 38 52 39 36 40 37 41 45 42 38 43 39 44 43 45
REMARK SMILES IDX 46 46 40 47 41 48 44 49 42 50 68 51 69 52 77 53 70 54 71 55
REMARK SMILES IDX 75 56 78 57 72 58 73 59 76 60 74 61 53 62 54 63 62 64 55 65
REMARK SMILES IDX 56 66 60 67 63 68 57 69 58 70 61 71 59 72 7 73 8 74 9 75
REMARK SMILES IDX 10 76 11 77 12 79 13 80 14 81 26 82 15 83 16 84 17 85 18 86
REMARK SMILES IDX 19 87 20 88 25 89 21 90 24 91 22 92 23 93
REMARK H PARENT 3 7 83 25 51 36 10 78
REMARK Flexibility Score: inf
ROOT
ATOM      1  C   UNL A   1      31.512  30.330  26.342  1.00  0.00     0.002 C 
ENDROOT
BRANCH   1   2
ATOM      2  C   UNL A   1      31.400  31.844  26.503  1.00  0.00     0.021 C 
BRANCH   2   3
ATOM      3  C   UNL A   1      32.631  32.533  27.071  1.00  0.00     0.116 C 
BRANCH   3   4
ATOM      4  N   UNL A   1      32.381  33.895  27.514  1.00  0.00    -0.352 N 
ATOM      5  O   UNL A   1      32.639  35.729  28.810  1.00  0.00    -0.269 OA
ATOM      6  C   UNL A   1      33.039  34.618  28.482  1.00  0.00     0.251 C 
ATOM      7  H   UNL A   1      31.642  34.361  27.061  1.00  0.00     0.163 HD
BRANCH   6   8
ATOM      8  C   UNL A   1      34.220  34.029  29.152  1.00  0.00     0.039 A 
ATOM      9  C   UNL A   1      35.505  34.485  28.854  1.00  0.00     0.014 A 
ATOM     10  C   UNL A   1      34.040  32.996  30.078  1.00  0.00     0.014 A 
ATOM     11  C   UNL A   1      36.609  33.808  29.354  1.00  0.00     0.010 A 
ATOM     12  C   UNL A   1      35.154  32.381  30.660  1.00  0.00     0.010 A 
ATOM     13  C   UNL A   1      36.449  32.763  30.281  1.00  0.00    -0.014 A 
BRANCH  13  14
ATOM     14  C   UNL A   1      37.664  32.165  30.891  1.00  0.00     0.031 A 
ATOM     15  C   UNL A   1      38.101  32.510  32.287  1.00  0.00     0.074 A 
ATOM     16  C   UNL A   1      38.335  31.235  30.181  1.00  0.00     0.049 A 
ATOM     17  N   UNL A   1      39.089  32.005  32.985  1.00  0.00    -0.248 NA
ATOM     18  C   UNL A   1      37.344  33.555  32.994  1.00  0.00     0.031 C 
ATOM     19  C   UNL A   1      38.007  30.835  28.810  1.00  0.00     0.029 A 
ATOM     20  N   UNL A   1      39.391  30.430  30.516  1.00  0.00    -0.354 N 
ATOM     21  C   UNL A   1      39.082  32.675  34.201  1.00  0.00     0.074 A 
ATOM     22  C   UNL A   1      38.004  33.640  34.143  1.00  0.00     0.031 C 
ATOM     23  C   UNL A   1      38.787  29.806  28.453  1.00  0.00     0.029 A 
ATOM     24  C   UNL A   1      39.718  29.521  29.538  1.00  0.00     0.049 A 
ATOM     25  H   UNL A   1      39.869  30.495  31.374  1.00  0.00     0.167 HD
ATOM     26  C   UNL A   1      39.896  32.489  35.267  1.00  0.00     0.037 A 
ATOM     27  C   UNL A   1      40.663  28.564  29.513  1.00  0.00     0.037 A 
ATOM     28  C   UNL A   1      40.952  31.510  35.324  1.00  0.00     0.049 A 
ATOM     29  C   UNL A   1      41.554  28.394  30.708  1.00  0.00     0.074 A 
ATOM     30  C   UNL A   1      41.814  31.234  36.372  1.00  0.00     0.029 A 
ATOM     31  N   UNL A   1      41.291  30.647  34.292  1.00  0.00    -0.354 N 
ATOM     32  N   UNL A   1      41.523  29.024  31.856  1.00  0.00    -0.248 NA
ATOM     33  C   UNL A   1      42.619  27.388  30.600  1.00  0.00     0.031 C 
ATOM     34  C   UNL A   1      42.699  30.233  35.962  1.00  0.00     0.029 A 
ATOM     35  C   UNL A   1      42.360  29.852  34.673  1.00  0.00     0.049 A 
ATOM     36  H   UNL A   1      40.838  30.606  33.419  1.00  0.00     0.167 HD
ATOM     37  C   UNL A   1      42.560  28.494  32.608  1.00  0.00     0.074 A 
ATOM     38  C   UNL A   1      43.179  27.464  31.798  1.00  0.00     0.031 C 
ATOM     39  C   UNL A   1      42.970  28.838  33.852  1.00  0.00     0.037 A 
BRANCH  26  40
ATOM     40  C   UNL A   1      39.692  33.352  36.479  1.00  0.00     0.064 A 
ATOM     41  C   UNL A   1      38.786  32.968  37.479  1.00  0.00     0.173 A 
ATOM     42  C   UNL A   1      40.299  34.610  36.590  1.00  0.00     0.173 A 
ATOM     43  F   UNL A   1      38.172  31.777  37.414  1.00  0.00    -0.203 F 
ATOM     44  C   UNL A   1      38.476  33.824  38.533  1.00  0.00     0.198 A 
ATOM     45  C   UNL A   1      40.004  35.455  37.657  1.00  0.00     0.198 A 
ATOM     46  F   UNL A   1      41.179  35.020  35.664  1.00  0.00    -0.203 F 
ATOM     47  F   UNL A   1      37.576  33.453  39.454  1.00  0.00    -0.200 F 
ATOM     48  C   UNL A   1      39.084  35.067  38.620  1.00  0.00     0.200 A 
ATOM     49  F   UNL A   1      40.604  36.650  37.750  1.00  0.00    -0.200 F 
ATOM     50  F   UNL A   1      38.780  35.893  39.631  1.00  0.00    -0.200 F 
ENDBRANCH  26  40
BRANCH  27  51
ATOM     51  C   UNL A   1      40.804  27.698  28.314  1.00  0.00     0.064 A 
ATOM     52  C   UNL A   1      40.167  26.450  28.239  1.00  0.00     0.173 A 
ATOM     53  C   UNL A   1      41.599  28.091  27.231  1.00  0.00     0.173 A 
ATOM     54  F   UNL A   1      39.398  26.026  29.253  1.00  0.00    -0.203 F 
ATOM     55  C   UNL A   1      40.340  25.619  27.135  1.00  0.00     0.198 A 
ATOM     56  C   UNL A   1      41.746  27.272  26.113  1.00  0.00     0.198 A 
ATOM     57  F   UNL A   1      42.213  29.283  27.248  1.00  0.00    -0.203 F 
ATOM     58  F   UNL A   1      39.753  24.414  27.108  1.00  0.00    -0.200 F 
ATOM     59  C   UNL A   1      41.125  26.033  26.070  1.00  0.00     0.200 A 
ATOM     60  F   UNL A   1      42.485  27.688  25.075  1.00  0.00    -0.200 F 
ATOM     61  F   UNL A   1      41.279  25.241  25.002  1.00  0.00    -0.200 F 
ENDBRANCH  27  51
BRANCH  39  62
ATOM     62  C   UNL A   1      44.146  28.097  34.413  1.00  0.00     0.064 A 
ATOM     63  C   UNL A   1      43.965  26.904  35.126  1.00  0.00     0.173 A 
ATOM     64  C   UNL A   1      45.452  28.593  34.276  1.00  0.00     0.173 A 
ATOM     65  F   UNL A   1      42.735  26.393  35.289  1.00  0.00    -0.203 F 
ATOM     66  C   UNL A   1      45.049  26.236  35.689  1.00  0.00     0.198 A 
ATOM     67  C   UNL A   1      46.536  27.906  34.815  1.00  0.00     0.198 A 
ATOM     68  F   UNL A   1      45.676  29.723  33.588  1.00  0.00    -0.203 F 
ATOM     69  F   UNL A   1      44.850  25.109  36.387  1.00  0.00    -0.200 F 
ATOM     70  C   UNL A   1      46.333  26.733  35.526  1.00  0.00     0.200 A 
ATOM     71  F   UNL A   1      47.779  28.374  34.635  1.00  0.00    -0.200 F 
ATOM     72  F   UNL A   1      47.378  26.078  36.051  1.00  0.00    -0.200 F 
ENDBRANCH  39  62
ENDBRANCH  13  14
ENDBRANCH   6   8
ENDBRANCH   3   4
ENDBRANCH   2   3
ENDBRANCH   1   2
BRANCH   1  73
ATOM     73  C   UNL A   1      32.745  29.826  25.587  1.00  0.00     0.002 C 
BRANCH  73  74
ATOM     74  C   UNL A   1      32.477  28.932  24.369  1.00  0.00     0.021 C 
BRANCH  74  75
ATOM     75  C   UNL A   1      33.108  27.542  24.415  1.00  0.00     0.116 C 
BRANCH  75  76
ATOM     76  N   UNL A   1      33.372  27.020  23.092  1.00  0.00    -0.356 N 
ATOM     77  C   UNL A   1      33.437  25.736  22.617  1.00  0.00     0.225 C 
ATOM     78  H   UNL A   1      33.534  27.711  22.410  1.00  0.00     0.163 HD
ATOM     79  O   UNL A   1      33.653  25.634  21.400  1.00  0.00    -0.275 OA
BRANCH  77  80
ATOM     80  C   UNL A   1      33.248  24.508  23.496  1.00  0.00     0.109 C 
ATOM     81  C   UNL A   1      33.086  23.113  22.889  1.00  0.00     0.117 C 
ATOM     82  C   UNL A   1      34.391  23.915  24.323  1.00  0.00     0.117 C 
ATOM     83  N   UNL A   1      33.930  22.519  23.991  1.00  0.00    -0.196 NA
BRANCH  83  84
ATOM     84  S   UNL A   1      33.226  21.477  25.161  1.00  0.00     0.243 S 
ATOM     85  O   UNL A   1      34.033  21.544  26.364  1.00  0.00    -0.207 OA
ATOM     86  O   UNL A   1      31.809  21.763  25.181  1.00  0.00    -0.207 OA
BRANCH  84  87
ATOM     87  C   UNL A   1      33.445  19.858  24.462  1.00  0.00     0.082 A 
ATOM     88  C   UNL A   1      32.515  19.351  23.547  1.00  0.00     0.025 A 
ATOM     89  C   UNL A   1      34.576  19.110  24.817  1.00  0.00     0.025 A 
ATOM     90  C   UNL A   1      32.715  18.085  22.993  1.00  0.00     0.040 A 
ATOM     91  C   UNL A   1      34.774  17.850  24.251  1.00  0.00     0.040 A 
ATOM     92  C   UNL A   1      33.842  17.349  23.347  1.00  0.00     0.123 A 
ATOM     93  F   UNL A   1      34.035  16.140  22.804  1.00  0.00    -0.207 F 
ENDBRANCH  84  87
ENDBRANCH  83  84
ENDBRANCH  77  80
ENDBRANCH  75  76
ENDBRANCH  74  75
ENDBRANCH  73  74
ENDBRANCH   1  73
TORSDOF 15
ENDMDL
