MODEL 1
REMARK VINA RESULT:     -10.6      0.000      0.000
REMARK SMILES CSCCC(=O)N1[C@H](C)CCC[C@@H]1C(=O)NCCCCCCNC(=O)c1ccc(-c2c3nc(c(-c4c(F)c(F)c(F)c(F)c4F)c4ccc([nH]4)c(-c4c(F)c(F)c(F)c(F)c4F)c4nc(c(-c5c(F)c(F)c(F)c(F)c5F)c5ccc2[nH]5)C=C4)C=C3)cc1
REMARK SMILES IDX 18 1 17 2 16 3 14 4 15 5 13 7 7 8 8 9 9 10 10 11 12 12 11 13
REMARK SMILES IDX 5 14 6 15 4 16 3 17 2 18 1 19 19 20 20 21 21 22 22 23 23 24
REMARK SMILES IDX 24 25 25 27 26 28 27 29 88 30 28 31 87 32 29 33 30 34 31 35
REMARK SMILES IDX 81 36 32 37 86 38 80 39 82 40 33 41 85 42 79 43 78 44 34 46
REMARK SMILES IDX 66 47 46 48 65 49 47 50 50 51 64 52 83 53 48 54 49 55 63 57
REMARK SMILES IDX 84 58 51 59 35 60 36 61 44 62 37 63 38 64 42 65 45 66 39 67
REMARK SMILES IDX 40 68 43 69 41 70 67 71 68 72 76 73 69 74 70 75 74 76 77 77
REMARK SMILES IDX 71 78 72 79 75 80 73 81 52 82 53 83 61 84 54 85 55 86 59 87
REMARK SMILES IDX 62 88 56 89 57 90 60 91 58 92
REMARK H PARENT 16 6 23 26 82 45 50 56
REMARK Flexibility Score: inf
ROOT
ATOM      1  C   UNL A   1      34.642  31.237  28.002  1.00  0.00     0.021 C 
ENDROOT
BRANCH   1   2
ATOM      2  C   UNL A   1      33.519  30.852  27.042  1.00  0.00     0.116 C 
BRANCH   2   3
ATOM      3  N   UNL A   1      33.850  29.839  26.059  1.00  0.00    -0.354 N 
ATOM      4  C   UNL A   1      33.102  29.396  24.996  1.00  0.00     0.242 C 
ATOM      5  O   UNL A   1      33.651  29.484  23.890  1.00  0.00    -0.273 OA
ATOM      6  H   UNL A   1      34.729  29.410  26.169  1.00  0.00     0.163 HD
BRANCH   4   7
ATOM      7  C   UNL A   1      31.690  28.726  25.122  1.00  0.00     0.174 C 
ATOM      8  N   UNL A   1      31.558  27.248  25.061  1.00  0.00    -0.328 N 
ATOM      9  C   UNL A   1      31.569  26.642  23.747  1.00  0.00     0.082 C 
ATOM     10  C   UNL A   1      32.907  25.978  23.426  1.00  0.00     0.031 C 
ATOM     11  C   UNL A   1      30.890  27.521  22.675  1.00  0.00     0.025 C 
ATOM     12  C   UNL A   1      30.618  29.439  24.279  1.00  0.00     0.035 C 
ATOM     13  C   UNL A   1      29.905  28.503  23.307  1.00  0.00     0.005 C 
BRANCH   8  14
ATOM     14  C   UNL A   1      30.943  26.546  26.106  1.00  0.00     0.224 C 
ATOM     15  O   UNL A   1      30.948  26.964  27.266  1.00  0.00    -0.275 OA
BRANCH  14  16
ATOM     16  C   UNL A   1      30.282  25.190  25.785  1.00  0.00     0.111 C 
BRANCH  16  17
ATOM     17  C   UNL A   1      30.864  23.925  26.440  1.00  0.00     0.079 C 
BRANCH  17  18
ATOM     18  S   UNL A   1      32.712  23.784  26.468  1.00  0.00    -0.165 SA
ATOM     19  C   UNL A   1      32.961  22.454  27.690  1.00  0.00     0.085 C 
ENDBRANCH  17  18
ENDBRANCH  16  17
ENDBRANCH  14  16
ENDBRANCH   8  14
ENDBRANCH   4   7
ENDBRANCH   2   3
ENDBRANCH   1   2
BRANCH   1  20
ATOM     20  C   UNL A   1      34.936  32.745  27.975  1.00  0.00     0.002 C 
BRANCH  20  21
ATOM     21  C   UNL A   1      34.452  33.556  29.187  1.00  0.00     0.002 C 
BRANCH  21  22
ATOM     22  C   UNL A   1      33.200  34.409  28.974  1.00  0.00     0.021 C 
BRANCH  22  23
ATOM     23  C   UNL A   1      33.330  35.877  29.375  1.00  0.00     0.116 C 
BRANCH  23  24
ATOM     24  N   UNL A   1      32.519  36.222  30.533  1.00  0.00    -0.352 N 
ATOM     25  C   UNL A   1      32.640  35.849  31.848  1.00  0.00     0.251 C 
ATOM     26  H   UNL A   1      31.760  36.820  30.341  1.00  0.00     0.163 HD
ATOM     27  O   UNL A   1      31.752  36.116  32.647  1.00  0.00    -0.269 OA
BRANCH  25  28
ATOM     28  C   UNL A   1      33.837  35.111  32.300  1.00  0.00     0.039 A 
ATOM     29  C   UNL A   1      33.681  33.817  32.803  1.00  0.00     0.014 A 
ATOM     30  C   UNL A   1      35.104  35.700  32.253  1.00  0.00     0.014 A 
ATOM     31  C   UNL A   1      34.802  33.092  33.205  1.00  0.00     0.010 A 
ATOM     32  C   UNL A   1      36.227  34.948  32.579  1.00  0.00     0.010 A 
ATOM     33  C   UNL A   1      36.088  33.639  33.064  1.00  0.00    -0.014 A 
BRANCH  33  34
ATOM     34  C   UNL A   1      37.299  32.863  33.429  1.00  0.00     0.031 A 
ATOM     35  C   UNL A   1      38.028  33.164  34.709  1.00  0.00     0.074 A 
ATOM     36  C   UNL A   1      37.771  31.928  32.580  1.00  0.00     0.049 A 
ATOM     37  N   UNL A   1      39.147  32.662  35.163  1.00  0.00    -0.248 NA
ATOM     38  C   UNL A   1      37.432  34.188  35.585  1.00  0.00     0.031 C 
ATOM     39  C   UNL A   1      37.173  31.579  31.290  1.00  0.00     0.029 A 
ATOM     40  N   UNL A   1      38.870  31.113  32.668  1.00  0.00    -0.354 N 
ATOM     41  C   UNL A   1      39.388  33.305  36.369  1.00  0.00     0.074 A 
ATOM     42  C   UNL A   1      38.338  34.284  36.546  1.00  0.00     0.031 C 
ATOM     43  C   UNL A   1      37.904  30.611  30.715  1.00  0.00     0.029 A 
ATOM     44  C   UNL A   1      39.044  30.302  31.572  1.00  0.00     0.049 A 
ATOM     45  H   UNL A   1      39.477  31.107  33.444  1.00  0.00     0.167 HD
ATOM     46  C   UNL A   1      40.379  33.077  37.264  1.00  0.00     0.037 A 
ATOM     47  C   UNL A   1      40.023  29.424  31.285  1.00  0.00     0.037 A 
ATOM     48  C   UNL A   1      41.416  32.094  37.088  1.00  0.00     0.049 A 
ATOM     49  C   UNL A   1      41.129  29.213  32.285  1.00  0.00     0.074 A 
ATOM     50  C   UNL A   1      42.451  31.768  37.945  1.00  0.00     0.029 A 
ATOM     51  N   UNL A   1      41.545  31.276  35.975  1.00  0.00    -0.354 N 
ATOM     52  N   UNL A   1      41.315  29.788  33.448  1.00  0.00    -0.248 NA
ATOM     53  C   UNL A   1      42.156  28.221  31.938  1.00  0.00     0.031 C 
ATOM     54  C   UNL A   1      43.235  30.787  37.332  1.00  0.00     0.029 A 
ATOM     55  C   UNL A   1      42.653  30.457  36.118  1.00  0.00     0.049 A 
ATOM     56  H   UNL A   1      40.940  31.278  35.198  1.00  0.00     0.167 HD
ATOM     57  C   UNL A   1      42.456  29.206  33.985  1.00  0.00     0.074 A 
ATOM     58  C   UNL A   1      42.909  28.219  33.028  1.00  0.00     0.031 C 
ATOM     59  C   UNL A   1      43.077  29.467  35.162  1.00  0.00     0.037 A 
BRANCH  46  60
ATOM     60  C   UNL A   1      40.381  33.892  38.525  1.00  0.00     0.064 A 
ATOM     61  C   UNL A   1      39.664  33.484  39.662  1.00  0.00     0.173 A 
ATOM     62  C   UNL A   1      41.148  35.063  38.622  1.00  0.00     0.173 A 
ATOM     63  F   UNL A   1      38.905  32.379  39.619  1.00  0.00    -0.203 F 
ATOM     64  C   UNL A   1      39.698  34.229  40.838  1.00  0.00     0.198 A 
ATOM     65  C   UNL A   1      41.206  35.787  39.811  1.00  0.00     0.198 A 
ATOM     66  F   UNL A   1      41.857  35.497  37.568  1.00  0.00    -0.203 F 
ATOM     67  F   UNL A   1      38.969  33.842  41.894  1.00  0.00    -0.200 F 
ATOM     68  C   UNL A   1      40.476  35.373  40.914  1.00  0.00     0.200 A 
ATOM     69  F   UNL A   1      41.970  36.885  39.887  1.00  0.00    -0.200 F 
ATOM     70  F   UNL A   1      40.519  36.081  42.051  1.00  0.00    -0.200 F 
ENDBRANCH  46  60
BRANCH  47  71
ATOM     71  C   UNL A   1      40.009  28.679  29.997  1.00  0.00     0.064 A 
ATOM     72  C   UNL A   1      39.400  27.419  29.894  1.00  0.00     0.173 A 
ATOM     73  C   UNL A   1      40.637  29.192  28.852  1.00  0.00     0.173 A 
ATOM     74  F   UNL A   1      38.802  26.875  30.964  1.00  0.00    -0.203 F 
ATOM     75  C   UNL A   1      39.456  26.686  28.710  1.00  0.00     0.198 A 
ATOM     76  C   UNL A   1      40.659  28.474  27.659  1.00  0.00     0.198 A 
ATOM     77  F   UNL A   1      41.227  30.396  28.891  1.00  0.00    -0.203 F 
ATOM     78  F   UNL A   1      38.926  25.457  28.662  1.00  0.00    -0.200 F 
ATOM     79  C   UNL A   1      40.082  27.215  27.593  1.00  0.00     0.200 A 
ATOM     80  F   UNL A   1      41.249  28.998  26.575  1.00  0.00    -0.200 F 
ATOM     81  F   UNL A   1      40.140  26.508  26.456  1.00  0.00    -0.200 F 
ENDBRANCH  47  71
BRANCH  59  82
ATOM     82  C   UNL A   1      44.283  28.639  35.503  1.00  0.00     0.064 A 
ATOM     83  C   UNL A   1      45.577  29.026  35.127  1.00  0.00     0.173 A 
ATOM     84  C   UNL A   1      44.141  27.461  36.253  1.00  0.00     0.173 A 
ATOM     85  F   UNL A   1      45.765  30.136  34.397  1.00  0.00    -0.203 F 
ATOM     86  C   UNL A   1      46.682  28.249  35.463  1.00  0.00     0.198 A 
ATOM     87  C   UNL A   1      45.251  26.705  36.618  1.00  0.00     0.198 A 
ATOM     88  F   UNL A   1      42.926  27.051  36.646  1.00  0.00    -0.203 F 
ATOM     89  F   UNL A   1      47.904  28.610  35.047  1.00  0.00    -0.200 F 
ATOM     90  C   UNL A   1      46.519  27.095  36.215  1.00  0.00     0.200 A 
ATOM     91  F   UNL A   1      45.094  25.601  37.359  1.00  0.00    -0.200 F 
ATOM     92  F   UNL A   1      47.586  26.354  36.546  1.00  0.00    -0.200 F 
ENDBRANCH  59  82
ENDBRANCH  33  34
ENDBRANCH  25  28
ENDBRANCH  23  24
ENDBRANCH  22  23
ENDBRANCH  21  22
ENDBRANCH  20  21
ENDBRANCH   1  20
TORSDOF 17
ENDMDL
MODEL 2
REMARK VINA RESULT:     -10.4      6.217     10.770
REMARK SMILES CSCCC(=O)N1[C@H](C)CCC[C@@H]1C(=O)NCCCCCCNC(=O)c1ccc(-c2c3nc(c(-c4c(F)c(F)c(F)c(F)c4F)c4ccc([nH]4)c(-c4c(F)c(F)c(F)c(F)c4F)c4nc(c(-c5c(F)c(F)c(F)c(F)c5F)c5ccc2[nH]5)C=C4)C=C3)cc1
REMARK SMILES IDX 18 1 17 2 16 3 14 4 15 5 13 7 7 8 8 9 9 10 10 11 12 12 11 13
REMARK SMILES IDX 5 14 6 15 4 16 3 17 2 18 1 19 19 20 20 21 21 22 22 23 23 24
REMARK SMILES IDX 24 25 25 27 26 28 27 29 88 30 28 31 87 32 29 33 30 34 31 35
REMARK SMILES IDX 81 36 32 37 86 38 80 39 82 40 33 41 85 42 79 43 78 44 34 46
REMARK SMILES IDX 66 47 46 48 65 49 47 50 50 51 64 52 83 53 48 54 49 55 63 57
REMARK SMILES IDX 84 58 51 59 35 60 36 61 44 62 37 63 38 64 42 65 45 66 39 67
REMARK SMILES IDX 40 68 43 69 41 70 67 71 68 72 76 73 69 74 70 75 74 76 77 77
REMARK SMILES IDX 71 78 72 79 75 80 73 81 52 82 53 83 61 84 54 85 55 86 59 87
REMARK SMILES IDX 62 88 56 89 57 90 60 91 58 92
REMARK H PARENT 16 6 23 26 82 45 50 56
REMARK Flexibility Score: inf
ROOT
ATOM      1  C   UNL A   1      35.884  22.564  23.879  1.00  0.00     0.021 C 
ENDROOT
BRANCH   1   2
ATOM      2  C   UNL A   1      35.640  23.892  24.591  1.00  0.00     0.116 C 
BRANCH   2   3
ATOM      3  N   UNL A   1      34.649  24.759  23.985  1.00  0.00    -0.354 N 
ATOM      4  C   UNL A   1      33.890  25.740  24.574  1.00  0.00     0.242 C 
ATOM      5  O   UNL A   1      33.994  26.865  24.068  1.00  0.00    -0.273 OA
ATOM      6  H   UNL A   1      34.498  24.626  23.021  1.00  0.00     0.163 HD
BRANCH   4   7
ATOM      7  C   UNL A   1      32.873  25.495  25.742  1.00  0.00     0.174 C 
ATOM      8  N   UNL A   1      31.766  24.520  25.574  1.00  0.00    -0.328 N 
ATOM      9  C   UNL A   1      30.600  24.971  24.846  1.00  0.00     0.082 C 
ATOM     10  C   UNL A   1      30.557  24.419  23.422  1.00  0.00     0.031 C 
ATOM     11  C   UNL A   1      30.282  26.462  25.084  1.00  0.00     0.025 C 
ATOM     12  C   UNL A   1      32.399  26.803  26.400  1.00  0.00     0.035 C 
ATOM     13  C   UNL A   1      30.880  26.952  26.402  1.00  0.00     0.005 C 
BRANCH   8  14
ATOM     14  C   UNL A   1      31.611  23.458  26.476  1.00  0.00     0.224 C 
ATOM     15  O   UNL A   1      30.774  23.486  27.381  1.00  0.00    -0.275 OA
BRANCH  14  16
ATOM     16  C   UNL A   1      32.555  22.246  26.344  1.00  0.00     0.111 C 
BRANCH  16  17
ATOM     17  C   UNL A   1      32.474  21.399  25.062  1.00  0.00     0.079 C 
BRANCH  17  18
ATOM     18  S   UNL A   1      33.273  19.729  25.122  1.00  0.00    -0.165 SA
ATOM     19  C   UNL A   1      32.458  18.879  23.730  1.00  0.00     0.085 C 
ENDBRANCH  17  18
ENDBRANCH  16  17
ENDBRANCH  14  16
ENDBRANCH   8  14
ENDBRANCH   4   7
ENDBRANCH   2   3
ENDBRANCH   1   2
BRANCH   1  20
ATOM     20  C   UNL A   1      37.148  21.856  24.388  1.00  0.00     0.002 C 
BRANCH  20  21
ATOM     21  C   UNL A   1      36.965  20.424  24.912  1.00  0.00     0.002 C 
BRANCH  21  22
ATOM     22  C   UNL A   1      38.218  19.545  24.930  1.00  0.00     0.021 C 
BRANCH  22  23
ATOM     23  C   UNL A   1      39.222  19.856  26.037  1.00  0.00     0.116 C 
BRANCH  23  24
ATOM     24  N   UNL A   1      40.416  19.026  25.968  1.00  0.00    -0.352 N 
ATOM     25  C   UNL A   1      41.744  19.369  26.021  1.00  0.00     0.251 C 
ATOM     26  H   UNL A   1      40.242  18.062  25.868  1.00  0.00     0.163 HD
ATOM     27  O   UNL A   1      42.604  18.533  25.778  1.00  0.00    -0.269 OA
BRANCH  25  28
ATOM     28  C   UNL A   1      42.137  20.752  26.357  1.00  0.00     0.039 A 
ATOM     29  C   UNL A   1      42.348  21.086  27.697  1.00  0.00     0.014 A 
ATOM     30  C   UNL A   1      42.271  21.723  25.360  1.00  0.00     0.014 A 
ATOM     31  C   UNL A   1      42.750  22.378  28.032  1.00  0.00     0.010 A 
ATOM     32  C   UNL A   1      42.748  22.987  25.687  1.00  0.00     0.010 A 
ATOM     33  C   UNL A   1      42.987  23.330  27.026  1.00  0.00    -0.014 A 
BRANCH  33  34
ATOM     34  C   UNL A   1      43.473  24.693  27.356  1.00  0.00     0.031 A 
ATOM     35  C   UNL A   1      42.519  25.721  27.897  1.00  0.00     0.074 A 
ATOM     36  C   UNL A   1      44.759  25.017  27.113  1.00  0.00     0.049 A 
ATOM     37  N   UNL A   1      42.727  26.985  28.163  1.00  0.00    -0.248 NA
ATOM     38  C   UNL A   1      41.138  25.276  28.148  1.00  0.00     0.031 C 
ATOM     39  C   UNL A   1      45.766  24.116  26.550  1.00  0.00     0.029 A 
ATOM     40  N   UNL A   1      45.434  26.197  27.295  1.00  0.00    -0.354 N 
ATOM     41  C   UNL A   1      41.511  27.482  28.610  1.00  0.00     0.074 A 
ATOM     42  C   UNL A   1      40.551  26.405  28.514  1.00  0.00     0.031 C 
ATOM     43  C   UNL A   1      46.933  24.772  26.446  1.00  0.00     0.029 A 
ATOM     44  C   UNL A   1      46.747  26.148  26.893  1.00  0.00     0.049 A 
ATOM     45  H   UNL A   1      45.018  27.003  27.679  1.00  0.00     0.167 HD
ATOM     46  C   UNL A   1      41.228  28.718  29.086  1.00  0.00     0.037 A 
ATOM     47  C   UNL A   1      47.688  27.112  26.871  1.00  0.00     0.037 A 
ATOM     48  C   UNL A   1      42.190  29.784  29.189  1.00  0.00     0.049 A 
ATOM     49  C   UNL A   1      47.336  28.485  27.380  1.00  0.00     0.074 A 
ATOM     50  C   UNL A   1      42.011  31.064  29.681  1.00  0.00     0.029 A 
ATOM     51  N   UNL A   1      43.516  29.688  28.794  1.00  0.00    -0.354 N 
ATOM     52  N   UNL A   1      46.196  28.927  27.851  1.00  0.00    -0.248 NA
ATOM     53  C   UNL A   1      48.407  29.492  27.363  1.00  0.00     0.031 C 
ATOM     54  C   UNL A   1      43.214  31.760  29.540  1.00  0.00     0.029 A 
ATOM     55  C   UNL A   1      44.162  30.894  29.016  1.00  0.00     0.049 A 
ATOM     56  H   UNL A   1      43.936  28.885  28.411  1.00  0.00     0.167 HD
ATOM     57  C   UNL A   1      46.420  30.248  28.218  1.00  0.00     0.074 A 
ATOM     58  C   UNL A   1      47.810  30.529  27.932  1.00  0.00     0.031 C 
ATOM     59  C   UNL A   1      45.552  31.149  28.741  1.00  0.00     0.037 A 
BRANCH  46  60
ATOM     60  C   UNL A   1      39.824  28.981  29.551  1.00  0.00     0.064 A 
ATOM     61  C   UNL A   1      38.819  29.379  28.656  1.00  0.00     0.173 A 
ATOM     62  C   UNL A   1      39.463  28.780  30.892  1.00  0.00     0.173 A 
ATOM     63  F   UNL A   1      39.113  29.598  27.366  1.00  0.00    -0.203 F 
ATOM     64  C   UNL A   1      37.512  29.589  29.090  1.00  0.00     0.198 A 
ATOM     65  C   UNL A   1      38.148  28.958  31.316  1.00  0.00     0.198 A 
ATOM     66  F   UNL A   1      40.383  28.393  31.790  1.00  0.00    -0.203 F 
ATOM     67  F   UNL A   1      36.581  30.013  28.224  1.00  0.00    -0.200 F 
ATOM     68  C   UNL A   1      37.176  29.368  30.416  1.00  0.00     0.200 A 
ATOM     69  F   UNL A   1      37.822  28.730  32.595  1.00  0.00    -0.200 F 
ATOM     70  F   UNL A   1      35.915  29.556  30.829  1.00  0.00    -0.200 F 
ENDBRANCH  46  60
BRANCH  47  71
ATOM     71  C   UNL A   1      49.050  26.819  26.350  1.00  0.00     0.064 A 
ATOM     72  C   UNL A   1      49.375  27.039  25.003  1.00  0.00     0.173 A 
ATOM     73  C   UNL A   1      50.045  26.276  27.177  1.00  0.00     0.173 A 
ATOM     74  F   UNL A   1      48.455  27.539  24.166  1.00  0.00    -0.203 F 
ATOM     75  C   UNL A   1      50.626  26.690  24.497  1.00  0.00     0.198 A 
ATOM     76  C   UNL A   1      51.307  25.963  26.678  1.00  0.00     0.198 A 
ATOM     77  F   UNL A   1      49.792  26.054  28.476  1.00  0.00    -0.203 F 
ATOM     78  F   UNL A   1      50.883  26.847  23.192  1.00  0.00    -0.200 F 
ATOM     79  C   UNL A   1      51.592  26.156  25.335  1.00  0.00     0.200 A 
ATOM     80  F   UNL A   1      52.244  25.464  27.496  1.00  0.00    -0.200 F 
ATOM     81  F   UNL A   1      52.792  25.816  24.847  1.00  0.00    -0.200 F 
ENDBRANCH  47  71
BRANCH  59  82
ATOM     82  C   UNL A   1      46.093  32.507  29.084  1.00  0.00     0.064 A 
ATOM     83  C   UNL A   1      46.651  32.786  30.340  1.00  0.00     0.173 A 
ATOM     84  C   UNL A   1      46.089  33.533  28.124  1.00  0.00     0.173 A 
ATOM     85  F   UNL A   1      46.666  31.846  31.296  1.00  0.00    -0.203 F 
ATOM     86  C   UNL A   1      47.157  34.050  30.633  1.00  0.00     0.198 A 
ATOM     87  C   UNL A   1      46.629  34.783  28.409  1.00  0.00     0.198 A 
ATOM     88  F   UNL A   1      45.575  33.315  26.904  1.00  0.00    -0.203 F 
ATOM     89  F   UNL A   1      47.636  34.310  31.858  1.00  0.00    -0.200 F 
ATOM     90  C   UNL A   1      47.153  35.044  29.665  1.00  0.00     0.200 A 
ATOM     91  F   UNL A   1      46.640  35.736  27.467  1.00  0.00    -0.200 F 
ATOM     92  F   UNL A   1      47.650  36.256  29.947  1.00  0.00    -0.200 F 
ENDBRANCH  59  82
ENDBRANCH  33  34
ENDBRANCH  25  28
ENDBRANCH  23  24
ENDBRANCH  22  23
ENDBRANCH  21  22
ENDBRANCH  20  21
ENDBRANCH   1  20
TORSDOF 17
ENDMDL
MODEL 3
REMARK VINA RESULT:     -10.4      6.377     10.952
REMARK SMILES CSCCC(=O)N1[C@H](C)CCC[C@@H]1C(=O)NCCCCCCNC(=O)c1ccc(-c2c3nc(c(-c4c(F)c(F)c(F)c(F)c4F)c4ccc([nH]4)c(-c4c(F)c(F)c(F)c(F)c4F)c4nc(c(-c5c(F)c(F)c(F)c(F)c5F)c5ccc2[nH]5)C=C4)C=C3)cc1
REMARK SMILES IDX 18 1 17 2 16 3 14 4 15 5 13 7 7 8 8 9 9 10 10 11 12 12 11 13
REMARK SMILES IDX 5 14 6 15 4 16 3 17 2 18 1 19 19 20 20 21 21 22 22 23 23 24
REMARK SMILES IDX 24 25 25 27 26 28 27 29 88 30 28 31 87 32 29 33 30 34 31 35
REMARK SMILES IDX 81 36 32 37 86 38 80 39 82 40 33 41 85 42 79 43 78 44 34 46
REMARK SMILES IDX 66 47 46 48 65 49 47 50 50 51 64 52 83 53 48 54 49 55 63 57
REMARK SMILES IDX 84 58 51 59 35 60 36 61 44 62 37 63 38 64 42 65 45 66 39 67
REMARK SMILES IDX 40 68 43 69 41 70 67 71 68 72 76 73 69 74 70 75 74 76 77 77
REMARK SMILES IDX 71 78 72 79 75 80 73 81 52 82 53 83 61 84 54 85 55 86 59 87
REMARK SMILES IDX 62 88 56 89 57 90 60 91 58 92
REMARK H PARENT 16 6 23 26 82 45 50 56
REMARK Flexibility Score: inf
ROOT
ATOM      1  C   UNL A   1      35.834  22.771  24.081  1.00  0.00     0.021 C 
ENDROOT
BRANCH   1   2
ATOM      2  C   UNL A   1      34.518  22.344  24.725  1.00  0.00     0.116 C 
BRANCH   2   3
ATOM      3  N   UNL A   1      34.248  22.900  26.036  1.00  0.00    -0.354 N 
ATOM      4  C   UNL A   1      33.160  23.625  26.455  1.00  0.00     0.242 C 
ATOM      5  O   UNL A   1      32.554  23.157  27.428  1.00  0.00    -0.273 OA
ATOM      6  H   UNL A   1      34.938  22.736  26.718  1.00  0.00     0.163 HD
BRANCH   4   7
ATOM      7  C   UNL A   1      32.725  25.004  25.848  1.00  0.00     0.174 C 
ATOM      8  N   UNL A   1      31.547  25.085  24.948  1.00  0.00    -0.328 N 
ATOM      9  C   UNL A   1      31.750  24.704  23.566  1.00  0.00     0.082 C 
ATOM     10  C   UNL A   1      31.191  23.316  23.259  1.00  0.00     0.031 C 
ATOM     11  C   UNL A   1      33.150  25.085  23.039  1.00  0.00     0.025 C 
ATOM     12  C   UNL A   1      33.916  25.821  25.319  1.00  0.00     0.035 C 
ATOM     13  C   UNL A   1      33.759  26.224  23.855  1.00  0.00     0.005 C 
BRANCH   8  14
ATOM     14  C   UNL A   1      30.482  25.946  25.245  1.00  0.00     0.224 C 
ATOM     15  O   UNL A   1      29.940  25.957  26.352  1.00  0.00    -0.275 OA
BRANCH  14  16
ATOM     16  C   UNL A   1      29.957  26.870  24.128  1.00  0.00     0.111 C 
BRANCH  16  17
ATOM     17  C   UNL A   1      30.505  28.305  24.055  1.00  0.00     0.079 C 
BRANCH  17  18
ATOM     18  S   UNL A   1      29.771  29.406  22.757  1.00  0.00    -0.165 SA
ATOM     19  C   UNL A   1      28.004  28.967  22.858  1.00  0.00     0.085 C 
ENDBRANCH  17  18
ENDBRANCH  16  17
ENDBRANCH  14  16
ENDBRANCH   8  14
ENDBRANCH   4   7
ENDBRANCH   2   3
ENDBRANCH   1   2
BRANCH   1  20
ATOM     20  C   UNL A   1      37.028  21.959  24.607  1.00  0.00     0.002 C 
BRANCH  20  21
ATOM     21  C   UNL A   1      36.748  20.493  24.970  1.00  0.00     0.002 C 
BRANCH  21  22
ATOM     22  C   UNL A   1      37.958  19.556  24.978  1.00  0.00     0.021 C 
BRANCH  22  23
ATOM     23  C   UNL A   1      39.219  20.117  25.632  1.00  0.00     0.116 C 
BRANCH  23  24
ATOM     24  N   UNL A   1      40.251  19.111  25.828  1.00  0.00    -0.352 N 
ATOM     25  C   UNL A   1      41.588  19.247  26.105  1.00  0.00     0.251 C 
ATOM     26  H   UNL A   1      39.939  18.180  25.749  1.00  0.00     0.163 HD
ATOM     27  O   UNL A   1      42.326  18.272  26.069  1.00  0.00    -0.269 OA
BRANCH  25  28
ATOM     28  C   UNL A   1      42.142  20.576  26.432  1.00  0.00     0.039 A 
ATOM     29  C   UNL A   1      42.441  21.458  25.390  1.00  0.00     0.014 A 
ATOM     30  C   UNL A   1      42.392  20.943  27.758  1.00  0.00     0.014 A 
ATOM     31  C   UNL A   1      42.935  22.729  25.681  1.00  0.00     0.010 A 
ATOM     32  C   UNL A   1      42.810  22.237  28.049  1.00  0.00     0.010 A 
ATOM     33  C   UNL A   1      43.091  23.142  27.014  1.00  0.00    -0.014 A 
BRANCH  33  34
ATOM     34  C   UNL A   1      43.558  24.510  27.347  1.00  0.00     0.031 A 
ATOM     35  C   UNL A   1      42.577  25.544  27.825  1.00  0.00     0.074 A 
ATOM     36  C   UNL A   1      44.853  24.835  27.162  1.00  0.00     0.049 A 
ATOM     37  N   UNL A   1      42.769  26.813  28.081  1.00  0.00    -0.248 NA
ATOM     38  C   UNL A   1      41.186  25.099  28.015  1.00  0.00     0.031 C 
ATOM     39  C   UNL A   1      45.889  23.928  26.662  1.00  0.00     0.029 A 
ATOM     40  N   UNL A   1      45.517  26.019  27.359  1.00  0.00    -0.354 N 
ATOM     41  C   UNL A   1      41.531  27.313  28.461  1.00  0.00     0.074 A 
ATOM     42  C   UNL A   1      40.579  26.232  28.335  1.00  0.00     0.031 C 
ATOM     43  C   UNL A   1      47.058  24.585  26.605  1.00  0.00     0.029 A 
ATOM     44  C   UNL A   1      46.848  25.968  27.023  1.00  0.00     0.049 A 
ATOM     45  H   UNL A   1      45.080  26.829  27.710  1.00  0.00     0.167 HD
ATOM     46  C   UNL A   1      41.223  28.555  28.904  1.00  0.00     0.037 A 
ATOM     47  C   UNL A   1      47.787  26.933  27.032  1.00  0.00     0.037 A 
ATOM     48  C   UNL A   1      42.176  29.625  29.038  1.00  0.00     0.049 A 
ATOM     49  C   UNL A   1      47.408  28.313  27.502  1.00  0.00     0.074 A 
ATOM     50  C   UNL A   1      41.971  30.912  29.501  1.00  0.00     0.029 A 
ATOM     51  N   UNL A   1      43.520  29.527  28.709  1.00  0.00    -0.354 N 
ATOM     52  N   UNL A   1      46.245  28.759  27.910  1.00  0.00    -0.248 NA
ATOM     53  C   UNL A   1      48.476  29.322  27.522  1.00  0.00     0.031 C 
ATOM     54  C   UNL A   1      43.179  31.608  29.408  1.00  0.00     0.029 A 
ATOM     55  C   UNL A   1      44.153  30.738  28.945  1.00  0.00     0.049 A 
ATOM     56  H   UNL A   1      43.960  28.719  28.360  1.00  0.00     0.167 HD
ATOM     57  C   UNL A   1      46.448  30.086  28.268  1.00  0.00     0.074 A 
ATOM     58  C   UNL A   1      47.850  30.367  28.045  1.00  0.00     0.031 C 
ATOM     59  C   UNL A   1      45.554  30.992  28.734  1.00  0.00     0.037 A 
BRANCH  46  60
ATOM     60  C   UNL A   1      39.798  28.821  29.296  1.00  0.00     0.064 A 
ATOM     61  C   UNL A   1      38.857  29.288  28.364  1.00  0.00     0.173 A 
ATOM     62  C   UNL A   1      39.350  28.555  30.599  1.00  0.00     0.173 A 
ATOM     63  F   UNL A   1      39.234  29.570  27.109  1.00  0.00    -0.203 F 
ATOM     64  C   UNL A   1      37.530  29.500  28.728  1.00  0.00     0.198 A 
ATOM     65  C   UNL A   1      38.015  28.736  30.950  1.00  0.00     0.198 A 
ATOM     66  F   UNL A   1      40.205  28.102  31.529  1.00  0.00    -0.203 F 
ATOM     67  F   UNL A   1      36.661  29.990  27.832  1.00  0.00    -0.200 F 
ATOM     68  C   UNL A   1      37.108  29.215  30.017  1.00  0.00     0.200 A 
ATOM     69  F   UNL A   1      37.605  28.447  32.193  1.00  0.00    -0.200 F 
ATOM     70  F   UNL A   1      35.827  29.406  30.362  1.00  0.00    -0.200 F 
ENDBRANCH  46  60
BRANCH  47  71
ATOM     71  C   UNL A   1      49.173  26.636  26.582  1.00  0.00     0.064 A 
ATOM     72  C   UNL A   1      50.156  26.214  27.490  1.00  0.00     0.173 A 
ATOM     73  C   UNL A   1      49.556  26.804  25.243  1.00  0.00     0.173 A 
ATOM     74  F   UNL A   1      49.847  26.056  28.785  1.00  0.00    -0.203 F 
ATOM     75  C   UNL A   1      51.474  26.013  27.084  1.00  0.00     0.198 A 
ATOM     76  C   UNL A   1      50.865  26.566  24.831  1.00  0.00     0.198 A 
ATOM     77  F   UNL A   1      48.654  27.196  24.330  1.00  0.00    -0.203 F 
ATOM     78  F   UNL A   1      52.406  25.678  27.986  1.00  0.00    -0.200 F 
ATOM     79  C   UNL A   1      51.827  26.185  25.754  1.00  0.00     0.200 A 
ATOM     80  F   UNL A   1      51.197  26.716  23.541  1.00  0.00    -0.200 F 
ATOM     81  F   UNL A   1      53.095  25.997  25.365  1.00  0.00    -0.200 F 
ENDBRANCH  47  71
BRANCH  59  82
ATOM     82  C   UNL A   1      46.075  32.357  29.083  1.00  0.00     0.064 A 
ATOM     83  C   UNL A   1      46.630  32.639  30.339  1.00  0.00     0.173 A 
ATOM     84  C   UNL A   1      46.055  33.386  28.127  1.00  0.00     0.173 A 
ATOM     85  F   UNL A   1      46.661  31.694  31.291  1.00  0.00    -0.203 F 
ATOM     86  C   UNL A   1      47.118  33.909  30.637  1.00  0.00     0.198 A 
ATOM     87  C   UNL A   1      46.575  34.644  28.417  1.00  0.00     0.198 A 
ATOM     88  F   UNL A   1      45.543  33.166  26.907  1.00  0.00    -0.203 F 
ATOM     89  F   UNL A   1      47.594  34.170  31.862  1.00  0.00    -0.200 F 
ATOM     90  C   UNL A   1      47.097  34.906  29.674  1.00  0.00     0.200 A 
ATOM     91  F   UNL A   1      46.571  35.601  27.479  1.00  0.00    -0.200 F 
ATOM     92  F   UNL A   1      47.576  36.125  29.960  1.00  0.00    -0.200 F 
ENDBRANCH  59  82
ENDBRANCH  33  34
ENDBRANCH  25  28
ENDBRANCH  23  24
ENDBRANCH  22  23
ENDBRANCH  21  22
ENDBRANCH  20  21
ENDBRANCH   1  20
TORSDOF 17
ENDMDL
