MODEL 1
REMARK VINA RESULT:     -12.6      0.000      0.000
REMARK SMILES O=C(NCCCCCCNC(=O)[C@@]1(CCc2ccccc2)CCC[N@@H+](Cc2cccnc2)C1)c1ccc(-c2c3nc(c(-c4c(F)c(F)c(F)c(F)c4F)c4ccc([nH]4)c(-c4c(F)c(F)c(F)c(F)c4F)c4nc(c(-c5c(F)c(F)c(F)c(F)c5F)c5ccc2[nH]5)C=C4)C=C3)cc1
REMARK SMILES IDX 7 1 6 2 5 3 4 4 3 5 1 6 2 7 34 9 35 10 96 11 36 12 95 13
REMARK SMILES IDX 37 14 38 15 39 16 89 17 40 18 94 19 88 20 90 21 41 22 93 23
REMARK SMILES IDX 87 24 86 25 42 27 74 28 54 29 73 30 55 31 58 32 72 33 91 34
REMARK SMILES IDX 56 35 57 36 71 38 92 39 59 40 43 41 44 42 52 43 45 44 46 45
REMARK SMILES IDX 50 46 53 47 47 48 48 49 51 50 49 51 75 52 76 53 84 54 77 55
REMARK SMILES IDX 78 56 82 57 85 58 79 59 80 60 83 61 81 62 60 63 61 64 69 65
REMARK SMILES IDX 62 66 63 67 67 68 70 69 64 70 65 71 68 72 66 73 8 74 9 75
REMARK SMILES IDX 10 76 11 77 12 79 13 80 22 81 33 82 23 83 25 84 24 85 14 87
REMARK SMILES IDX 15 88 16 89 17 90 21 91 18 92 20 93 19 94 26 95 27 96 28 97
REMARK SMILES IDX 32 98 29 99 31 100 30 101
REMARK H PARENT 3 8 90 26 58 37 10 78 25 86
REMARK Flexibility Score: inf
ROOT
ATOM      1  C   UNL A   1      30.226  27.450  24.010  1.00  0.00     0.002 C 
ENDROOT
BRANCH   1   2
ATOM      2  C   UNL A   1      31.230  28.504  24.496  1.00  0.00     0.002 C 
BRANCH   2   3
ATOM      3  C   UNL A   1      32.700  28.085  24.419  1.00  0.00     0.021 C 
BRANCH   3   4
ATOM      4  C   UNL A   1      33.647  28.971  25.219  1.00  0.00     0.116 C 
BRANCH   4   5
ATOM      5  N   UNL A   1      33.003  30.197  25.661  1.00  0.00    -0.352 N 
ATOM      6  O   UNL A   1      32.519  31.864  27.105  1.00  0.00    -0.269 OA
ATOM      7  C   UNL A   1      33.291  30.977  26.754  1.00  0.00     0.251 C 
ATOM      8  H   UNL A   1      32.258  30.512  25.099  1.00  0.00     0.163 HD
BRANCH   7   9
ATOM      9  C   UNL A   1      34.534  30.735  27.514  1.00  0.00     0.039 A 
ATOM     10  C   UNL A   1      34.774  29.486  28.093  1.00  0.00     0.014 A 
ATOM     11  C   UNL A   1      35.481  31.757  27.632  1.00  0.00     0.014 A 
ATOM     12  C   UNL A   1      35.891  29.302  28.896  1.00  0.00     0.010 A 
ATOM     13  C   UNL A   1      36.651  31.541  28.366  1.00  0.00     0.010 A 
ATOM     14  C   UNL A   1      36.855  30.318  29.020  1.00  0.00    -0.014 A 
BRANCH  14  15
ATOM     15  C   UNL A   1      38.104  30.018  29.766  1.00  0.00     0.031 A 
ATOM     16  C   UNL A   1      38.347  30.559  31.144  1.00  0.00     0.074 A 
ATOM     17  C   UNL A   1      38.997  29.188  29.193  1.00  0.00     0.049 A 
ATOM     18  N   UNL A   1      39.346  30.318  31.957  1.00  0.00    -0.248 NA
ATOM     19  C   UNL A   1      37.352  31.498  31.683  1.00  0.00     0.031 C 
ATOM     20  C   UNL A   1      38.876  28.631  27.843  1.00  0.00     0.029 A 
ATOM     21  N   UNL A   1      40.156  28.640  29.674  1.00  0.00    -0.354 N 
ATOM     22  C   UNL A   1      39.106  31.074  33.096  1.00  0.00     0.074 A 
ATOM     23  C   UNL A   1      37.881  31.809  32.860  1.00  0.00     0.031 C 
ATOM     24  C   UNL A   1      39.884  27.774  27.628  1.00  0.00     0.029 A 
ATOM     25  C   UNL A   1      40.751  27.764  28.800  1.00  0.00     0.049 A 
ATOM     26  H   UNL A   1      40.527  28.853  30.562  1.00  0.00     0.167 HD
ATOM     27  C   UNL A   1      39.836  31.136  34.235  1.00  0.00     0.037 A 
ATOM     28  C   UNL A   1      41.874  27.035  28.923  1.00  0.00     0.037 A 
ATOM     29  C   UNL A   1      41.053  30.398  34.463  1.00  0.00     0.049 A 
ATOM     30  C   UNL A   1      42.654  27.117  30.203  1.00  0.00     0.074 A 
ATOM     31  C   UNL A   1      41.864  30.392  35.584  1.00  0.00     0.029 A 
ATOM     32  N   UNL A   1      41.635  29.532  33.547  1.00  0.00    -0.354 N 
ATOM     33  N   UNL A   1      42.399  27.818  31.281  1.00  0.00    -0.248 NA
ATOM     34  C   UNL A   1      43.875  26.307  30.285  1.00  0.00     0.031 C 
ATOM     35  C   UNL A   1      42.953  29.549  35.336  1.00  0.00     0.029 A 
ATOM     36  C   UNL A   1      42.799  28.995  34.075  1.00  0.00     0.049 A 
ATOM     37  H   UNL A   1      41.274  29.329  32.654  1.00  0.00     0.167 HD
ATOM     38  C   UNL A   1      43.426  27.536  32.168  1.00  0.00     0.074 A 
ATOM     39  C   UNL A   1      44.286  26.568  31.517  1.00  0.00     0.031 C 
ATOM     40  C   UNL A   1      43.647  28.044  33.405  1.00  0.00     0.037 A 
BRANCH  27  41
ATOM     41  C   UNL A   1      39.344  32.037  35.331  1.00  0.00     0.064 A 
ATOM     42  C   UNL A   1      38.531  31.554  36.367  1.00  0.00     0.173 A 
ATOM     43  C   UNL A   1      39.740  33.383  35.382  1.00  0.00     0.173 A 
ATOM     44  F   UNL A   1      38.115  30.279  36.359  1.00  0.00    -0.203 F 
ATOM     45  C   UNL A   1      38.121  32.387  37.405  1.00  0.00     0.198 A 
ATOM     46  C   UNL A   1      39.348  34.207  36.434  1.00  0.00     0.198 A 
ATOM     47  F   UNL A   1      40.521  33.895  34.419  1.00  0.00    -0.203 F 
ATOM     48  F   UNL A   1      37.318  31.911  38.367  1.00  0.00    -0.200 F 
ATOM     49  C   UNL A   1      38.537  33.710  37.443  1.00  0.00     0.200 A 
ATOM     50  F   UNL A   1      39.759  35.482  36.474  1.00  0.00    -0.200 F 
ATOM     51  F   UNL A   1      38.150  34.506  38.448  1.00  0.00    -0.200 F 
ENDBRANCH  27  41
BRANCH  28  52
ATOM     52  C   UNL A   1      42.320  26.172  27.800  1.00  0.00     0.064 A 
ATOM     53  C   UNL A   1      41.755  24.908  27.585  1.00  0.00     0.173 A 
ATOM     54  C   UNL A   1      43.314  26.603  26.908  1.00  0.00     0.173 A 
ATOM     55  F   UNL A   1      40.813  24.445  28.421  1.00  0.00    -0.203 F 
ATOM     56  C   UNL A   1      42.180  24.100  26.533  1.00  0.00     0.198 A 
ATOM     57  C   UNL A   1      43.715  25.809  25.837  1.00  0.00     0.198 A 
ATOM     58  F   UNL A   1      43.881  27.809  27.065  1.00  0.00    -0.203 F 
ATOM     59  F   UNL A   1      41.654  22.879  26.375  1.00  0.00    -0.200 F 
ATOM     60  C   UNL A   1      43.154  24.555  25.655  1.00  0.00     0.200 A 
ATOM     61  F   UNL A   1      44.641  26.260  24.981  1.00  0.00    -0.200 F 
ATOM     62  F   UNL A   1      43.554  23.781  24.637  1.00  0.00    -0.200 F 
ENDBRANCH  28  52
BRANCH  40  63
ATOM     63  C   UNL A   1      44.867  27.552  34.125  1.00  0.00     0.064 A 
ATOM     64  C   UNL A   1      46.111  28.183  33.970  1.00  0.00     0.173 A 
ATOM     65  C   UNL A   1      44.794  26.440  34.977  1.00  0.00     0.173 A 
ATOM     66  F   UNL A   1      46.233  29.239  33.150  1.00  0.00    -0.203 F 
ATOM     67  C   UNL A   1      47.244  27.698  34.614  1.00  0.00     0.198 A 
ATOM     68  C   UNL A   1      45.925  25.974  35.642  1.00  0.00     0.198 A 
ATOM     69  F   UNL A   1      43.627  25.805  35.162  1.00  0.00    -0.203 F 
ATOM     70  F   UNL A   1      48.432  28.281  34.406  1.00  0.00    -0.200 F 
ATOM     71  C   UNL A   1      47.150  26.598  35.453  1.00  0.00     0.200 A 
ATOM     72  F   UNL A   1      45.832  24.916  36.459  1.00  0.00    -0.200 F 
ATOM     73  F   UNL A   1      48.243  26.127  36.069  1.00  0.00    -0.200 F 
ENDBRANCH  40  63
ENDBRANCH  14  15
ENDBRANCH   7   9
ENDBRANCH   4   5
ENDBRANCH   3   4
ENDBRANCH   2   3
ENDBRANCH   1   2
BRANCH   1  74
ATOM     74  C   UNL A   1      30.829  26.353  23.125  1.00  0.00     0.021 C 
BRANCH  74  75
ATOM     75  C   UNL A   1      30.688  24.957  23.734  1.00  0.00     0.116 C 
BRANCH  75  76
ATOM     76  N   UNL A   1      30.835  25.051  25.171  1.00  0.00    -0.355 N 
ATOM     77  C   UNL A   1      31.443  24.287  26.113  1.00  0.00     0.231 C 
ATOM     78  H   UNL A   1      30.398  25.848  25.548  1.00  0.00     0.163 HD
ATOM     79  O   UNL A   1      30.969  24.412  27.250  1.00  0.00    -0.274 OA
BRANCH  77  80
ATOM     80  C   UNL A   1      32.692  23.397  25.875  1.00  0.00     0.098 C 
ATOM     81  C   UNL A   1      33.101  22.901  27.300  1.00  0.00     0.028 C 
ATOM     82  C   UNL A   1      32.372  22.142  25.024  1.00  0.00     0.279 C 
ATOM     83  C   UNL A   1      34.110  21.762  27.285  1.00  0.00     0.063 C 
ATOM     84  N   UNL A   1      33.316  21.013  25.098  1.00  0.00    -0.330 N 
ATOM     85  C   UNL A   1      33.572  20.591  26.474  1.00  0.00     0.262 C 
ATOM     86  H   UNL A   1      34.202  21.364  24.733  1.00  0.00     0.348 HD
BRANCH  80  87
ATOM     87  C   UNL A   1      33.897  24.199  25.267  1.00  0.00     0.027 C 
BRANCH  87  88
ATOM     88  C   UNL A   1      34.774  23.529  24.188  1.00  0.00     0.037 C 
BRANCH  88  89
ATOM     89  C   UNL A   1      36.107  22.978  24.651  1.00  0.00    -0.048 A 
ATOM     90  C   UNL A   1      36.538  21.690  24.299  1.00  0.00     0.004 A 
ATOM     91  C   UNL A   1      36.924  23.748  25.494  1.00  0.00     0.004 A 
ATOM     92  C   UNL A   1      37.697  21.150  24.860  1.00  0.00     0.000 A 
ATOM     93  C   UNL A   1      38.083  23.205  26.056  1.00  0.00     0.000 A 
ATOM     94  C   UNL A   1      38.458  21.899  25.754  1.00  0.00     0.000 A 
ENDBRANCH  88  89
ENDBRANCH  87  88
ENDBRANCH  80  87
BRANCH  84  95
ATOM     95  C   UNL A   1      32.936  19.886  24.219  1.00  0.00     0.300 C 
BRANCH  95  96
ATOM     96  C   UNL A   1      33.383  18.509  24.651  1.00  0.00     0.025 A 
ATOM     97  C   UNL A   1      34.644  18.001  24.320  1.00  0.00     0.013 A 
ATOM     98  C   UNL A   1      32.538  17.672  25.374  1.00  0.00     0.120 A 
ATOM     99  C   UNL A   1      34.982  16.695  24.659  1.00  0.00     0.021 A 
ATOM    100  N   UNL A   1      32.846  16.405  25.736  1.00  0.00    -0.264 NA
ATOM    101  C   UNL A   1      34.055  15.941  25.358  1.00  0.00     0.111 A 
ENDBRANCH  95  96
ENDBRANCH  84  95
ENDBRANCH  77  80
ENDBRANCH  75  76
ENDBRANCH  74  75
ENDBRANCH   1  74
TORSDOF 18
ENDMDL
MODEL 2
REMARK VINA RESULT:     -12.3      5.136     10.149
REMARK SMILES O=C(NCCCCCCNC(=O)[C@@]1(CCc2ccccc2)CCC[N@@H+](Cc2cccnc2)C1)c1ccc(-c2c3nc(c(-c4c(F)c(F)c(F)c(F)c4F)c4ccc([nH]4)c(-c4c(F)c(F)c(F)c(F)c4F)c4nc(c(-c5c(F)c(F)c(F)c(F)c5F)c5ccc2[nH]5)C=C4)C=C3)cc1
REMARK SMILES IDX 7 1 6 2 5 3 4 4 3 5 1 6 2 7 34 9 35 10 96 11 36 12 95 13
REMARK SMILES IDX 37 14 38 15 39 16 89 17 40 18 94 19 88 20 90 21 41 22 93 23
REMARK SMILES IDX 87 24 86 25 42 27 74 28 54 29 73 30 55 31 58 32 72 33 91 34
REMARK SMILES IDX 56 35 57 36 71 38 92 39 59 40 43 41 44 42 52 43 45 44 46 45
REMARK SMILES IDX 50 46 53 47 47 48 48 49 51 50 49 51 75 52 76 53 84 54 77 55
REMARK SMILES IDX 78 56 82 57 85 58 79 59 80 60 83 61 81 62 60 63 61 64 69 65
REMARK SMILES IDX 62 66 63 67 67 68 70 69 64 70 65 71 68 72 66 73 8 74 9 75
REMARK SMILES IDX 10 76 11 77 12 79 13 80 22 81 33 82 23 83 25 84 24 85 14 87
REMARK SMILES IDX 15 88 16 89 17 90 21 91 18 92 20 93 19 94 26 95 27 96 28 97
REMARK SMILES IDX 32 98 29 99 31 100 30 101
REMARK H PARENT 3 8 90 26 58 37 10 78 25 86
REMARK Flexibility Score: inf
ROOT
ATOM      1  C   UNL A   1      39.253  21.513  26.049  1.00  0.00     0.002 C 
ENDROOT
BRANCH   1   2
ATOM      2  C   UNL A   1      40.627  21.005  26.505  1.00  0.00     0.002 C 
BRANCH   2   3
ATOM      3  C   UNL A   1      40.969  19.578  26.071  1.00  0.00     0.021 C 
BRANCH   3   4
ATOM      4  C   UNL A   1      42.335  19.090  26.536  1.00  0.00     0.116 C 
BRANCH   4   5
ATOM      5  N   UNL A   1      43.212  18.780  25.420  1.00  0.00    -0.352 N 
ATOM      6  O   UNL A   1      44.522  19.243  23.639  1.00  0.00    -0.269 OA
ATOM      7  C   UNL A   1      44.003  19.627  24.683  1.00  0.00     0.251 C 
ATOM      8  H   UNL A   1      43.245  17.832  25.156  1.00  0.00     0.163 HD
BRANCH   7   9
ATOM      9  C   UNL A   1      44.219  21.013  25.149  1.00  0.00     0.039 A 
ATOM     10  C   UNL A   1      45.177  21.284  26.128  1.00  0.00     0.014 A 
ATOM     11  C   UNL A   1      43.472  22.053  24.588  1.00  0.00     0.014 A 
ATOM     12  C   UNL A   1      45.297  22.570  26.637  1.00  0.00     0.010 A 
ATOM     13  C   UNL A   1      43.658  23.364  25.038  1.00  0.00     0.010 A 
ATOM     14  C   UNL A   1      44.557  23.629  26.080  1.00  0.00    -0.014 A 
BRANCH  14  15
ATOM     15  C   UNL A   1      44.832  25.008  26.557  1.00  0.00     0.031 A 
ATOM     16  C   UNL A   1      46.175  25.653  26.372  1.00  0.00     0.074 A 
ATOM     17  C   UNL A   1      43.816  25.699  27.110  1.00  0.00     0.049 A 
ATOM     18  N   UNL A   1      46.544  26.878  26.655  1.00  0.00    -0.248 NA
ATOM     19  C   UNL A   1      47.247  24.821  25.806  1.00  0.00     0.031 C 
ATOM     20  C   UNL A   1      42.479  25.159  27.368  1.00  0.00     0.029 A 
ATOM     21  N   UNL A   1      43.731  27.003  27.521  1.00  0.00    -0.354 N 
ATOM     22  C   UNL A   1      47.886  26.963  26.309  1.00  0.00     0.074 A 
ATOM     23  C   UNL A   1      48.277  25.656  25.823  1.00  0.00     0.031 C 
ATOM     24  C   UNL A   1      41.690  26.137  27.835  1.00  0.00     0.029 A 
ATOM     25  C   UNL A   1      42.480  27.357  27.962  1.00  0.00     0.049 A 
ATOM     26  H   UNL A   1      44.494  27.627  27.503  1.00  0.00     0.167 HD
ATOM     27  C   UNL A   1      48.707  28.038  26.380  1.00  0.00     0.037 A 
ATOM     28  C   UNL A   1      42.016  28.531  28.424  1.00  0.00     0.037 A 
ATOM     29  C   UNL A   1      48.307  29.337  26.862  1.00  0.00     0.049 A 
ATOM     30  C   UNL A   1      42.948  29.706  28.479  1.00  0.00     0.074 A 
ATOM     31  C   UNL A   1      49.065  30.490  26.971  1.00  0.00     0.029 A 
ATOM     32  N   UNL A   1      47.034  29.654  27.316  1.00  0.00    -0.354 N 
ATOM     33  N   UNL A   1      44.208  29.777  28.125  1.00  0.00    -0.248 NA
ATOM     34  C   UNL A   1      42.395  30.964  28.996  1.00  0.00     0.031 C 
ATOM     35  C   UNL A   1      48.262  31.494  27.522  1.00  0.00     0.029 A 
ATOM     36  C   UNL A   1      46.990  30.981  27.716  1.00  0.00     0.049 A 
ATOM     37  H   UNL A   1      46.275  29.028  27.350  1.00  0.00     0.167 HD
ATOM     38  C   UNL A   1      44.600  31.082  28.376  1.00  0.00     0.074 A 
ATOM     39  C   UNL A   1      43.432  31.780  28.875  1.00  0.00     0.031 C 
ATOM     40  C   UNL A   1      45.820  31.651  28.222  1.00  0.00     0.037 A 
BRANCH  27  41
ATOM     41  C   UNL A   1      50.129  27.862  25.930  1.00  0.00     0.064 A 
ATOM     42  C   UNL A   1      51.168  27.660  26.850  1.00  0.00     0.173 A 
ATOM     43  C   UNL A   1      50.448  27.834  24.564  1.00  0.00     0.173 A 
ATOM     44  F   UNL A   1      50.919  27.690  28.168  1.00  0.00    -0.203 F 
ATOM     45  C   UNL A   1      52.476  27.450  26.420  1.00  0.00     0.198 A 
ATOM     46  C   UNL A   1      51.753  27.598  24.136  1.00  0.00     0.198 A 
ATOM     47  F   UNL A   1      49.491  28.017  23.642  1.00  0.00    -0.203 F 
ATOM     48  F   UNL A   1      53.458  27.290  27.318  1.00  0.00    -0.200 F 
ATOM     49  C   UNL A   1      52.766  27.410  25.064  1.00  0.00     0.200 A 
ATOM     50  F   UNL A   1      52.029  27.550  22.826  1.00  0.00    -0.200 F 
ATOM     51  F   UNL A   1      54.022  27.196  24.652  1.00  0.00    -0.200 F 
ENDBRANCH  27  41
BRANCH  28  52
ATOM     52  C   UNL A   1      40.604  28.643  28.870  1.00  0.00     0.064 A 
ATOM     53  C   UNL A   1      40.235  28.367  30.193  1.00  0.00     0.173 A 
ATOM     54  C   UNL A   1      39.595  29.042  27.980  1.00  0.00     0.173 A 
ATOM     55  F   UNL A   1      41.162  27.965  31.076  1.00  0.00    -0.203 F 
ATOM     56  C   UNL A   1      38.909  28.469  30.606  1.00  0.00     0.198 A 
ATOM     57  C   UNL A   1      38.274  29.176  28.402  1.00  0.00     0.198 A 
ATOM     58  F   UNL A   1      39.897  29.326  26.705  1.00  0.00    -0.203 F 
ATOM     59  F   UNL A   1      38.575  28.159  31.865  1.00  0.00    -0.200 F 
ATOM     60  C   UNL A   1      37.931  28.880  29.712  1.00  0.00     0.200 A 
ATOM     61  F   UNL A   1      37.338  29.592  27.540  1.00  0.00    -0.200 F 
ATOM     62  F   UNL A   1      36.656  28.988  30.112  1.00  0.00    -0.200 F 
ENDBRANCH  28  52
BRANCH  40  63
ATOM     63  C   UNL A   1      45.940  33.097  28.599  1.00  0.00     0.064 A 
ATOM     64  C   UNL A   1      45.704  34.117  27.665  1.00  0.00     0.173 A 
ATOM     65  C   UNL A   1      46.294  33.468  29.905  1.00  0.00     0.173 A 
ATOM     66  F   UNL A   1      45.382  33.811  26.399  1.00  0.00    -0.203 F 
ATOM     67  C   UNL A   1      45.853  35.456  28.015  1.00  0.00     0.198 A 
ATOM     68  C   UNL A   1      46.414  34.809  30.259  1.00  0.00     0.198 A 
ATOM     69  F   UNL A   1      46.525  32.530  30.835  1.00  0.00    -0.203 F 
ATOM     70  F   UNL A   1      45.679  36.411  27.092  1.00  0.00    -0.200 F 
ATOM     71  C   UNL A   1      46.203  35.801  29.311  1.00  0.00     0.200 A 
ATOM     72  F   UNL A   1      46.744  35.142  31.514  1.00  0.00    -0.200 F 
ATOM     73  F   UNL A   1      46.351  37.089  29.647  1.00  0.00    -0.200 F 
ENDBRANCH  40  63
ENDBRANCH  14  15
ENDBRANCH   7   9
ENDBRANCH   4   5
ENDBRANCH   3   4
ENDBRANCH   2   3
ENDBRANCH   1   2
BRANCH   1  74
ATOM     74  C   UNL A   1      38.951  22.967  26.431  1.00  0.00     0.021 C 
BRANCH  74  75
ATOM     75  C   UNL A   1      37.508  23.372  26.123  1.00  0.00     0.116 C 
BRANCH  75  76
ATOM     76  N   UNL A   1      37.344  23.478  24.689  1.00  0.00    -0.355 N 
ATOM     77  C   UNL A   1      36.345  23.168  23.825  1.00  0.00     0.231 C 
ATOM     78  H   UNL A   1      38.132  23.862  24.240  1.00  0.00     0.163 HD
ATOM     79  O   UNL A   1      36.725  22.953  22.666  1.00  0.00    -0.274 OA
BRANCH  77  80
ATOM     80  C   UNL A   1      34.831  23.172  24.168  1.00  0.00     0.098 C 
ATOM     81  C   UNL A   1      34.120  23.503  22.814  1.00  0.00     0.028 C 
ATOM     82  C   UNL A   1      34.324  21.782  24.627  1.00  0.00     0.279 C 
ATOM     83  C   UNL A   1      32.619  23.252  22.834  1.00  0.00     0.063 C 
ATOM     84  N   UNL A   1      32.875  21.528  24.549  1.00  0.00    -0.330 N 
ATOM     85  C   UNL A   1      32.331  21.808  23.221  1.00  0.00     0.262 C 
ATOM     86  H   UNL A   1      32.438  22.194  25.186  1.00  0.00     0.348 HD
BRANCH  80  87
ATOM     87  C   UNL A   1      34.451  24.284  25.209  1.00  0.00     0.027 C 
BRANCH  87  88
ATOM     88  C   UNL A   1      34.354  25.751  24.737  1.00  0.00     0.037 C 
BRANCH  88  89
ATOM     89  C   UNL A   1      33.472  26.665  25.561  1.00  0.00    -0.048 A 
ATOM     90  C   UNL A   1      33.989  27.782  26.235  1.00  0.00     0.004 A 
ATOM     91  C   UNL A   1      32.105  26.376  25.699  1.00  0.00     0.004 A 
ATOM     92  C   UNL A   1      33.187  28.520  27.107  1.00  0.00     0.000 A 
ATOM     93  C   UNL A   1      31.304  27.116  26.574  1.00  0.00     0.000 A 
ATOM     94  C   UNL A   1      31.850  28.175  27.292  1.00  0.00     0.000 A 
ENDBRANCH  88  89
ENDBRANCH  87  88
ENDBRANCH  80  87
BRANCH  84  95
ATOM     95  C   UNL A   1      32.496  20.188  25.047  1.00  0.00     0.300 C 
BRANCH  95  96
ATOM     96  C   UNL A   1      33.040  19.003  24.285  1.00  0.00     0.025 A 
ATOM     97  C   UNL A   1      34.226  18.361  24.661  1.00  0.00     0.013 A 
ATOM     98  C   UNL A   1      32.395  18.519  23.150  1.00  0.00     0.120 A 
ATOM     99  C   UNL A   1      34.740  17.331  23.879  1.00  0.00     0.021 A 
ATOM    100  N   UNL A   1      32.860  17.507  22.382  1.00  0.00    -0.264 NA
ATOM    101  C   UNL A   1      34.029  16.945  22.756  1.00  0.00     0.111 A 
ENDBRANCH  95  96
ENDBRANCH  84  95
ENDBRANCH  77  80
ENDBRANCH  75  76
ENDBRANCH  74  75
ENDBRANCH   1  74
TORSDOF 18
ENDMDL
MODEL 3
REMARK VINA RESULT:     -12.2      0.412      1.989
REMARK SMILES O=C(NCCCCCCNC(=O)[C@@]1(CCc2ccccc2)CCC[N@@H+](Cc2cccnc2)C1)c1ccc(-c2c3nc(c(-c4c(F)c(F)c(F)c(F)c4F)c4ccc([nH]4)c(-c4c(F)c(F)c(F)c(F)c4F)c4nc(c(-c5c(F)c(F)c(F)c(F)c5F)c5ccc2[nH]5)C=C4)C=C3)cc1
REMARK SMILES IDX 7 1 6 2 5 3 4 4 3 5 1 6 2 7 34 9 35 10 96 11 36 12 95 13
REMARK SMILES IDX 37 14 38 15 39 16 89 17 40 18 94 19 88 20 90 21 41 22 93 23
REMARK SMILES IDX 87 24 86 25 42 27 74 28 54 29 73 30 55 31 58 32 72 33 91 34
REMARK SMILES IDX 56 35 57 36 71 38 92 39 59 40 43 41 44 42 52 43 45 44 46 45
REMARK SMILES IDX 50 46 53 47 47 48 48 49 51 50 49 51 75 52 76 53 84 54 77 55
REMARK SMILES IDX 78 56 82 57 85 58 79 59 80 60 83 61 81 62 60 63 61 64 69 65
REMARK SMILES IDX 62 66 63 67 67 68 70 69 64 70 65 71 68 72 66 73 8 74 9 75
REMARK SMILES IDX 10 76 11 77 12 79 13 80 22 81 33 82 23 83 25 84 24 85 14 87
REMARK SMILES IDX 15 88 16 89 17 90 21 91 18 92 20 93 19 94 26 95 27 96 28 97
REMARK SMILES IDX 32 98 29 99 31 100 30 101
REMARK H PARENT 3 8 90 26 58 37 10 78 25 86
REMARK Flexibility Score: inf
ROOT
ATOM      1  C   UNL A   1      30.268  27.585  23.819  1.00  0.00     0.002 C 
ENDROOT
BRANCH   1   2
ATOM      2  C   UNL A   1      31.170  28.521  24.635  1.00  0.00     0.002 C 
BRANCH   2   3
ATOM      3  C   UNL A   1      32.627  28.072  24.761  1.00  0.00     0.021 C 
BRANCH   3   4
ATOM      4  C   UNL A   1      33.613  29.205  25.015  1.00  0.00     0.116 C 
BRANCH   4   5
ATOM      5  N   UNL A   1      32.969  30.363  25.613  1.00  0.00    -0.352 N 
ATOM      6  O   UNL A   1      32.499  31.838  27.256  1.00  0.00    -0.269 OA
ATOM      7  C   UNL A   1      33.270  31.007  26.788  1.00  0.00     0.251 C 
ATOM      8  H   UNL A   1      32.214  30.738  25.104  1.00  0.00     0.163 HD
BRANCH   7   9
ATOM      9  C   UNL A   1      34.527  30.684  27.494  1.00  0.00     0.039 A 
ATOM     10  C   UNL A   1      35.516  31.658  27.651  1.00  0.00     0.014 A 
ATOM     11  C   UNL A   1      34.712  29.403  28.023  1.00  0.00     0.014 A 
ATOM     12  C   UNL A   1      36.736  31.316  28.219  1.00  0.00     0.010 A 
ATOM     13  C   UNL A   1      35.907  29.085  28.676  1.00  0.00     0.010 A 
ATOM     14  C   UNL A   1      36.936  30.034  28.761  1.00  0.00    -0.014 A 
BRANCH  14  15
ATOM     15  C   UNL A   1      38.201  29.766  29.490  1.00  0.00     0.031 A 
ATOM     16  C   UNL A   1      38.466  30.349  30.848  1.00  0.00     0.074 A 
ATOM     17  C   UNL A   1      39.090  28.926  28.926  1.00  0.00     0.049 A 
ATOM     18  N   UNL A   1      39.482  30.140  31.648  1.00  0.00    -0.248 NA
ATOM     19  C   UNL A   1      37.473  31.296  31.377  1.00  0.00     0.031 C 
ATOM     20  C   UNL A   1      38.948  28.327  27.596  1.00  0.00     0.029 A 
ATOM     21  N   UNL A   1      40.262  28.401  29.401  1.00  0.00    -0.354 N 
ATOM     22  C   UNL A   1      39.256  30.928  32.768  1.00  0.00     0.074 A 
ATOM     23  C   UNL A   1      38.021  31.646  32.534  1.00  0.00     0.031 C 
ATOM     24  C   UNL A   1      39.958  27.472  27.387  1.00  0.00     0.029 A 
ATOM     25  C   UNL A   1      40.847  27.504  28.542  1.00  0.00     0.049 A 
ATOM     26  H   UNL A   1      40.648  28.643  30.275  1.00  0.00     0.167 HD
ATOM     27  C   UNL A   1      40.007  31.030  33.891  1.00  0.00     0.037 A 
ATOM     28  C   UNL A   1      41.978  26.787  28.665  1.00  0.00     0.037 A 
ATOM     29  C   UNL A   1      41.235  30.308  34.117  1.00  0.00     0.049 A 
ATOM     30  C   UNL A   1      42.781  26.913  29.927  1.00  0.00     0.074 A 
ATOM     31  C   UNL A   1      42.067  30.341  35.223  1.00  0.00     0.029 A 
ATOM     32  N   UNL A   1      41.806  29.419  33.217  1.00  0.00    -0.354 N 
ATOM     33  N   UNL A   1      42.541  27.644  30.988  1.00  0.00    -0.248 NA
ATOM     34  C   UNL A   1      44.010  26.115  30.010  1.00  0.00     0.031 C 
ATOM     35  C   UNL A   1      43.157  29.499  34.979  1.00  0.00     0.029 A 
ATOM     36  C   UNL A   1      42.985  28.907  33.739  1.00  0.00     0.049 A 
ATOM     37  H   UNL A   1      41.430  29.187  32.337  1.00  0.00     0.167 HD
ATOM     38  C   UNL A   1      43.586  27.397  31.863  1.00  0.00     0.074 A 
ATOM     39  C   UNL A   1      44.442  26.416  31.226  1.00  0.00     0.031 C 
ATOM     40  C   UNL A   1      43.827  27.942  33.081  1.00  0.00     0.037 A 
BRANCH  27  41
ATOM     41  C   UNL A   1      39.530  31.959  34.969  1.00  0.00     0.064 A 
ATOM     42  C   UNL A   1      39.902  33.311  34.987  1.00  0.00     0.173 A 
ATOM     43  C   UNL A   1      38.642  31.510  35.959  1.00  0.00     0.173 A 
ATOM     44  F   UNL A   1      40.757  33.789  34.071  1.00  0.00    -0.203 F 
ATOM     45  C   UNL A   1      39.414  34.176  35.964  1.00  0.00     0.198 A 
ATOM     46  C   UNL A   1      38.137  32.383  36.920  1.00  0.00     0.198 A 
ATOM     47  F   UNL A   1      38.251  30.228  35.985  1.00  0.00    -0.203 F 
ATOM     48  F   UNL A   1      39.808  35.458  35.980  1.00  0.00    -0.200 F 
ATOM     49  C   UNL A   1      38.526  33.714  36.924  1.00  0.00     0.200 A 
ATOM     50  F   UNL A   1      37.271  31.937  37.840  1.00  0.00    -0.200 F 
ATOM     51  F   UNL A   1      38.049  34.551  37.855  1.00  0.00    -0.200 F 
ENDBRANCH  27  41
BRANCH  28  52
ATOM     52  C   UNL A   1      42.410  25.894  27.560  1.00  0.00     0.064 A 
ATOM     53  C   UNL A   1      43.372  26.305  26.628  1.00  0.00     0.173 A 
ATOM     54  C   UNL A   1      41.877  24.604  27.423  1.00  0.00     0.173 A 
ATOM     55  F   UNL A   1      43.899  27.536  26.707  1.00  0.00    -0.203 F 
ATOM     56  C   UNL A   1      43.771  25.466  25.589  1.00  0.00     0.198 A 
ATOM     57  C   UNL A   1      42.300  23.754  26.404  1.00  0.00     0.198 A 
ATOM     58  F   UNL A   1      40.959  24.160  28.295  1.00  0.00    -0.203 F 
ATOM     59  F   UNL A   1      44.661  25.898  24.686  1.00  0.00    -0.200 F 
ATOM     60  C   UNL A   1      43.240  24.189  25.484  1.00  0.00     0.200 A 
ATOM     61  F   UNL A   1      41.799  22.515  26.319  1.00  0.00    -0.200 F 
ATOM     62  F   UNL A   1      43.632  23.379  24.491  1.00  0.00    -0.200 F 
ENDBRANCH  28  52
BRANCH  40  63
ATOM     63  C   UNL A   1      45.065  27.481  33.791  1.00  0.00     0.064 A 
ATOM     64  C   UNL A   1      45.044  26.370  34.648  1.00  0.00     0.173 A 
ATOM     65  C   UNL A   1      46.282  28.155  33.616  1.00  0.00     0.173 A 
ATOM     66  F   UNL A   1      43.898  25.705  34.862  1.00  0.00    -0.203 F 
ATOM     67  C   UNL A   1      46.189  25.972  35.330  1.00  0.00     0.198 A 
ATOM     68  C   UNL A   1      47.432  27.737  34.278  1.00  0.00     0.198 A 
ATOM     69  F   UNL A   1      46.355  29.220  32.803  1.00  0.00    -0.203 F 
ATOM     70  F   UNL A   1      46.133  24.944  36.188  1.00  0.00    -0.200 F 
ATOM     71  C   UNL A   1      47.383  26.652  35.142  1.00  0.00     0.200 A 
ATOM     72  F   UNL A   1      48.588  28.389  34.089  1.00  0.00    -0.200 F 
ATOM     73  F   UNL A   1      48.484  26.271  35.803  1.00  0.00    -0.200 F 
ENDBRANCH  40  63
ENDBRANCH  14  15
ENDBRANCH   7   9
ENDBRANCH   4   5
ENDBRANCH   3   4
ENDBRANCH   2   3
ENDBRANCH   1   2
BRANCH   1  74
ATOM     74  C   UNL A   1      30.999  26.416  23.149  1.00  0.00     0.021 C 
BRANCH  74  75
ATOM     75  C   UNL A   1      30.615  25.060  23.743  1.00  0.00     0.116 C 
BRANCH  75  76
ATOM     76  N   UNL A   1      30.851  25.086  25.171  1.00  0.00    -0.355 N 
ATOM     77  C   UNL A   1      31.447  24.240  26.048  1.00  0.00     0.231 C 
ATOM     78  H   UNL A   1      30.501  25.899  25.601  1.00  0.00     0.163 HD
ATOM     79  O   UNL A   1      31.050  24.357  27.215  1.00  0.00    -0.274 OA
BRANCH  77  80
ATOM     80  C   UNL A   1      32.605  23.264  25.705  1.00  0.00     0.098 C 
ATOM     81  C   UNL A   1      33.261  22.930  27.085  1.00  0.00     0.028 C 
ATOM     82  C   UNL A   1      32.098  21.932  25.100  1.00  0.00     0.279 C 
ATOM     83  C   UNL A   1      34.218  21.747  27.036  1.00  0.00     0.063 C 
ATOM     84  N   UNL A   1      33.008  20.774  25.148  1.00  0.00    -0.330 N 
ATOM     85  C   UNL A   1      33.506  20.514  26.497  1.00  0.00     0.262 C 
ATOM     86  H   UNL A   1      33.818  21.031  24.585  1.00  0.00     0.348 HD
BRANCH  80  87
ATOM     87  C   UNL A   1      33.695  23.922  24.787  1.00  0.00     0.027 C 
BRANCH  87  88
ATOM     88  C   UNL A   1      34.971  24.500  25.436  1.00  0.00     0.037 C 
BRANCH  88  89
ATOM     89  C   UNL A   1      36.213  23.635  25.366  1.00  0.00    -0.048 A 
ATOM     90  C   UNL A   1      36.298  22.532  24.505  1.00  0.00     0.004 A 
ATOM     91  C   UNL A   1      37.299  23.906  26.213  1.00  0.00     0.004 A 
ATOM     92  C   UNL A   1      37.390  21.663  24.567  1.00  0.00     0.000 A 
ATOM     93  C   UNL A   1      38.391  23.036  26.275  1.00  0.00     0.000 A 
ATOM     94  C   UNL A   1      38.426  21.904  25.465  1.00  0.00     0.000 A 
ENDBRANCH  88  89
ENDBRANCH  87  88
ENDBRANCH  80  87
BRANCH  84  95
ATOM     95  C   UNL A   1      32.440  19.567  24.509  1.00  0.00     0.300 C 
BRANCH  95  96
ATOM     96  C   UNL A   1      33.132  18.256  24.801  1.00  0.00     0.025 A 
ATOM     97  C   UNL A   1      34.422  17.979  24.333  1.00  0.00     0.013 A 
ATOM     98  C   UNL A   1      32.497  17.252  25.526  1.00  0.00     0.120 A 
ATOM     99  C   UNL A   1      34.988  16.727  24.546  1.00  0.00     0.021 A 
ATOM    100  N   UNL A   1      33.030  16.032  25.766  1.00  0.00    -0.264 NA
ATOM    101  C   UNL A   1      34.257  15.792  25.259  1.00  0.00     0.111 A 
ENDBRANCH  95  96
ENDBRANCH  84  95
ENDBRANCH  77  80
ENDBRANCH  75  76
ENDBRANCH  74  75
ENDBRANCH   1  74
TORSDOF 18
ENDMDL
