MODEL 1
REMARK VINA RESULT:     -13.6      0.000      0.000
REMARK SMILES CC(=O)Nc1ccc(/C=C2/CCc3oc(C(=O)NCCCCCCNC(=O)c4ccc(-c5c6nc(c(-c7c(F)c(F)c(F)c(F)c7F)c7ccc([nH]7)c(-c7c(F)c(F)c(F)c(F)c7F)c7nc(c(-c8c(F)c(F)c(F)c(F)c8F)c8ccc5[nH]8)C=C7)C=C6)cc4)c(C)c3C2=O)cc1
REMARK SMILES IDX 21 1 20 2 19 3 18 4 16 5 17 6 15 8 9 9 10 10 11 11 94 12
REMARK SMILES IDX 12 13 93 14 95 15 13 16 91 17 14 18 92 19 8 20 5 21 6 22
REMARK SMILES IDX 97 23 7 24 96 25 4 26 1 27 2 28 3 29 22 31 23 32 24 33 25 34
REMARK SMILES IDX 26 35 27 37 28 38 29 39 90 40 30 41 89 42 31 43 32 44 33 45
REMARK SMILES IDX 83 46 34 47 88 48 82 49 84 50 35 51 87 52 81 53 80 54 36 56
REMARK SMILES IDX 68 57 48 58 67 59 49 60 52 61 66 62 85 63 50 64 51 65 65 67
REMARK SMILES IDX 86 68 53 69 37 70 38 71 46 72 39 73 40 74 44 75 47 76 41 77
REMARK SMILES IDX 42 78 45 79 43 80 69 81 70 82 78 83 71 84 72 85 76 86 79 87
REMARK SMILES IDX 73 88 74 89 77 90 75 91 54 92 55 93 63 94 56 95 57 96 61 97
REMARK SMILES IDX 64 98 58 99 59 100 62 101 60 102
REMARK H PARENT 18 7 4 30 25 36 84 55 52 66
REMARK Flexibility Score: inf
ROOT
ATOM      1  C   UNL A   1      39.216  22.366  26.516  1.00  0.00     0.002 C 
ENDROOT
BRANCH   1   2
ATOM      2  C   UNL A   1      38.442  21.673  25.392  1.00  0.00     0.021 C 
BRANCH   2   3
ATOM      3  C   UNL A   1      36.925  21.693  25.565  1.00  0.00     0.116 C 
BRANCH   3   4
ATOM      4  N   UNL A   1      36.306  20.452  25.129  1.00  0.00    -0.349 N 
ATOM      5  C   UNL A   1      34.993  20.100  24.886  1.00  0.00     0.287 C 
ATOM      6  O   UNL A   1      34.817  18.946  24.485  1.00  0.00    -0.266 OA
ATOM      7  H   UNL A   1      36.947  19.719  24.979  1.00  0.00     0.163 HD
BRANCH   5   8
ATOM      8  C   UNL A   1      33.900  21.039  25.091  1.00  0.00     0.195 A 
ATOM      9  C   UNL A   1      30.257  25.437  26.023  1.00  0.00     0.016 C 
ATOM     10  C   UNL A   1      30.574  24.130  25.936  1.00  0.00     0.001 C 
ATOM     11  C   UNL A   1      30.547  23.272  27.201  1.00  0.00     0.048 C 
ATOM     12  C   UNL A   1      31.051  23.384  24.701  1.00  0.00     0.192 C 
ATOM     13  C   UNL A   1      31.960  22.780  27.546  1.00  0.00     0.081 C 
ATOM     14  C   UNL A   1      32.167  22.498  25.006  1.00  0.00     0.067 A 
ATOM     15  O   UNL A   1      30.520  23.454  23.612  1.00  0.00    -0.289 OA
ATOM     16  C   UNL A   1      32.549  22.259  26.299  1.00  0.00     0.116 A 
ATOM     17  C   UNL A   1      33.040  21.694  24.199  1.00  0.00     0.012 A 
ATOM     18  O   UNL A   1      33.575  21.408  26.366  1.00  0.00    -0.455 OA
ATOM     19  C   UNL A   1      33.008  21.601  22.715  1.00  0.00     0.049 C 
BRANCH   9  20
ATOM     20  C   UNL A   1      30.316  26.585  25.099  1.00  0.00    -0.025 A 
ATOM     21  C   UNL A   1      30.140  28.774  23.303  1.00  0.00     0.041 A 
ATOM     22  C   UNL A   1      31.158  28.708  24.253  1.00  0.00     0.027 A 
ATOM     23  C   UNL A   1      29.249  27.713  23.204  1.00  0.00     0.027 A 
ATOM     24  C   UNL A   1      31.225  27.641  25.159  1.00  0.00     0.010 A 
ATOM     25  C   UNL A   1      29.341  26.631  24.088  1.00  0.00     0.010 A 
BRANCH  21  26
ATOM     26  N   UNL A   1      30.101  29.900  22.470  1.00  0.00    -0.326 N 
ATOM     27  C   UNL A   1      28.168  31.087  23.488  1.00  0.00     0.114 C 
ATOM     28  C   UNL A   1      29.187  30.912  22.392  1.00  0.00     0.221 C 
ATOM     29  O   UNL A   1      29.260  31.719  21.464  1.00  0.00    -0.275 OA
ATOM     30  H   UNL A   1      30.853  29.972  21.838  1.00  0.00     0.169 HD
ENDBRANCH  21  26
ENDBRANCH   9  20
ENDBRANCH   5   8
ENDBRANCH   3   4
ENDBRANCH   2   3
ENDBRANCH   1   2
BRANCH   1  31
ATOM     31  C   UNL A   1      40.344  21.545  27.163  1.00  0.00     0.002 C 
BRANCH  31  32
ATOM     32  C   UNL A   1      40.994  20.453  26.300  1.00  0.00     0.021 C 
BRANCH  32  33
ATOM     33  C   UNL A   1      42.241  19.839  26.914  1.00  0.00     0.116 C 
BRANCH  33  34
ATOM     34  N   UNL A   1      43.320  19.643  25.941  1.00  0.00    -0.352 N 
ATOM     35  C   UNL A   1      43.956  20.595  25.166  1.00  0.00     0.251 C 
ATOM     36  H   UNL A   1      43.631  18.716  25.824  1.00  0.00     0.163 HD
ATOM     37  O   UNL A   1      44.570  20.290  24.152  1.00  0.00    -0.269 OA
BRANCH  35  38
ATOM     38  C   UNL A   1      43.887  22.001  25.596  1.00  0.00     0.039 A 
ATOM     39  C   UNL A   1      43.052  22.935  24.975  1.00  0.00     0.014 A 
ATOM     40  C   UNL A   1      44.663  22.357  26.692  1.00  0.00     0.014 A 
ATOM     41  C   UNL A   1      42.953  24.212  25.525  1.00  0.00     0.010 A 
ATOM     42  C   UNL A   1      44.399  23.523  27.349  1.00  0.00     0.010 A 
ATOM     43  C   UNL A   1      43.621  24.489  26.728  1.00  0.00    -0.014 A 
BRANCH  43  44
ATOM     44  C   UNL A   1      43.476  25.765  27.415  1.00  0.00     0.031 A 
ATOM     45  C   UNL A   1      44.459  26.807  27.018  1.00  0.00     0.074 A 
ATOM     46  C   UNL A   1      42.381  26.051  28.154  1.00  0.00     0.049 A 
ATOM     47  N   UNL A   1      45.347  27.381  27.760  1.00  0.00    -0.248 NA
ATOM     48  C   UNL A   1      44.544  27.176  25.596  1.00  0.00     0.031 C 
ATOM     49  C   UNL A   1      41.180  25.228  28.365  1.00  0.00     0.029 A 
ATOM     50  N   UNL A   1      42.056  27.206  28.792  1.00  0.00    -0.354 N 
ATOM     51  C   UNL A   1      45.976  28.323  26.949  1.00  0.00     0.074 A 
ATOM     52  C   UNL A   1      45.572  28.027  25.600  1.00  0.00     0.031 C 
ATOM     53  C   UNL A   1      40.184  25.990  28.865  1.00  0.00     0.029 A 
ATOM     54  C   UNL A   1      40.726  27.294  29.185  1.00  0.00     0.049 A 
ATOM     55  H   UNL A   1      42.709  27.922  28.963  1.00  0.00     0.167 HD
ATOM     56  C   UNL A   1      46.573  29.421  27.492  1.00  0.00     0.037 A 
ATOM     57  C   UNL A   1      40.106  28.372  29.723  1.00  0.00     0.037 A 
ATOM     58  C   UNL A   1      46.817  29.228  28.901  1.00  0.00     0.049 A 
ATOM     59  C   UNL A   1      41.165  29.265  30.253  1.00  0.00     0.074 A 
ATOM     60  C   UNL A   1      47.549  28.325  29.646  1.00  0.00     0.029 A 
ATOM     61  N   UNL A   1      45.949  29.815  29.789  1.00  0.00    -0.354 N 
ATOM     62  N   UNL A   1      41.933  28.953  31.260  1.00  0.00    -0.248 NA
ATOM     63  C   UNL A   1      41.685  30.291  29.364  1.00  0.00     0.031 C 
ATOM     64  C   UNL A   1      46.753  28.066  30.802  1.00  0.00     0.029 A 
ATOM     65  C   UNL A   1      45.619  28.876  30.731  1.00  0.00     0.049 A 
ATOM     66  H   UNL A   1      45.623  30.744  29.755  1.00  0.00     0.167 HD
ATOM     67  C   UNL A   1      43.191  29.410  30.899  1.00  0.00     0.074 A 
ATOM     68  C   UNL A   1      42.959  30.304  29.766  1.00  0.00     0.031 C 
ATOM     69  C   UNL A   1      44.321  28.796  31.361  1.00  0.00     0.037 A 
BRANCH  56  70
ATOM     70  C   UNL A   1      46.568  30.800  26.864  1.00  0.00     0.064 A 
ATOM     71  C   UNL A   1      47.769  31.540  26.843  1.00  0.00     0.173 A 
ATOM     72  C   UNL A   1      45.400  31.541  26.579  1.00  0.00     0.173 A 
ATOM     73  F   UNL A   1      48.944  30.944  27.098  1.00  0.00    -0.203 F 
ATOM     74  C   UNL A   1      47.784  32.925  26.665  1.00  0.00     0.198 A 
ATOM     75  C   UNL A   1      45.425  32.916  26.349  1.00  0.00     0.198 A 
ATOM     76  F   UNL A   1      44.178  31.002  26.618  1.00  0.00    -0.203 F 
ATOM     77  F   UNL A   1      48.933  33.601  26.800  1.00  0.00    -0.200 F 
ATOM     78  C   UNL A   1      46.609  33.615  26.431  1.00  0.00     0.200 A 
ATOM     79  F   UNL A   1      44.273  33.567  26.135  1.00  0.00    -0.200 F 
ATOM     80  F   UNL A   1      46.608  34.950  26.335  1.00  0.00    -0.200 F 
ENDBRANCH  56  70
BRANCH  57  81
ATOM     81  C   UNL A   1      38.703  28.804  29.533  1.00  0.00     0.064 A 
ATOM     82  C   UNL A   1      37.870  29.090  30.626  1.00  0.00     0.173 A 
ATOM     83  C   UNL A   1      38.234  29.202  28.266  1.00  0.00     0.173 A 
ATOM     84  F   UNL A   1      38.268  28.789  31.871  1.00  0.00    -0.203 F 
ATOM     85  C   UNL A   1      36.648  29.751  30.463  1.00  0.00     0.198 A 
ATOM     86  C   UNL A   1      37.012  29.857  28.103  1.00  0.00     0.198 A 
ATOM     87  F   UNL A   1      38.996  29.049  27.172  1.00  0.00    -0.203 F 
ATOM     88  F   UNL A   1      35.905  30.059  31.535  1.00  0.00    -0.200 F 
ATOM     89  C   UNL A   1      36.223  30.141  29.203  1.00  0.00     0.200 A 
ATOM     90  F   UNL A   1      36.635  30.268  26.883  1.00  0.00    -0.200 F 
ATOM     91  F   UNL A   1      35.082  30.827  29.052  1.00  0.00    -0.200 F 
ENDBRANCH  57  81
BRANCH  69  92
ATOM     92  C   UNL A   1      44.164  27.784  32.464  1.00  0.00     0.064 A 
ATOM     93  C   UNL A   1      44.065  26.396  32.253  1.00  0.00     0.173 A 
ATOM     94  C   UNL A   1      44.258  28.223  33.790  1.00  0.00     0.173 A 
ATOM     95  F   UNL A   1      44.069  25.884  31.018  1.00  0.00    -0.203 F 
ATOM     96  C   UNL A   1      44.019  25.499  33.320  1.00  0.00     0.198 A 
ATOM     97  C   UNL A   1      44.248  27.323  34.853  1.00  0.00     0.198 A 
ATOM     98  F   UNL A   1      44.412  29.530  34.054  1.00  0.00    -0.203 F 
ATOM     99  F   UNL A   1      43.913  24.182  33.087  1.00  0.00    -0.200 F 
ATOM    100  C   UNL A   1      44.118  25.963  34.619  1.00  0.00     0.200 A 
ATOM    101  F   UNL A   1      44.395  27.774  36.107  1.00  0.00    -0.200 F 
ATOM    102  F   UNL A   1      44.114  25.101  35.644  1.00  0.00    -0.200 F 
ENDBRANCH  69  92
ENDBRANCH  43  44
ENDBRANCH  35  38
ENDBRANCH  33  34
ENDBRANCH  32  33
ENDBRANCH  31  32
ENDBRANCH   1  31
TORSDOF 15
ENDMDL
MODEL 2
REMARK VINA RESULT:     -12.9      1.779      2.764
REMARK SMILES CC(=O)Nc1ccc(/C=C2/CCc3oc(C(=O)NCCCCCCNC(=O)c4ccc(-c5c6nc(c(-c7c(F)c(F)c(F)c(F)c7F)c7ccc([nH]7)c(-c7c(F)c(F)c(F)c(F)c7F)c7nc(c(-c8c(F)c(F)c(F)c(F)c8F)c8ccc5[nH]8)C=C7)C=C6)cc4)c(C)c3C2=O)cc1
REMARK SMILES IDX 21 1 20 2 19 3 18 4 16 5 17 6 15 8 9 9 10 10 11 11 94 12
REMARK SMILES IDX 12 13 93 14 95 15 13 16 91 17 14 18 92 19 8 20 5 21 6 22
REMARK SMILES IDX 97 23 7 24 96 25 4 26 1 27 2 28 3 29 22 31 23 32 24 33 25 34
REMARK SMILES IDX 26 35 27 37 28 38 29 39 90 40 30 41 89 42 31 43 32 44 33 45
REMARK SMILES IDX 83 46 34 47 88 48 82 49 84 50 35 51 87 52 81 53 80 54 36 56
REMARK SMILES IDX 68 57 48 58 67 59 49 60 52 61 66 62 85 63 50 64 51 65 65 67
REMARK SMILES IDX 86 68 53 69 37 70 38 71 46 72 39 73 40 74 44 75 47 76 41 77
REMARK SMILES IDX 42 78 45 79 43 80 69 81 70 82 78 83 71 84 72 85 76 86 79 87
REMARK SMILES IDX 73 88 74 89 77 90 75 91 54 92 55 93 63 94 56 95 57 96 61 97
REMARK SMILES IDX 64 98 58 99 59 100 62 101 60 102
REMARK H PARENT 18 7 4 30 25 36 84 55 52 66
REMARK Flexibility Score: inf
ROOT
ATOM      1  C   UNL A   1      40.472  21.492  27.592  1.00  0.00     0.002 C 
ENDROOT
BRANCH   1   2
ATOM      2  C   UNL A   1      39.899  22.713  26.870  1.00  0.00     0.021 C 
BRANCH   2   3
ATOM      3  C   UNL A   1      38.591  22.450  26.127  1.00  0.00     0.116 C 
BRANCH   3   4
ATOM      4  N   UNL A   1      38.512  21.089  25.621  1.00  0.00    -0.349 N 
ATOM      5  C   UNL A   1      37.524  20.402  24.942  1.00  0.00     0.287 C 
ATOM      6  O   UNL A   1      37.804  19.243  24.626  1.00  0.00    -0.266 OA
ATOM      7  H   UNL A   1      39.319  20.551  25.796  1.00  0.00     0.163 HD
BRANCH   5   8
ATOM      8  C   UNL A   1      36.244  21.020  24.626  1.00  0.00     0.195 A 
ATOM      9  C   UNL A   1      31.166  23.773  24.299  1.00  0.00     0.016 C 
ATOM     10  C   UNL A   1      32.095  22.900  23.863  1.00  0.00     0.001 C 
ATOM     11  C   UNL A   1      31.776  21.405  23.875  1.00  0.00     0.048 C 
ATOM     12  C   UNL A   1      33.512  23.219  23.416  1.00  0.00     0.192 C 
ATOM     13  C   UNL A   1      32.688  20.669  24.866  1.00  0.00     0.081 C 
ATOM     14  C   UNL A   1      34.474  22.271  23.962  1.00  0.00     0.067 A 
ATOM     15  O   UNL A   1      33.800  24.103  22.636  1.00  0.00    -0.289 OA
ATOM     16  C   UNL A   1      34.062  21.140  24.615  1.00  0.00     0.116 A 
ATOM     17  C   UNL A   1      35.907  22.201  23.952  1.00  0.00     0.012 A 
ATOM     18  O   UNL A   1      35.094  20.396  25.020  1.00  0.00    -0.455 OA
ATOM     19  C   UNL A   1      36.820  23.203  23.339  1.00  0.00     0.049 C 
BRANCH   9  20
ATOM     20  C   UNL A   1      31.149  25.220  24.581  1.00  0.00    -0.025 A 
ATOM     21  C   UNL A   1      31.314  27.952  25.328  1.00  0.00     0.041 A 
ATOM     22  C   UNL A   1      31.002  27.586  24.021  1.00  0.00     0.027 A 
ATOM     23  C   UNL A   1      31.477  26.954  26.281  1.00  0.00     0.027 A 
ATOM     24  C   UNL A   1      30.950  26.236  23.646  1.00  0.00     0.010 A 
ATOM     25  C   UNL A   1      31.389  25.606  25.911  1.00  0.00     0.010 A 
BRANCH  21  26
ATOM     26  N   UNL A   1      31.406  29.320  25.616  1.00  0.00    -0.326 N 
ATOM     27  C   UNL A   1      33.725  29.389  26.509  1.00  0.00     0.114 C 
ATOM     28  C   UNL A   1      32.383  30.026  26.259  1.00  0.00     0.221 C 
ATOM     29  O   UNL A   1      32.180  31.205  26.553  1.00  0.00    -0.275 OA
ATOM     30  H   UNL A   1      30.643  29.859  25.306  1.00  0.00     0.169 HD
ENDBRANCH  21  26
ENDBRANCH   9  20
ENDBRANCH   5   8
ENDBRANCH   3   4
ENDBRANCH   2   3
ENDBRANCH   1   2
BRANCH   1  31
ATOM     31  C   UNL A   1      41.906  21.091  27.204  1.00  0.00     0.002 C 
BRANCH  31  32
ATOM     32  C   UNL A   1      42.058  20.006  26.128  1.00  0.00     0.021 C 
BRANCH  32  33
ATOM     33  C   UNL A   1      43.353  19.216  26.224  1.00  0.00     0.116 C 
BRANCH  33  34
ATOM     34  N   UNL A   1      44.087  19.164  24.956  1.00  0.00    -0.352 N 
ATOM     35  C   UNL A   1      44.461  20.217  24.141  1.00  0.00     0.251 C 
ATOM     36  H   UNL A   1      44.346  18.267  24.645  1.00  0.00     0.163 HD
ATOM     37  O   UNL A   1      44.739  20.046  22.961  1.00  0.00    -0.269 OA
BRANCH  35  38
ATOM     38  C   UNL A   1      44.529  21.563  24.731  1.00  0.00     0.039 A 
ATOM     39  C   UNL A   1      43.680  22.601  24.331  1.00  0.00     0.014 A 
ATOM     40  C   UNL A   1      45.454  21.752  25.750  1.00  0.00     0.014 A 
ATOM     41  C   UNL A   1      43.724  23.806  25.030  1.00  0.00     0.010 A 
ATOM     42  C   UNL A   1      45.342  22.842  26.563  1.00  0.00     0.010 A 
ATOM     43  C   UNL A   1      44.551  23.909  26.160  1.00  0.00    -0.014 A 
BRANCH  43  44
ATOM     44  C   UNL A   1      44.568  25.099  26.998  1.00  0.00     0.031 A 
ATOM     45  C   UNL A   1      45.700  26.029  26.747  1.00  0.00     0.074 A 
ATOM     46  C   UNL A   1      43.502  25.449  27.753  1.00  0.00     0.049 A 
ATOM     47  N   UNL A   1      46.637  26.373  27.567  1.00  0.00    -0.248 NA
ATOM     48  C   UNL A   1      45.881  26.551  25.384  1.00  0.00     0.031 C 
ATOM     49  C   UNL A   1      42.190  24.788  27.843  1.00  0.00     0.029 A 
ATOM     50  N   UNL A   1      43.324  26.553  28.525  1.00  0.00    -0.354 N 
ATOM     51  C   UNL A   1      47.419  27.306  26.888  1.00  0.00     0.074 A 
ATOM     52  C   UNL A   1      47.019  27.238  25.508  1.00  0.00     0.031 C 
ATOM     53  C   UNL A   1      41.297  25.620  28.421  1.00  0.00     0.029 A 
ATOM     54  C   UNL A   1      42.009  26.784  28.908  1.00  0.00     0.049 A 
ATOM     55  H   UNL A   1      44.067  27.141  28.792  1.00  0.00     0.167 HD
ATOM     56  C   UNL A   1      48.148  28.232  27.572  1.00  0.00     0.037 A 
ATOM     57  C   UNL A   1      41.531  27.867  29.568  1.00  0.00     0.037 A 
ATOM     58  C   UNL A   1      48.318  27.836  28.949  1.00  0.00     0.049 A 
ATOM     59  C   UNL A   1      42.689  28.526  30.219  1.00  0.00     0.074 A 
ATOM     60  C   UNL A   1      48.891  26.753  29.585  1.00  0.00     0.029 A 
ATOM     61  N   UNL A   1      47.515  28.430  29.892  1.00  0.00    -0.354 N 
ATOM     62  N   UNL A   1      43.373  27.986  31.190  1.00  0.00    -0.248 NA
ATOM     63  C   UNL A   1      43.377  29.567  29.472  1.00  0.00     0.031 C 
ATOM     64  C   UNL A   1      48.031  26.473  30.690  1.00  0.00     0.029 A 
ATOM     65  C   UNL A   1      47.026  27.442  30.704  1.00  0.00     0.049 A 
ATOM     66  H   UNL A   1      47.325  29.393  29.969  1.00  0.00     0.167 HD
ATOM     67  C   UNL A   1      44.695  28.297  30.905  1.00  0.00     0.074 A 
ATOM     68  C   UNL A   1      44.627  29.346  29.889  1.00  0.00     0.031 C 
ATOM     69  C   UNL A   1      45.711  27.475  31.302  1.00  0.00     0.037 A 
BRANCH  56  70
ATOM     70  C   UNL A   1      48.359  29.663  27.121  1.00  0.00     0.064 A 
ATOM     71  C   UNL A   1      49.657  30.210  27.187  1.00  0.00     0.173 A 
ATOM     72  C   UNL A   1      47.319  30.601  26.935  1.00  0.00     0.173 A 
ATOM     73  F   UNL A   1      50.726  29.418  27.360  1.00  0.00    -0.203 F 
ATOM     74  C   UNL A   1      49.881  31.590  27.182  1.00  0.00     0.198 A 
ATOM     75  C   UNL A   1      47.553  31.974  26.878  1.00  0.00     0.198 A 
ATOM     76  F   UNL A   1      46.029  30.251  26.913  1.00  0.00    -0.203 F 
ATOM     77  F   UNL A   1      51.117  32.063  27.395  1.00  0.00    -0.200 F 
ATOM     78  C   UNL A   1      48.826  32.472  27.042  1.00  0.00     0.200 A 
ATOM     79  F   UNL A   1      46.514  32.812  26.752  1.00  0.00    -0.200 F 
ATOM     80  F   UNL A   1      49.027  33.793  27.113  1.00  0.00    -0.200 F 
ENDBRANCH  56  70
BRANCH  57  81
ATOM     81  C   UNL A   1      40.210  28.517  29.414  1.00  0.00     0.064 A 
ATOM     82  C   UNL A   1      39.759  28.973  28.165  1.00  0.00     0.173 A 
ATOM     83  C   UNL A   1      39.251  28.460  30.445  1.00  0.00     0.173 A 
ATOM     84  F   UNL A   1      40.598  29.008  27.119  1.00  0.00    -0.203 F 
ATOM     85  C   UNL A   1      38.424  29.335  27.957  1.00  0.00     0.198 A 
ATOM     86  C   UNL A   1      37.920  28.826  30.237  1.00  0.00     0.198 A 
ATOM     87  F   UNL A   1      39.566  27.957  31.648  1.00  0.00    -0.203 F 
ATOM     88  F   UNL A   1      38.016  29.712  26.736  1.00  0.00    -0.200 F 
ATOM     89  C   UNL A   1      37.504  29.254  28.990  1.00  0.00     0.200 A 
ATOM     90  F   UNL A   1      37.033  28.700  31.234  1.00  0.00    -0.200 F 
ATOM     91  F   UNL A   1      36.214  29.543  28.775  1.00  0.00    -0.200 F 
ENDBRANCH  57  81
BRANCH  69  92
ATOM     92  C   UNL A   1      45.377  26.369  32.268  1.00  0.00     0.064 A 
ATOM     93  C   UNL A   1      45.311  26.535  33.664  1.00  0.00     0.173 A 
ATOM     94  C   UNL A   1      44.971  25.133  31.752  1.00  0.00     0.173 A 
ATOM     95  F   UNL A   1      45.585  27.713  34.233  1.00  0.00    -0.203 F 
ATOM     96  C   UNL A   1      44.900  25.498  34.501  1.00  0.00     0.198 A 
ATOM     97  C   UNL A   1      44.527  24.110  32.587  1.00  0.00     0.198 A 
ATOM     98  F   UNL A   1      44.957  24.933  30.425  1.00  0.00    -0.203 F 
ATOM     99  F   UNL A   1      44.859  25.683  35.829  1.00  0.00    -0.200 F 
ATOM    100  C   UNL A   1      44.502  24.289  33.961  1.00  0.00     0.200 A 
ATOM    101  F   UNL A   1      44.094  22.959  32.054  1.00  0.00    -0.200 F 
ATOM    102  F   UNL A   1      44.069  23.304  34.760  1.00  0.00    -0.200 F 
ENDBRANCH  69  92
ENDBRANCH  43  44
ENDBRANCH  35  38
ENDBRANCH  33  34
ENDBRANCH  32  33
ENDBRANCH  31  32
ENDBRANCH   1  31
TORSDOF 15
ENDMDL
MODEL 3
REMARK VINA RESULT:     -12.8      5.864      9.441
REMARK SMILES CC(=O)Nc1ccc(/C=C2/CCc3oc(C(=O)NCCCCCCNC(=O)c4ccc(-c5c6nc(c(-c7c(F)c(F)c(F)c(F)c7F)c7ccc([nH]7)c(-c7c(F)c(F)c(F)c(F)c7F)c7nc(c(-c8c(F)c(F)c(F)c(F)c8F)c8ccc5[nH]8)C=C7)C=C6)cc4)c(C)c3C2=O)cc1
REMARK SMILES IDX 21 1 20 2 19 3 18 4 16 5 17 6 15 8 9 9 10 10 11 11 94 12
REMARK SMILES IDX 12 13 93 14 95 15 13 16 91 17 14 18 92 19 8 20 5 21 6 22
REMARK SMILES IDX 97 23 7 24 96 25 4 26 1 27 2 28 3 29 22 31 23 32 24 33 25 34
REMARK SMILES IDX 26 35 27 37 28 38 29 39 90 40 30 41 89 42 31 43 32 44 33 45
REMARK SMILES IDX 83 46 34 47 88 48 82 49 84 50 35 51 87 52 81 53 80 54 36 56
REMARK SMILES IDX 68 57 48 58 67 59 49 60 52 61 66 62 85 63 50 64 51 65 65 67
REMARK SMILES IDX 86 68 53 69 37 70 38 71 46 72 39 73 40 74 44 75 47 76 41 77
REMARK SMILES IDX 42 78 45 79 43 80 69 81 70 82 78 83 71 84 72 85 76 86 79 87
REMARK SMILES IDX 73 88 74 89 77 90 75 91 54 92 55 93 63 94 56 95 57 96 61 97
REMARK SMILES IDX 64 98 58 99 59 100 62 101 60 102
REMARK H PARENT 18 7 4 30 25 36 84 55 52 66
REMARK Flexibility Score: inf
ROOT
ATOM      1  C   UNL A   1      42.101  27.582  36.625  1.00  0.00     0.002 C 
ENDROOT
BRANCH   1   2
ATOM      2  C   UNL A   1      41.921  28.021  35.171  1.00  0.00     0.021 C 
BRANCH   2   3
ATOM      3  C   UNL A   1      42.554  29.370  34.836  1.00  0.00     0.116 C 
BRANCH   3   4
ATOM      4  N   UNL A   1      43.299  29.332  33.588  1.00  0.00    -0.349 N 
ATOM      5  C   UNL A   1      42.919  29.496  32.270  1.00  0.00     0.287 C 
ATOM      6  O   UNL A   1      43.832  29.433  31.442  1.00  0.00    -0.266 OA
ATOM      7  H   UNL A   1      44.261  29.153  33.704  1.00  0.00     0.163 HD
BRANCH   5   8
ATOM      8  C   UNL A   1      41.531  29.729  31.898  1.00  0.00     0.195 A 
ATOM      9  C   UNL A   1      35.906  30.961  31.341  1.00  0.00     0.016 C 
ATOM     10  C   UNL A   1      37.056  30.374  30.957  1.00  0.00     0.001 C 
ATOM     11  C   UNL A   1      37.162  28.849  30.995  1.00  0.00     0.048 C 
ATOM     12  C   UNL A   1      38.345  31.067  30.548  1.00  0.00     0.192 C 
ATOM     13  C   UNL A   1      38.205  28.409  32.032  1.00  0.00     0.081 C 
ATOM     14  C   UNL A   1      39.511  30.431  31.147  1.00  0.00     0.067 A 
ATOM     15  O   UNL A   1      38.406  31.985  29.757  1.00  0.00    -0.289 OA
ATOM     16  C   UNL A   1      39.404  29.239  31.814  1.00  0.00     0.116 A 
ATOM     17  C   UNL A   1      40.906  30.761  31.186  1.00  0.00     0.012 A 
ATOM     18  O   UNL A   1      40.585  28.817  32.270  1.00  0.00    -0.455 OA
ATOM     19  C   UNL A   1      41.529  31.968  30.579  1.00  0.00     0.049 C 
BRANCH   9  20
ATOM     20  C   UNL A   1      35.478  32.351  31.588  1.00  0.00    -0.025 A 
ATOM     21  C   UNL A   1      34.897  35.054  32.220  1.00  0.00     0.041 A 
ATOM     22  C   UNL A   1      34.465  34.491  31.021  1.00  0.00     0.027 A 
ATOM     23  C   UNL A   1      35.561  34.248  33.136  1.00  0.00     0.027 A 
ATOM     24  C   UNL A   1      34.779  33.164  30.697  1.00  0.00     0.010 A 
ATOM     25  C   UNL A   1      35.842  32.912  32.824  1.00  0.00     0.010 A 
BRANCH  21  26
ATOM     26  N   UNL A   1      34.597  36.403  32.450  1.00  0.00    -0.326 N 
ATOM     27  C   UNL A   1      32.115  36.276  32.422  1.00  0.00     0.114 C 
ATOM     28  C   UNL A   1      33.400  37.061  32.427  1.00  0.00     0.221 C 
ATOM     29  O   UNL A   1      33.388  38.291  32.494  1.00  0.00    -0.275 OA
ATOM     30  H   UNL A   1      35.376  36.969  32.661  1.00  0.00     0.169 HD
ENDBRANCH  21  26
ENDBRANCH   9  20
ENDBRANCH   5   8
ENDBRANCH   3   4
ENDBRANCH   2   3
ENDBRANCH   1   2
BRANCH   1  31
ATOM     31  C   UNL A   1      41.415  26.263  37.021  1.00  0.00     0.002 C 
BRANCH  31  32
ATOM     32  C   UNL A   1      41.306  25.182  35.936  1.00  0.00     0.021 C 
BRANCH  32  33
ATOM     33  C   UNL A   1      42.346  24.080  36.052  1.00  0.00     0.116 C 
BRANCH  33  34
ATOM     34  N   UNL A   1      43.501  24.467  36.867  1.00  0.00    -0.352 N 
ATOM     35  C   UNL A   1      44.826  24.562  36.482  1.00  0.00     0.251 C 
ATOM     36  H   UNL A   1      43.310  24.687  37.807  1.00  0.00     0.163 HD
ATOM     37  O   UNL A   1      45.735  24.538  37.302  1.00  0.00    -0.269 OA
BRANCH  35  38
ATOM     38  C   UNL A   1      45.125  24.703  35.048  1.00  0.00     0.039 A 
ATOM     39  C   UNL A   1      45.510  23.619  34.251  1.00  0.00     0.014 A 
ATOM     40  C   UNL A   1      44.961  25.968  34.498  1.00  0.00     0.014 A 
ATOM     41  C   UNL A   1      45.649  23.816  32.878  1.00  0.00     0.010 A 
ATOM     42  C   UNL A   1      44.884  26.105  33.142  1.00  0.00     0.010 A 
ATOM     43  C   UNL A   1      45.316  25.064  32.332  1.00  0.00    -0.014 A 
BRANCH  43  44
ATOM     44  C   UNL A   1      45.335  25.309  30.896  1.00  0.00     0.031 A 
ATOM     45  C   UNL A   1      46.487  26.114  30.412  1.00  0.00     0.074 A 
ATOM     46  C   UNL A   1      44.519  24.638  30.053  1.00  0.00     0.049 A 
ATOM     47  N   UNL A   1      46.457  27.268  29.832  1.00  0.00    -0.248 NA
ATOM     48  C   UNL A   1      47.845  25.634  30.709  1.00  0.00     0.031 C 
ATOM     49  C   UNL A   1      43.554  23.573  30.369  1.00  0.00     0.029 A 
ATOM     50  N   UNL A   1      44.460  24.689  28.696  1.00  0.00    -0.354 N 
ATOM     51  C   UNL A   1      47.778  27.575  29.516  1.00  0.00     0.074 A 
ATOM     52  C   UNL A   1      48.593  26.632  30.234  1.00  0.00     0.031 C 
ATOM     53  C   UNL A   1      43.195  22.929  29.237  1.00  0.00     0.029 A 
ATOM     54  C   UNL A   1      43.750  23.649  28.109  1.00  0.00     0.049 A 
ATOM     55  H   UNL A   1      44.885  25.405  28.171  1.00  0.00     0.167 HD
ATOM     56  C   UNL A   1      48.070  28.421  28.488  1.00  0.00     0.037 A 
ATOM     57  C   UNL A   1      43.638  23.384  26.785  1.00  0.00     0.037 A 
ATOM     58  C   UNL A   1      46.915  29.208  28.127  1.00  0.00     0.049 A 
ATOM     59  C   UNL A   1      43.992  24.629  26.061  1.00  0.00     0.074 A 
ATOM     60  C   UNL A   1      46.110  30.114  28.791  1.00  0.00     0.029 A 
ATOM     61  N   UNL A   1      46.199  28.827  27.019  1.00  0.00    -0.354 N 
ATOM     62  N   UNL A   1      43.275  25.719  26.109  1.00  0.00    -0.248 NA
ATOM     63  C   UNL A   1      45.382  24.812  25.676  1.00  0.00     0.031 C 
ATOM     64  C   UNL A   1      44.788  29.846  28.324  1.00  0.00     0.029 A 
ATOM     65  C   UNL A   1      44.871  28.845  27.355  1.00  0.00     0.049 A 
ATOM     66  H   UNL A   1      46.573  28.584  26.141  1.00  0.00     0.167 HD
ATOM     67  C   UNL A   1      44.202  26.747  26.190  1.00  0.00     0.074 A 
ATOM     68  C   UNL A   1      45.479  26.136  25.827  1.00  0.00     0.031 C 
ATOM     69  C   UNL A   1      43.898  27.919  26.823  1.00  0.00     0.037 A 
BRANCH  56  70
ATOM     70  C   UNL A   1      49.249  28.259  27.551  1.00  0.00     0.064 A 
ATOM     71  C   UNL A   1      50.047  29.387  27.264  1.00  0.00     0.173 A 
ATOM     72  C   UNL A   1      49.438  27.154  26.692  1.00  0.00     0.173 A 
ATOM     73  F   UNL A   1      49.956  30.497  28.012  1.00  0.00    -0.203 F 
ATOM     74  C   UNL A   1      50.877  29.441  26.142  1.00  0.00     0.198 A 
ATOM     75  C   UNL A   1      50.309  27.194  25.603  1.00  0.00     0.198 A 
ATOM     76  F   UNL A   1      48.717  26.033  26.792  1.00  0.00    -0.203 F 
ATOM     77  F   UNL A   1      51.501  30.586  25.831  1.00  0.00    -0.200 F 
ATOM     78  C   UNL A   1      50.998  28.348  25.304  1.00  0.00     0.200 A 
ATOM     79  F   UNL A   1      50.401  26.127  24.797  1.00  0.00    -0.200 F 
ATOM     80  F   UNL A   1      51.733  28.421  24.188  1.00  0.00    -0.200 F 
ENDBRANCH  56  70
BRANCH  57  81
ATOM     81  C   UNL A   1      43.544  22.063  26.125  1.00  0.00     0.064 A 
ATOM     82  C   UNL A   1      44.692  21.364  25.719  1.00  0.00     0.173 A 
ATOM     83  C   UNL A   1      42.336  21.339  26.124  1.00  0.00     0.173 A 
ATOM     84  F   UNL A   1      45.889  21.967  25.741  1.00  0.00    -0.203 F 
ATOM     85  C   UNL A   1      44.635  20.016  25.348  1.00  0.00     0.198 A 
ATOM     86  C   UNL A   1      42.279  19.995  25.750  1.00  0.00     0.198 A 
ATOM     87  F   UNL A   1      41.202  21.895  26.577  1.00  0.00    -0.203 F 
ATOM     88  F   UNL A   1      45.760  19.364  25.020  1.00  0.00    -0.200 F 
ATOM     89  C   UNL A   1      43.431  19.330  25.372  1.00  0.00     0.200 A 
ATOM     90  F   UNL A   1      41.115  19.334  25.820  1.00  0.00    -0.200 F 
ATOM     91  F   UNL A   1      43.387  18.025  25.076  1.00  0.00    -0.200 F 
ENDBRANCH  57  81
BRANCH  69  92
ATOM     92  C   UNL A   1      42.459  28.156  27.200  1.00  0.00     0.064 A 
ATOM     93  C   UNL A   1      41.529  28.820  26.381  1.00  0.00     0.173 A 
ATOM     94  C   UNL A   1      41.971  27.563  28.370  1.00  0.00     0.173 A 
ATOM     95  F   UNL A   1      41.889  29.329  25.198  1.00  0.00    -0.203 F 
ATOM     96  C   UNL A   1      40.186  28.923  26.741  1.00  0.00     0.198 A 
ATOM     97  C   UNL A   1      40.622  27.636  28.710  1.00  0.00     0.198 A 
ATOM     98  F   UNL A   1      42.798  26.866  29.164  1.00  0.00    -0.203 F 
ATOM     99  F   UNL A   1      39.324  29.574  25.944  1.00  0.00    -0.200 F 
ATOM    100  C   UNL A   1      39.732  28.325  27.902  1.00  0.00     0.200 A 
ATOM    101  F   UNL A   1      40.180  27.011  29.811  1.00  0.00    -0.200 F 
ATOM    102  F   UNL A   1      38.435  28.387  28.230  1.00  0.00    -0.200 F 
ENDBRANCH  69  92
ENDBRANCH  43  44
ENDBRANCH  35  38
ENDBRANCH  33  34
ENDBRANCH  32  33
ENDBRANCH  31  32
ENDBRANCH   1  31
TORSDOF 15
ENDMDL
