MODEL 1
REMARK VINA RESULT:     -12.6      0.000      0.000
REMARK SMILES O=C(NCCCCCCNC(=O)[C@H]1C[C@H]2CCCC[C@@H]2[N@@H+]1Cc1ccno1)c1ccc(-c2c3nc(c(-c4c(F)c(F)c(F)c(F)c4F)c4ccc([nH]4)c(-c4c(F)c(F)c(F)c(F)c4F)c4nc(c(-c5c(F)c(F)c(F)c(F)c5F)c5ccc2[nH]5)C=C4)C=C3)cc1
REMARK SMILES IDX 6 1 5 2 4 3 3 4 1 5 2 6 28 8 29 9 90 10 30 11 89 12 31 13
REMARK SMILES IDX 32 14 33 15 83 16 34 17 88 18 82 19 84 20 35 21 87 22 81 23
REMARK SMILES IDX 80 24 36 26 68 27 48 28 67 29 49 30 52 31 66 32 85 33 50 34
REMARK SMILES IDX 51 35 65 37 86 38 53 39 37 40 38 41 46 42 39 43 40 44 44 45
REMARK SMILES IDX 47 46 41 47 42 48 45 49 43 50 69 51 70 52 78 53 71 54 72 55
REMARK SMILES IDX 76 56 79 57 73 58 74 59 77 60 75 61 54 62 55 63 63 64 56 65
REMARK SMILES IDX 57 66 61 67 64 68 58 69 59 70 62 71 60 72 7 73 8 74 9 75
REMARK SMILES IDX 10 76 11 77 12 79 13 80 14 81 21 82 15 83 20 84 16 86 19 87
REMARK SMILES IDX 17 88 18 89 22 90 23 91 24 92 27 93 25 94 26 95
REMARK H PARENT 3 7 84 25 52 36 10 78 21 85
REMARK Flexibility Score: inf
ROOT
ATOM      1  C   UNL A   1      31.398  30.887  25.974  1.00  0.00     0.002 C 
ENDROOT
BRANCH   1   2
ATOM      2  C   UNL A   1      31.300  32.322  26.493  1.00  0.00     0.021 C 
BRANCH   2   3
ATOM      3  C   UNL A   1      32.544  32.809  27.224  1.00  0.00     0.116 C 
BRANCH   3   4
ATOM      4  N   UNL A   1      32.426  34.196  27.640  1.00  0.00    -0.352 N 
ATOM      5  O   UNL A   1      32.746  35.976  28.995  1.00  0.00    -0.269 OA
ATOM      6  C   UNL A   1      33.096  34.854  28.640  1.00  0.00     0.251 C 
ATOM      7  H   UNL A   1      31.778  34.739  27.135  1.00  0.00     0.163 HD
BRANCH   6   8
ATOM      8  C   UNL A   1      34.239  34.193  29.302  1.00  0.00     0.039 A 
ATOM      9  C   UNL A   1      34.028  33.324  30.376  1.00  0.00     0.014 A 
ATOM     10  C   UNL A   1      35.533  34.442  28.838  1.00  0.00     0.014 A 
ATOM     11  C   UNL A   1      35.115  32.806  31.066  1.00  0.00     0.010 A 
ATOM     12  C   UNL A   1      36.621  33.847  29.478  1.00  0.00     0.010 A 
ATOM     13  C   UNL A   1      36.421  33.041  30.610  1.00  0.00    -0.014 A 
BRANCH  13  14
ATOM     14  C   UNL A   1      37.558  32.361  31.278  1.00  0.00     0.031 A 
ATOM     15  C   UNL A   1      38.264  31.206  30.631  1.00  0.00     0.074 A 
ATOM     16  C   UNL A   1      37.942  32.801  32.491  1.00  0.00     0.049 A 
ATOM     17  N   UNL A   1      39.255  30.485  31.090  1.00  0.00    -0.248 NA
ATOM     18  C   UNL A   1      37.789  30.798  29.301  1.00  0.00     0.031 C 
ATOM     19  C   UNL A   1      37.313  33.904  33.221  1.00  0.00     0.029 A 
ATOM     20  N   UNL A   1      38.947  32.381  33.323  1.00  0.00    -0.354 N 
ATOM     21  C   UNL A   1      39.511  29.527  30.118  1.00  0.00     0.074 A 
ATOM     22  C   UNL A   1      38.552  29.741  29.055  1.00  0.00     0.031 C 
ATOM     23  C   UNL A   1      37.958  34.088  34.380  1.00  0.00     0.029 A 
ATOM     24  C   UNL A   1      39.001  33.078  34.505  1.00  0.00     0.049 A 
ATOM     25  H   UNL A   1      39.567  31.652  33.096  1.00  0.00     0.167 HD
ATOM     26  C   UNL A   1      40.465  28.565  30.117  1.00  0.00     0.037 A 
ATOM     27  C   UNL A   1      39.782  32.903  35.585  1.00  0.00     0.037 A 
ATOM     28  C   UNL A   1      41.418  28.368  31.181  1.00  0.00     0.049 A 
ATOM     29  C   UNL A   1      40.812  31.812  35.570  1.00  0.00     0.074 A 
ATOM     30  C   UNL A   1      42.457  27.456  31.253  1.00  0.00     0.029 A 
ATOM     31  N   UNL A   1      41.437  29.086  32.370  1.00  0.00    -0.354 N 
ATOM     32  N   UNL A   1      41.083  30.947  34.622  1.00  0.00    -0.248 NA
ATOM     33  C   UNL A   1      41.646  31.672  36.769  1.00  0.00     0.031 C 
ATOM     34  C   UNL A   1      43.064  27.581  32.506  1.00  0.00     0.029 A 
ATOM     35  C   UNL A   1      42.447  28.613  33.194  1.00  0.00     0.049 A 
ATOM     36  H   UNL A   1      40.824  29.823  32.593  1.00  0.00     0.167 HD
ATOM     37  C   UNL A   1      42.127  30.170  35.102  1.00  0.00     0.074 A 
ATOM     38  C   UNL A   1      42.453  30.681  36.419  1.00  0.00     0.031 C 
ATOM     39  C   UNL A   1      42.755  29.128  34.506  1.00  0.00     0.037 A 
BRANCH  26  40
ATOM     40  C   UNL A   1      40.509  27.628  28.941  1.00  0.00     0.064 A 
ATOM     41  C   UNL A   1      39.731  26.461  28.892  1.00  0.00     0.173 A 
ATOM     42  C   UNL A   1      41.320  27.919  27.833  1.00  0.00     0.173 A 
ATOM     43  F   UNL A   1      38.943  26.130  29.925  1.00  0.00    -0.203 F 
ATOM     44  C   UNL A   1      39.791  25.604  27.795  1.00  0.00     0.198 A 
ATOM     45  C   UNL A   1      41.353  27.078  26.724  1.00  0.00     0.198 A 
ATOM     46  F   UNL A   1      42.078  29.026  27.822  1.00  0.00    -0.203 F 
ATOM     47  F   UNL A   1      39.080  24.468  27.793  1.00  0.00    -0.200 F 
ATOM     48  C   UNL A   1      40.596  25.916  26.710  1.00  0.00     0.200 A 
ATOM     49  F   UNL A   1      42.121  27.389  25.671  1.00  0.00    -0.200 F 
ATOM     50  F   UNL A   1      40.651  25.092  25.654  1.00  0.00    -0.200 F 
ENDBRANCH  26  40
BRANCH  27  51
ATOM     51  C   UNL A   1      39.592  33.779  36.769  1.00  0.00     0.064 A 
ATOM     52  C   UNL A   1      38.765  33.394  37.832  1.00  0.00     0.173 A 
ATOM     53  C   UNL A   1      40.268  35.004  36.877  1.00  0.00     0.173 A 
ATOM     54  F   UNL A   1      38.086  32.239  37.767  1.00  0.00    -0.203 F 
ATOM     55  C   UNL A   1      38.614  34.205  38.954  1.00  0.00     0.198 A 
ATOM     56  C   UNL A   1      40.141  35.798  38.013  1.00  0.00     0.198 A 
ATOM     57  F   UNL A   1      41.080  35.413  35.891  1.00  0.00    -0.203 F 
ATOM     58  F   UNL A   1      37.790  33.829  39.943  1.00  0.00    -0.200 F 
ATOM     59  C   UNL A   1      39.309  35.402  39.048  1.00  0.00     0.200 A 
ATOM     60  F   UNL A   1      40.833  36.943  38.109  1.00  0.00    -0.200 F 
ATOM     61  F   UNL A   1      39.175  36.173  40.136  1.00  0.00    -0.200 F 
ENDBRANCH  27  51
BRANCH  39  62
ATOM     62  C   UNL A   1      43.880  28.484  35.263  1.00  0.00     0.064 A 
ATOM     63  C   UNL A   1      45.193  28.971  35.188  1.00  0.00     0.173 A 
ATOM     64  C   UNL A   1      43.633  27.387  36.103  1.00  0.00     0.173 A 
ATOM     65  F   UNL A   1      45.485  30.006  34.386  1.00  0.00    -0.203 F 
ATOM     66  C   UNL A   1      46.222  28.370  35.911  1.00  0.00     0.198 A 
ATOM     67  C   UNL A   1      44.657  26.809  36.847  1.00  0.00     0.198 A 
ATOM     68  F   UNL A   1      42.395  26.884  36.212  1.00  0.00    -0.203 F 
ATOM     69  F   UNL A   1      47.477  28.822  35.786  1.00  0.00    -0.200 F 
ATOM     70  C   UNL A   1      45.951  27.296  36.745  1.00  0.00     0.200 A 
ATOM     71  F   UNL A   1      44.392  25.780  37.664  1.00  0.00    -0.200 F 
ATOM     72  F   UNL A   1      46.940  26.725  37.446  1.00  0.00    -0.200 F 
ENDBRANCH  39  62
ENDBRANCH  13  14
ENDBRANCH   6   8
ENDBRANCH   3   4
ENDBRANCH   2   3
ENDBRANCH   1   2
BRANCH   1  73
ATOM     73  C   UNL A   1      32.346  29.978  26.764  1.00  0.00     0.002 C 
BRANCH  73  74
ATOM     74  C   UNL A   1      31.722  28.672  27.272  1.00  0.00     0.021 C 
BRANCH  74  75
ATOM     75  C   UNL A   1      31.687  27.549  26.239  1.00  0.00     0.116 C 
BRANCH  75  76
ATOM     76  N   UNL A   1      31.440  26.270  26.876  1.00  0.00    -0.351 N 
ATOM     77  C   UNL A   1      31.829  25.015  26.511  1.00  0.00     0.278 C 
ATOM     78  H   UNL A   1      30.909  26.315  27.703  1.00  0.00     0.163 HD
ATOM     79  O   UNL A   1      31.411  24.071  27.186  1.00  0.00    -0.268 OA
BRANCH  77  80
ATOM     80  C   UNL A   1      32.787  24.830  25.325  1.00  0.00     0.275 C 
ATOM     81  C   UNL A   1      34.223  25.175  25.757  1.00  0.00     0.085 C 
ATOM     82  N   UNL A   1      32.796  23.401  24.892  1.00  0.00    -0.316 N 
ATOM     83  C   UNL A   1      35.036  24.066  25.124  1.00  0.00     0.054 C 
ATOM     84  C   UNL A   1      34.106  22.869  25.281  1.00  0.00     0.188 C 
ATOM     85  H   UNL A   1      32.088  22.843  25.371  1.00  0.00     0.349 HD
ATOM     86  C   UNL A   1      36.406  23.799  25.716  1.00  0.00     0.010 C 
ATOM     87  C   UNL A   1      34.675  21.608  24.632  1.00  0.00     0.065 C 
ATOM     88  C   UNL A   1      37.012  22.575  25.023  1.00  0.00     0.001 C 
ATOM     89  C   UNL A   1      36.104  21.344  25.130  1.00  0.00     0.006 C 
BRANCH  82  90
ATOM     90  C   UNL A   1      32.308  23.170  23.527  1.00  0.00     0.342 C 
BRANCH  90  91
ATOM     91  C   UNL A   1      32.339  24.339  22.602  1.00  0.00     0.190 A 
ATOM     92  C   UNL A   1      31.510  25.408  22.347  1.00  0.00     0.075 A 
ATOM     93  O   UNL A   1      33.425  24.423  21.779  1.00  0.00    -0.355 OA
ATOM     94  C   UNL A   1      32.123  26.071  21.272  1.00  0.00     0.158 A 
ATOM     95  N   UNL A   1      33.278  25.501  20.924  1.00  0.00    -0.088 NA
ENDBRANCH  90  91
ENDBRANCH  82  90
ENDBRANCH  77  80
ENDBRANCH  75  76
ENDBRANCH  74  75
ENDBRANCH  73  74
ENDBRANCH   1  73
TORSDOF 15
ENDMDL
MODEL 2
REMARK VINA RESULT:     -12.3      0.722      7.398
REMARK SMILES O=C(NCCCCCCNC(=O)[C@H]1C[C@H]2CCCC[C@@H]2[N@@H+]1Cc1ccno1)c1ccc(-c2c3nc(c(-c4c(F)c(F)c(F)c(F)c4F)c4ccc([nH]4)c(-c4c(F)c(F)c(F)c(F)c4F)c4nc(c(-c5c(F)c(F)c(F)c(F)c5F)c5ccc2[nH]5)C=C4)C=C3)cc1
REMARK SMILES IDX 6 1 5 2 4 3 3 4 1 5 2 6 28 8 29 9 90 10 30 11 89 12 31 13
REMARK SMILES IDX 32 14 33 15 83 16 34 17 88 18 82 19 84 20 35 21 87 22 81 23
REMARK SMILES IDX 80 24 36 26 68 27 48 28 67 29 49 30 52 31 66 32 85 33 50 34
REMARK SMILES IDX 51 35 65 37 86 38 53 39 37 40 38 41 46 42 39 43 40 44 44 45
REMARK SMILES IDX 47 46 41 47 42 48 45 49 43 50 69 51 70 52 78 53 71 54 72 55
REMARK SMILES IDX 76 56 79 57 73 58 74 59 77 60 75 61 54 62 55 63 63 64 56 65
REMARK SMILES IDX 57 66 61 67 64 68 58 69 59 70 62 71 60 72 7 73 8 74 9 75
REMARK SMILES IDX 10 76 11 77 12 79 13 80 14 81 21 82 15 83 20 84 16 86 19 87
REMARK SMILES IDX 17 88 18 89 22 90 23 91 24 92 27 93 25 94 26 95
REMARK H PARENT 3 7 84 25 52 36 10 78 21 85
REMARK Flexibility Score: inf
ROOT
ATOM      1  C   UNL A   1      31.403  30.534  25.906  1.00  0.00     0.002 C 
ENDROOT
BRANCH   1   2
ATOM      2  C   UNL A   1      31.279  31.939  26.495  1.00  0.00     0.021 C 
BRANCH   2   3
ATOM      3  C   UNL A   1      32.595  32.536  26.972  1.00  0.00     0.116 C 
BRANCH   3   4
ATOM      4  N   UNL A   1      32.441  33.906  27.433  1.00  0.00    -0.352 N 
ATOM      5  O   UNL A   1      32.703  35.646  28.851  1.00  0.00    -0.269 OA
ATOM      6  C   UNL A   1      33.083  34.544  28.463  1.00  0.00     0.251 C 
ATOM      7  H   UNL A   1      31.786  34.451  26.938  1.00  0.00     0.163 HD
BRANCH   6   8
ATOM      8  C   UNL A   1      34.233  33.888  29.117  1.00  0.00     0.039 A 
ATOM      9  C   UNL A   1      34.027  32.908  30.092  1.00  0.00     0.014 A 
ATOM     10  C   UNL A   1      35.530  34.253  28.744  1.00  0.00     0.014 A 
ATOM     11  C   UNL A   1      35.111  32.387  30.785  1.00  0.00     0.010 A 
ATOM     12  C   UNL A   1      36.622  33.660  29.380  1.00  0.00     0.010 A 
ATOM     13  C   UNL A   1      36.420  32.738  30.420  1.00  0.00    -0.014 A 
BRANCH  13  14
ATOM     14  C   UNL A   1      37.565  32.061  31.077  1.00  0.00     0.031 A 
ATOM     15  C   UNL A   1      38.021  32.460  32.449  1.00  0.00     0.074 A 
ATOM     16  C   UNL A   1      38.196  31.078  30.407  1.00  0.00     0.049 A 
ATOM     17  N   UNL A   1      39.020  31.990  33.153  1.00  0.00    -0.248 NA
ATOM     18  C   UNL A   1      37.270  33.533  33.114  1.00  0.00     0.031 C 
ATOM     19  C   UNL A   1      37.848  30.624  29.059  1.00  0.00     0.029 A 
ATOM     20  N   UNL A   1      39.256  30.286  30.763  1.00  0.00    -0.354 N 
ATOM     21  C   UNL A   1      39.029  32.720  34.334  1.00  0.00     0.074 A 
ATOM     22  C   UNL A   1      37.954  33.685  34.240  1.00  0.00     0.031 C 
ATOM     23  C   UNL A   1      38.662  29.620  28.710  1.00  0.00     0.029 A 
ATOM     24  C   UNL A   1      39.630  29.405  29.778  1.00  0.00     0.049 A 
ATOM     25  H   UNL A   1      39.705  30.343  31.636  1.00  0.00     0.167 HD
ATOM     26  C   UNL A   1      39.859  32.588  35.398  1.00  0.00     0.037 A 
ATOM     27  C   UNL A   1      40.659  28.540  29.727  1.00  0.00     0.037 A 
ATOM     28  C   UNL A   1      40.922  31.618  35.480  1.00  0.00     0.049 A 
ATOM     29  C   UNL A   1      41.579  28.432  30.906  1.00  0.00     0.074 A 
ATOM     30  C   UNL A   1      41.784  31.367  36.533  1.00  0.00     0.029 A 
ATOM     31  N   UNL A   1      41.280  30.746  34.458  1.00  0.00    -0.354 N 
ATOM     32  N   UNL A   1      41.545  29.089  32.041  1.00  0.00    -0.248 NA
ATOM     33  C   UNL A   1      42.678  27.465  30.803  1.00  0.00     0.031 C 
ATOM     34  C   UNL A   1      42.700  30.390  36.129  1.00  0.00     0.029 A 
ATOM     35  C   UNL A   1      42.371  29.983  34.845  1.00  0.00     0.049 A 
ATOM     36  H   UNL A   1      40.824  30.680  33.588  1.00  0.00     0.167 HD
ATOM     37  C   UNL A   1      42.606  28.606  32.792  1.00  0.00     0.074 A 
ATOM     38  C   UNL A   1      43.252  27.585  31.991  1.00  0.00     0.031 C 
ATOM     39  C   UNL A   1      43.007  28.976  34.033  1.00  0.00     0.037 A 
BRANCH  26  40
ATOM     40  C   UNL A   1      39.671  33.535  36.550  1.00  0.00     0.064 A 
ATOM     41  C   UNL A   1      40.294  34.791  36.589  1.00  0.00     0.173 A 
ATOM     42  C   UNL A   1      38.828  33.191  37.620  1.00  0.00     0.173 A 
ATOM     43  F   UNL A   1      41.114  35.169  35.597  1.00  0.00    -0.203 F 
ATOM     44  C   UNL A   1      40.110  35.652  37.669  1.00  0.00     0.198 A 
ATOM     45  C   UNL A   1      38.621  34.067  38.683  1.00  0.00     0.198 A 
ATOM     46  F   UNL A   1      38.200  32.006  37.632  1.00  0.00    -0.203 F 
ATOM     47  F   UNL A   1      40.758  36.824  37.709  1.00  0.00    -0.200 F 
ATOM     48  C   UNL A   1      39.270  35.292  38.712  1.00  0.00     0.200 A 
ATOM     49  F   UNL A   1      37.797  33.722  39.682  1.00  0.00    -0.200 F 
ATOM     50  F   UNL A   1      39.091  36.122  39.749  1.00  0.00    -0.200 F 
ENDBRANCH  26  40
BRANCH  27  51
ATOM     51  C   UNL A   1      40.867  27.731  28.498  1.00  0.00     0.064 A 
ATOM     52  C   UNL A   1      40.220  26.502  28.320  1.00  0.00     0.173 A 
ATOM     53  C   UNL A   1      41.688  28.195  27.458  1.00  0.00     0.173 A 
ATOM     54  F   UNL A   1      39.437  26.011  29.292  1.00  0.00    -0.203 F 
ATOM     55  C   UNL A   1      40.393  25.762  27.153  1.00  0.00     0.198 A 
ATOM     56  C   UNL A   1      41.835  27.470  26.280  1.00  0.00     0.198 A 
ATOM     57  F   UNL A   1      42.322  29.371  27.577  1.00  0.00    -0.203 F 
ATOM     58  F   UNL A   1      39.789  24.573  27.021  1.00  0.00    -0.200 F 
ATOM     59  C   UNL A   1      41.193  26.250  26.131  1.00  0.00     0.200 A 
ATOM     60  F   UNL A   1      42.591  27.957  25.286  1.00  0.00    -0.200 F 
ATOM     61  F   UNL A   1      41.345  25.545  25.001  1.00  0.00    -0.200 F 
ENDBRANCH  27  51
BRANCH  39  62
ATOM     62  C   UNL A   1      44.190  28.254  34.613  1.00  0.00     0.064 A 
ATOM     63  C   UNL A   1      44.045  27.049  35.316  1.00  0.00     0.173 A 
ATOM     64  C   UNL A   1      45.488  28.757  34.430  1.00  0.00     0.173 A 
ATOM     65  F   UNL A   1      42.824  26.536  35.534  1.00  0.00    -0.203 F 
ATOM     66  C   UNL A   1      45.155  26.385  35.834  1.00  0.00     0.198 A 
ATOM     67  C   UNL A   1      46.596  28.074  34.921  1.00  0.00     0.198 A 
ATOM     68  F   UNL A   1      45.680  29.903  33.762  1.00  0.00    -0.203 F 
ATOM     69  F   UNL A   1      44.988  25.261  36.544  1.00  0.00    -0.200 F 
ATOM     70  C   UNL A   1      46.428  26.893  35.628  1.00  0.00     0.200 A 
ATOM     71  F   UNL A   1      47.827  28.559  34.710  1.00  0.00    -0.200 F 
ATOM     72  F   UNL A   1      47.495  26.248  36.119  1.00  0.00    -0.200 F 
ENDBRANCH  39  62
ENDBRANCH  13  14
ENDBRANCH   6   8
ENDBRANCH   3   4
ENDBRANCH   2   3
ENDBRANCH   1   2
BRANCH   1  73
ATOM     73  C   UNL A   1      32.353  29.599  26.662  1.00  0.00     0.002 C 
BRANCH  73  74
ATOM     74  C   UNL A   1      31.707  28.323  27.217  1.00  0.00     0.021 C 
BRANCH  74  75
ATOM     75  C   UNL A   1      31.637  27.170  26.221  1.00  0.00     0.116 C 
BRANCH  75  76
ATOM     76  N   UNL A   1      31.219  25.946  26.877  1.00  0.00    -0.351 N 
ATOM     77  C   UNL A   1      31.503  24.646  26.578  1.00  0.00     0.278 C 
ATOM     78  H   UNL A   1      30.641  26.075  27.662  1.00  0.00     0.163 HD
ATOM     79  O   UNL A   1      30.947  23.773  27.250  1.00  0.00    -0.268 OA
BRANCH  77  80
ATOM     80  C   UNL A   1      32.515  24.323  25.469  1.00  0.00     0.275 C 
ATOM     81  C   UNL A   1      33.880  23.984  26.093  1.00  0.00     0.085 C 
ATOM     82  N   UNL A   1      32.074  23.116  24.709  1.00  0.00    -0.316 N 
ATOM     83  C   UNL A   1      34.326  22.784  25.285  1.00  0.00     0.054 C 
ATOM     84  C   UNL A   1      33.010  22.046  25.070  1.00  0.00     0.188 C 
ATOM     85  H   UNL A   1      31.140  22.805  24.978  1.00  0.00     0.349 HD
ATOM     86  C   UNL A   1      35.379  21.891  25.911  1.00  0.00     0.010 C 
ATOM     87  C   UNL A   1      33.180  20.809  24.189  1.00  0.00     0.065 C 
ATOM     88  C   UNL A   1      35.604  20.681  25.000  1.00  0.00     0.001 C 
ATOM     89  C   UNL A   1      34.304  19.913  24.731  1.00  0.00     0.006 C 
BRANCH  82  90
ATOM     90  C   UNL A   1      31.778  23.357  23.292  1.00  0.00     0.342 C 
BRANCH  90  91
ATOM     91  C   UNL A   1      32.196  24.677  22.740  1.00  0.00     0.190 A 
ATOM     92  C   UNL A   1      31.625  25.926  22.648  1.00  0.00     0.075 A 
ATOM     93  O   UNL A   1      33.435  24.721  22.167  1.00  0.00    -0.355 OA
ATOM     94  C   UNL A   1      32.557  26.679  21.914  1.00  0.00     0.158 A 
ATOM     95  N   UNL A   1      33.653  25.976  21.626  1.00  0.00    -0.088 NA
ENDBRANCH  90  91
ENDBRANCH  82  90
ENDBRANCH  77  80
ENDBRANCH  75  76
ENDBRANCH  74  75
ENDBRANCH  73  74
ENDBRANCH   1  73
TORSDOF 15
ENDMDL
MODEL 3
REMARK VINA RESULT:     -12.3      5.287     10.922
REMARK SMILES O=C(NCCCCCCNC(=O)[C@H]1C[C@H]2CCCC[C@@H]2[N@@H+]1Cc1ccno1)c1ccc(-c2c3nc(c(-c4c(F)c(F)c(F)c(F)c4F)c4ccc([nH]4)c(-c4c(F)c(F)c(F)c(F)c4F)c4nc(c(-c5c(F)c(F)c(F)c(F)c5F)c5ccc2[nH]5)C=C4)C=C3)cc1
REMARK SMILES IDX 6 1 5 2 4 3 3 4 1 5 2 6 28 8 29 9 90 10 30 11 89 12 31 13
REMARK SMILES IDX 32 14 33 15 83 16 34 17 88 18 82 19 84 20 35 21 87 22 81 23
REMARK SMILES IDX 80 24 36 26 68 27 48 28 67 29 49 30 52 31 66 32 85 33 50 34
REMARK SMILES IDX 51 35 65 37 86 38 53 39 37 40 38 41 46 42 39 43 40 44 44 45
REMARK SMILES IDX 47 46 41 47 42 48 45 49 43 50 69 51 70 52 78 53 71 54 72 55
REMARK SMILES IDX 76 56 79 57 73 58 74 59 77 60 75 61 54 62 55 63 63 64 56 65
REMARK SMILES IDX 57 66 61 67 64 68 58 69 59 70 62 71 60 72 7 73 8 74 9 75
REMARK SMILES IDX 10 76 11 77 12 79 13 80 14 81 21 82 15 83 20 84 16 86 19 87
REMARK SMILES IDX 17 88 18 89 22 90 23 91 24 92 27 93 25 94 26 95
REMARK H PARENT 3 7 84 25 52 36 10 78 21 85
REMARK Flexibility Score: inf
ROOT
ATOM      1  C   UNL A   1      36.717  20.331  24.946  1.00  0.00     0.002 C 
ENDROOT
BRANCH   1   2
ATOM      2  C   UNL A   1      37.963  19.445  24.956  1.00  0.00     0.021 C 
BRANCH   2   3
ATOM      3  C   UNL A   1      39.122  20.004  25.769  1.00  0.00     0.116 C 
BRANCH   3   4
ATOM      4  N   UNL A   1      40.213  19.052  25.893  1.00  0.00    -0.352 N 
ATOM      5  O   UNL A   1      42.373  18.391  25.980  1.00  0.00    -0.269 OA
ATOM      6  C   UNL A   1      41.549  19.295  26.089  1.00  0.00     0.251 C 
ATOM      7  H   UNL A   1      39.960  18.102  25.828  1.00  0.00     0.163 HD
BRANCH   6   8
ATOM      8  C   UNL A   1      41.994  20.663  26.420  1.00  0.00     0.039 A 
ATOM      9  C   UNL A   1      42.194  21.606  25.408  1.00  0.00     0.014 A 
ATOM     10  C   UNL A   1      42.208  21.007  27.758  1.00  0.00     0.014 A 
ATOM     11  C   UNL A   1      42.729  22.849  25.720  1.00  0.00     0.010 A 
ATOM     12  C   UNL A   1      42.659  22.288  28.077  1.00  0.00     0.010 A 
ATOM     13  C   UNL A   1      42.943  23.212  27.058  1.00  0.00    -0.014 A 
BRANCH  13  14
ATOM     14  C   UNL A   1      43.379  24.594  27.376  1.00  0.00     0.031 A 
ATOM     15  C   UNL A   1      42.418  25.608  27.919  1.00  0.00     0.074 A 
ATOM     16  C   UNL A   1      44.666  24.923  27.157  1.00  0.00     0.049 A 
ATOM     17  N   UNL A   1      42.630  26.864  28.223  1.00  0.00    -0.248 NA
ATOM     18  C   UNL A   1      41.035  25.162  28.139  1.00  0.00     0.031 C 
ATOM     19  C   UNL A   1      45.682  24.020  26.612  1.00  0.00     0.029 A 
ATOM     20  N   UNL A   1      45.341  26.099  27.363  1.00  0.00    -0.354 N 
ATOM     21  C   UNL A   1      41.407  27.364  28.652  1.00  0.00     0.074 A 
ATOM     22  C   UNL A   1      40.450  26.283  28.542  1.00  0.00     0.031 C 
ATOM     23  C   UNL A   1      46.854  24.665  26.548  1.00  0.00     0.029 A 
ATOM     24  C   UNL A   1      46.659  26.043  26.983  1.00  0.00     0.049 A 
ATOM     25  H   UNL A   1      44.921  26.902  27.745  1.00  0.00     0.167 HD
ATOM     26  C   UNL A   1      41.119  28.610  29.100  1.00  0.00     0.037 A 
ATOM     27  C   UNL A   1      47.600  27.002  26.956  1.00  0.00     0.037 A 
ATOM     28  C   UNL A   1      42.084  29.675  29.209  1.00  0.00     0.049 A 
ATOM     29  C   UNL A   1      47.248  28.381  27.431  1.00  0.00     0.074 A 
ATOM     30  C   UNL A   1      41.906  30.956  29.700  1.00  0.00     0.029 A 
ATOM     31  N   UNL A   1      43.411  29.586  28.804  1.00  0.00    -0.354 N 
ATOM     32  N   UNL A   1      46.103  28.828  27.887  1.00  0.00    -0.248 NA
ATOM     33  C   UNL A   1      48.315  29.388  27.392  1.00  0.00     0.031 C 
ATOM     34  C   UNL A   1      43.103  31.660  29.536  1.00  0.00     0.029 A 
ATOM     35  C   UNL A   1      44.050  30.801  29.002  1.00  0.00     0.049 A 
ATOM     36  H   UNL A   1      43.834  28.778  28.432  1.00  0.00     0.167 HD
ATOM     37  C   UNL A   1      46.313  30.162  28.203  1.00  0.00     0.074 A 
ATOM     38  C   UNL A   1      47.703  30.445  27.905  1.00  0.00     0.031 C 
ATOM     39  C   UNL A   1      45.433  31.069  28.694  1.00  0.00     0.037 A 
BRANCH  26  40
ATOM     40  C   UNL A   1      39.693  28.901  29.479  1.00  0.00     0.064 A 
ATOM     41  C   UNL A   1      38.761  29.383  28.547  1.00  0.00     0.173 A 
ATOM     42  C   UNL A   1      39.246  28.667  30.789  1.00  0.00     0.173 A 
ATOM     43  F   UNL A   1      39.134  29.631  27.284  1.00  0.00    -0.203 F 
ATOM     44  C   UNL A   1      37.445  29.651  28.921  1.00  0.00     0.198 A 
ATOM     45  C   UNL A   1      37.923  28.906  31.152  1.00  0.00     0.198 A 
ATOM     46  F   UNL A   1      40.092  28.198  31.719  1.00  0.00    -0.203 F 
ATOM     47  F   UNL A   1      36.587  30.162  28.028  1.00  0.00    -0.200 F 
ATOM     48  C   UNL A   1      37.026  29.407  30.220  1.00  0.00     0.200 A 
ATOM     49  F   UNL A   1      37.517  28.654  32.404  1.00  0.00    -0.200 F 
ATOM     50  F   UNL A   1      35.760  29.663  30.578  1.00  0.00    -0.200 F 
ENDBRANCH  26  40
BRANCH  27  51
ATOM     51  C   UNL A   1      48.954  26.678  26.438  1.00  0.00     0.064 A 
ATOM     52  C   UNL A   1      49.289  26.892  25.096  1.00  0.00     0.173 A 
ATOM     53  C   UNL A   1      49.954  26.184  27.291  1.00  0.00     0.173 A 
ATOM     54  F   UNL A   1      48.363  27.349  24.240  1.00  0.00    -0.203 F 
ATOM     55  C   UNL A   1      50.569  26.616  24.622  1.00  0.00     0.198 A 
ATOM     56  C   UNL A   1      51.242  25.938  26.824  1.00  0.00     0.198 A 
ATOM     57  F   UNL A   1      49.686  25.971  28.588  1.00  0.00    -0.203 F 
ATOM     58  F   UNL A   1      50.855  26.798  23.325  1.00  0.00    -0.200 F 
ATOM     59  C   UNL A   1      51.547  26.148  25.488  1.00  0.00     0.200 A 
ATOM     60  F   UNL A   1      52.188  25.508  27.670  1.00  0.00    -0.200 F 
ATOM     61  F   UNL A   1      52.783  25.899  25.035  1.00  0.00    -0.200 F 
ENDBRANCH  27  51
BRANCH  39  62
ATOM     62  C   UNL A   1      45.955  32.450  28.965  1.00  0.00     0.064 A 
ATOM     63  C   UNL A   1      45.879  33.468  28.002  1.00  0.00     0.173 A 
ATOM     64  C   UNL A   1      46.504  32.769  30.216  1.00  0.00     0.173 A 
ATOM     65  F   UNL A   1      45.379  33.210  26.784  1.00  0.00    -0.203 F 
ATOM     66  C   UNL A   1      46.354  34.749  28.276  1.00  0.00     0.198 A 
ATOM     67  C   UNL A   1      46.949  34.058  30.497  1.00  0.00     0.198 A 
ATOM     68  F   UNL A   1      46.597  31.833  31.171  1.00  0.00    -0.203 F 
ATOM     69  F   UNL A   1      46.316  35.692  27.325  1.00  0.00    -0.200 F 
ATOM     70  C   UNL A   1      46.880  35.044  29.524  1.00  0.00     0.200 A 
ATOM     71  F   UNL A   1      47.444  34.345  31.708  1.00  0.00    -0.200 F 
ATOM     72  F   UNL A   1      47.328  36.279  29.789  1.00  0.00    -0.200 F 
ENDBRANCH  39  62
ENDBRANCH  13  14
ENDBRANCH   6   8
ENDBRANCH   3   4
ENDBRANCH   2   3
ENDBRANCH   1   2
BRANCH   1  73
ATOM     73  C   UNL A   1      36.941  21.754  24.422  1.00  0.00     0.002 C 
BRANCH  73  74
ATOM     74  C   UNL A   1      35.870  22.773  24.829  1.00  0.00     0.021 C 
BRANCH  74  75
ATOM     75  C   UNL A   1      34.580  22.687  24.019  1.00  0.00     0.116 C 
BRANCH  75  76
ATOM     76  N   UNL A   1      34.481  23.793  23.087  1.00  0.00    -0.351 N 
ATOM     77  C   UNL A   1      33.808  24.974  23.191  1.00  0.00     0.278 C 
ATOM     78  H   UNL A   1      34.980  23.672  22.247  1.00  0.00     0.163 HD
ATOM     79  O   UNL A   1      33.814  25.722  22.209  1.00  0.00    -0.268 OA
BRANCH  77  80
ATOM     80  C   UNL A   1      33.118  25.343  24.512  1.00  0.00     0.275 C 
ATOM     81  C   UNL A   1      34.122  26.039  25.448  1.00  0.00     0.085 C 
ATOM     82  N   UNL A   1      32.014  26.318  24.259  1.00  0.00    -0.316 N 
ATOM     83  C   UNL A   1      33.310  27.182  26.017  1.00  0.00     0.054 C 
ATOM     84  C   UNL A   1      32.469  27.596  24.815  1.00  0.00     0.188 C 
ATOM     85  H   UNL A   1      31.843  26.464  23.263  1.00  0.00     0.349 HD
ATOM     86  C   UNL A   1      34.085  28.350  26.595  1.00  0.00     0.010 C 
ATOM     87  C   UNL A   1      31.481  28.709  25.159  1.00  0.00     0.065 C 
ATOM     88  C   UNL A   1      33.094  29.443  27.005  1.00  0.00     0.001 C 
ATOM     89  C   UNL A   1      32.205  29.883  25.835  1.00  0.00     0.006 C 
BRANCH  82  90
ATOM     90  C   UNL A   1      30.673  25.829  24.598  1.00  0.00     0.342 C 
BRANCH  90  91
ATOM     91  C   UNL A   1      30.605  24.568  25.392  1.00  0.00     0.190 A 
ATOM     92  C   UNL A   1      30.858  23.239  25.142  1.00  0.00     0.075 A 
ATOM     93  O   UNL A   1      30.194  24.698  26.687  1.00  0.00    -0.355 OA
ATOM     94  C   UNL A   1      30.488  22.588  26.330  1.00  0.00     0.158 A 
ATOM     95  N   UNL A   1      30.097  23.447  27.272  1.00  0.00    -0.088 NA
ENDBRANCH  90  91
ENDBRANCH  82  90
ENDBRANCH  77  80
ENDBRANCH  75  76
ENDBRANCH  74  75
ENDBRANCH  73  74
ENDBRANCH   1  73
TORSDOF 15
ENDMDL
