MODEL 1
REMARK VINA RESULT:     -13.3      0.000      0.000
REMARK SMILES CC(=O)O[C@@H]1CC[C@@]23C(=O)O[C@]4(CC[C@]2(O)C1)[C@H]3CC[C@]1(C)[C@H](C(=O)NCCCCCCNC(=O)c2ccc(-c3c5nc(c(-c6c(F)c(F)c(F)c(F)c6F)c6ccc([nH]6)c(-c6c(F)c(F)c(F)c(F)c6F)c6nc(c(-c7c(F)c(F)c(F)c(F)c7F)c7ccc3[nH]7)C=C6)C=C5)cc2)CC[C@@H]14
REMARK SMILES IDX 29 1 28 2 27 3 26 4 24 5 25 6 23 8 5 9 6 10 17 11 7 12 15 13
REMARK SMILES IDX 8 14 14 15 9 16 18 17 13 18 10 19 11 20 12 21 19 22 101 23
REMARK SMILES IDX 20 24 21 25 100 26 22 27 99 28 4 29 2 30 1 31 3 32 16 33
REMARK SMILES IDX 30 35 31 36 32 37 33 38 34 39 35 41 36 42 37 43 98 44 38 45
REMARK SMILES IDX 97 46 39 47 40 48 41 49 91 50 42 51 96 52 90 53 92 54 43 55
REMARK SMILES IDX 95 56 89 57 88 58 44 60 76 61 56 62 75 63 57 64 60 65 74 66
REMARK SMILES IDX 93 67 58 68 59 69 73 71 94 72 61 73 45 74 46 75 54 76 47 77
REMARK SMILES IDX 48 78 52 79 55 80 49 81 50 82 53 83 51 84 77 85 78 86 86 87
REMARK SMILES IDX 79 88 80 89 84 90 87 91 81 92 82 93 85 94 83 95 62 96 63 97
REMARK SMILES IDX 71 98 64 99 65 100 69 101 72 102 66 103 67 104 70 105 68 106
REMARK H PARENT 26 7 16 34 33 40 92 59 60 70
REMARK Flexibility Score: inf
ROOT
ATOM      1  C   UNL A   1      36.017  19.402  24.950  1.00  0.00     0.002 C 
ENDROOT
BRANCH   1   2
ATOM      2  C   UNL A   1      34.729  20.223  25.002  1.00  0.00     0.021 C 
BRANCH   2   3
ATOM      3  C   UNL A   1      33.496  19.492  24.440  1.00  0.00     0.116 C 
BRANCH   3   4
ATOM      4  N   UNL A   1      32.312  20.251  24.779  1.00  0.00    -0.356 N 
ATOM      5  C   UNL A   1      32.122  21.535  25.160  1.00  0.00     0.223 C 
ATOM      6  O   UNL A   1      31.042  21.758  25.723  1.00  0.00    -0.275 OA
ATOM      7  H   UNL A   1      31.478  19.730  24.723  1.00  0.00     0.163 HD
BRANCH   5   8
ATOM      8  C   UNL A   1      33.051  22.721  24.863  1.00  0.00     0.085 C 
ATOM      9  C   UNL A   1      31.899  30.381  26.926  1.00  0.00     0.179 C 
ATOM     10  C   UNL A   1      31.877  29.002  27.554  1.00  0.00     0.047 C 
ATOM     11  C   UNL A   1      31.278  30.333  25.521  1.00  0.00     0.081 C 
ATOM     12  C   UNL A   1      32.478  27.995  26.589  1.00  0.00     0.026 C 
ATOM     13  C   UNL A   1      31.629  29.139  24.595  1.00  0.00     0.085 C 
ATOM     14  C   UNL A   1      31.502  27.777  25.163  1.00  0.00     0.103 C 
ATOM     15  C   UNL A   1      33.163  29.083  24.135  1.00  0.00     0.041 C 
ATOM     16  C   UNL A   1      30.967  26.578  25.742  1.00  0.00     0.316 C 
ATOM     17  C   UNL A   1      31.877  26.796  23.757  1.00  0.00     0.054 C 
ATOM     18  C   UNL A   1      33.919  27.587  24.275  1.00  0.00     0.052 C 
ATOM     19  O   UNL A   1      29.942  26.315  26.351  1.00  0.00    -0.251 OA
ATOM     20  O   UNL A   1      32.130  25.806  25.621  1.00  0.00    -0.458 OA
ATOM     21  C   UNL A   1      33.003  26.248  24.481  1.00  0.00     0.120 C 
ATOM     22  C   UNL A   1      31.011  25.687  23.127  1.00  0.00     0.009 C 
ATOM     23  C   UNL A   1      33.775  24.987  24.157  1.00  0.00     0.040 C 
ATOM     24  C   UNL A   1      31.449  24.211  23.319  1.00  0.00     0.008 C 
ATOM     25  C   UNL A   1      32.891  23.788  23.699  1.00  0.00    -0.014 C 
ATOM     26  C   UNL A   1      34.450  24.519  25.484  1.00  0.00     0.009 C 
ATOM     27  C   UNL A   1      33.546  23.146  22.449  1.00  0.00     0.012 C 
ATOM     28  C   UNL A   1      33.507  23.480  26.097  1.00  0.00     0.014 C 
BRANCH   9  29
ATOM     29  O   UNL A   1      33.256  30.882  26.846  1.00  0.00    -0.462 OA
BRANCH  29  30
ATOM     30  C   UNL A   1      33.593  31.839  27.763  1.00  0.00     0.302 C 
ATOM     31  C   UNL A   1      32.851  33.116  27.503  1.00  0.00     0.139 C 
ATOM     32  O   UNL A   1      34.409  31.702  28.663  1.00  0.00    -0.253 OA
ENDBRANCH  29  30
ENDBRANCH   9  29
BRANCH  13  33
ATOM     33  O   UNL A   1      30.780  29.255  23.449  1.00  0.00    -0.389 OA
ATOM     34  H   UNL A   1      31.192  28.803  22.695  1.00  0.00     0.211 HD
ENDBRANCH  13  33
ENDBRANCH   5   8
ENDBRANCH   3   4
ENDBRANCH   2   3
ENDBRANCH   1   2
BRANCH   1  35
ATOM     35  C   UNL A   1      37.289  20.250  24.932  1.00  0.00     0.002 C 
BRANCH  35  36
ATOM     36  C   UNL A   1      38.592  19.445  24.897  1.00  0.00     0.021 C 
BRANCH  36  37
ATOM     37  C   UNL A   1      39.563  19.774  26.027  1.00  0.00     0.116 C 
BRANCH  37  38
ATOM     38  N   UNL A   1      40.705  18.871  26.028  1.00  0.00    -0.352 N 
ATOM     39  C   UNL A   1      42.043  19.167  26.027  1.00  0.00     0.251 C 
ATOM     40  H   UNL A   1      40.485  17.911  26.028  1.00  0.00     0.163 HD
ATOM     41  O   UNL A   1      42.873  18.308  25.751  1.00  0.00    -0.269 OA
BRANCH  39  42
ATOM     42  C   UNL A   1      42.482  20.536  26.361  1.00  0.00     0.039 A 
ATOM     43  C   UNL A   1      42.807  21.417  25.328  1.00  0.00     0.014 A 
ATOM     44  C   UNL A   1      42.585  20.941  27.696  1.00  0.00     0.014 A 
ATOM     45  C   UNL A   1      43.190  22.723  25.634  1.00  0.00     0.010 A 
ATOM     46  C   UNL A   1      42.892  22.263  27.995  1.00  0.00     0.010 A 
ATOM     47  C   UNL A   1      43.206  23.165  26.967  1.00  0.00    -0.014 A 
BRANCH  47  48
ATOM     48  C   UNL A   1      43.553  24.567  27.307  1.00  0.00     0.031 A 
ATOM     49  C   UNL A   1      44.980  25.030  27.236  1.00  0.00     0.074 A 
ATOM     50  C   UNL A   1      42.587  25.403  27.735  1.00  0.00     0.049 A 
ATOM     51  N   UNL A   1      45.489  26.194  27.554  1.00  0.00    -0.248 NA
ATOM     52  C   UNL A   1      45.972  24.050  26.770  1.00  0.00     0.031 C 
ATOM     53  C   UNL A   1      41.175  25.052  27.892  1.00  0.00     0.029 A 
ATOM     54  N   UNL A   1      42.649  26.716  28.127  1.00  0.00    -0.354 N 
ATOM     55  C   UNL A   1      46.855  26.081  27.335  1.00  0.00     0.074 A 
ATOM     56  C   UNL A   1      47.106  24.719  26.915  1.00  0.00     0.031 C 
ATOM     57  C   UNL A   1      40.501  26.127  28.328  1.00  0.00     0.029 A 
ATOM     58  C   UNL A   1      41.438  27.230  28.521  1.00  0.00     0.049 A 
ATOM     59  H   UNL A   1      43.482  27.241  28.125  1.00  0.00     0.167 HD
ATOM     60  C   UNL A   1      47.810  27.034  27.448  1.00  0.00     0.037 A 
ATOM     61  C   UNL A   1      41.121  28.448  28.998  1.00  0.00     0.037 A 
ATOM     62  C   UNL A   1      47.551  28.392  27.853  1.00  0.00     0.049 A 
ATOM     63  C   UNL A   1      42.203  29.486  29.129  1.00  0.00     0.074 A 
ATOM     64  C   UNL A   1      48.441  29.446  27.955  1.00  0.00     0.029 A 
ATOM     65  N   UNL A   1      46.307  28.881  28.230  1.00  0.00    -0.354 N 
ATOM     66  N   UNL A   1      43.483  29.387  28.859  1.00  0.00    -0.248 NA
ATOM     67  C   UNL A   1      41.796  30.809  29.622  1.00  0.00     0.031 C 
ATOM     68  C   UNL A   1      47.748  30.558  28.445  1.00  0.00     0.029 A 
ATOM     69  C   UNL A   1      46.413  30.215  28.588  1.00  0.00     0.049 A 
ATOM     70  H   UNL A   1      45.473  28.356  28.241  1.00  0.00     0.167 HD
ATOM     71  C   UNL A   1      44.027  30.636  29.122  1.00  0.00     0.074 A 
ATOM     72  C   UNL A   1      42.935  31.483  29.557  1.00  0.00     0.031 C 
ATOM     73  C   UNL A   1      45.315  31.045  29.015  1.00  0.00     0.037 A 
BRANCH  60  74
ATOM     74  C   UNL A   1      49.224  26.646  27.127  1.00  0.00     0.064 A 
ATOM     75  C   UNL A   1      49.735  26.739  25.822  1.00  0.00     0.173 A 
ATOM     76  C   UNL A   1      50.095  26.216  28.141  1.00  0.00     0.173 A 
ATOM     77  F   UNL A   1      48.944  27.133  24.813  1.00  0.00    -0.203 F 
ATOM     78  C   UNL A   1      51.054  26.390  25.540  1.00  0.00     0.198 A 
ATOM     79  C   UNL A   1      51.422  25.901  27.861  1.00  0.00     0.198 A 
ATOM     80  F   UNL A   1      49.662  26.115  29.406  1.00  0.00    -0.203 F 
ATOM     81  F   UNL A   1      51.504  26.438  24.279  1.00  0.00    -0.200 F 
ATOM     82  C   UNL A   1      51.898  25.980  26.561  1.00  0.00     0.200 A 
ATOM     83  F   UNL A   1      52.241  25.521  28.851  1.00  0.00    -0.200 F 
ATOM     84  F   UNL A   1      53.170  25.656  26.291  1.00  0.00    -0.200 F 
ENDBRANCH  60  74
BRANCH  61  85
ATOM     85  C   UNL A   1      39.716  28.754  29.375  1.00  0.00     0.064 A 
ATOM     86  C   UNL A   1      38.786  29.177  28.416  1.00  0.00     0.173 A 
ATOM     87  C   UNL A   1      39.273  28.625  30.700  1.00  0.00     0.173 A 
ATOM     88  F   UNL A   1      39.165  29.335  27.139  1.00  0.00    -0.203 F 
ATOM     89  C   UNL A   1      37.473  29.482  28.772  1.00  0.00     0.198 A 
ATOM     90  C   UNL A   1      37.953  28.899  31.049  1.00  0.00     0.198 A 
ATOM     91  F   UNL A   1      40.122  28.219  31.655  1.00  0.00    -0.203 F 
ATOM     92  F   UNL A   1      36.618  29.933  27.844  1.00  0.00    -0.200 F 
ATOM     93  C   UNL A   1      37.056  29.335  30.086  1.00  0.00     0.200 A 
ATOM     94  F   UNL A   1      37.551  28.742  32.317  1.00  0.00    -0.200 F 
ATOM     95  F   UNL A   1      35.793  29.625  30.426  1.00  0.00    -0.200 F 
ENDBRANCH  61  85
BRANCH  73  96
ATOM     96  C   UNL A   1      45.611  32.483  29.337  1.00  0.00     0.064 A 
ATOM     97  C   UNL A   1      46.031  32.882  30.615  1.00  0.00     0.173 A 
ATOM     98  C   UNL A   1      45.518  33.466  28.339  1.00  0.00     0.173 A 
ATOM     99  F   UNL A   1      46.124  31.984  31.607  1.00  0.00    -0.203 F 
ATOM    100  C   UNL A   1      46.317  34.217  30.889  1.00  0.00     0.198 A 
ATOM    101  C   UNL A   1      45.838  34.793  28.609  1.00  0.00     0.198 A 
ATOM    102  F   UNL A   1      45.130  33.137  27.098  1.00  0.00    -0.203 F 
ATOM    103  F   UNL A   1      46.664  34.585  32.130  1.00  0.00    -0.200 F 
ATOM    104  C   UNL A   1      46.229  35.169  29.884  1.00  0.00     0.200 A 
ATOM    105  F   UNL A   1      45.770  35.709  27.632  1.00  0.00    -0.200 F 
ATOM    106  F   UNL A   1      46.514  36.453  30.148  1.00  0.00    -0.200 F 
ENDBRANCH  73  96
ENDBRANCH  47  48
ENDBRANCH  39  42
ENDBRANCH  37  38
ENDBRANCH  36  37
ENDBRANCH  35  36
ENDBRANCH   1  35
TORSDOF 16
ENDMDL
MODEL 2
REMARK VINA RESULT:     -13.3      1.395      7.334
REMARK SMILES CC(=O)O[C@@H]1CC[C@@]23C(=O)O[C@]4(CC[C@]2(O)C1)[C@H]3CC[C@]1(C)[C@H](C(=O)NCCCCCCNC(=O)c2ccc(-c3c5nc(c(-c6c(F)c(F)c(F)c(F)c6F)c6ccc([nH]6)c(-c6c(F)c(F)c(F)c(F)c6F)c6nc(c(-c7c(F)c(F)c(F)c(F)c7F)c7ccc3[nH]7)C=C6)C=C5)cc2)CC[C@@H]14
REMARK SMILES IDX 29 1 28 2 27 3 26 4 24 5 25 6 23 8 5 9 6 10 17 11 7 12 15 13
REMARK SMILES IDX 8 14 14 15 9 16 18 17 13 18 10 19 11 20 12 21 19 22 101 23
REMARK SMILES IDX 20 24 21 25 100 26 22 27 99 28 4 29 2 30 1 31 3 32 16 33
REMARK SMILES IDX 30 35 31 36 32 37 33 38 34 39 35 41 36 42 37 43 98 44 38 45
REMARK SMILES IDX 97 46 39 47 40 48 41 49 91 50 42 51 96 52 90 53 92 54 43 55
REMARK SMILES IDX 95 56 89 57 88 58 44 60 76 61 56 62 75 63 57 64 60 65 74 66
REMARK SMILES IDX 93 67 58 68 59 69 73 71 94 72 61 73 45 74 46 75 54 76 47 77
REMARK SMILES IDX 48 78 52 79 55 80 49 81 50 82 53 83 51 84 77 85 78 86 86 87
REMARK SMILES IDX 79 88 80 89 84 90 87 91 81 92 82 93 85 94 83 95 62 96 63 97
REMARK SMILES IDX 71 98 64 99 65 100 69 101 72 102 66 103 67 104 70 105 68 106
REMARK H PARENT 26 7 16 34 33 40 92 59 60 70
REMARK Flexibility Score: inf
ROOT
ATOM      1  C   UNL A   1      36.799  21.118  25.001  1.00  0.00     0.002 C 
ENDROOT
BRANCH   1   2
ATOM      2  C   UNL A   1      36.403  22.207  24.006  1.00  0.00     0.021 C 
BRANCH   2   3
ATOM      3  C   UNL A   1      34.917  22.177  23.601  1.00  0.00     0.116 C 
BRANCH   3   4
ATOM      4  N   UNL A   1      34.283  21.047  24.246  1.00  0.00    -0.356 N 
ATOM      5  C   UNL A   1      33.481  20.940  25.328  1.00  0.00     0.223 C 
ATOM      6  O   UNL A   1      33.417  19.805  25.820  1.00  0.00    -0.275 OA
ATOM      7  H   UNL A   1      34.475  20.185  23.810  1.00  0.00     0.163 HD
BRANCH   5   8
ATOM      8  C   UNL A   1      32.585  22.041  25.912  1.00  0.00     0.085 C 
ATOM      9  C   UNL A   1      30.674  29.029  22.479  1.00  0.00     0.179 C 
ATOM     10  C   UNL A   1      30.698  27.550  22.148  1.00  0.00     0.047 C 
ATOM     11  C   UNL A   1      31.916  29.408  23.302  1.00  0.00     0.081 C 
ATOM     12  C   UNL A   1      30.931  26.750  23.417  1.00  0.00     0.026 C 
ATOM     13  C   UNL A   1      32.380  28.448  24.428  1.00  0.00     0.085 C 
ATOM     14  C   UNL A   1      32.517  27.013  24.087  1.00  0.00     0.103 C 
ATOM     15  C   UNL A   1      31.360  28.322  25.657  1.00  0.00     0.041 C 
ATOM     16  C   UNL A   1      32.947  25.782  23.489  1.00  0.00     0.316 C 
ATOM     17  C   UNL A   1      33.157  26.375  25.592  1.00  0.00     0.054 C 
ATOM     18  C   UNL A   1      31.016  26.759  26.172  1.00  0.00     0.052 C 
ATOM     19  O   UNL A   1      33.547  25.501  22.463  1.00  0.00    -0.251 OA
ATOM     20  O   UNL A   1      32.231  24.929  24.339  1.00  0.00    -0.458 OA
ATOM     21  C   UNL A   1      31.985  25.532  25.693  1.00  0.00     0.120 C 
ATOM     22  C   UNL A   1      34.456  25.571  25.794  1.00  0.00     0.009 C 
ATOM     23  C   UNL A   1      31.810  24.306  26.565  1.00  0.00     0.040 C 
ATOM     24  C   UNL A   1      34.344  24.051  26.090  1.00  0.00     0.008 C 
ATOM     25  C   UNL A   1      33.058  23.376  26.629  1.00  0.00    -0.014 C 
ATOM     26  C   UNL A   1      30.686  23.445  25.910  1.00  0.00     0.009 C 
ATOM     27  C   UNL A   1      33.305  22.990  28.110  1.00  0.00     0.012 C 
ATOM     28  C   UNL A   1      31.398  22.409  25.037  1.00  0.00     0.014 C 
BRANCH   9  29
ATOM     29  O   UNL A   1      29.474  29.366  23.217  1.00  0.00    -0.462 OA
BRANCH  29  30
ATOM     30  C   UNL A   1      28.548  30.111  22.542  1.00  0.00     0.302 C 
ATOM     31  C   UNL A   1      27.715  30.921  23.490  1.00  0.00     0.139 C 
ATOM     32  O   UNL A   1      28.386  30.110  21.329  1.00  0.00    -0.253 OA
ENDBRANCH  29  30
ENDBRANCH   9  29
BRANCH  13  33
ATOM     33  O   UNL A   1      33.639  28.947  24.890  1.00  0.00    -0.389 OA
ATOM     34  H   UNL A   1      34.055  29.474  24.188  1.00  0.00     0.211 HD
ENDBRANCH  13  33
ENDBRANCH   5   8
ENDBRANCH   3   4
ENDBRANCH   2   3
ENDBRANCH   1   2
BRANCH   1  35
ATOM     35  C   UNL A   1      37.574  19.959  24.373  1.00  0.00     0.002 C 
BRANCH  35  36
ATOM     36  C   UNL A   1      38.372  19.112  25.368  1.00  0.00     0.021 C 
BRANCH  36  37
ATOM     37  C   UNL A   1      39.656  19.771  25.866  1.00  0.00     0.116 C 
BRANCH  37  38
ATOM     38  N   UNL A   1      40.731  18.801  26.011  1.00  0.00    -0.352 N 
ATOM     39  C   UNL A   1      42.082  19.013  26.103  1.00  0.00     0.251 C 
ATOM     40  H   UNL A   1      40.448  17.858  26.048  1.00  0.00     0.163 HD
ATOM     41  O   UNL A   1      42.871  18.088  25.946  1.00  0.00    -0.269 OA
BRANCH  39  42
ATOM     42  C   UNL A   1      42.584  20.370  26.393  1.00  0.00     0.039 A 
ATOM     43  C   UNL A   1      43.143  21.124  25.360  1.00  0.00     0.014 A 
ATOM     44  C   UNL A   1      42.515  20.887  27.691  1.00  0.00     0.014 A 
ATOM     45  C   UNL A   1      43.589  22.420  25.619  1.00  0.00     0.010 A 
ATOM     46  C   UNL A   1      42.889  22.205  27.930  1.00  0.00     0.010 A 
ATOM     47  C   UNL A   1      43.437  22.981  26.898  1.00  0.00    -0.014 A 
BRANCH  47  48
ATOM     48  C   UNL A   1      43.850  24.379  27.176  1.00  0.00     0.031 A 
ATOM     49  C   UNL A   1      42.843  25.381  27.664  1.00  0.00     0.074 A 
ATOM     50  C   UNL A   1      45.121  24.755  26.932  1.00  0.00     0.049 A 
ATOM     51  N   UNL A   1      42.996  26.660  27.901  1.00  0.00    -0.248 NA
ATOM     52  C   UNL A   1      41.476  24.889  27.893  1.00  0.00     0.031 C 
ATOM     53  C   UNL A   1      46.174  23.883  26.410  1.00  0.00     0.029 A 
ATOM     54  N   UNL A   1      45.738  25.971  27.080  1.00  0.00    -0.354 N 
ATOM     55  C   UNL A   1      41.748  27.122  28.296  1.00  0.00     0.074 A 
ATOM     56  C   UNL A   1      40.835  26.004  28.210  1.00  0.00     0.031 C 
ATOM     57  C   UNL A   1      47.311  24.586  26.301  1.00  0.00     0.029 A 
ATOM     58  C   UNL A   1      47.059  25.967  26.702  1.00  0.00     0.049 A 
ATOM     59  H   UNL A   1      45.278  26.771  27.424  1.00  0.00     0.167 HD
ATOM     60  C   UNL A   1      41.402  28.361  28.718  1.00  0.00     0.037 A 
ATOM     61  C   UNL A   1      47.960  26.966  26.671  1.00  0.00     0.037 A 
ATOM     62  C   UNL A   1      42.320  29.467  28.814  1.00  0.00     0.049 A 
ATOM     63  C   UNL A   1      47.546  28.338  27.131  1.00  0.00     0.074 A 
ATOM     64  C   UNL A   1      42.080  30.749  29.274  1.00  0.00     0.029 A 
ATOM     65  N   UNL A   1      43.655  29.420  28.439  1.00  0.00    -0.354 N 
ATOM     66  N   UNL A   1      46.378  28.750  27.563  1.00  0.00    -0.248 NA
ATOM     67  C   UNL A   1      48.578  29.383  27.108  1.00  0.00     0.031 C 
ATOM     68  C   UNL A   1      43.254  31.495  29.124  1.00  0.00     0.029 A 
ATOM     69  C   UNL A   1      44.244  30.659  28.633  1.00  0.00     0.049 A 
ATOM     70  H   UNL A   1      44.116  28.624  28.086  1.00  0.00     0.167 HD
ATOM     71  C   UNL A   1      46.541  30.089  27.888  1.00  0.00     0.074 A 
ATOM     72  C   UNL A   1      47.926  30.417  27.620  1.00  0.00     0.031 C 
ATOM     73  C   UNL A   1      45.626  30.969  28.364  1.00  0.00     0.037 A 
BRANCH  60  74
ATOM     74  C   UNL A   1      39.971  28.589  29.112  1.00  0.00     0.064 A 
ATOM     75  C   UNL A   1      39.523  28.365  30.423  1.00  0.00     0.173 A 
ATOM     76  C   UNL A   1      39.043  29.079  28.179  1.00  0.00     0.173 A 
ATOM     77  F   UNL A   1      40.365  27.886  31.352  1.00  0.00    -0.203 F 
ATOM     78  C   UNL A   1      38.196  28.595  30.779  1.00  0.00     0.198 A 
ATOM     79  C   UNL A   1      37.726  29.341  28.547  1.00  0.00     0.198 A 
ATOM     80  F   UNL A   1      39.418  29.317  26.913  1.00  0.00    -0.203 F 
ATOM     81  F   UNL A   1      37.781  28.325  32.024  1.00  0.00    -0.200 F 
ATOM     82  C   UNL A   1      37.301  29.091  29.843  1.00  0.00     0.200 A 
ATOM     83  F   UNL A   1      36.866  29.835  27.645  1.00  0.00    -0.200 F 
ATOM     84  F   UNL A   1      36.027  29.323  30.189  1.00  0.00    -0.200 F 
ENDBRANCH  60  74
BRANCH  61  85
ATOM     85  C   UNL A   1      49.343  26.701  26.198  1.00  0.00     0.064 A 
ATOM     86  C   UNL A   1      50.329  26.227  27.074  1.00  0.00     0.173 A 
ATOM     87  C   UNL A   1      49.708  26.912  24.859  1.00  0.00     0.173 A 
ATOM     88  F   UNL A   1      50.036  26.029  28.368  1.00  0.00    -0.203 F 
ATOM     89  C   UNL A   1      51.632  25.996  26.635  1.00  0.00     0.198 A 
ATOM     90  C   UNL A   1      51.002  26.649  24.414  1.00  0.00     0.198 A 
ATOM     91  F   UNL A   1      48.801  27.360  23.979  1.00  0.00    -0.203 F 
ATOM     92  F   UNL A   1      52.567  25.592  27.505  1.00  0.00    -0.200 F 
ATOM     93  C   UNL A   1      51.965  26.200  25.305  1.00  0.00     0.200 A 
ATOM     94  F   UNL A   1      51.315  26.835  23.125  1.00  0.00    -0.200 F 
ATOM     95  F   UNL A   1      53.217  25.974  24.883  1.00  0.00    -0.200 F 
ENDBRANCH  61  85
BRANCH  73  96
ATOM     96  C   UNL A   1      46.100  32.363  28.663  1.00  0.00     0.064 A 
ATOM     97  C   UNL A   1      46.643  32.708  29.909  1.00  0.00     0.173 A 
ATOM     98  C   UNL A   1      46.050  33.356  27.671  1.00  0.00     0.173 A 
ATOM     99  F   UNL A   1      46.702  31.800  30.895  1.00  0.00    -0.203 F 
ATOM    100  C   UNL A   1      47.092  34.003  30.160  1.00  0.00     0.198 A 
ATOM    101  C   UNL A   1      46.531  34.638  27.915  1.00  0.00     0.198 A 
ATOM    102  F   UNL A   1      45.548  33.076  26.459  1.00  0.00    -0.203 F 
ATOM    103  F   UNL A   1      47.558  34.324  31.375  1.00  0.00    -0.200 F 
ATOM    104  C   UNL A   1      47.043  34.963  29.161  1.00  0.00     0.200 A 
ATOM    105  F   UNL A   1      46.500  35.560  26.943  1.00  0.00    -0.200 F 
ATOM    106  F   UNL A   1      47.485  36.206  29.403  1.00  0.00    -0.200 F 
ENDBRANCH  73  96
ENDBRANCH  47  48
ENDBRANCH  39  42
ENDBRANCH  37  38
ENDBRANCH  36  37
ENDBRANCH  35  36
ENDBRANCH   1  35
TORSDOF 16
ENDMDL
MODEL 3
REMARK VINA RESULT:     -13.3      1.408      7.182
REMARK SMILES CC(=O)O[C@@H]1CC[C@@]23C(=O)O[C@]4(CC[C@]2(O)C1)[C@H]3CC[C@]1(C)[C@H](C(=O)NCCCCCCNC(=O)c2ccc(-c3c5nc(c(-c6c(F)c(F)c(F)c(F)c6F)c6ccc([nH]6)c(-c6c(F)c(F)c(F)c(F)c6F)c6nc(c(-c7c(F)c(F)c(F)c(F)c7F)c7ccc3[nH]7)C=C6)C=C5)cc2)CC[C@@H]14
REMARK SMILES IDX 29 1 28 2 27 3 26 4 24 5 25 6 23 8 5 9 6 10 17 11 7 12 15 13
REMARK SMILES IDX 8 14 14 15 9 16 18 17 13 18 10 19 11 20 12 21 19 22 101 23
REMARK SMILES IDX 20 24 21 25 100 26 22 27 99 28 4 29 2 30 1 31 3 32 16 33
REMARK SMILES IDX 30 35 31 36 32 37 33 38 34 39 35 41 36 42 37 43 98 44 38 45
REMARK SMILES IDX 97 46 39 47 40 48 41 49 91 50 42 51 96 52 90 53 92 54 43 55
REMARK SMILES IDX 95 56 89 57 88 58 44 60 76 61 56 62 75 63 57 64 60 65 74 66
REMARK SMILES IDX 93 67 58 68 59 69 73 71 94 72 61 73 45 74 46 75 54 76 47 77
REMARK SMILES IDX 48 78 52 79 55 80 49 81 50 82 53 83 51 84 77 85 78 86 86 87
REMARK SMILES IDX 79 88 80 89 84 90 87 91 81 92 82 93 85 94 83 95 62 96 63 97
REMARK SMILES IDX 71 98 64 99 65 100 69 101 72 102 66 103 67 104 70 105 68 106
REMARK H PARENT 26 7 16 34 33 40 92 59 60 70
REMARK Flexibility Score: inf
ROOT
ATOM      1  C   UNL A   1      36.643  21.175  25.140  1.00  0.00     0.002 C 
ENDROOT
BRANCH   1   2
ATOM      2  C   UNL A   1      36.145  22.277  24.205  1.00  0.00     0.021 C 
BRANCH   2   3
ATOM      3  C   UNL A   1      34.742  22.022  23.625  1.00  0.00     0.116 C 
BRANCH   3   4
ATOM      4  N   UNL A   1      34.137  20.919  24.341  1.00  0.00    -0.356 N 
ATOM      5  C   UNL A   1      33.375  20.856  25.455  1.00  0.00     0.223 C 
ATOM      6  O   UNL A   1      33.334  19.743  25.997  1.00  0.00    -0.275 OA
ATOM      7  H   UNL A   1      34.318  20.040  23.936  1.00  0.00     0.163 HD
BRANCH   5   8
ATOM      8  C   UNL A   1      32.494  21.978  26.023  1.00  0.00     0.085 C 
ATOM      9  C   UNL A   1      30.741  28.972  22.520  1.00  0.00     0.179 C 
ATOM     10  C   UNL A   1      30.741  27.491  22.201  1.00  0.00     0.047 C 
ATOM     11  C   UNL A   1      31.983  29.334  23.350  1.00  0.00     0.081 C 
ATOM     12  C   UNL A   1      30.949  26.696  23.478  1.00  0.00     0.026 C 
ATOM     13  C   UNL A   1      32.420  28.376  24.488  1.00  0.00     0.085 C 
ATOM     14  C   UNL A   1      32.534  26.935  24.158  1.00  0.00     0.103 C 
ATOM     15  C   UNL A   1      31.387  28.278  25.709  1.00  0.00     0.041 C 
ATOM     16  C   UNL A   1      32.946  25.692  23.574  1.00  0.00     0.316 C 
ATOM     17  C   UNL A   1      33.149  26.298  25.674  1.00  0.00     0.054 C 
ATOM     18  C   UNL A   1      31.011  26.725  26.234  1.00  0.00     0.052 C 
ATOM     19  O   UNL A   1      33.548  25.392  22.555  1.00  0.00    -0.251 OA
ATOM     20  O   UNL A   1      32.207  24.859  24.424  1.00  0.00    -0.458 OA
ATOM     21  C   UNL A   1      31.961  25.477  25.771  1.00  0.00     0.120 C 
ATOM     22  C   UNL A   1      34.431  25.471  25.893  1.00  0.00     0.009 C 
ATOM     23  C   UNL A   1      31.756  24.262  26.651  1.00  0.00     0.040 C 
ATOM     24  C   UNL A   1      34.289  23.956  26.200  1.00  0.00     0.008 C 
ATOM     25  C   UNL A   1      32.986  23.309  26.734  1.00  0.00    -0.014 C 
ATOM     26  C   UNL A   1      30.622  23.416  25.994  1.00  0.00     0.009 C 
ATOM     27  C   UNL A   1      33.214  22.930  28.219  1.00  0.00     0.012 C 
ATOM     28  C   UNL A   1      31.322  22.360  25.135  1.00  0.00     0.014 C 
BRANCH   9  29
ATOM     29  O   UNL A   1      29.542  29.336  23.246  1.00  0.00    -0.462 OA
BRANCH  29  30
ATOM     30  C   UNL A   1      28.620  30.066  22.546  1.00  0.00     0.302 C 
ATOM     31  C   UNL A   1      27.927  31.051  23.438  1.00  0.00     0.139 C 
ATOM     32  O   UNL A   1      28.362  29.929  21.359  1.00  0.00    -0.253 OA
ENDBRANCH  29  30
ENDBRANCH   9  29
BRANCH  13  33
ATOM     33  O   UNL A   1      33.685  28.855  24.956  1.00  0.00    -0.389 OA
ATOM     34  H   UNL A   1      33.939  28.368  25.756  1.00  0.00     0.211 HD
ENDBRANCH  13  33
ENDBRANCH   5   8
ENDBRANCH   3   4
ENDBRANCH   2   3
ENDBRANCH   1   2
BRANCH   1  35
ATOM     35  C   UNL A   1      37.441  20.080  24.432  1.00  0.00     0.002 C 
BRANCH  35  36
ATOM     36  C   UNL A   1      38.304  19.219  25.360  1.00  0.00     0.021 C 
BRANCH  36  37
ATOM     37  C   UNL A   1      39.612  19.877  25.789  1.00  0.00     0.116 C 
BRANCH  37  38
ATOM     38  N   UNL A   1      40.663  18.890  25.993  1.00  0.00    -0.352 N 
ATOM     39  C   UNL A   1      42.013  19.079  26.128  1.00  0.00     0.251 C 
ATOM     40  H   UNL A   1      40.361  17.954  26.039  1.00  0.00     0.163 HD
ATOM     41  O   UNL A   1      42.790  18.136  26.018  1.00  0.00    -0.269 OA
BRANCH  39  42
ATOM     42  C   UNL A   1      42.531  20.432  26.407  1.00  0.00     0.039 A 
ATOM     43  C   UNL A   1      43.075  21.182  25.363  1.00  0.00     0.014 A 
ATOM     44  C   UNL A   1      42.493  20.950  27.706  1.00  0.00     0.014 A 
ATOM     45  C   UNL A   1      43.535  22.475  25.612  1.00  0.00     0.010 A 
ATOM     46  C   UNL A   1      42.881  22.265  27.937  1.00  0.00     0.010 A 
ATOM     47  C   UNL A   1      43.414  23.037  26.894  1.00  0.00    -0.014 A 
BRANCH  47  48
ATOM     48  C   UNL A   1      43.843  24.432  27.163  1.00  0.00     0.031 A 
ATOM     49  C   UNL A   1      42.850  25.446  27.655  1.00  0.00     0.074 A 
ATOM     50  C   UNL A   1      45.115  24.794  26.908  1.00  0.00     0.049 A 
ATOM     51  N   UNL A   1      43.017  26.724  27.886  1.00  0.00    -0.248 NA
ATOM     52  C   UNL A   1      41.479  24.968  27.896  1.00  0.00     0.031 C 
ATOM     53  C   UNL A   1      46.156  23.910  26.381  1.00  0.00     0.029 A 
ATOM     54  N   UNL A   1      45.746  26.005  27.046  1.00  0.00    -0.354 N 
ATOM     55  C   UNL A   1      41.776  27.200  28.289  1.00  0.00     0.074 A 
ATOM     56  C   UNL A   1      40.851  26.090  28.214  1.00  0.00     0.031 C 
ATOM     57  C   UNL A   1      47.299  24.601  26.261  1.00  0.00     0.029 A 
ATOM     58  C   UNL A   1      47.063  25.986  26.659  1.00  0.00     0.049 A 
ATOM     59  H   UNL A   1      45.296  26.811  27.391  1.00  0.00     0.167 HD
ATOM     60  C   UNL A   1      41.446  28.443  28.709  1.00  0.00     0.037 A 
ATOM     61  C   UNL A   1      47.974  26.977  26.616  1.00  0.00     0.037 A 
ATOM     62  C   UNL A   1      42.375  29.540  28.794  1.00  0.00     0.049 A 
ATOM     63  C   UNL A   1      47.577  28.354  27.074  1.00  0.00     0.074 A 
ATOM     64  C   UNL A   1      42.152  30.827  29.250  1.00  0.00     0.029 A 
ATOM     65  N   UNL A   1      43.707  29.479  28.408  1.00  0.00    -0.354 N 
ATOM     66  N   UNL A   1      46.417  28.779  27.513  1.00  0.00    -0.248 NA
ATOM     67  C   UNL A   1      48.619  29.389  27.039  1.00  0.00     0.031 C 
ATOM     68  C   UNL A   1      43.332  31.561  29.088  1.00  0.00     0.029 A 
ATOM     69  C   UNL A   1      44.310  30.714  28.592  1.00  0.00     0.049 A 
ATOM     70  H   UNL A   1      44.157  28.677  28.054  1.00  0.00     0.167 HD
ATOM     71  C   UNL A   1      46.595  30.118  27.832  1.00  0.00     0.074 A 
ATOM     72  C   UNL A   1      47.981  30.431  27.552  1.00  0.00     0.031 C 
ATOM     73  C   UNL A   1      45.693  31.008  28.312  1.00  0.00     0.037 A 
BRANCH  60  74
ATOM     74  C   UNL A   1      40.020  28.687  29.113  1.00  0.00     0.064 A 
ATOM     75  C   UNL A   1      39.062  29.141  28.193  1.00  0.00     0.173 A 
ATOM     76  C   UNL A   1      39.594  28.424  30.424  1.00  0.00     0.173 A 
ATOM     77  F   UNL A   1      39.417  29.419  26.929  1.00  0.00    -0.203 F 
ATOM     78  C   UNL A   1      37.739  29.348  28.577  1.00  0.00     0.198 A 
ATOM     79  C   UNL A   1      38.264  28.599  30.795  1.00  0.00     0.198 A 
ATOM     80  F   UNL A   1      40.467  27.982  31.343  1.00  0.00    -0.203 F 
ATOM     81  F   UNL A   1      36.854  29.830  27.693  1.00  0.00    -0.200 F 
ATOM     82  C   UNL A   1      37.339  29.069  29.875  1.00  0.00     0.200 A 
ATOM     83  F   UNL A   1      37.876  28.314  32.046  1.00  0.00    -0.200 F 
ATOM     84  F   UNL A   1      36.064  29.258  30.240  1.00  0.00    -0.200 F 
ENDBRANCH  60  74
BRANCH  61  85
ATOM     85  C   UNL A   1      49.351  26.696  26.133  1.00  0.00     0.064 A 
ATOM     86  C   UNL A   1      49.716  26.944  24.804  1.00  0.00     0.173 A 
ATOM     87  C   UNL A   1      50.331  26.176  26.992  1.00  0.00     0.173 A 
ATOM     88  F   UNL A   1      48.809  27.421  23.938  1.00  0.00    -0.203 F 
ATOM     89  C   UNL A   1      51.002  26.662  24.345  1.00  0.00     0.198 A 
ATOM     90  C   UNL A   1      51.626  25.926  26.541  1.00  0.00     0.198 A 
ATOM     91  F   UNL A   1      50.035  25.925  28.276  1.00  0.00    -0.203 F 
ATOM     92  F   UNL A   1      51.309  26.862  23.056  1.00  0.00    -0.200 F 
ATOM     93  C   UNL A   1      51.957  26.161  25.216  1.00  0.00     0.200 A 
ATOM     94  F   UNL A   1      52.549  25.455  27.390  1.00  0.00    -0.200 F 
ATOM     95  F   UNL A   1      53.194  25.894  24.775  1.00  0.00    -0.200 F 
ENDBRANCH  61  85
BRANCH  73  96
ATOM     96  C   UNL A   1      46.182  32.399  28.601  1.00  0.00     0.064 A 
ATOM     97  C   UNL A   1      46.730  32.746  29.845  1.00  0.00     0.173 A 
ATOM     98  C   UNL A   1      46.143  33.386  27.603  1.00  0.00     0.173 A 
ATOM     99  F   UNL A   1      46.778  31.844  30.838  1.00  0.00    -0.203 F 
ATOM    100  C   UNL A   1      47.193  34.037  30.088  1.00  0.00     0.198 A 
ATOM    101  C   UNL A   1      46.639  34.664  27.839  1.00  0.00     0.198 A 
ATOM    102  F   UNL A   1      45.639  33.104  26.392  1.00  0.00    -0.203 F 
ATOM    103  F   UNL A   1      47.663  34.360  31.301  1.00  0.00    -0.200 F 
ATOM    104  C   UNL A   1      47.156  34.991  29.083  1.00  0.00     0.200 A 
ATOM    105  F   UNL A   1      46.619  35.580  26.860  1.00  0.00    -0.200 F 
ATOM    106  F   UNL A   1      47.611  36.231  29.316  1.00  0.00    -0.200 F 
ENDBRANCH  73  96
ENDBRANCH  47  48
ENDBRANCH  39  42
ENDBRANCH  37  38
ENDBRANCH  36  37
ENDBRANCH  35  36
ENDBRANCH   1  35
TORSDOF 16
ENDMDL
