MODEL 1
REMARK VINA RESULT:     -10.8      0.000      0.000
REMARK SMILES CC(C)N(CCCC(=O)NCCCCCCNC(=O)c1ccc(-c2c3nc(c(-c4c(F)c(F)c(F)c(F)c4F)c4ccc([nH]4)c(-c4c(F)c(F)c(F)c(F)c4F)c4nc(c(-c5c(F)c(F)c(F)c(F)c5F)c5ccc2[nH]5)C=C4)C=C3)cc1)C(=O)N[C@@H]1CCCC1(C)C
REMARK SMILES IDX 12 1 11 2 10 3 8 4 9 5 7 7 6 8 5 9 4 10 2 11 1 12 3 13 83 14
REMARK SMILES IDX 84 15 85 16 86 18 87 19 90 20 88 21 89 22 91 23 92 24 13 25
REMARK SMILES IDX 14 26 15 27 16 28 17 29 18 30 19 32 20 33 21 34 82 35 22 36
REMARK SMILES IDX 81 37 23 38 24 39 25 40 75 41 26 42 80 43 74 44 76 45 27 46
REMARK SMILES IDX 79 47 73 48 72 49 28 51 60 52 40 53 59 54 41 55 44 56 58 57
REMARK SMILES IDX 77 58 42 59 43 60 57 62 78 63 45 64 29 65 30 66 38 67 31 68
REMARK SMILES IDX 32 69 36 70 39 71 33 72 34 73 37 74 35 75 61 76 62 77 70 78
REMARK SMILES IDX 63 79 64 80 68 81 71 82 65 83 66 84 69 85 67 86 46 87 47 88
REMARK SMILES IDX 55 89 48 90 49 91 53 92 56 93 50 94 51 95 54 96 52 97
REMARK H PARENT 10 6 85 17 17 31 76 50 44 61
REMARK Flexibility Score: inf
ROOT
ATOM      1  C   UNL A   1      35.442  31.856  28.265  1.00  0.00     0.021 C 
ENDROOT
BRANCH   1   2
ATOM      2  C   UNL A   1      35.089  30.488  27.571  1.00  0.00     0.116 C 
BRANCH   2   3
ATOM      3  N   UNL A   1      33.636  30.024  27.642  1.00  0.00    -0.356 N 
ATOM      4  C   UNL A   1      32.546  29.657  26.880  1.00  0.00     0.220 C 
ATOM      5  O   UNL A   1      31.669  29.072  27.542  1.00  0.00    -0.275 OA
ATOM      6  H   UNL A   1      33.379  29.962  28.591  1.00  0.00     0.163 HD
BRANCH   4   7
ATOM      7  C   UNL A   1      32.225  29.890  25.366  1.00  0.00     0.102 C 
BRANCH   7   8
ATOM      8  C   UNL A   1      33.141  29.217  24.267  1.00  0.00     0.031 C 
BRANCH   8   9
ATOM      9  C   UNL A   1      33.450  27.666  24.268  1.00  0.00     0.122 C 
BRANCH   9  10
ATOM     10  N   UNL A   1      32.693  26.798  23.374  1.00  0.00    -0.322 N 
BRANCH  10  11
ATOM     11  C   UNL A   1      31.207  26.642  23.479  1.00  0.00     0.080 C 
ATOM     12  C   UNL A   1      30.645  26.621  24.925  1.00  0.00     0.031 C 
ATOM     13  C   UNL A   1      30.382  27.673  22.697  1.00  0.00     0.031 C 
ENDBRANCH  10  11
BRANCH  10  14
ATOM     14  C   UNL A   1      33.414  25.847  22.748  1.00  0.00     0.317 C 
ATOM     15  O   UNL A   1      33.648  25.983  21.553  1.00  0.00    -0.249 OA
ATOM     16  N   UNL A   1      33.674  24.681  23.397  1.00  0.00    -0.335 N 
ATOM     17  H   UNL A   1      33.918  23.962  22.769  1.00  0.00     0.165 HD
BRANCH  16  18
ATOM     18  C   UNL A   1      33.686  24.221  24.764  1.00  0.00     0.089 C 
ATOM     19  C   UNL A   1      35.073  24.232  25.385  1.00  0.00     0.025 C 
ATOM     20  C   UNL A   1      33.179  22.748  25.012  1.00  0.00    -0.015 C 
ATOM     21  C   UNL A   1      34.955  23.282  26.578  1.00  0.00     0.003 C 
ATOM     22  C   UNL A   1      33.567  22.639  26.493  1.00  0.00     0.008 C 
ATOM     23  C   UNL A   1      31.669  22.543  24.836  1.00  0.00     0.013 C 
ATOM     24  C   UNL A   1      33.882  21.605  24.243  1.00  0.00     0.013 C 
ENDBRANCH  16  18
ENDBRANCH  10  14
ENDBRANCH   9  10
ENDBRANCH   8   9
ENDBRANCH   7   8
ENDBRANCH   4   7
ENDBRANCH   2   3
ENDBRANCH   1   2
BRANCH   1  25
ATOM     25  C   UNL A   1      34.402  32.732  28.959  1.00  0.00     0.002 C 
BRANCH  25  26
ATOM     26  C   UNL A   1      34.517  34.228  28.680  1.00  0.00     0.002 C 
BRANCH  26  27
ATOM     27  C   UNL A   1      33.233  35.063  28.852  1.00  0.00     0.021 C 
BRANCH  27  28
ATOM     28  C   UNL A   1      33.363  36.352  29.670  1.00  0.00     0.116 C 
BRANCH  28  29
ATOM     29  N   UNL A   1      32.464  36.368  30.818  1.00  0.00    -0.352 N 
ATOM     30  C   UNL A   1      32.504  35.637  31.970  1.00  0.00     0.251 C 
ATOM     31  H   UNL A   1      31.715  37.004  30.753  1.00  0.00     0.163 HD
ATOM     32  O   UNL A   1      31.497  35.572  32.698  1.00  0.00    -0.269 OA
BRANCH  30  33
ATOM     33  C   UNL A   1      33.726  34.918  32.377  1.00  0.00     0.039 A 
ATOM     34  C   UNL A   1      33.623  33.626  32.902  1.00  0.00     0.014 A 
ATOM     35  C   UNL A   1      34.973  35.544  32.301  1.00  0.00     0.014 A 
ATOM     36  C   UNL A   1      34.777  32.940  33.296  1.00  0.00     0.010 A 
ATOM     37  C   UNL A   1      36.127  34.836  32.631  1.00  0.00     0.010 A 
ATOM     38  C   UNL A   1      36.041  33.530  33.138  1.00  0.00    -0.014 A 
BRANCH  38  39
ATOM     39  C   UNL A   1      37.285  32.800  33.500  1.00  0.00     0.031 A 
ATOM     40  C   UNL A   1      38.006  33.118  34.780  1.00  0.00     0.074 A 
ATOM     41  C   UNL A   1      37.803  31.903  32.640  1.00  0.00     0.049 A 
ATOM     42  N   UNL A   1      39.142  32.648  35.233  1.00  0.00    -0.248 NA
ATOM     43  C   UNL A   1      37.383  34.124  35.653  1.00  0.00     0.031 C 
ATOM     44  C   UNL A   1      37.228  31.549  31.342  1.00  0.00     0.029 A 
ATOM     45  N   UNL A   1      38.942  31.138  32.720  1.00  0.00    -0.354 N 
ATOM     46  C   UNL A   1      39.372  33.307  36.433  1.00  0.00     0.074 A 
ATOM     47  C   UNL A   1      38.293  34.255  36.608  1.00  0.00     0.031 C 
ATOM     48  C   UNL A   1      38.009  30.630  30.751  1.00  0.00     0.029 A 
ATOM     49  C   UNL A   1      39.157  30.357  31.610  1.00  0.00     0.049 A 
ATOM     50  H   UNL A   1      39.545  31.150  33.497  1.00  0.00     0.167 HD
ATOM     51  C   UNL A   1      40.380  33.123  37.321  1.00  0.00     0.037 A 
ATOM     52  C   UNL A   1      40.172  29.524  31.314  1.00  0.00     0.037 A 
ATOM     53  C   UNL A   1      41.444  32.169  37.148  1.00  0.00     0.049 A 
ATOM     54  C   UNL A   1      41.280  29.333  32.314  1.00  0.00     0.074 A 
ATOM     55  C   UNL A   1      42.480  31.863  38.013  1.00  0.00     0.029 A 
ATOM     56  N   UNL A   1      41.611  31.370  36.026  1.00  0.00    -0.354 N 
ATOM     57  N   UNL A   1      41.449  29.906  33.481  1.00  0.00    -0.248 NA
ATOM     58  C   UNL A   1      42.333  28.370  31.961  1.00  0.00     0.031 C 
ATOM     59  C   UNL A   1      43.302  30.916  37.392  1.00  0.00     0.029 A 
ATOM     60  C   UNL A   1      42.748  30.589  36.165  1.00  0.00     0.049 A 
ATOM     61  H   UNL A   1      41.011  31.360  35.245  1.00  0.00     0.167 HD
ATOM     62  C   UNL A   1      42.610  29.361  34.012  1.00  0.00     0.074 A 
ATOM     63  C   UNL A   1      43.095  28.395  33.046  1.00  0.00     0.031 C 
ATOM     64  C   UNL A   1      43.219  29.633  35.192  1.00  0.00     0.037 A 
BRANCH  51  65
ATOM     65  C   UNL A   1      40.375  33.977  38.559  1.00  0.00     0.064 A 
ATOM     66  C   UNL A   1      39.680  33.593  39.717  1.00  0.00     0.173 A 
ATOM     67  C   UNL A   1      41.084  35.187  38.595  1.00  0.00     0.173 A 
ATOM     68  F   UNL A   1      38.979  32.449  39.736  1.00  0.00    -0.203 F 
ATOM     69  C   UNL A   1      39.658  34.408  40.846  1.00  0.00     0.198 A 
ATOM     70  C   UNL A   1      41.089  35.983  39.739  1.00  0.00     0.198 A 
ATOM     71  F   UNL A   1      41.773  35.601  37.522  1.00  0.00    -0.203 F 
ATOM     72  F   UNL A   1      38.934  34.049  41.916  1.00  0.00    -0.200 F 
ATOM     73  C   UNL A   1      40.367  35.599  40.858  1.00  0.00     0.200 A 
ATOM     74  F   UNL A   1      41.787  37.127  39.754  1.00  0.00    -0.200 F 
ATOM     75  F   UNL A   1      40.345  36.383  41.946  1.00  0.00    -0.200 F 
ENDBRANCH  51  65
BRANCH  52  76
ATOM     76  C   UNL A   1      40.172  28.795  30.019  1.00  0.00     0.064 A 
ATOM     77  C   UNL A   1      40.832  29.314  28.897  1.00  0.00     0.173 A 
ATOM     78  C   UNL A   1      39.528  27.556  29.881  1.00  0.00     0.173 A 
ATOM     79  F   UNL A   1      41.445  30.504  28.973  1.00  0.00    -0.203 F 
ATOM     80  C   UNL A   1      40.833  28.631  27.682  1.00  0.00     0.198 A 
ATOM     81  C   UNL A   1      39.556  26.860  28.674  1.00  0.00     0.198 A 
ATOM     82  F   UNL A   1      38.887  27.012  30.926  1.00  0.00    -0.203 F 
ATOM     83  F   UNL A   1      41.438  29.170  26.614  1.00  0.00    -0.200 F 
ATOM     84  C   UNL A   1      40.202  27.401  27.574  1.00  0.00     0.200 A 
ATOM     85  F   UNL A   1      38.958  25.664  28.578  1.00  0.00    -0.200 F 
ATOM     86  F   UNL A   1      40.213  26.740  26.408  1.00  0.00    -0.200 F 
ENDBRANCH  52  76
BRANCH  64  87
ATOM     87  C   UNL A   1      44.464  28.859  35.519  1.00  0.00     0.064 A 
ATOM     88  C   UNL A   1      45.737  29.323  35.156  1.00  0.00     0.173 A 
ATOM     89  C   UNL A   1      44.383  27.657  36.240  1.00  0.00     0.173 A 
ATOM     90  F   UNL A   1      45.867  30.458  34.454  1.00  0.00    -0.203 F 
ATOM     91  C   UNL A   1      46.881  28.598  35.481  1.00  0.00     0.198 A 
ATOM     92  C   UNL A   1      45.531  26.953  36.590  1.00  0.00     0.198 A 
ATOM     93  F   UNL A   1      43.190  27.174  36.617  1.00  0.00    -0.203 F 
ATOM     94  F   UNL A   1      48.083  29.035  35.080  1.00  0.00    -0.200 F 
ATOM     95  C   UNL A   1      46.778  27.419  36.204  1.00  0.00     0.200 A 
ATOM     96  F   UNL A   1      45.430  25.822  37.302  1.00  0.00    -0.200 F 
ATOM     97  F   UNL A   1      47.881  26.728  36.522  1.00  0.00    -0.200 F 
ENDBRANCH  64  87
ENDBRANCH  38  39
ENDBRANCH  30  33
ENDBRANCH  28  29
ENDBRANCH  27  28
ENDBRANCH  26  27
ENDBRANCH  25  26
ENDBRANCH   1  25
TORSDOF 19
ENDMDL
MODEL 2
REMARK VINA RESULT:     -10.8      4.473      6.982
REMARK SMILES CC(C)N(CCCC(=O)NCCCCCCNC(=O)c1ccc(-c2c3nc(c(-c4c(F)c(F)c(F)c(F)c4F)c4ccc([nH]4)c(-c4c(F)c(F)c(F)c(F)c4F)c4nc(c(-c5c(F)c(F)c(F)c(F)c5F)c5ccc2[nH]5)C=C4)C=C3)cc1)C(=O)N[C@@H]1CCCC1(C)C
REMARK SMILES IDX 12 1 11 2 10 3 8 4 9 5 7 7 6 8 5 9 4 10 2 11 1 12 3 13 83 14
REMARK SMILES IDX 84 15 85 16 86 18 87 19 90 20 88 21 89 22 91 23 92 24 13 25
REMARK SMILES IDX 14 26 15 27 16 28 17 29 18 30 19 32 20 33 21 34 82 35 22 36
REMARK SMILES IDX 81 37 23 38 24 39 25 40 75 41 26 42 80 43 74 44 76 45 27 46
REMARK SMILES IDX 79 47 73 48 72 49 28 51 60 52 40 53 59 54 41 55 44 56 58 57
REMARK SMILES IDX 77 58 42 59 43 60 57 62 78 63 45 64 29 65 30 66 38 67 31 68
REMARK SMILES IDX 32 69 36 70 39 71 33 72 34 73 37 74 35 75 61 76 62 77 70 78
REMARK SMILES IDX 63 79 64 80 68 81 71 82 65 83 66 84 69 85 67 86 46 87 47 88
REMARK SMILES IDX 55 89 48 90 49 91 53 92 56 93 50 94 51 95 54 96 52 97
REMARK H PARENT 10 6 85 17 17 31 76 50 44 61
REMARK Flexibility Score: inf
ROOT
ATOM      1  C   UNL A   1      30.966  26.771  23.624  1.00  0.00     0.021 C 
ENDROOT
BRANCH   1   2
ATOM      2  C   UNL A   1      30.164  25.454  23.935  1.00  0.00     0.116 C 
BRANCH   2   3
ATOM      3  N   UNL A   1      30.464  24.749  25.256  1.00  0.00    -0.356 N 
ATOM      4  C   UNL A   1      31.472  24.418  26.138  1.00  0.00     0.220 C 
ATOM      5  O   UNL A   1      31.043  24.061  27.251  1.00  0.00    -0.275 OA
ATOM      6  H   UNL A   1      29.617  24.397  25.616  1.00  0.00     0.163 HD
BRANCH   4   7
ATOM      7  C   UNL A   1      33.025  24.381  25.956  1.00  0.00     0.102 C 
BRANCH   7   8
ATOM      8  C   UNL A   1      33.635  23.859  24.593  1.00  0.00     0.031 C 
BRANCH   8   9
ATOM      9  C   UNL A   1      34.185  22.385  24.432  1.00  0.00     0.122 C 
BRANCH   9  10
ATOM     10  N   UNL A   1      34.772  21.724  25.592  1.00  0.00    -0.322 N 
BRANCH  10  11
ATOM     11  C   UNL A   1      36.252  21.553  25.751  1.00  0.00     0.080 C 
ATOM     12  C   UNL A   1      36.917  20.575  24.747  1.00  0.00     0.031 C 
ATOM     13  C   UNL A   1      37.069  22.851  25.712  1.00  0.00     0.031 C 
ENDBRANCH  10  11
BRANCH  10  14
ATOM     14  C   UNL A   1      33.937  20.921  26.281  1.00  0.00     0.317 C 
ATOM     15  O   UNL A   1      33.617  21.250  27.416  1.00  0.00    -0.249 OA
ATOM     16  N   UNL A   1      33.650  19.688  25.788  1.00  0.00    -0.335 N 
ATOM     17  H   UNL A   1      33.306  19.087  26.489  1.00  0.00     0.165 HD
BRANCH  16  18
ATOM     18  C   UNL A   1      33.718  19.026  24.508  1.00  0.00     0.089 C 
ATOM     19  C   UNL A   1      32.484  19.257  23.652  1.00  0.00     0.025 C 
ATOM     20  C   UNL A   1      33.864  17.457  24.536  1.00  0.00    -0.015 C 
ATOM     21  C   UNL A   1      32.526  18.125  22.625  1.00  0.00     0.003 C 
ATOM     22  C   UNL A   1      33.678  17.201  23.034  1.00  0.00     0.008 C 
ATOM     23  C   UNL A   1      35.231  16.940  25.004  1.00  0.00     0.013 C 
ATOM     24  C   UNL A   1      32.791  16.647  25.300  1.00  0.00     0.013 C 
ENDBRANCH  16  18
ENDBRANCH  10  14
ENDBRANCH   9  10
ENDBRANCH   8   9
ENDBRANCH   7   8
ENDBRANCH   4   7
ENDBRANCH   2   3
ENDBRANCH   1   2
BRANCH   1  25
ATOM     25  C   UNL A   1      30.695  28.099  24.328  1.00  0.00     0.002 C 
BRANCH  25  26
ATOM     26  C   UNL A   1      31.867  28.671  25.119  1.00  0.00     0.002 C 
BRANCH  26  27
ATOM     27  C   UNL A   1      33.102  27.763  25.277  1.00  0.00     0.021 C 
BRANCH  27  28
ATOM     28  C   UNL A   1      34.106  28.160  26.364  1.00  0.00     0.116 C 
BRANCH  28  29
ATOM     29  N   UNL A   1      33.857  29.501  26.881  1.00  0.00    -0.352 N 
ATOM     30  C   UNL A   1      34.567  30.233  27.789  1.00  0.00     0.251 C 
ATOM     31  H   UNL A   1      33.057  29.946  26.519  1.00  0.00     0.163 HD
ATOM     32  O   UNL A   1      34.046  31.227  28.326  1.00  0.00    -0.269 OA
BRANCH  30  33
ATOM     33  C   UNL A   1      35.950  29.872  28.148  1.00  0.00     0.039 A 
ATOM     34  C   UNL A   1      36.220  29.355  29.420  1.00  0.00     0.014 A 
ATOM     35  C   UNL A   1      36.998  30.103  27.253  1.00  0.00     0.014 A 
ATOM     36  C   UNL A   1      37.531  29.015  29.770  1.00  0.00     0.010 A 
ATOM     37  C   UNL A   1      38.292  29.703  27.578  1.00  0.00     0.010 A 
ATOM     38  C   UNL A   1      38.574  29.161  28.842  1.00  0.00    -0.014 A 
BRANCH  38  39
ATOM     39  C   UNL A   1      39.965  28.758  29.173  1.00  0.00     0.031 A 
ATOM     40  C   UNL A   1      40.875  29.703  29.909  1.00  0.00     0.074 A 
ATOM     41  C   UNL A   1      40.433  27.569  28.748  1.00  0.00     0.049 A 
ATOM     42  N   UNL A   1      42.140  29.565  30.221  1.00  0.00    -0.248 NA
ATOM     43  C   UNL A   1      40.293  30.989  30.320  1.00  0.00     0.031 C 
ATOM     44  C   UNL A   1      39.666  26.589  27.977  1.00  0.00     0.029 A 
ATOM     45  N   UNL A   1      41.670  26.989  28.887  1.00  0.00    -0.354 N 
ATOM     46  C   UNL A   1      42.504  30.747  30.852  1.00  0.00     0.074 A 
ATOM     47  C   UNL A   1      41.347  31.615  30.823  1.00  0.00     0.031 C 
ATOM     48  C   UNL A   1      40.445  25.526  27.720  1.00  0.00     0.029 A 
ATOM     49  C   UNL A   1      41.775  25.764  28.275  1.00  0.00     0.049 A 
ATOM     50  H   UNL A   1      42.411  27.412  29.377  1.00  0.00     0.167 HD
ATOM     51  C   UNL A   1      43.689  31.071  31.425  1.00  0.00     0.037 A 
ATOM     52  C   UNL A   1      42.826  24.931  28.163  1.00  0.00     0.037 A 
ATOM     53  C   UNL A   1      44.833  30.198  31.461  1.00  0.00     0.049 A 
ATOM     54  C   UNL A   1      44.133  25.310  28.807  1.00  0.00     0.074 A 
ATOM     55  C   UNL A   1      46.061  30.406  32.066  1.00  0.00     0.029 A 
ATOM     56  N   UNL A   1      44.892  28.949  30.859  1.00  0.00    -0.354 N 
ATOM     57  N   UNL A   1      44.444  26.398  29.467  1.00  0.00    -0.248 NA
ATOM     58  C   UNL A   1      45.230  24.338  28.700  1.00  0.00     0.031 C 
ATOM     59  C   UNL A   1      46.879  29.306  31.786  1.00  0.00     0.029 A 
ATOM     60  C   UNL A   1      46.142  28.385  31.056  1.00  0.00     0.049 A 
ATOM     61  H   UNL A   1      44.153  28.526  30.364  1.00  0.00     0.167 HD
ATOM     62  C   UNL A   1      45.762  26.236  29.874  1.00  0.00     0.074 A 
ATOM     63  C   UNL A   1      46.185  24.933  29.402  1.00  0.00     0.031 C 
ATOM     64  C   UNL A   1      46.549  27.087  30.576  1.00  0.00     0.037 A 
BRANCH  51  65
ATOM     65  C   UNL A   1      43.803  32.432  32.055  1.00  0.00     0.064 A 
ATOM     66  C   UNL A   1      44.251  33.546  31.328  1.00  0.00     0.173 A 
ATOM     67  C   UNL A   1      43.448  32.629  33.398  1.00  0.00     0.173 A 
ATOM     68  F   UNL A   1      44.611  33.414  30.043  1.00  0.00    -0.203 F 
ATOM     69  C   UNL A   1      44.380  34.794  31.933  1.00  0.00     0.198 A 
ATOM     70  C   UNL A   1      43.545  33.887  33.990  1.00  0.00     0.198 A 
ATOM     71  F   UNL A   1      43.005  31.603  34.140  1.00  0.00    -0.203 F 
ATOM     72  F   UNL A   1      44.872  35.827  31.234  1.00  0.00    -0.200 F 
ATOM     73  C   UNL A   1      44.022  34.964  33.261  1.00  0.00     0.200 A 
ATOM     74  F   UNL A   1      43.184  34.052  35.271  1.00  0.00    -0.200 F 
ATOM     75  F   UNL A   1      44.148  36.166  33.842  1.00  0.00    -0.200 F 
ENDBRANCH  51  65
BRANCH  52  76
ATOM     76  C   UNL A   1      42.676  23.649  27.426  1.00  0.00     0.064 A 
ATOM     77  C   UNL A   1      43.126  23.518  26.106  1.00  0.00     0.173 A 
ATOM     78  C   UNL A   1      42.096  22.524  28.032  1.00  0.00     0.173 A 
ATOM     79  F   UNL A   1      43.669  24.570  25.475  1.00  0.00    -0.203 F 
ATOM     80  C   UNL A   1      42.986  22.316  25.413  1.00  0.00     0.198 A 
ATOM     81  C   UNL A   1      41.984  21.315  27.349  1.00  0.00     0.198 A 
ATOM     82  F   UNL A   1      41.654  22.595  29.297  1.00  0.00    -0.203 F 
ATOM     83  F   UNL A   1      43.388  22.230  24.137  1.00  0.00    -0.200 F 
ATOM     84  C   UNL A   1      42.423  21.214  26.038  1.00  0.00     0.200 A 
ATOM     85  F   UNL A   1      41.454  20.248  27.962  1.00  0.00    -0.200 F 
ATOM     86  F   UNL A   1      42.298  20.056  25.375  1.00  0.00    -0.200 F 
ENDBRANCH  52  76
BRANCH  64  87
ATOM     87  C   UNL A   1      47.942  26.628  30.900  1.00  0.00     0.064 A 
ATOM     88  C   UNL A   1      48.222  25.871  32.047  1.00  0.00     0.173 A 
ATOM     89  C   UNL A   1      49.004  26.916  30.028  1.00  0.00     0.173 A 
ATOM     90  F   UNL A   1      47.245  25.581  32.919  1.00  0.00    -0.203 F 
ATOM     91  C   UNL A   1      49.518  25.442  32.322  1.00  0.00     0.198 A 
ATOM     92  C   UNL A   1      50.292  26.458  30.290  1.00  0.00     0.198 A 
ATOM     93  F   UNL A   1      48.789  27.631  28.913  1.00  0.00    -0.203 F 
ATOM     94  F   UNL A   1      49.770  24.762  33.450  1.00  0.00    -0.200 F 
ATOM     95  C   UNL A   1      50.550  25.729  31.440  1.00  0.00     0.200 A 
ATOM     96  F   UNL A   1      51.284  26.723  29.429  1.00  0.00    -0.200 F 
ATOM     97  F   UNL A   1      51.794  25.307  31.704  1.00  0.00    -0.200 F 
ENDBRANCH  64  87
ENDBRANCH  38  39
ENDBRANCH  30  33
ENDBRANCH  28  29
ENDBRANCH  27  28
ENDBRANCH  26  27
ENDBRANCH  25  26
ENDBRANCH   1  25
TORSDOF 19
ENDMDL
MODEL 3
REMARK VINA RESULT:     -10.8      2.140      8.034
REMARK SMILES CC(C)N(CCCC(=O)NCCCCCCNC(=O)c1ccc(-c2c3nc(c(-c4c(F)c(F)c(F)c(F)c4F)c4ccc([nH]4)c(-c4c(F)c(F)c(F)c(F)c4F)c4nc(c(-c5c(F)c(F)c(F)c(F)c5F)c5ccc2[nH]5)C=C4)C=C3)cc1)C(=O)N[C@@H]1CCCC1(C)C
REMARK SMILES IDX 12 1 11 2 10 3 8 4 9 5 7 7 6 8 5 9 4 10 2 11 1 12 3 13 83 14
REMARK SMILES IDX 84 15 85 16 86 18 87 19 90 20 88 21 89 22 91 23 92 24 13 25
REMARK SMILES IDX 14 26 15 27 16 28 17 29 18 30 19 32 20 33 21 34 82 35 22 36
REMARK SMILES IDX 81 37 23 38 24 39 25 40 75 41 26 42 80 43 74 44 76 45 27 46
REMARK SMILES IDX 79 47 73 48 72 49 28 51 60 52 40 53 59 54 41 55 44 56 58 57
REMARK SMILES IDX 77 58 42 59 43 60 57 62 78 63 45 64 29 65 30 66 38 67 31 68
REMARK SMILES IDX 32 69 36 70 39 71 33 72 34 73 37 74 35 75 61 76 62 77 70 78
REMARK SMILES IDX 63 79 64 80 68 81 71 82 65 83 66 84 69 85 67 86 46 87 47 88
REMARK SMILES IDX 55 89 48 90 49 91 53 92 56 93 50 94 51 95 54 96 52 97
REMARK H PARENT 10 6 85 17 17 31 76 50 44 61
REMARK Flexibility Score: inf
ROOT
ATOM      1  C   UNL A   1      32.798  29.243  27.262  1.00  0.00     0.021 C 
ENDROOT
BRANCH   1   2
ATOM      2  C   UNL A   1      31.740  28.142  27.644  1.00  0.00     0.116 C 
BRANCH   2   3
ATOM      3  N   UNL A   1      31.097  27.364  26.498  1.00  0.00    -0.356 N 
ATOM      4  C   UNL A   1      31.133  26.173  25.803  1.00  0.00     0.220 C 
ATOM      5  O   UNL A   1      30.115  25.988  25.110  1.00  0.00    -0.275 OA
ATOM      6  H   UNL A   1      30.386  27.924  26.108  1.00  0.00     0.163 HD
BRANCH   4   7
ATOM      7  C   UNL A   1      32.236  25.068  25.714  1.00  0.00     0.102 C 
BRANCH   7   8
ATOM      8  C   UNL A   1      31.813  23.570  25.437  1.00  0.00     0.031 C 
BRANCH   8   9
ATOM      9  C   UNL A   1      32.773  22.551  24.699  1.00  0.00     0.122 C 
BRANCH   9  10
ATOM     10  N   UNL A   1      33.949  22.058  25.405  1.00  0.00    -0.322 N 
BRANCH  10  11
ATOM     11  C   UNL A   1      35.342  22.312  24.914  1.00  0.00     0.080 C 
ATOM     12  C   UNL A   1      35.440  22.944  23.500  1.00  0.00     0.031 C 
ATOM     13  C   UNL A   1      36.219  23.162  25.841  1.00  0.00     0.031 C 
ENDBRANCH  10  11
BRANCH  10  14
ATOM     14  C   UNL A   1      33.725  21.034  26.252  1.00  0.00     0.317 C 
ATOM     15  O   UNL A   1      33.649  21.276  27.451  1.00  0.00    -0.249 OA
ATOM     16  N   UNL A   1      33.801  19.760  25.786  1.00  0.00    -0.335 N 
ATOM     17  H   UNL A   1      33.933  19.113  26.516  1.00  0.00     0.165 HD
BRANCH  16  18
ATOM     18  C   UNL A   1      33.741  19.108  24.501  1.00  0.00     0.089 C 
ATOM     19  C   UNL A   1      32.466  19.420  23.734  1.00  0.00     0.025 C 
ATOM     20  C   UNL A   1      33.794  17.533  24.511  1.00  0.00    -0.015 C 
ATOM     21  C   UNL A   1      32.369  18.297  22.700  1.00  0.00     0.003 C 
ATOM     22  C   UNL A   1      33.489  17.303  23.024  1.00  0.00     0.008 C 
ATOM     23  C   UNL A   1      35.156  16.930  24.879  1.00  0.00     0.013 C 
ATOM     24  C   UNL A   1      32.729  16.781  25.343  1.00  0.00     0.013 C 
ENDBRANCH  16  18
ENDBRANCH  10  14
ENDBRANCH   9  10
ENDBRANCH   8   9
ENDBRANCH   7   8
ENDBRANCH   4   7
ENDBRANCH   2   3
ENDBRANCH   1   2
BRANCH   1  25
ATOM     25  C   UNL A   1      32.644  30.164  26.053  1.00  0.00     0.002 C 
BRANCH  25  26
ATOM     26  C   UNL A   1      31.311  30.899  25.956  1.00  0.00     0.002 C 
BRANCH  26  27
ATOM     27  C   UNL A   1      31.266  32.326  26.535  1.00  0.00     0.021 C 
BRANCH  27  28
ATOM     28  C   UNL A   1      32.550  32.835  27.197  1.00  0.00     0.116 C 
BRANCH  28  29
ATOM     29  N   UNL A   1      32.446  34.232  27.602  1.00  0.00    -0.352 N 
ATOM     30  C   UNL A   1      33.039  34.887  28.643  1.00  0.00     0.251 C 
ATOM     31  H   UNL A   1      31.860  34.787  27.038  1.00  0.00     0.163 HD
ATOM     32  O   UNL A   1      32.604  35.995  29.005  1.00  0.00    -0.269 OA
BRANCH  30  33
ATOM     33  C   UNL A   1      34.195  34.308  29.351  1.00  0.00     0.039 A 
ATOM     34  C   UNL A   1      33.988  33.568  30.520  1.00  0.00     0.014 A 
ATOM     35  C   UNL A   1      35.495  34.547  28.898  1.00  0.00     0.014 A 
ATOM     36  C   UNL A   1      35.080  33.021  31.201  1.00  0.00     0.010 A 
ATOM     37  C   UNL A   1      36.577  33.947  29.539  1.00  0.00     0.010 A 
ATOM     38  C   UNL A   1      36.382  33.183  30.700  1.00  0.00    -0.014 A 
BRANCH  38  39
ATOM     39  C   UNL A   1      37.552  32.566  31.377  1.00  0.00     0.031 A 
ATOM     40  C   UNL A   1      38.275  31.411  30.741  1.00  0.00     0.074 A 
ATOM     41  C   UNL A   1      37.919  32.999  32.599  1.00  0.00     0.049 A 
ATOM     42  N   UNL A   1      39.265  30.691  31.208  1.00  0.00    -0.248 NA
ATOM     43  C   UNL A   1      37.800  30.987  29.415  1.00  0.00     0.031 C 
ATOM     44  C   UNL A   1      37.262  34.072  33.344  1.00  0.00     0.029 A 
ATOM     45  N   UNL A   1      38.921  32.575  33.437  1.00  0.00    -0.354 N 
ATOM     46  C   UNL A   1      39.521  29.727  30.242  1.00  0.00     0.074 A 
ATOM     47  C   UNL A   1      38.543  29.914  29.192  1.00  0.00     0.031 C 
ATOM     48  C   UNL A   1      37.883  34.232  34.523  1.00  0.00     0.029 A 
ATOM     49  C   UNL A   1      38.958  33.250  34.633  1.00  0.00     0.049 A 
ATOM     50  H   UNL A   1      39.552  31.858  33.203  1.00  0.00     0.167 HD
ATOM     51  C   UNL A   1      40.498  28.788  30.220  1.00  0.00     0.037 A 
ATOM     52  C   UNL A   1      39.759  33.087  35.703  1.00  0.00     0.037 A 
ATOM     53  C   UNL A   1      41.476  28.616  31.262  1.00  0.00     0.049 A 
ATOM     54  C   UNL A   1      40.837  32.037  35.657  1.00  0.00     0.074 A 
ATOM     55  C   UNL A   1      42.541  27.734  31.312  1.00  0.00     0.029 A 
ATOM     56  N   UNL A   1      41.502  29.340  32.445  1.00  0.00    -0.354 N 
ATOM     57  N   UNL A   1      41.118  31.181  34.707  1.00  0.00    -0.248 NA
ATOM     58  C   UNL A   1      41.717  31.941  36.831  1.00  0.00     0.031 C 
ATOM     59  C   UNL A   1      43.181  27.889  32.546  1.00  0.00     0.029 A 
ATOM     60  C   UNL A   1      42.550  28.908  33.243  1.00  0.00     0.049 A 
ATOM     61  H   UNL A   1      40.869  30.056  32.684  1.00  0.00     0.167 HD
ATOM     62  C   UNL A   1      42.218  30.460  35.152  1.00  0.00     0.074 A 
ATOM     63  C   UNL A   1      42.564  30.993  36.454  1.00  0.00     0.031 C 
ATOM     64  C   UNL A   1      42.880  29.449  34.539  1.00  0.00     0.037 A 
BRANCH  51  65
ATOM     65  C   UNL A   1      40.549  27.872  29.028  1.00  0.00     0.064 A 
ATOM     66  C   UNL A   1      41.395  28.128  27.937  1.00  0.00     0.173 A 
ATOM     67  C   UNL A   1      39.755  26.716  28.980  1.00  0.00     0.173 A 
ATOM     68  F   UNL A   1      42.171  29.223  27.927  1.00  0.00    -0.203 F 
ATOM     69  C   UNL A   1      41.410  27.288  26.827  1.00  0.00     0.198 A 
ATOM     70  C   UNL A   1      39.798  25.859  27.882  1.00  0.00     0.198 A 
ATOM     71  F   UNL A   1      38.934  26.415  29.997  1.00  0.00    -0.203 F 
ATOM     72  F   UNL A   1      42.178  27.590  25.770  1.00  0.00    -0.200 F 
ATOM     73  C   UNL A   1      40.616  26.152  26.802  1.00  0.00     0.200 A 
ATOM     74  F   UNL A   1      39.041  24.753  27.867  1.00  0.00    -0.200 F 
ATOM     75  F   UNL A   1      40.632  25.344  25.733  1.00  0.00    -0.200 F 
ENDBRANCH  51  65
BRANCH  52  76
ATOM     76  C   UNL A   1      39.579  33.953  36.897  1.00  0.00     0.064 A 
ATOM     77  C   UNL A   1      38.804  33.532  37.986  1.00  0.00     0.173 A 
ATOM     78  C   UNL A   1      40.193  35.212  36.981  1.00  0.00     0.173 A 
ATOM     79  F   UNL A   1      38.181  32.345  37.944  1.00  0.00    -0.203 F 
ATOM     80  C   UNL A   1      38.636  34.343  39.106  1.00  0.00     0.198 A 
ATOM     81  C   UNL A   1      40.048  36.009  38.115  1.00  0.00     0.198 A 
ATOM     82  F   UNL A   1      40.950  35.660  35.969  1.00  0.00    -0.203 F 
ATOM     83  F   UNL A   1      37.856  33.932  40.116  1.00  0.00    -0.200 F 
ATOM     84  C   UNL A   1      39.264  35.578  39.174  1.00  0.00     0.200 A 
ATOM     85  F   UNL A   1      40.669  37.194  38.182  1.00  0.00    -0.200 F 
ATOM     86  F   UNL A   1      39.109  36.352  40.256  1.00  0.00    -0.200 F 
ENDBRANCH  52  76
BRANCH  64  87
ATOM     87  C   UNL A   1      44.065  28.868  35.257  1.00  0.00     0.064 A 
ATOM     88  C   UNL A   1      43.929  27.813  36.171  1.00  0.00     0.173 A 
ATOM     89  C   UNL A   1      45.358  29.348  34.996  1.00  0.00     0.173 A 
ATOM     90  F   UNL A   1      42.714  27.328  36.467  1.00  0.00    -0.203 F 
ATOM     91  C   UNL A   1      45.041  27.278  36.816  1.00  0.00     0.198 A 
ATOM     92  C   UNL A   1      46.470  28.789  35.618  1.00  0.00     0.198 A 
ATOM     93  F   UNL A   1      45.544  30.351  34.125  1.00  0.00    -0.203 F 
ATOM     94  F   UNL A   1      44.882  26.304  37.723  1.00  0.00    -0.200 F 
ATOM     95  C   UNL A   1      46.311  27.761  36.534  1.00  0.00     0.200 A 
ATOM     96  F   UNL A   1      47.697  29.247  35.332  1.00  0.00    -0.200 F 
ATOM     97  F   UNL A   1      47.380  27.238  37.150  1.00  0.00    -0.200 F 
ENDBRANCH  64  87
ENDBRANCH  38  39
ENDBRANCH  30  33
ENDBRANCH  28  29
ENDBRANCH  27  28
ENDBRANCH  26  27
ENDBRANCH  25  26
ENDBRANCH   1  25
TORSDOF 19
ENDMDL
