MODEL 1
REMARK VINA RESULT:     -13.7      0.000      0.000
REMARK SMILES Cc1ccc(C(=O)NCCCCCCNC(=O)c2ccc(-c3c4nc(c(-c5c(F)c(F)c(F)c(F)c5F)c5ccc([nH]5)c(-c5c(F)c(F)c(F)c(F)c5F)c5nc(c(-c6c(F)c(F)c(F)c(F)c6F)c6ccc3[nH]6)C=C5)C=C4)cc2)cc1S(=O)(=O)C[C@@H]1C[C@H]2CC[C@@H]1C2
REMARK SMILES IDX 11 1 10 2 9 3 8 4 6 5 7 6 5 8 1 9 2 10 3 11 82 12 4 13 81 14
REMARK SMILES IDX 83 15 84 16 85 17 86 18 87 19 88 20 92 21 89 22 91 23 93 24
REMARK SMILES IDX 90 25 12 26 13 27 14 28 15 29 16 30 17 32 18 33 19 34 80 35
REMARK SMILES IDX 20 36 79 37 21 38 22 39 23 40 73 41 24 42 78 43 72 44 74 45
REMARK SMILES IDX 25 46 77 47 71 48 70 49 26 51 58 52 38 53 57 54 39 55 42 56
REMARK SMILES IDX 56 57 75 58 40 59 41 60 55 62 76 63 43 64 27 65 28 66 36 67
REMARK SMILES IDX 29 68 30 69 34 70 37 71 31 72 32 73 35 74 33 75 59 76 60 77
REMARK SMILES IDX 68 78 61 79 62 80 66 81 69 82 63 83 64 84 67 85 65 86 44 87
REMARK SMILES IDX 45 88 53 89 46 90 47 91 51 92 54 93 48 94 49 95 52 96 50 97
REMARK H PARENT 8 7 15 31 74 50 42 61
REMARK Flexibility Score: inf
ROOT
ATOM      1  C   UNL A   1      35.218  20.663  25.072  1.00  0.00     0.002 C 
ENDROOT
BRANCH   1   2
ATOM      2  C   UNL A   1      33.883  20.682  24.322  1.00  0.00     0.021 C 
BRANCH   2   3
ATOM      3  C   UNL A   1      32.587  20.918  25.098  1.00  0.00     0.116 C 
BRANCH   3   4
ATOM      4  N   UNL A   1      32.737  21.244  26.504  1.00  0.00    -0.352 N 
ATOM      5  C   UNL A   1      32.781  22.465  27.141  1.00  0.00     0.251 C 
ATOM      6  O   UNL A   1      32.812  22.490  28.371  1.00  0.00    -0.269 OA
ATOM      7  H   UNL A   1      32.823  20.465  27.100  1.00  0.00     0.163 HD
BRANCH   5   8
ATOM      8  C   UNL A   1      32.910  23.749  26.392  1.00  0.00     0.041 A 
ATOM      9  C   UNL A   1      33.697  26.667  23.336  1.00  0.00     0.046 C 
ATOM     10  C   UNL A   1      33.320  25.821  24.516  1.00  0.00    -0.032 A 
ATOM     11  C   UNL A   1      34.402  25.229  25.199  1.00  0.00     0.005 A 
ATOM     12  C   UNL A   1      32.017  25.482  24.918  1.00  0.00     0.071 A 
ATOM     13  C   UNL A   1      34.201  24.192  26.111  1.00  0.00     0.014 A 
ATOM     14  C   UNL A   1      31.827  24.476  25.894  1.00  0.00     0.034 A 
BRANCH  12  15
ATOM     15  S   UNL A   1      30.527  26.015  24.077  1.00  0.00     0.178 S 
ATOM     16  O   UNL A   1      30.311  25.035  23.027  1.00  0.00    -0.224 OA
ATOM     17  O   UNL A   1      29.514  26.184  25.109  1.00  0.00    -0.224 OA
BRANCH  15  18
ATOM     18  C   UNL A   1      30.705  27.604  23.303  1.00  0.00     0.146 C 
BRANCH  18  19
ATOM     19  C   UNL A   1      29.640  28.638  23.657  1.00  0.00     0.008 C 
ATOM     20  C   UNL A   1      28.281  28.344  22.965  1.00  0.00     0.008 C 
ATOM     21  C   UNL A   1      29.965  30.050  23.100  1.00  0.00    -0.007 C 
ATOM     22  C   UNL A   1      27.952  29.663  22.246  1.00  0.00    -0.011 C 
ATOM     23  C   UNL A   1      29.087  31.074  23.832  1.00  0.00     0.004 C 
ATOM     24  C   UNL A   1      29.326  30.048  21.709  1.00  0.00     0.007 C 
ATOM     25  C   UNL A   1      27.686  30.761  23.290  1.00  0.00     0.004 C 
ENDBRANCH  18  19
ENDBRANCH  15  18
ENDBRANCH  12  15
ENDBRANCH   5   8
ENDBRANCH   3   4
ENDBRANCH   2   3
ENDBRANCH   1   2
BRANCH   1  26
ATOM     26  C   UNL A   1      36.296  21.685  24.699  1.00  0.00     0.002 C 
BRANCH  26  27
ATOM     27  C   UNL A   1      37.688  21.509  25.304  1.00  0.00     0.021 C 
BRANCH  27  28
ATOM     28  C   UNL A   1      38.314  22.764  25.898  1.00  0.00     0.116 C 
BRANCH  28  29
ATOM     29  N   UNL A   1      39.751  22.675  26.132  1.00  0.00    -0.352 N 
ATOM     30  C   UNL A   1      40.616  23.657  26.592  1.00  0.00     0.251 C 
ATOM     31  H   UNL A   1      40.162  21.803  25.937  1.00  0.00     0.163 HD
ATOM     32  O   UNL A   1      41.807  23.432  26.733  1.00  0.00    -0.269 OA
BRANCH  30  33
ATOM     33  C   UNL A   1      40.046  24.954  27.030  1.00  0.00     0.039 A 
ATOM     34  C   UNL A   1      40.444  26.111  26.351  1.00  0.00     0.014 A 
ATOM     35  C   UNL A   1      39.319  25.044  28.214  1.00  0.00     0.014 A 
ATOM     36  C   UNL A   1      40.333  27.343  26.992  1.00  0.00     0.010 A 
ATOM     37  C   UNL A   1      39.297  26.247  28.892  1.00  0.00     0.010 A 
ATOM     38  C   UNL A   1      39.869  27.381  28.308  1.00  0.00    -0.014 A 
BRANCH  38  39
ATOM     39  C   UNL A   1      40.081  28.527  29.183  1.00  0.00     0.031 A 
ATOM     40  C   UNL A   1      39.059  29.578  29.332  1.00  0.00     0.074 A 
ATOM     41  C   UNL A   1      41.223  28.625  29.902  1.00  0.00     0.049 A 
ATOM     42  N   UNL A   1      39.345  30.815  29.572  1.00  0.00    -0.248 NA
ATOM     43  C   UNL A   1      37.628  29.324  29.203  1.00  0.00     0.031 C 
ATOM     44  C   UNL A   1      41.507  29.572  30.979  1.00  0.00     0.029 A 
ATOM     45  N   UNL A   1      42.456  28.006  29.647  1.00  0.00    -0.354 N 
ATOM     46  C   UNL A   1      38.175  31.443  29.911  1.00  0.00     0.074 A 
ATOM     47  C   UNL A   1      37.124  30.503  29.585  1.00  0.00     0.031 C 
ATOM     48  C   UNL A   1      42.837  29.713  31.089  1.00  0.00     0.029 A 
ATOM     49  C   UNL A   1      43.438  28.958  30.005  1.00  0.00     0.049 A 
ATOM     50  H   UNL A   1      42.606  27.099  29.293  1.00  0.00     0.167 HD
ATOM     51  C   UNL A   1      38.202  32.630  30.575  1.00  0.00     0.037 A 
ATOM     52  C   UNL A   1      44.333  29.449  29.106  1.00  0.00     0.037 A 
ATOM     53  C   UNL A   1      39.557  33.083  30.856  1.00  0.00     0.049 A 
ATOM     54  C   UNL A   1      44.341  30.953  28.991  1.00  0.00     0.074 A 
ATOM     55  C   UNL A   1      40.355  33.021  31.987  1.00  0.00     0.029 A 
ATOM     56  N   UNL A   1      40.404  33.423  29.806  1.00  0.00    -0.354 N 
ATOM     57  N   UNL A   1      43.362  31.720  29.379  1.00  0.00    -0.248 NA
ATOM     58  C   UNL A   1      45.436  31.707  28.394  1.00  0.00     0.031 C 
ATOM     59  C   UNL A   1      41.681  33.349  31.622  1.00  0.00     0.029 A 
ATOM     60  C   UNL A   1      41.694  33.609  30.264  1.00  0.00     0.049 A 
ATOM     61  H   UNL A   1      40.122  33.519  28.866  1.00  0.00     0.167 HD
ATOM     62  C   UNL A   1      43.658  33.033  29.089  1.00  0.00     0.074 A 
ATOM     63  C   UNL A   1      44.979  32.967  28.496  1.00  0.00     0.031 C 
ATOM     64  C   UNL A   1      42.763  34.032  29.368  1.00  0.00     0.037 A 
BRANCH  51  65
ATOM     65  C   UNL A   1      36.961  33.181  31.222  1.00  0.00     0.064 A 
ATOM     66  C   UNL A   1      36.690  32.995  32.591  1.00  0.00     0.173 A 
ATOM     67  C   UNL A   1      35.966  33.854  30.491  1.00  0.00     0.173 A 
ATOM     68  F   UNL A   1      37.582  32.431  33.414  1.00  0.00    -0.203 F 
ATOM     69  C   UNL A   1      35.468  33.356  33.162  1.00  0.00     0.198 A 
ATOM     70  C   UNL A   1      34.725  34.172  31.051  1.00  0.00     0.198 A 
ATOM     71  F   UNL A   1      36.173  34.202  29.211  1.00  0.00    -0.203 F 
ATOM     72  F   UNL A   1      35.254  33.135  34.466  1.00  0.00    -0.200 F 
ATOM     73  C   UNL A   1      34.472  33.911  32.385  1.00  0.00     0.200 A 
ATOM     74  F   UNL A   1      33.766  34.711  30.283  1.00  0.00    -0.200 F 
ATOM     75  F   UNL A   1      33.277  34.197  32.918  1.00  0.00    -0.200 F 
ENDBRANCH  51  65
BRANCH  52  76
ATOM     76  C   UNL A   1      44.633  28.509  27.996  1.00  0.00     0.064 A 
ATOM     77  C   UNL A   1      45.383  27.351  28.283  1.00  0.00     0.173 A 
ATOM     78  C   UNL A   1      43.907  28.532  26.801  1.00  0.00     0.173 A 
ATOM     79  F   UNL A   1      46.094  27.277  29.421  1.00  0.00    -0.203 F 
ATOM     80  C   UNL A   1      45.313  26.223  27.469  1.00  0.00     0.198 A 
ATOM     81  C   UNL A   1      43.853  27.404  25.980  1.00  0.00     0.198 A 
ATOM     82  F   UNL A   1      43.159  29.598  26.482  1.00  0.00    -0.203 F 
ATOM     83  F   UNL A   1      45.947  25.097  27.830  1.00  0.00    -0.200 F 
ATOM     84  C   UNL A   1      44.526  26.242  26.330  1.00  0.00     0.200 A 
ATOM     85  F   UNL A   1      43.069  27.412  24.891  1.00  0.00    -0.200 F 
ATOM     86  F   UNL A   1      44.384  25.132  25.594  1.00  0.00    -0.200 F 
ENDBRANCH  52  76
BRANCH  64  87
ATOM     87  C   UNL A   1      42.802  35.501  28.962  1.00  0.00     0.064 A 
ATOM     88  C   UNL A   1      42.061  36.080  27.919  1.00  0.00     0.173 A 
ATOM     89  C   UNL A   1      43.558  36.435  29.728  1.00  0.00     0.173 A 
ATOM     90  F   UNL A   1      41.217  35.365  27.171  1.00  0.00    -0.203 F 
ATOM     91  C   UNL A   1      42.111  37.452  27.632  1.00  0.00     0.198 A 
ATOM     92  C   UNL A   1      43.562  37.807  29.476  1.00  0.00     0.198 A 
ATOM     93  F   UNL A   1      44.306  36.056  30.774  1.00  0.00    -0.203 F 
ATOM     94  F   UNL A   1      41.409  37.935  26.597  1.00  0.00    -0.200 F 
ATOM     95  C   UNL A   1      42.849  38.316  28.416  1.00  0.00     0.200 A 
ATOM     96  F   UNL A   1      44.249  38.629  30.282  1.00  0.00    -0.200 F 
ATOM     97  F   UNL A   1      42.855  39.631  28.165  1.00  0.00    -0.200 F 
ENDBRANCH  64  87
ENDBRANCH  38  39
ENDBRANCH  30  33
ENDBRANCH  28  29
ENDBRANCH  27  28
ENDBRANCH  26  27
ENDBRANCH   1  26
TORSDOF 16
ENDMDL
MODEL 2
REMARK VINA RESULT:     -13.7      3.923     10.333
REMARK SMILES Cc1ccc(C(=O)NCCCCCCNC(=O)c2ccc(-c3c4nc(c(-c5c(F)c(F)c(F)c(F)c5F)c5ccc([nH]5)c(-c5c(F)c(F)c(F)c(F)c5F)c5nc(c(-c6c(F)c(F)c(F)c(F)c6F)c6ccc3[nH]6)C=C5)C=C4)cc2)cc1S(=O)(=O)C[C@@H]1C[C@H]2CC[C@@H]1C2
REMARK SMILES IDX 11 1 10 2 9 3 8 4 6 5 7 6 5 8 1 9 2 10 3 11 82 12 4 13 81 14
REMARK SMILES IDX 83 15 84 16 85 17 86 18 87 19 88 20 92 21 89 22 91 23 93 24
REMARK SMILES IDX 90 25 12 26 13 27 14 28 15 29 16 30 17 32 18 33 19 34 80 35
REMARK SMILES IDX 20 36 79 37 21 38 22 39 23 40 73 41 24 42 78 43 72 44 74 45
REMARK SMILES IDX 25 46 77 47 71 48 70 49 26 51 58 52 38 53 57 54 39 55 42 56
REMARK SMILES IDX 56 57 75 58 40 59 41 60 55 62 76 63 43 64 27 65 28 66 36 67
REMARK SMILES IDX 29 68 30 69 34 70 37 71 31 72 32 73 35 74 33 75 59 76 60 77
REMARK SMILES IDX 68 78 61 79 62 80 66 81 69 82 63 83 64 84 67 85 65 86 44 87
REMARK SMILES IDX 45 88 53 89 46 90 47 91 51 92 54 93 48 94 49 95 52 96 50 97
REMARK H PARENT 8 7 15 31 74 50 42 61
REMARK Flexibility Score: inf
ROOT
ATOM      1  C   UNL A   1      31.406  28.720  24.537  1.00  0.00     0.002 C 
ENDROOT
BRANCH   1   2
ATOM      2  C   UNL A   1      31.976  28.816  23.119  1.00  0.00     0.021 C 
BRANCH   2   3
ATOM      3  C   UNL A   1      33.326  28.170  22.806  1.00  0.00     0.116 C 
BRANCH   3   4
ATOM      4  N   UNL A   1      33.330  27.188  21.738  1.00  0.00    -0.352 N 
ATOM      5  C   UNL A   1      32.901  25.878  21.723  1.00  0.00     0.251 C 
ATOM      6  O   UNL A   1      32.910  25.265  20.656  1.00  0.00    -0.269 OA
ATOM      7  H   UNL A   1      33.700  27.510  20.885  1.00  0.00     0.163 HD
BRANCH   5   8
ATOM      8  C   UNL A   1      32.539  25.146  22.971  1.00  0.00     0.041 A 
ATOM      9  C   UNL A   1      30.998  22.233  25.731  1.00  0.00     0.046 C 
ATOM     10  C   UNL A   1      31.641  23.342  24.950  1.00  0.00    -0.032 A 
ATOM     11  C   UNL A   1      30.746  24.209  24.292  1.00  0.00     0.005 A 
ATOM     12  C   UNL A   1      33.017  23.518  24.730  1.00  0.00     0.071 A 
ATOM     13  C   UNL A   1      31.186  25.086  23.300  1.00  0.00     0.014 A 
ATOM     14  C   UNL A   1      33.456  24.459  23.769  1.00  0.00     0.034 A 
BRANCH  12  15
ATOM     15  S   UNL A   1      34.292  22.425  25.358  1.00  0.00     0.178 S 
ATOM     16  O   UNL A   1      35.257  22.306  24.279  1.00  0.00    -0.224 OA
ATOM     17  O   UNL A   1      34.717  22.986  26.632  1.00  0.00    -0.224 OA
BRANCH  15  18
ATOM     18  C   UNL A   1      33.683  20.796  25.720  1.00  0.00     0.146 C 
BRANCH  18  19
ATOM     19  C   UNL A   1      33.857  19.762  24.611  1.00  0.00     0.008 C 
ATOM     20  C   UNL A   1      32.596  19.645  23.712  1.00  0.00     0.008 C 
ATOM     21  C   UNL A   1      33.976  18.312  25.156  1.00  0.00    -0.007 C 
ATOM     22  C   UNL A   1      32.269  18.143  23.746  1.00  0.00    -0.011 C 
ATOM     23  C   UNL A   1      34.546  17.422  24.044  1.00  0.00     0.004 C 
ATOM     24  C   UNL A   1      32.526  17.826  25.215  1.00  0.00     0.007 C 
ATOM     25  C   UNL A   1      33.388  17.360  23.039  1.00  0.00     0.004 C 
ENDBRANCH  18  19
ENDBRANCH  15  18
ENDBRANCH  12  15
ENDBRANCH   5   8
ENDBRANCH   3   4
ENDBRANCH   2   3
ENDBRANCH   1   2
BRANCH   1  26
ATOM     26  C   UNL A   1      32.365  28.493  25.712  1.00  0.00     0.002 C 
BRANCH  26  27
ATOM     27  C   UNL A   1      33.182  29.685  26.207  1.00  0.00     0.021 C 
BRANCH  27  28
ATOM     28  C   UNL A   1      33.970  29.458  27.490  1.00  0.00     0.116 C 
BRANCH  28  29
ATOM     29  N   UNL A   1      34.514  30.670  28.093  1.00  0.00    -0.352 N 
ATOM     30  C   UNL A   1      35.787  30.891  28.596  1.00  0.00     0.251 C 
ATOM     31  H   UNL A   1      33.895  31.433  28.151  1.00  0.00     0.163 HD
ATOM     32  O   UNL A   1      36.096  31.967  29.081  1.00  0.00    -0.269 OA
BRANCH  30  33
ATOM     33  C   UNL A   1      36.810  29.832  28.424  1.00  0.00     0.039 A 
ATOM     34  C   UNL A   1      37.036  28.955  29.490  1.00  0.00     0.014 A 
ATOM     35  C   UNL A   1      37.671  29.850  27.330  1.00  0.00     0.014 A 
ATOM     36  C   UNL A   1      38.256  28.287  29.570  1.00  0.00     0.010 A 
ATOM     37  C   UNL A   1      38.917  29.269  27.453  1.00  0.00     0.010 A 
ATOM     38  C   UNL A   1      39.234  28.547  28.607  1.00  0.00    -0.014 A 
BRANCH  38  39
ATOM     39  C   UNL A   1      40.640  28.222  28.808  1.00  0.00     0.031 A 
ATOM     40  C   UNL A   1      41.232  26.995  28.244  1.00  0.00     0.074 A 
ATOM     41  C   UNL A   1      41.437  29.069  29.498  1.00  0.00     0.049 A 
ATOM     42  N   UNL A   1      42.205  26.357  28.806  1.00  0.00    -0.248 NA
ATOM     43  C   UNL A   1      40.762  26.376  27.010  1.00  0.00     0.031 C 
ATOM     44  C   UNL A   1      42.894  29.018  29.606  1.00  0.00     0.029 A 
ATOM     45  N   UNL A   1      41.052  30.045  30.430  1.00  0.00    -0.354 N 
ATOM     46  C   UNL A   1      42.670  25.445  27.894  1.00  0.00     0.074 A 
ATOM     47  C   UNL A   1      41.692  25.432  26.828  1.00  0.00     0.031 C 
ATOM     48  C   UNL A   1      43.266  29.658  30.725  1.00  0.00     0.029 A 
ATOM     49  C   UNL A   1      42.052  30.028  31.429  1.00  0.00     0.049 A 
ATOM     50  H   UNL A   1      40.253  30.621  30.396  1.00  0.00     0.167 HD
ATOM     51  C   UNL A   1      43.907  24.899  28.042  1.00  0.00     0.037 A 
ATOM     52  C   UNL A   1      41.775  29.733  32.728  1.00  0.00     0.037 A 
ATOM     53  C   UNL A   1      44.604  25.403  29.217  1.00  0.00     0.049 A 
ATOM     54  C   UNL A   1      42.586  28.595  33.296  1.00  0.00     0.074 A 
ATOM     55  C   UNL A   1      45.577  26.374  29.389  1.00  0.00     0.029 A 
ATOM     56  N   UNL A   1      44.110  25.123  30.487  1.00  0.00    -0.354 N 
ATOM     57  N   UNL A   1      43.202  27.704  32.572  1.00  0.00    -0.248 NA
ATOM     58  C   UNL A   1      42.734  28.349  34.725  1.00  0.00     0.031 C 
ATOM     59  C   UNL A   1      45.687  26.662  30.769  1.00  0.00     0.029 A 
ATOM     60  C   UNL A   1      44.777  25.867  31.441  1.00  0.00     0.049 A 
ATOM     61  H   UNL A   1      43.386  24.483  30.679  1.00  0.00     0.167 HD
ATOM     62  C   UNL A   1      43.805  26.776  33.390  1.00  0.00     0.074 A 
ATOM     63  C   UNL A   1      43.500  27.244  34.728  1.00  0.00     0.031 C 
ATOM     64  C   UNL A   1      44.488  25.712  32.861  1.00  0.00     0.037 A 
BRANCH  51  65
ATOM     65  C   UNL A   1      44.558  24.146  26.915  1.00  0.00     0.064 A 
ATOM     66  C   UNL A   1      44.303  22.780  26.688  1.00  0.00     0.173 A 
ATOM     67  C   UNL A   1      45.508  24.736  26.062  1.00  0.00     0.173 A 
ATOM     68  F   UNL A   1      43.373  22.113  27.382  1.00  0.00    -0.203 F 
ATOM     69  C   UNL A   1      45.025  22.035  25.753  1.00  0.00     0.198 A 
ATOM     70  C   UNL A   1      46.263  23.981  25.160  1.00  0.00     0.198 A 
ATOM     71  F   UNL A   1      45.733  26.059  26.100  1.00  0.00    -0.203 F 
ATOM     72  F   UNL A   1      44.758  20.731  25.595  1.00  0.00    -0.200 F 
ATOM     73  C   UNL A   1      46.029  22.626  25.016  1.00  0.00     0.200 A 
ATOM     74  F   UNL A   1      47.237  24.570  24.450  1.00  0.00    -0.200 F 
ATOM     75  F   UNL A   1      46.765  21.897  24.167  1.00  0.00    -0.200 F 
ENDBRANCH  51  65
BRANCH  52  76
ATOM     76  C   UNL A   1      40.384  30.069  33.127  1.00  0.00     0.064 A 
ATOM     77  C   UNL A   1      40.033  31.428  33.255  1.00  0.00     0.173 A 
ATOM     78  C   UNL A   1      39.346  29.139  33.016  1.00  0.00     0.173 A 
ATOM     79  F   UNL A   1      40.994  32.361  33.359  1.00  0.00    -0.203 F 
ATOM     80  C   UNL A   1      38.709  31.846  33.155  1.00  0.00     0.198 A 
ATOM     81  C   UNL A   1      38.018  29.561  32.933  1.00  0.00     0.198 A 
ATOM     82  F   UNL A   1      39.617  27.833  32.873  1.00  0.00    -0.203 F 
ATOM     83  F   UNL A   1      38.419  33.155  33.164  1.00  0.00    -0.200 F 
ATOM     84  C   UNL A   1      37.703  30.913  32.968  1.00  0.00     0.200 A 
ATOM     85  F   UNL A   1      37.045  28.661  32.724  1.00  0.00    -0.200 F 
ATOM     86  F   UNL A   1      36.440  31.316  32.781  1.00  0.00    -0.200 F 
ENDBRANCH  52  76
BRANCH  64  87
ATOM     87  C   UNL A   1      45.054  24.484  33.566  1.00  0.00     0.064 A 
ATOM     88  C   UNL A   1      44.355  23.292  33.818  1.00  0.00     0.173 A 
ATOM     89  C   UNL A   1      46.429  24.444  33.937  1.00  0.00     0.173 A 
ATOM     90  F   UNL A   1      43.087  23.123  33.435  1.00  0.00    -0.203 F 
ATOM     91  C   UNL A   1      44.956  22.184  34.430  1.00  0.00     0.198 A 
ATOM     92  C   UNL A   1      47.039  23.320  34.494  1.00  0.00     0.198 A 
ATOM     93  F   UNL A   1      47.248  25.488  33.747  1.00  0.00    -0.203 F 
ATOM     94  F   UNL A   1      44.223  21.089  34.678  1.00  0.00    -0.200 F 
ATOM     95  C   UNL A   1      46.298  22.191  34.756  1.00  0.00     0.200 A 
ATOM     96  F   UNL A   1      48.354  23.337  34.757  1.00  0.00    -0.200 F 
ATOM     97  F   UNL A   1      46.877  21.112  35.297  1.00  0.00    -0.200 F 
ENDBRANCH  64  87
ENDBRANCH  38  39
ENDBRANCH  30  33
ENDBRANCH  28  29
ENDBRANCH  27  28
ENDBRANCH  26  27
ENDBRANCH   1  26
TORSDOF 16
ENDMDL
MODEL 3
REMARK VINA RESULT:     -13.5      3.627     10.104
REMARK SMILES Cc1ccc(C(=O)NCCCCCCNC(=O)c2ccc(-c3c4nc(c(-c5c(F)c(F)c(F)c(F)c5F)c5ccc([nH]5)c(-c5c(F)c(F)c(F)c(F)c5F)c5nc(c(-c6c(F)c(F)c(F)c(F)c6F)c6ccc3[nH]6)C=C5)C=C4)cc2)cc1S(=O)(=O)C[C@@H]1C[C@H]2CC[C@@H]1C2
REMARK SMILES IDX 11 1 10 2 9 3 8 4 6 5 7 6 5 8 1 9 2 10 3 11 82 12 4 13 81 14
REMARK SMILES IDX 83 15 84 16 85 17 86 18 87 19 88 20 92 21 89 22 91 23 93 24
REMARK SMILES IDX 90 25 12 26 13 27 14 28 15 29 16 30 17 32 18 33 19 34 80 35
REMARK SMILES IDX 20 36 79 37 21 38 22 39 23 40 73 41 24 42 78 43 72 44 74 45
REMARK SMILES IDX 25 46 77 47 71 48 70 49 26 51 58 52 38 53 57 54 39 55 42 56
REMARK SMILES IDX 56 57 75 58 40 59 41 60 55 62 76 63 43 64 27 65 28 66 36 67
REMARK SMILES IDX 29 68 30 69 34 70 37 71 31 72 32 73 35 74 33 75 59 76 60 77
REMARK SMILES IDX 68 78 61 79 62 80 66 81 69 82 63 83 64 84 67 85 65 86 44 87
REMARK SMILES IDX 45 88 53 89 46 90 47 91 51 92 54 93 48 94 49 95 52 96 50 97
REMARK H PARENT 8 7 15 31 74 50 42 61
REMARK Flexibility Score: inf
ROOT
ATOM      1  C   UNL A   1      33.882  28.560  26.899  1.00  0.00     0.002 C 
ENDROOT
BRANCH   1   2
ATOM      2  C   UNL A   1      34.369  28.289  25.473  1.00  0.00     0.021 C 
BRANCH   2   3
ATOM      3  C   UNL A   1      33.413  28.500  24.298  1.00  0.00     0.116 C 
BRANCH   3   4
ATOM      4  N   UNL A   1      33.703  27.739  23.097  1.00  0.00    -0.352 N 
ATOM      5  C   UNL A   1      33.438  26.423  22.783  1.00  0.00     0.251 C 
ATOM      6  O   UNL A   1      33.690  26.024  21.647  1.00  0.00    -0.269 OA
ATOM      7  H   UNL A   1      34.166  28.246  22.391  1.00  0.00     0.163 HD
BRANCH   5   8
ATOM      8  C   UNL A   1      32.967  25.442  23.803  1.00  0.00     0.041 A 
ATOM      9  C   UNL A   1      30.871  22.256  25.787  1.00  0.00     0.046 C 
ATOM     10  C   UNL A   1      31.739  23.371  25.280  1.00  0.00    -0.032 A 
ATOM     11  C   UNL A   1      31.070  24.585  25.029  1.00  0.00     0.005 A 
ATOM     12  C   UNL A   1      33.097  23.279  24.933  1.00  0.00     0.071 A 
ATOM     13  C   UNL A   1      31.669  25.601  24.283  1.00  0.00     0.014 A 
ATOM     14  C   UNL A   1      33.714  24.344  24.236  1.00  0.00     0.034 A 
BRANCH  12  15
ATOM     15  S   UNL A   1      34.070  21.777  25.038  1.00  0.00     0.178 S 
ATOM     16  O   UNL A   1      35.295  22.066  24.314  1.00  0.00    -0.224 OA
ATOM     17  O   UNL A   1      34.144  21.437  26.452  1.00  0.00    -0.224 OA
BRANCH  15  18
ATOM     18  C   UNL A   1      33.287  20.395  24.244  1.00  0.00     0.146 C 
BRANCH  18  19
ATOM     19  C   UNL A   1      33.497  19.039  24.914  1.00  0.00     0.008 C 
ATOM     20  C   UNL A   1      34.829  18.367  24.481  1.00  0.00     0.008 C 
ATOM     21  C   UNL A   1      32.459  17.977  24.458  1.00  0.00    -0.007 C 
ATOM     22  C   UNL A   1      34.387  16.979  23.989  1.00  0.00    -0.011 C 
ATOM     23  C   UNL A   1      32.486  16.813  25.457  1.00  0.00     0.004 C 
ATOM     24  C   UNL A   1      33.112  17.335  23.232  1.00  0.00     0.007 C 
ATOM     25  C   UNL A   1      33.848  16.163  25.177  1.00  0.00     0.004 C 
ENDBRANCH  18  19
ENDBRANCH  15  18
ENDBRANCH  12  15
ENDBRANCH   5   8
ENDBRANCH   3   4
ENDBRANCH   2   3
ENDBRANCH   1   2
BRANCH   1  26
ATOM     26  C   UNL A   1      32.562  29.312  27.104  1.00  0.00     0.002 C 
BRANCH  26  27
ATOM     27  C   UNL A   1      32.625  30.827  27.290  1.00  0.00     0.021 C 
BRANCH  27  28
ATOM     28  C   UNL A   1      34.021  31.420  27.418  1.00  0.00     0.116 C 
BRANCH  28  29
ATOM     29  N   UNL A   1      34.330  31.974  28.732  1.00  0.00    -0.352 N 
ATOM     30  C   UNL A   1      35.256  31.528  29.664  1.00  0.00     0.251 C 
ATOM     31  H   UNL A   1      33.812  32.769  28.992  1.00  0.00     0.163 HD
ATOM     32  O   UNL A   1      35.398  32.097  30.733  1.00  0.00    -0.269 OA
BRANCH  30  33
ATOM     33  C   UNL A   1      36.161  30.416  29.286  1.00  0.00     0.039 A 
ATOM     34  C   UNL A   1      36.528  29.500  30.278  1.00  0.00     0.014 A 
ATOM     35  C   UNL A   1      36.801  30.413  28.050  1.00  0.00     0.014 A 
ATOM     36  C   UNL A   1      37.698  28.761  30.117  1.00  0.00     0.010 A 
ATOM     37  C   UNL A   1      38.010  29.758  27.928  1.00  0.00     0.010 A 
ATOM     38  C   UNL A   1      38.492  28.989  28.991  1.00  0.00    -0.014 A 
BRANCH  38  39
ATOM     39  C   UNL A   1      39.888  28.578  28.918  1.00  0.00     0.031 A 
ATOM     40  C   UNL A   1      40.265  27.210  28.519  1.00  0.00     0.074 A 
ATOM     41  C   UNL A   1      40.869  29.469  29.189  1.00  0.00     0.049 A 
ATOM     42  N   UNL A   1      41.321  26.610  28.962  1.00  0.00    -0.248 NA
ATOM     43  C   UNL A   1      39.472  26.397  27.605  1.00  0.00     0.031 C 
ATOM     44  C   UNL A   1      42.302  29.300  28.955  1.00  0.00     0.029 A 
ATOM     45  N   UNL A   1      40.775  30.649  29.943  1.00  0.00    -0.354 N 
ATOM     46  C   UNL A   1      41.501  25.489  28.193  1.00  0.00     0.074 A 
ATOM     47  C   UNL A   1      40.284  25.350  27.422  1.00  0.00     0.031 C 
ATOM     48  C   UNL A   1      42.972  30.119  29.780  1.00  0.00     0.029 A 
ATOM     49  C   UNL A   1      41.994  30.743  30.651  1.00  0.00     0.049 A 
ATOM     50  H   UNL A   1      40.019  31.280  29.972  1.00  0.00     0.167 HD
ATOM     51  C   UNL A   1      42.711  24.869  28.160  1.00  0.00     0.037 A 
ATOM     52  C   UNL A   1      42.043  30.750  32.012  1.00  0.00     0.037 A 
ATOM     53  C   UNL A   1      43.704  25.535  28.992  1.00  0.00     0.049 A 
ATOM     54  C   UNL A   1      42.924  29.682  32.610  1.00  0.00     0.074 A 
ATOM     55  C   UNL A   1      44.729  26.422  28.704  1.00  0.00     0.029 A 
ATOM     56  N   UNL A   1      43.538  25.573  30.372  1.00  0.00    -0.354 N 
ATOM     57  N   UNL A   1      43.298  28.605  31.979  1.00  0.00    -0.248 NA
ATOM     58  C   UNL A   1      43.419  29.724  33.980  1.00  0.00     0.031 C 
ATOM     59  C   UNL A   1      45.198  26.977  29.917  1.00  0.00     0.029 A 
ATOM     60  C   UNL A   1      44.456  26.430  30.948  1.00  0.00     0.049 A 
ATOM     61  H   UNL A   1      42.860  25.059  30.870  1.00  0.00     0.167 HD
ATOM     62  C   UNL A   1      44.049  27.812  32.817  1.00  0.00     0.074 A 
ATOM     63  C   UNL A   1      44.114  28.575  34.048  1.00  0.00     0.031 C 
ATOM     64  C   UNL A   1      44.530  26.602  32.393  1.00  0.00     0.037 A 
BRANCH  51  65
ATOM     65  C   UNL A   1      43.022  23.839  27.110  1.00  0.00     0.064 A 
ATOM     66  C   UNL A   1      42.720  22.476  27.291  1.00  0.00     0.173 A 
ATOM     67  C   UNL A   1      43.691  24.159  25.914  1.00  0.00     0.173 A 
ATOM     68  F   UNL A   1      42.027  22.044  28.351  1.00  0.00    -0.203 F 
ATOM     69  C   UNL A   1      43.154  21.494  26.398  1.00  0.00     0.198 A 
ATOM     70  C   UNL A   1      44.165  23.172  25.045  1.00  0.00     0.198 A 
ATOM     71  F   UNL A   1      43.912  25.439  25.575  1.00  0.00    -0.203 F 
ATOM     72  F   UNL A   1      42.859  20.208  26.632  1.00  0.00    -0.200 F 
ATOM     73  C   UNL A   1      43.907  21.838  25.295  1.00  0.00     0.200 A 
ATOM     74  F   UNL A   1      44.897  23.522  23.977  1.00  0.00    -0.200 F 
ATOM     75  F   UNL A   1      44.378  20.890  24.474  1.00  0.00    -0.200 F 
ENDBRANCH  51  65
BRANCH  52  76
ATOM     76  C   UNL A   1      40.815  31.295  32.645  1.00  0.00     0.064 A 
ATOM     77  C   UNL A   1      40.621  32.691  32.640  1.00  0.00     0.173 A 
ATOM     78  C   UNL A   1      39.703  30.486  32.899  1.00  0.00     0.173 A 
ATOM     79  F   UNL A   1      41.657  33.510  32.396  1.00  0.00    -0.203 F 
ATOM     80  C   UNL A   1      39.350  33.245  32.766  1.00  0.00     0.198 A 
ATOM     81  C   UNL A   1      38.433  31.048  33.041  1.00  0.00     0.198 A 
ATOM     82  F   UNL A   1      39.821  29.150  32.898  1.00  0.00    -0.203 F 
ATOM     83  F   UNL A   1      39.183  34.570  32.641  1.00  0.00    -0.200 F 
ATOM     84  C   UNL A   1      38.252  32.420  32.940  1.00  0.00     0.200 A 
ATOM     85  F   UNL A   1      37.364  30.248  33.182  1.00  0.00    -0.200 F 
ATOM     86  F   UNL A   1      37.018  32.942  32.970  1.00  0.00    -0.200 F 
ENDBRANCH  52  76
BRANCH  64  87
ATOM     87  C   UNL A   1      45.205  25.497  33.199  1.00  0.00     0.064 A 
ATOM     88  C   UNL A   1      46.578  25.206  33.196  1.00  0.00     0.173 A 
ATOM     89  C   UNL A   1      44.447  24.726  34.127  1.00  0.00     0.173 A 
ATOM     90  F   UNL A   1      47.447  25.908  32.464  1.00  0.00    -0.203 F 
ATOM     91  C   UNL A   1      47.136  24.203  34.002  1.00  0.00     0.198 A 
ATOM     92  C   UNL A   1      45.013  23.768  34.968  1.00  0.00     0.198 A 
ATOM     93  F   UNL A   1      43.124  24.889  34.276  1.00  0.00    -0.203 F 
ATOM     94  F   UNL A   1      48.450  23.948  33.923  1.00  0.00    -0.200 F 
ATOM     95  C   UNL A   1      46.359  23.494  34.896  1.00  0.00     0.200 A 
ATOM     96  F   UNL A   1      44.243  23.128  35.860  1.00  0.00    -0.200 F 
ATOM     97  F   UNL A   1      46.906  22.571  35.696  1.00  0.00    -0.200 F 
ENDBRANCH  64  87
ENDBRANCH  38  39
ENDBRANCH  30  33
ENDBRANCH  28  29
ENDBRANCH  27  28
ENDBRANCH  26  27
ENDBRANCH   1  26
TORSDOF 16
ENDMDL
