MODEL 1
REMARK VINA RESULT:     -11.1      0.000      0.000
REMARK SMILES O=C(NCCCCCCNC(=O)c1ccc(-c2c(F)cccc2F)cn1)c1ccc(-c2c3nc(c(-c4c(F)c(F)c(F)c(F)c4F)c4ccc([nH]4)c(-c4c(F)c(F)c(F)c(F)c4F)c4nc(c(-c5c(F)c(F)c(F)c(F)c5F)c5ccc2[nH]5)C=C4)C=C3)cc1
REMARK SMILES IDX 6 1 5 2 4 3 3 4 1 5 2 6 27 8 28 9 89 10 29 11 88 12 30 13
REMARK SMILES IDX 31 14 32 15 82 16 33 17 87 18 81 19 83 20 34 21 86 22 80 23
REMARK SMILES IDX 79 24 35 26 67 27 47 28 66 29 48 30 51 31 65 32 84 33 49 34
REMARK SMILES IDX 50 35 64 37 85 38 52 39 36 40 37 41 45 42 38 43 39 44 43 45
REMARK SMILES IDX 46 46 40 47 41 48 44 49 42 50 68 51 69 52 77 53 70 54 71 55
REMARK SMILES IDX 75 56 78 57 72 58 73 59 76 60 74 61 53 62 54 63 62 64 55 65
REMARK SMILES IDX 56 66 60 67 63 68 57 69 58 70 61 71 59 72 7 73 8 74 9 75
REMARK SMILES IDX 10 76 11 77 12 79 13 80 14 81 26 82 15 83 25 84 16 85 17 86
REMARK SMILES IDX 18 87 23 88 19 89 20 90 22 91 24 92 21 93
REMARK H PARENT 3 7 83 25 51 36 10 78
REMARK Flexibility Score: inf
ROOT
ATOM      1  C   UNL A   1      34.396  34.502  28.023  1.00  0.00     0.002 C 
ENDROOT
BRANCH   1   2
ATOM      2  C   UNL A   1      35.440  33.706  28.804  1.00  0.00     0.021 C 
BRANCH   2   3
ATOM      3  C   UNL A   1      34.882  32.512  29.562  1.00  0.00     0.116 C 
BRANCH   3   4
ATOM      4  N   UNL A   1      34.166  31.593  28.692  1.00  0.00    -0.352 N 
ATOM      5  O   UNL A   1      33.965  29.928  27.177  1.00  0.00    -0.269 OA
ATOM      6  C   UNL A   1      34.651  30.503  28.019  1.00  0.00     0.251 C 
ATOM      7  H   UNL A   1      33.208  31.781  28.570  1.00  0.00     0.163 HD
BRANCH   6   8
ATOM      8  C   UNL A   1      36.017  30.025  28.308  1.00  0.00     0.039 A 
ATOM      9  C   UNL A   1      37.047  30.235  27.387  1.00  0.00     0.014 A 
ATOM     10  C   UNL A   1      36.272  29.378  29.520  1.00  0.00     0.014 A 
ATOM     11  C   UNL A   1      38.308  29.709  27.628  1.00  0.00     0.010 A 
ATOM     12  C   UNL A   1      37.564  28.929  29.803  1.00  0.00     0.010 A 
ATOM     13  C   UNL A   1      38.587  29.092  28.858  1.00  0.00    -0.014 A 
BRANCH  13  14
ATOM     14  C   UNL A   1      39.993  28.768  29.200  1.00  0.00     0.031 A 
ATOM     15  C   UNL A   1      40.826  29.672  30.053  1.00  0.00     0.074 A 
ATOM     16  C   UNL A   1      40.505  27.623  28.711  1.00  0.00     0.049 A 
ATOM     17  N   UNL A   1      42.073  29.529  30.425  1.00  0.00    -0.248 NA
ATOM     18  C   UNL A   1      40.183  30.897  30.547  1.00  0.00     0.031 C 
ATOM     19  C   UNL A   1      39.774  26.673  27.869  1.00  0.00     0.029 A 
ATOM     20  N   UNL A   1      41.742  27.055  28.858  1.00  0.00    -0.354 N 
ATOM     21  C   UNL A   1      42.368  30.643  31.198  1.00  0.00     0.074 A 
ATOM     22  C   UNL A   1      41.180  31.472  31.208  1.00  0.00     0.031 C 
ATOM     23  C   UNL A   1      40.555  25.616  27.619  1.00  0.00     0.029 A 
ATOM     24  C   UNL A   1      41.864  25.848  28.217  1.00  0.00     0.049 A 
ATOM     25  H   UNL A   1      42.470  27.470  29.373  1.00  0.00     0.167 HD
ATOM     26  C   UNL A   1      43.525  30.935  31.842  1.00  0.00     0.037 A 
ATOM     27  C   UNL A   1      42.920  25.023  28.103  1.00  0.00     0.037 A 
ATOM     28  C   UNL A   1      44.706  30.105  31.797  1.00  0.00     0.049 A 
ATOM     29  C   UNL A   1      44.208  25.402  28.767  1.00  0.00     0.074 A 
ATOM     30  C   UNL A   1      45.932  30.315  32.404  1.00  0.00     0.029 A 
ATOM     31  N   UNL A   1      44.812  28.913  31.093  1.00  0.00    -0.354 N 
ATOM     32  N   UNL A   1      44.479  26.455  29.498  1.00  0.00    -0.248 NA
ATOM     33  C   UNL A   1      45.335  24.479  28.592  1.00  0.00     0.031 C 
ATOM     34  C   UNL A   1      46.794  29.283  32.022  1.00  0.00     0.029 A 
ATOM     35  C   UNL A   1      46.088  28.386  31.236  1.00  0.00     0.049 A 
ATOM     36  H   UNL A   1      44.087  28.500  30.568  1.00  0.00     0.167 HD
ATOM     37  C   UNL A   1      45.800  26.312  29.896  1.00  0.00     0.074 A 
ATOM     38  C   UNL A   1      46.271  25.063  29.328  1.00  0.00     0.031 C 
ATOM     39  C   UNL A   1      46.547  27.140  30.668  1.00  0.00     0.037 A 
BRANCH  26  40
ATOM     40  C   UNL A   1      43.577  32.214  32.631  1.00  0.00     0.064 A 
ATOM     41  C   UNL A   1      43.163  32.246  33.973  1.00  0.00     0.173 A 
ATOM     42  C   UNL A   1      44.003  33.420  32.052  1.00  0.00     0.173 A 
ATOM     43  F   UNL A   1      42.740  31.125  34.577  1.00  0.00    -0.203 F 
ATOM     44  C   UNL A   1      43.171  33.433  34.701  1.00  0.00     0.198 A 
ATOM     45  C   UNL A   1      44.041  34.600  32.794  1.00  0.00     0.198 A 
ATOM     46  F   UNL A   1      44.418  33.449  30.776  1.00  0.00    -0.203 F 
ATOM     47  F   UNL A   1      42.746  33.441  35.972  1.00  0.00    -0.200 F 
ATOM     48  C   UNL A   1      43.619  34.607  34.114  1.00  0.00     0.200 A 
ATOM     49  F   UNL A   1      44.503  35.726  32.233  1.00  0.00    -0.200 F 
ATOM     50  F   UNL A   1      43.651  35.743  34.824  1.00  0.00    -0.200 F 
ENDBRANCH  26  40
BRANCH  27  51
ATOM     51  C   UNL A   1      42.757  23.750  27.359  1.00  0.00     0.064 A 
ATOM     52  C   UNL A   1      42.290  22.588  27.993  1.00  0.00     0.173 A 
ATOM     53  C   UNL A   1      43.167  23.648  26.023  1.00  0.00     0.173 A 
ATOM     54  F   UNL A   1      41.900  22.633  29.275  1.00  0.00    -0.203 F 
ATOM     55  C   UNL A   1      42.277  21.364  27.330  1.00  0.00     0.198 A 
ATOM     56  C   UNL A   1      43.126  22.429  25.352  1.00  0.00     0.198 A 
ATOM     57  F   UNL A   1      43.609  24.735  25.375  1.00  0.00    -0.203 F 
ATOM     58  F   UNL A   1      41.886  20.257  27.976  1.00  0.00    -0.200 F 
ATOM     59  C   UNL A   1      42.696  21.285  26.009  1.00  0.00     0.200 A 
ATOM     60  F   UNL A   1      43.517  22.359  24.073  1.00  0.00    -0.200 F 
ATOM     61  F   UNL A   1      42.691  20.106  25.373  1.00  0.00    -0.200 F 
ENDBRANCH  27  51
BRANCH  39  62
ATOM     62  C   UNL A   1      47.947  26.702  30.987  1.00  0.00     0.064 A 
ATOM     63  C   UNL A   1      49.013  27.094  30.162  1.00  0.00     0.173 A 
ATOM     64  C   UNL A   1      48.236  25.863  32.074  1.00  0.00     0.173 A 
ATOM     65  F   UNL A   1      48.793  27.891  29.105  1.00  0.00    -0.203 F 
ATOM     66  C   UNL A   1      50.311  26.656  30.408  1.00  0.00     0.198 A 
ATOM     67  C   UNL A   1      49.542  25.456  32.339  1.00  0.00     0.198 A 
ATOM     68  F   UNL A   1      47.256  25.472  32.903  1.00  0.00    -0.203 F 
ATOM     69  F   UNL A   1      51.307  27.020  29.587  1.00  0.00    -0.200 F 
ATOM     70  C   UNL A   1      50.576  25.845  31.500  1.00  0.00     0.200 A 
ATOM     71  F   UNL A   1      49.801  24.698  33.412  1.00  0.00    -0.200 F 
ATOM     72  F   UNL A   1      51.830  25.443  31.749  1.00  0.00    -0.200 F 
ENDBRANCH  39  62
ENDBRANCH  13  14
ENDBRANCH   6   8
ENDBRANCH   3   4
ENDBRANCH   2   3
ENDBRANCH   1   2
BRANCH   1  73
ATOM     73  C   UNL A   1      34.332  35.996  28.360  1.00  0.00     0.002 C 
BRANCH  73  74
ATOM     74  C   UNL A   1      33.111  36.432  29.175  1.00  0.00     0.021 C 
BRANCH  74  75
ATOM     75  C   UNL A   1      33.058  35.877  30.594  1.00  0.00     0.116 C 
BRANCH  75  76
ATOM     76  N   UNL A   1      33.292  36.906  31.590  1.00  0.00    -0.351 N 
ATOM     77  C   UNL A   1      34.038  36.829  32.745  1.00  0.00     0.269 C 
ATOM     78  H   UNL A   1      32.861  37.774  31.416  1.00  0.00     0.163 HD
ATOM     79  O   UNL A   1      34.028  37.763  33.541  1.00  0.00    -0.268 OA
BRANCH  77  80
ATOM     80  C   UNL A   1      34.873  35.621  32.986  1.00  0.00     0.128 A 
ATOM     81  C   UNL A   1      34.692  34.890  34.153  1.00  0.00     0.035 A 
ATOM     82  N   UNL A   1      35.805  35.329  32.050  1.00  0.00    -0.250 NA
ATOM     83  C   UNL A   1      35.542  33.813  34.391  1.00  0.00     0.013 A 
ATOM     84  C   UNL A   1      36.597  34.261  32.305  1.00  0.00     0.120 A 
ATOM     85  C   UNL A   1      36.530  33.469  33.457  1.00  0.00     0.006 A 
BRANCH  85  86
ATOM     86  C   UNL A   1      37.443  32.340  33.681  1.00  0.00     0.055 A 
ATOM     87  C   UNL A   1      38.613  32.480  34.443  1.00  0.00     0.134 A 
ATOM     88  C   UNL A   1      37.197  31.072  33.136  1.00  0.00     0.134 A 
ATOM     89  F   UNL A   1      38.916  33.663  35.002  1.00  0.00    -0.206 F 
ATOM     90  C   UNL A   1      39.491  31.417  34.654  1.00  0.00     0.040 A 
ATOM     91  C   UNL A   1      38.067  29.998  33.335  1.00  0.00     0.040 A 
ATOM     92  F   UNL A   1      36.107  30.864  32.382  1.00  0.00    -0.206 F 
ATOM     93  C   UNL A   1      39.218  30.170  34.098  1.00  0.00     0.006 A 
ENDBRANCH  85  86
ENDBRANCH  77  80
ENDBRANCH  75  76
ENDBRANCH  74  75
ENDBRANCH  73  74
ENDBRANCH   1  73
TORSDOF 14
ENDMDL
MODEL 2
REMARK VINA RESULT:     -11.0      4.642      8.202
REMARK SMILES O=C(NCCCCCCNC(=O)c1ccc(-c2c(F)cccc2F)cn1)c1ccc(-c2c3nc(c(-c4c(F)c(F)c(F)c(F)c4F)c4ccc([nH]4)c(-c4c(F)c(F)c(F)c(F)c4F)c4nc(c(-c5c(F)c(F)c(F)c(F)c5F)c5ccc2[nH]5)C=C4)C=C3)cc1
REMARK SMILES IDX 6 1 5 2 4 3 3 4 1 5 2 6 27 8 28 9 89 10 29 11 88 12 30 13
REMARK SMILES IDX 31 14 32 15 82 16 33 17 87 18 81 19 83 20 34 21 86 22 80 23
REMARK SMILES IDX 79 24 35 26 67 27 47 28 66 29 48 30 51 31 65 32 84 33 49 34
REMARK SMILES IDX 50 35 64 37 85 38 52 39 36 40 37 41 45 42 38 43 39 44 43 45
REMARK SMILES IDX 46 46 40 47 41 48 44 49 42 50 68 51 69 52 77 53 70 54 71 55
REMARK SMILES IDX 75 56 78 57 72 58 73 59 76 60 74 61 53 62 54 63 62 64 55 65
REMARK SMILES IDX 56 66 60 67 63 68 57 69 58 70 61 71 59 72 7 73 8 74 9 75
REMARK SMILES IDX 10 76 11 77 12 79 13 80 14 81 26 82 15 83 25 84 16 85 17 86
REMARK SMILES IDX 18 87 23 88 19 89 20 90 22 91 24 92 21 93
REMARK H PARENT 3 7 83 25 51 36 10 78
REMARK Flexibility Score: inf
ROOT
ATOM      1  C   UNL A   1      31.616  30.270  26.479  1.00  0.00     0.002 C 
ENDROOT
BRANCH   1   2
ATOM      2  C   UNL A   1      31.560  31.796  26.520  1.00  0.00     0.021 C 
BRANCH   2   3
ATOM      3  C   UNL A   1      32.753  32.450  27.199  1.00  0.00     0.116 C 
BRANCH   3   4
ATOM      4  N   UNL A   1      32.504  33.846  27.522  1.00  0.00    -0.352 N 
ATOM      5  O   UNL A   1      32.632  35.723  28.774  1.00  0.00    -0.269 OA
ATOM      6  C   UNL A   1      33.075  34.610  28.506  1.00  0.00     0.251 C 
ATOM      7  H   UNL A   1      31.838  34.302  26.960  1.00  0.00     0.163 HD
BRANCH   6   8
ATOM      8  C   UNL A   1      34.229  34.076  29.255  1.00  0.00     0.039 A 
ATOM      9  C   UNL A   1      34.029  33.303  30.403  1.00  0.00     0.014 A 
ATOM     10  C   UNL A   1      35.523  34.336  28.793  1.00  0.00     0.014 A 
ATOM     11  C   UNL A   1      35.119  32.876  31.148  1.00  0.00     0.010 A 
ATOM     12  C   UNL A   1      36.619  33.828  29.494  1.00  0.00     0.010 A 
ATOM     13  C   UNL A   1      36.423  33.097  30.674  1.00  0.00    -0.014 A 
BRANCH  13  14
ATOM     14  C   UNL A   1      37.557  32.418  31.343  1.00  0.00     0.031 A 
ATOM     15  C   UNL A   1      38.012  32.805  32.714  1.00  0.00     0.074 A 
ATOM     16  C   UNL A   1      38.176  31.430  30.670  1.00  0.00     0.049 A 
ATOM     17  N   UNL A   1      38.997  32.312  33.422  1.00  0.00    -0.248 NA
ATOM     18  C   UNL A   1      37.275  33.890  33.377  1.00  0.00     0.031 C 
ATOM     19  C   UNL A   1      37.809  30.977  29.326  1.00  0.00     0.029 A 
ATOM     20  N   UNL A   1      39.226  30.622  31.018  1.00  0.00    -0.354 N 
ATOM     21  C   UNL A   1      39.001  33.022  34.614  1.00  0.00     0.074 A 
ATOM     22  C   UNL A   1      37.944  34.008  34.517  1.00  0.00     0.031 C 
ATOM     23  C   UNL A   1      38.581  29.939  28.985  1.00  0.00     0.029 A 
ATOM     24  C   UNL A   1      39.547  29.703  30.051  1.00  0.00     0.049 A 
ATOM     25  H   UNL A   1      39.701  30.694  31.876  1.00  0.00     0.167 HD
ATOM     26  C   UNL A   1      39.811  32.855  35.688  1.00  0.00     0.037 A 
ATOM     27  C   UNL A   1      40.525  28.781  30.014  1.00  0.00     0.037 A 
ATOM     28  C   UNL A   1      40.876  31.882  35.753  1.00  0.00     0.049 A 
ATOM     29  C   UNL A   1      41.451  28.662  31.186  1.00  0.00     0.074 A 
ATOM     30  C   UNL A   1      41.761  31.638  36.788  1.00  0.00     0.029 A 
ATOM     31  N   UNL A   1      41.209  31.000  34.732  1.00  0.00    -0.354 N 
ATOM     32  N   UNL A   1      41.447  29.335  32.310  1.00  0.00    -0.248 NA
ATOM     33  C   UNL A   1      42.515  27.658  31.084  1.00  0.00     0.031 C 
ATOM     34  C   UNL A   1      42.662  30.652  36.374  1.00  0.00     0.029 A 
ATOM     35  C   UNL A   1      42.296  30.224  35.108  1.00  0.00     0.049 A 
ATOM     36  H   UNL A   1      40.740  30.933  33.868  1.00  0.00     0.167 HD
ATOM     37  C   UNL A   1      42.489  28.820  33.066  1.00  0.00     0.074 A 
ATOM     38  C   UNL A   1      43.098  27.771  32.270  1.00  0.00     0.031 C 
ATOM     39  C   UNL A   1      42.895  29.180  34.309  1.00  0.00     0.037 A 
BRANCH  26  40
ATOM     40  C   UNL A   1      39.593  33.758  36.871  1.00  0.00     0.064 A 
ATOM     41  C   UNL A   1      38.770  33.357  37.936  1.00  0.00     0.173 A 
ATOM     42  C   UNL A   1      40.168  35.037  36.938  1.00  0.00     0.173 A 
ATOM     43  F   UNL A   1      38.188  32.149  37.923  1.00  0.00    -0.203 F 
ATOM     44  C   UNL A   1      38.530  34.202  39.017  1.00  0.00     0.198 A 
ATOM     45  C   UNL A   1      39.952  35.866  38.038  1.00  0.00     0.198 A 
ATOM     46  F   UNL A   1      40.970  35.470  35.953  1.00  0.00    -0.203 F 
ATOM     47  F   UNL A   1      37.718  33.805  40.008  1.00  0.00    -0.200 F 
ATOM     48  C   UNL A   1      39.129  35.451  39.072  1.00  0.00     0.200 A 
ATOM     49  F   UNL A   1      40.557  37.060  38.102  1.00  0.00    -0.200 F 
ATOM     50  F   UNL A   1      38.918  36.251  40.126  1.00  0.00    -0.200 F 
ENDBRANCH  26  40
BRANCH  27  51
ATOM     51  C   UNL A   1      40.624  27.890  28.833  1.00  0.00     0.064 A 
ATOM     52  C   UNL A   1      41.388  28.247  27.711  1.00  0.00     0.173 A 
ATOM     53  C   UNL A   1      39.870  26.711  28.764  1.00  0.00     0.173 A 
ATOM     54  F   UNL A   1      42.114  29.374  27.723  1.00  0.00    -0.203 F 
ATOM     55  C   UNL A   1      41.361  27.479  26.549  1.00  0.00     0.198 A 
ATOM     56  C   UNL A   1      39.867  25.929  27.613  1.00  0.00     0.198 A 
ATOM     57  F   UNL A   1      39.135  26.326  29.817  1.00  0.00    -0.203 F 
ATOM     58  F   UNL A   1      42.049  27.874  25.470  1.00  0.00    -0.200 F 
ATOM     59  C   UNL A   1      40.600  26.320  26.502  1.00  0.00     0.200 A 
ATOM     60  F   UNL A   1      39.143  24.802  27.575  1.00  0.00    -0.200 F 
ATOM     61  F   UNL A   1      40.568  25.583  25.383  1.00  0.00    -0.200 F 
ENDBRANCH  27  51
BRANCH  39  62
ATOM     62  C   UNL A   1      44.029  28.404  34.912  1.00  0.00     0.064 A 
ATOM     63  C   UNL A   1      43.770  27.237  35.650  1.00  0.00     0.173 A 
ATOM     64  C   UNL A   1      45.363  28.827  34.804  1.00  0.00     0.173 A 
ATOM     65  F   UNL A   1      42.512  26.791  35.790  1.00  0.00    -0.203 F 
ATOM     66  C   UNL A   1      44.801  26.531  36.263  1.00  0.00     0.198 A 
ATOM     67  C   UNL A   1      46.395  28.097  35.389  1.00  0.00     0.198 A 
ATOM     68  F   UNL A   1      45.666  29.925  34.097  1.00  0.00    -0.203 F 
ATOM     69  F   UNL A   1      44.523  25.438  36.988  1.00  0.00    -0.200 F 
ATOM     70  C   UNL A   1      46.113  26.956  36.126  1.00  0.00     0.200 A 
ATOM     71  F   UNL A   1      47.665  28.492  35.229  1.00  0.00    -0.200 F 
ATOM     72  F   UNL A   1      47.106  26.263  36.697  1.00  0.00    -0.200 F 
ENDBRANCH  39  62
ENDBRANCH  13  14
ENDBRANCH   6   8
ENDBRANCH   3   4
ENDBRANCH   2   3
ENDBRANCH   1   2
BRANCH   1  73
ATOM     73  C   UNL A   1      31.967  29.669  25.115  1.00  0.00     0.002 C 
BRANCH  73  74
ATOM     74  C   UNL A   1      30.770  29.341  24.216  1.00  0.00     0.021 C 
BRANCH  74  75
ATOM     75  C   UNL A   1      31.059  28.330  23.111  1.00  0.00     0.116 C 
BRANCH  75  76
ATOM     76  N   UNL A   1      32.267  28.658  22.377  1.00  0.00    -0.351 N 
ATOM     77  C   UNL A   1      33.426  27.923  22.260  1.00  0.00     0.269 C 
ATOM     78  H   UNL A   1      32.258  29.519  21.901  1.00  0.00     0.163 HD
ATOM     79  O   UNL A   1      34.403  28.409  21.700  1.00  0.00    -0.268 OA
BRANCH  77  80
ATOM     80  C   UNL A   1      33.456  26.532  22.789  1.00  0.00     0.128 A 
ATOM     81  C   UNL A   1      33.660  26.324  24.148  1.00  0.00     0.035 A 
ATOM     82  N   UNL A   1      33.318  25.535  21.886  1.00  0.00    -0.250 NA
ATOM     83  C   UNL A   1      33.765  25.012  24.601  1.00  0.00     0.013 A 
ATOM     84  C   UNL A   1      33.402  24.272  22.369  1.00  0.00     0.120 A 
ATOM     85  C   UNL A   1      33.637  23.939  23.707  1.00  0.00     0.006 A 
BRANCH  85  86
ATOM     86  C   UNL A   1      33.745  22.544  24.156  1.00  0.00     0.055 A 
ATOM     87  C   UNL A   1      34.985  21.966  24.469  1.00  0.00     0.134 A 
ATOM     88  C   UNL A   1      32.619  21.720  24.283  1.00  0.00     0.134 A 
ATOM     89  F   UNL A   1      36.110  22.693  24.376  1.00  0.00    -0.206 F 
ATOM     90  C   UNL A   1      35.100  20.641  24.887  1.00  0.00     0.040 A 
ATOM     91  C   UNL A   1      32.716  20.390  24.697  1.00  0.00     0.040 A 
ATOM     92  F   UNL A   1      31.400  22.196  23.985  1.00  0.00    -0.206 F 
ATOM     93  C   UNL A   1      33.961  19.848  25.002  1.00  0.00     0.006 A 
ENDBRANCH  85  86
ENDBRANCH  77  80
ENDBRANCH  75  76
ENDBRANCH  74  75
ENDBRANCH  73  74
ENDBRANCH   1  73
TORSDOF 14
ENDMDL
MODEL 3
REMARK VINA RESULT:     -11.0      4.009      7.757
REMARK SMILES O=C(NCCCCCCNC(=O)c1ccc(-c2c(F)cccc2F)cn1)c1ccc(-c2c3nc(c(-c4c(F)c(F)c(F)c(F)c4F)c4ccc([nH]4)c(-c4c(F)c(F)c(F)c(F)c4F)c4nc(c(-c5c(F)c(F)c(F)c(F)c5F)c5ccc2[nH]5)C=C4)C=C3)cc1
REMARK SMILES IDX 6 1 5 2 4 3 3 4 1 5 2 6 27 8 28 9 89 10 29 11 88 12 30 13
REMARK SMILES IDX 31 14 32 15 82 16 33 17 87 18 81 19 83 20 34 21 86 22 80 23
REMARK SMILES IDX 79 24 35 26 67 27 47 28 66 29 48 30 51 31 65 32 84 33 49 34
REMARK SMILES IDX 50 35 64 37 85 38 52 39 36 40 37 41 45 42 38 43 39 44 43 45
REMARK SMILES IDX 46 46 40 47 41 48 44 49 42 50 68 51 69 52 77 53 70 54 71 55
REMARK SMILES IDX 75 56 78 57 72 58 73 59 76 60 74 61 53 62 54 63 62 64 55 65
REMARK SMILES IDX 56 66 60 67 63 68 57 69 58 70 61 71 59 72 7 73 8 74 9 75
REMARK SMILES IDX 10 76 11 77 12 79 13 80 14 81 26 82 15 83 25 84 16 85 17 86
REMARK SMILES IDX 18 87 23 88 19 89 20 90 22 91 24 92 21 93
REMARK H PARENT 3 7 83 25 51 36 10 78
REMARK Flexibility Score: inf
ROOT
ATOM      1  C   UNL A   1      31.635  30.819  26.203  1.00  0.00     0.002 C 
ENDROOT
BRANCH   1   2
ATOM      2  C   UNL A   1      31.438  32.269  26.640  1.00  0.00     0.021 C 
BRANCH   2   3
ATOM      3  C   UNL A   1      32.663  32.906  27.276  1.00  0.00     0.116 C 
BRANCH   3   4
ATOM      4  N   UNL A   1      32.425  34.285  27.669  1.00  0.00    -0.352 N 
ATOM      5  O   UNL A   1      32.583  36.102  29.004  1.00  0.00    -0.269 OA
ATOM      6  C   UNL A   1      33.018  35.002  28.675  1.00  0.00     0.251 C 
ATOM      7  H   UNL A   1      31.747  34.768  27.142  1.00  0.00     0.163 HD
BRANCH   6   8
ATOM      8  C   UNL A   1      34.186  34.432  29.374  1.00  0.00     0.039 A 
ATOM      9  C   UNL A   1      34.018  33.736  30.575  1.00  0.00     0.014 A 
ATOM     10  C   UNL A   1      35.457  34.580  28.813  1.00  0.00     0.014 A 
ATOM     11  C   UNL A   1      35.130  33.277  31.268  1.00  0.00     0.010 A 
ATOM     12  C   UNL A   1      36.566  34.038  29.465  1.00  0.00     0.010 A 
ATOM     13  C   UNL A   1      36.407  33.385  30.697  1.00  0.00    -0.014 A 
BRANCH  13  14
ATOM     14  C   UNL A   1      37.541  32.667  31.325  1.00  0.00     0.031 A 
ATOM     15  C   UNL A   1      38.099  33.079  32.651  1.00  0.00     0.074 A 
ATOM     16  C   UNL A   1      38.063  31.620  30.658  1.00  0.00     0.049 A 
ATOM     17  N   UNL A   1      39.097  32.557  33.320  1.00  0.00    -0.248 NA
ATOM     18  C   UNL A   1      37.465  34.228  33.310  1.00  0.00     0.031 C 
ATOM     19  C   UNL A   1      37.590  31.138  29.358  1.00  0.00     0.029 A 
ATOM     20  N   UNL A   1      39.085  30.767  30.978  1.00  0.00    -0.354 N 
ATOM     21  C   UNL A   1      39.212  33.310  34.478  1.00  0.00     0.074 A 
ATOM     22  C   UNL A   1      38.207  34.352  34.403  1.00  0.00     0.031 C 
ATOM     23  C   UNL A   1      38.281  30.045  29.016  1.00  0.00     0.029 A 
ATOM     24  C   UNL A   1      39.296  29.795  30.033  1.00  0.00     0.049 A 
ATOM     25  H   UNL A   1      39.615  30.843  31.803  1.00  0.00     0.167 HD
ATOM     26  C   UNL A   1      40.076  33.138  35.509  1.00  0.00     0.037 A 
ATOM     27  C   UNL A   1      40.217  28.817  29.977  1.00  0.00     0.037 A 
ATOM     28  C   UNL A   1      41.087  32.108  35.552  1.00  0.00     0.049 A 
ATOM     29  C   UNL A   1      41.205  28.690  31.096  1.00  0.00     0.074 A 
ATOM     30  C   UNL A   1      42.019  31.853  36.543  1.00  0.00     0.029 A 
ATOM     31  N   UNL A   1      41.308  31.170  34.551  1.00  0.00    -0.354 N 
ATOM     32  N   UNL A   1      41.306  29.404  32.190  1.00  0.00    -0.248 NA
ATOM     33  C   UNL A   1      42.204  27.622  30.974  1.00  0.00     0.031 C 
ATOM     34  C   UNL A   1      42.837  30.802  36.118  1.00  0.00     0.029 A 
ATOM     35  C   UNL A   1      42.372  30.348  34.894  1.00  0.00     0.049 A 
ATOM     36  H   UNL A   1      40.785  31.098  33.719  1.00  0.00     0.167 HD
ATOM     37  C   UNL A   1      42.362  28.858  32.905  1.00  0.00     0.074 A 
ATOM     38  C   UNL A   1      42.863  27.746  32.118  1.00  0.00     0.031 C 
ATOM     39  C   UNL A   1      42.862  29.242  34.105  1.00  0.00     0.037 A 
BRANCH  26  40
ATOM     40  C   UNL A   1      39.980  34.096  36.665  1.00  0.00     0.064 A 
ATOM     41  C   UNL A   1      40.732  35.282  36.676  1.00  0.00     0.173 A 
ATOM     42  C   UNL A   1      39.171  33.827  37.780  1.00  0.00     0.173 A 
ATOM     43  F   UNL A   1      41.527  35.589  35.641  1.00  0.00    -0.203 F 
ATOM     44  C   UNL A   1      40.680  36.157  37.759  1.00  0.00     0.198 A 
ATOM     45  C   UNL A   1      39.096  34.721  38.847  1.00  0.00     0.198 A 
ATOM     46  F   UNL A   1      38.424  32.713  37.821  1.00  0.00    -0.203 F 
ATOM     47  F   UNL A   1      41.429  37.269  37.756  1.00  0.00    -0.200 F 
ATOM     48  C   UNL A   1      39.855  35.880  38.838  1.00  0.00     0.200 A 
ATOM     49  F   UNL A   1      38.276  34.466  39.875  1.00  0.00    -0.200 F 
ATOM     50  F   UNL A   1      39.787  36.737  39.868  1.00  0.00    -0.200 F 
ENDBRANCH  26  40
BRANCH  27  51
ATOM     51  C   UNL A   1      40.195  27.877  28.830  1.00  0.00     0.064 A 
ATOM     52  C   UNL A   1      39.562  26.628  28.921  1.00  0.00     0.173 A 
ATOM     53  C   UNL A   1      40.900  28.170  27.655  1.00  0.00     0.173 A 
ATOM     54  F   UNL A   1      38.887  26.296  30.032  1.00  0.00    -0.203 F 
ATOM     55  C   UNL A   1      39.668  25.692  27.896  1.00  0.00     0.198 A 
ATOM     56  C   UNL A   1      40.982  27.244  26.619  1.00  0.00     0.198 A 
ATOM     57  F   UNL A   1      41.511  29.355  27.520  1.00  0.00    -0.203 F 
ATOM     58  F   UNL A   1      39.107  24.483  28.033  1.00  0.00    -0.200 F 
ATOM     59  C   UNL A   1      40.379  26.001  26.745  1.00  0.00     0.200 A 
ATOM     60  F   UNL A   1      41.656  27.551  25.502  1.00  0.00    -0.200 F 
ATOM     61  F   UNL A   1      40.488  25.098  25.761  1.00  0.00    -0.200 F 
ENDBRANCH  27  51
BRANCH  39  62
ATOM     62  C   UNL A   1      43.986  28.424  34.673  1.00  0.00     0.064 A 
ATOM     63  C   UNL A   1      43.708  27.315  35.488  1.00  0.00     0.173 A 
ATOM     64  C   UNL A   1      45.332  28.755  34.455  1.00  0.00     0.173 A 
ATOM     65  F   UNL A   1      42.438  26.958  35.735  1.00  0.00    -0.203 F 
ATOM     66  C   UNL A   1      44.734  26.575  36.068  1.00  0.00     0.198 A 
ATOM     67  C   UNL A   1      46.357  27.990  35.008  1.00  0.00     0.198 A 
ATOM     68  F   UNL A   1      45.652  29.796  33.671  1.00  0.00    -0.203 F 
ATOM     69  F   UNL A   1      44.442  25.539  36.868  1.00  0.00    -0.200 F 
ATOM     70  C   UNL A   1      46.057  26.908  35.822  1.00  0.00     0.200 A 
ATOM     71  F   UNL A   1      47.634  28.294  34.743  1.00  0.00    -0.200 F 
ATOM     72  F   UNL A   1      47.044  26.180  36.363  1.00  0.00    -0.200 F 
ENDBRANCH  39  62
ENDBRANCH  13  14
ENDBRANCH   6   8
ENDBRANCH   3   4
ENDBRANCH   2   3
ENDBRANCH   1   2
BRANCH   1  73
ATOM     73  C   UNL A   1      32.788  30.083  26.893  1.00  0.00     0.002 C 
BRANCH  73  74
ATOM     74  C   UNL A   1      32.904  28.592  26.565  1.00  0.00     0.021 C 
BRANCH  74  75
ATOM     75  C   UNL A   1      32.083  27.673  27.465  1.00  0.00     0.116 C 
BRANCH  75  76
ATOM     76  N   UNL A   1      30.971  27.070  26.755  1.00  0.00    -0.351 N 
ATOM     77  C   UNL A   1      30.979  25.981  25.913  1.00  0.00     0.269 C 
ATOM     78  H   UNL A   1      30.094  27.497  26.894  1.00  0.00     0.163 HD
ATOM     79  O   UNL A   1      29.962  25.679  25.295  1.00  0.00    -0.268 OA
BRANCH  77  80
ATOM     80  C   UNL A   1      32.219  25.166  25.798  1.00  0.00     0.128 A 
ATOM     81  C   UNL A   1      33.102  25.414  24.754  1.00  0.00     0.035 A 
ATOM     82  N   UNL A   1      32.391  24.188  26.716  1.00  0.00    -0.250 NA
ATOM     83  C   UNL A   1      34.212  24.583  24.624  1.00  0.00     0.013 A 
ATOM     84  C   UNL A   1      33.494  23.416  26.570  1.00  0.00     0.120 A 
ATOM     85  C   UNL A   1      34.436  23.549  25.544  1.00  0.00     0.006 A 
BRANCH  85  86
ATOM     86  C   UNL A   1      35.597  22.655  25.430  1.00  0.00     0.055 A 
ATOM     87  C   UNL A   1      36.895  23.092  25.732  1.00  0.00     0.134 A 
ATOM     88  C   UNL A   1      35.466  21.326  25.003  1.00  0.00     0.134 A 
ATOM     89  F   UNL A   1      37.102  24.351  26.152  1.00  0.00    -0.206 F 
ATOM     90  C   UNL A   1      38.005  22.255  25.619  1.00  0.00     0.040 A 
ATOM     91  C   UNL A   1      36.566  20.475  24.881  1.00  0.00     0.040 A 
ATOM     92  F   UNL A   1      34.258  20.840  24.679  1.00  0.00    -0.206 F 
ATOM     93  C   UNL A   1      37.841  20.940  25.191  1.00  0.00     0.006 A 
ENDBRANCH  85  86
ENDBRANCH  77  80
ENDBRANCH  75  76
ENDBRANCH  74  75
ENDBRANCH  73  74
ENDBRANCH   1  73
TORSDOF 14
ENDMDL
