MODEL 1
REMARK VINA RESULT:     -10.7      0.000      0.000
REMARK SMILES COC(=O)CCS(=O)(=O)Nc1ccc(C(=O)NCCCCCCNC(=O)c2ccc(-c3c4nc(c(-c5c(F)c(F)c(F)c(F)c5F)c5ccc([nH]5)c(-c5c(F)c(F)c(F)c(F)c5F)c5nc(c(-c6c(F)c(F)c(F)c(F)c6F)c6ccc3[nH]6)C=C5)C=C4)cc2)cc1
REMARK SMILES IDX 18 1 17 2 15 3 16 4 14 6 11 7 12 8 91 9 13 10 90 11 10 12
REMARK SMILES IDX 7 14 8 15 9 16 6 17 5 18 3 19 4 20 2 21 1 22 19 23 20 24
REMARK SMILES IDX 21 25 22 26 23 27 24 28 25 29 26 31 27 32 28 33 89 34 29 35
REMARK SMILES IDX 88 36 30 37 31 38 32 39 82 40 33 41 87 42 81 43 83 44 34 45
REMARK SMILES IDX 86 46 80 47 79 48 35 50 67 51 47 52 66 53 48 54 51 55 65 56
REMARK SMILES IDX 84 57 49 58 50 59 64 61 85 62 52 63 36 64 37 65 45 66 38 67
REMARK SMILES IDX 39 68 43 69 46 70 40 71 41 72 44 73 42 74 68 75 69 76 77 77
REMARK SMILES IDX 70 78 71 79 75 80 78 81 72 82 73 83 76 84 74 85 53 86 54 87
REMARK SMILES IDX 62 88 55 89 56 90 60 91 63 92 57 93 58 94 61 95 59 96
REMARK H PARENT 17 5 10 13 24 30 83 49 51 60
REMARK Flexibility Score: inf
ROOT
ATOM      1  C   UNL A   1      33.186  26.687  24.038  1.00  0.00     0.116 C 
ENDROOT
BRANCH   1   2
ATOM      2  N   UNL A   1      32.431  26.925  25.263  1.00  0.00    -0.352 N 
ATOM      3  C   UNL A   1      31.754  26.088  26.126  1.00  0.00     0.251 C 
ATOM      4  O   UNL A   1      31.133  26.601  27.058  1.00  0.00    -0.269 OA
ATOM      5  H   UNL A   1      32.397  27.873  25.527  1.00  0.00     0.163 HD
BRANCH   3   6
ATOM      6  C   UNL A   1      31.679  24.608  25.952  1.00  0.00     0.039 A 
ATOM      7  C   UNL A   1      31.889  21.891  25.219  1.00  0.00     0.049 A 
ATOM      8  C   UNL A   1      30.992  22.732  24.554  1.00  0.00     0.027 A 
ATOM      9  C   UNL A   1      32.487  22.368  26.376  1.00  0.00     0.027 A 
ATOM     10  C   UNL A   1      30.888  24.085  24.918  1.00  0.00     0.016 A 
ATOM     11  C   UNL A   1      32.372  23.710  26.751  1.00  0.00     0.016 A 
BRANCH   7  12
ATOM     12  N   UNL A   1      32.393  20.780  24.487  1.00  0.00    -0.284 N 
ATOM     13  H   UNL A   1      32.159  20.780  23.531  1.00  0.00     0.180 HD
BRANCH  12  14
ATOM     14  S   UNL A   1      33.304  19.495  24.967  1.00  0.00     0.233 S 
ATOM     15  O   UNL A   1      32.594  18.943  26.107  1.00  0.00    -0.207 OA
ATOM     16  O   UNL A   1      34.667  19.952  25.122  1.00  0.00    -0.207 OA
BRANCH  14  17
ATOM     17  C   UNL A   1      33.312  18.231  23.709  1.00  0.00     0.171 C 
BRANCH  17  18
ATOM     18  C   UNL A   1      34.387  17.165  23.753  1.00  0.00     0.141 C 
BRANCH  18  19
ATOM     19  C   UNL A   1      34.131  15.949  24.604  1.00  0.00     0.306 C 
ATOM     20  O   UNL A   1      35.019  15.307  25.150  1.00  0.00    -0.252 OA
BRANCH  19  21
ATOM     21  O   UNL A   1      32.802  15.697  24.701  1.00  0.00    -0.469 OA
ATOM     22  C   UNL A   1      32.399  15.044  25.907  1.00  0.00     0.282 C 
ENDBRANCH  19  21
ENDBRANCH  18  19
ENDBRANCH  17  18
ENDBRANCH  14  17
ENDBRANCH  12  14
ENDBRANCH   7  12
ENDBRANCH   3   6
ENDBRANCH   1   2
BRANCH   1  23
ATOM     23  C   UNL A   1      34.330  25.684  24.210  1.00  0.00     0.021 C 
BRANCH  23  24
ATOM     24  C   UNL A   1      34.262  24.443  23.315  1.00  0.00     0.002 C 
BRANCH  24  25
ATOM     25  C   UNL A   1      35.107  23.246  23.773  1.00  0.00     0.002 C 
BRANCH  25  26
ATOM     26  C   UNL A   1      36.498  23.583  24.322  1.00  0.00     0.021 C 
BRANCH  26  27
ATOM     27  C   UNL A   1      36.705  23.261  25.801  1.00  0.00     0.116 C 
BRANCH  27  28
ATOM     28  N   UNL A   1      37.856  22.397  26.018  1.00  0.00    -0.352 N 
ATOM     29  C   UNL A   1      39.137  22.709  26.400  1.00  0.00     0.251 C 
ATOM     30  H   UNL A   1      37.690  21.438  25.868  1.00  0.00     0.163 HD
ATOM     31  O   UNL A   1      40.027  21.870  26.315  1.00  0.00    -0.269 OA
BRANCH  29  32
ATOM     32  C   UNL A   1      39.453  24.062  26.905  1.00  0.00     0.039 A 
ATOM     33  C   UNL A   1      39.130  24.383  28.227  1.00  0.00     0.014 A 
ATOM     34  C   UNL A   1      40.044  25.018  26.075  1.00  0.00     0.014 A 
ATOM     35  C   UNL A   1      39.461  25.641  28.735  1.00  0.00     0.010 A 
ATOM     36  C   UNL A   1      40.438  26.244  26.602  1.00  0.00     0.010 A 
ATOM     37  C   UNL A   1      40.153  26.567  27.938  1.00  0.00    -0.014 A 
BRANCH  37  38
ATOM     38  C   UNL A   1      40.607  27.867  28.490  1.00  0.00     0.031 A 
ATOM     39  C   UNL A   1      42.042  28.070  28.883  1.00  0.00     0.074 A 
ATOM     40  C   UNL A   1      39.702  28.843  28.707  1.00  0.00     0.049 A 
ATOM     41  N   UNL A   1      42.609  29.109  29.444  1.00  0.00    -0.248 NA
ATOM     42  C   UNL A   1      42.958  26.946  28.639  1.00  0.00     0.031 C 
ATOM     43  C   UNL A   1      38.272  28.746  28.414  1.00  0.00     0.029 A 
ATOM     44  N   UNL A   1      39.849  30.100  29.236  1.00  0.00    -0.354 N 
ATOM     45  C   UNL A   1      43.939  28.759  29.631  1.00  0.00     0.074 A 
ATOM     46  C   UNL A   1      44.085  27.394  29.175  1.00  0.00     0.031 C 
ATOM     47  C   UNL A   1      37.675  29.900  28.748  1.00  0.00     0.029 A 
ATOM     48  C   UNL A   1      38.671  30.803  29.317  1.00  0.00     0.049 A 
ATOM     49  H   UNL A   1      40.716  30.465  29.528  1.00  0.00     0.167 HD
ATOM     50  C   UNL A   1      44.950  29.517  30.119  1.00  0.00     0.037 A 
ATOM     51  C   UNL A   1      38.420  32.030  29.810  1.00  0.00     0.037 A 
ATOM     52  C   UNL A   1      44.800  30.881  30.557  1.00  0.00     0.049 A 
ATOM     53  C   UNL A   1      39.557  32.846  30.360  1.00  0.00     0.074 A 
ATOM     54  C   UNL A   1      45.775  31.757  30.999  1.00  0.00     0.029 A 
ATOM     55  N   UNL A   1      43.592  31.563  30.618  1.00  0.00    -0.354 N 
ATOM     56  N   UNL A   1      40.826  32.536  30.457  1.00  0.00    -0.248 NA
ATOM     57  C   UNL A   1      39.226  34.185  30.866  1.00  0.00     0.031 C 
ATOM     58  C   UNL A   1      45.150  32.948  31.387  1.00  0.00     0.029 A 
ATOM     59  C   UNL A   1      43.794  32.837  31.127  1.00  0.00     0.049 A 
ATOM     60  H   UNL A   1      42.722  31.196  30.341  1.00  0.00     0.167 HD
ATOM     61  C   UNL A   1      41.451  33.645  31.013  1.00  0.00     0.074 A 
ATOM     62  C   UNL A   1      40.420  34.643  31.214  1.00  0.00     0.031 C 
ATOM     63  C   UNL A   1      42.757  33.819  31.329  1.00  0.00     0.037 A 
BRANCH  50  64
ATOM     64  C   UNL A   1      46.310  28.883  30.216  1.00  0.00     0.064 A 
ATOM     65  C   UNL A   1      47.225  28.932  29.153  1.00  0.00     0.173 A 
ATOM     66  C   UNL A   1      46.713  28.242  31.397  1.00  0.00     0.173 A 
ATOM     67  F   UNL A   1      46.889  29.525  27.998  1.00  0.00    -0.203 F 
ATOM     68  C   UNL A   1      48.478  28.331  29.256  1.00  0.00     0.198 A 
ATOM     69  C   UNL A   1      47.978  27.672  31.509  1.00  0.00     0.198 A 
ATOM     70  F   UNL A   1      45.881  28.171  32.446  1.00  0.00    -0.203 F 
ATOM     71  F   UNL A   1      49.313  28.341  28.208  1.00  0.00    -0.200 F 
ATOM     72  C   UNL A   1      48.856  27.708  30.436  1.00  0.00     0.200 A 
ATOM     73  F   UNL A   1      48.348  27.084  32.656  1.00  0.00    -0.200 F 
ATOM     74  F   UNL A   1      50.063  27.135  30.536  1.00  0.00    -0.200 F 
ENDBRANCH  50  64
BRANCH  51  75
ATOM     75  C   UNL A   1      37.033  32.563  29.786  1.00  0.00     0.064 A 
ATOM     76  C   UNL A   1      36.177  32.397  30.882  1.00  0.00     0.173 A 
ATOM     77  C   UNL A   1      36.541  33.264  28.673  1.00  0.00     0.173 A 
ATOM     78  F   UNL A   1      36.594  31.718  31.960  1.00  0.00    -0.203 F 
ATOM     79  C   UNL A   1      34.876  32.896  30.862  1.00  0.00     0.198 A 
ATOM     80  C   UNL A   1      35.251  33.788  28.667  1.00  0.00     0.198 A 
ATOM     81  F   UNL A   1      37.323  33.457  27.601  1.00  0.00    -0.203 F 
ATOM     82  F   UNL A   1      34.065  32.687  31.908  1.00  0.00    -0.200 F 
ATOM     83  C   UNL A   1      34.417  33.597  29.758  1.00  0.00     0.200 A 
ATOM     84  F   UNL A   1      34.817  34.481  27.604  1.00  0.00    -0.200 F 
ATOM     85  F   UNL A   1      33.169  34.086  29.743  1.00  0.00    -0.200 F 
ENDBRANCH  51  75
BRANCH  63  86
ATOM     86  C   UNL A   1      43.154  35.146  31.909  1.00  0.00     0.064 A 
ATOM     87  C   UNL A   1      43.080  35.400  33.286  1.00  0.00     0.173 A 
ATOM     88  C   UNL A   1      43.655  36.163  31.081  1.00  0.00     0.173 A 
ATOM     89  F   UNL A   1      42.594  34.468  34.119  1.00  0.00    -0.203 F 
ATOM     90  C   UNL A   1      43.468  36.631  33.809  1.00  0.00     0.198 A 
ATOM     91  C   UNL A   1      44.074  37.380  31.612  1.00  0.00     0.198 A 
ATOM     92  F   UNL A   1      43.753  35.971  29.756  1.00  0.00    -0.203 F 
ATOM     93  F   UNL A   1      43.341  36.868  35.123  1.00  0.00    -0.200 F 
ATOM     94  C   UNL A   1      43.972  37.616  32.975  1.00  0.00     0.200 A 
ATOM     95  F   UNL A   1      44.575  38.324  30.804  1.00  0.00    -0.200 F 
ATOM     96  F   UNL A   1      44.355  38.795  33.481  1.00  0.00    -0.200 F 
ENDBRANCH  63  86
ENDBRANCH  37  38
ENDBRANCH  29  32
ENDBRANCH  27  28
ENDBRANCH  26  27
ENDBRANCH  25  26
ENDBRANCH  24  25
ENDBRANCH  23  24
ENDBRANCH   1  23
TORSDOF 19
ENDMDL
MODEL 2
REMARK VINA RESULT:     -10.5      1.134      2.353
REMARK SMILES COC(=O)CCS(=O)(=O)Nc1ccc(C(=O)NCCCCCCNC(=O)c2ccc(-c3c4nc(c(-c5c(F)c(F)c(F)c(F)c5F)c5ccc([nH]5)c(-c5c(F)c(F)c(F)c(F)c5F)c5nc(c(-c6c(F)c(F)c(F)c(F)c6F)c6ccc3[nH]6)C=C5)C=C4)cc2)cc1
REMARK SMILES IDX 18 1 17 2 15 3 16 4 14 6 11 7 12 8 91 9 13 10 90 11 10 12
REMARK SMILES IDX 7 14 8 15 9 16 6 17 5 18 3 19 4 20 2 21 1 22 19 23 20 24
REMARK SMILES IDX 21 25 22 26 23 27 24 28 25 29 26 31 27 32 28 33 89 34 29 35
REMARK SMILES IDX 88 36 30 37 31 38 32 39 82 40 33 41 87 42 81 43 83 44 34 45
REMARK SMILES IDX 86 46 80 47 79 48 35 50 67 51 47 52 66 53 48 54 51 55 65 56
REMARK SMILES IDX 84 57 49 58 50 59 64 61 85 62 52 63 36 64 37 65 45 66 38 67
REMARK SMILES IDX 39 68 43 69 46 70 40 71 41 72 44 73 42 74 68 75 69 76 77 77
REMARK SMILES IDX 70 78 71 79 75 80 78 81 72 82 73 83 76 84 74 85 53 86 54 87
REMARK SMILES IDX 62 88 55 89 56 90 60 91 63 92 57 93 58 94 61 95 59 96
REMARK H PARENT 17 5 10 13 24 30 83 49 51 60
REMARK Flexibility Score: inf
ROOT
ATOM      1  C   UNL A   1      33.136  26.762  22.773  1.00  0.00     0.116 C 
ENDROOT
BRANCH   1   2
ATOM      2  N   UNL A   1      31.769  27.234  22.963  1.00  0.00    -0.352 N 
ATOM      3  C   UNL A   1      30.658  26.676  23.562  1.00  0.00     0.251 C 
ATOM      4  O   UNL A   1      29.597  27.297  23.499  1.00  0.00    -0.269 OA
ATOM      5  H   UNL A   1      31.606  28.129  22.588  1.00  0.00     0.163 HD
BRANCH   3   6
ATOM      6  C   UNL A   1      30.660  25.337  24.220  1.00  0.00     0.039 A 
ATOM      7  C   UNL A   1      31.194  22.810  25.359  1.00  0.00     0.049 A 
ATOM      8  C   UNL A   1      30.963  22.928  23.986  1.00  0.00     0.027 A 
ATOM      9  C   UNL A   1      30.927  23.914  26.157  1.00  0.00     0.027 A 
ATOM     10  C   UNL A   1      30.698  24.186  23.418  1.00  0.00     0.016 A 
ATOM     11  C   UNL A   1      30.646  25.163  25.596  1.00  0.00     0.016 A 
BRANCH   7  12
ATOM     12  N   UNL A   1      32.010  21.726  25.784  1.00  0.00    -0.284 N 
ATOM     13  H   UNL A   1      31.867  21.448  26.718  1.00  0.00     0.180 HD
BRANCH  12  14
ATOM     14  S   UNL A   1      33.154  20.855  24.980  1.00  0.00     0.233 S 
ATOM     15  O   UNL A   1      34.052  20.379  26.016  1.00  0.00    -0.207 OA
ATOM     16  O   UNL A   1      33.664  21.679  23.908  1.00  0.00    -0.207 OA
BRANCH  14  17
ATOM     17  C   UNL A   1      32.425  19.409  24.232  1.00  0.00     0.171 C 
BRANCH  17  18
ATOM     18  C   UNL A   1      32.979  18.046  24.587  1.00  0.00     0.141 C 
BRANCH  18  19
ATOM     19  C   UNL A   1      33.307  17.108  23.456  1.00  0.00     0.306 C 
ATOM     20  O   UNL A   1      33.101  17.371  22.277  1.00  0.00    -0.252 OA
BRANCH  19  21
ATOM     21  O   UNL A   1      33.880  15.971  23.919  1.00  0.00    -0.469 OA
ATOM     22  C   UNL A   1      34.361  16.041  25.263  1.00  0.00     0.282 C 
ENDBRANCH  19  21
ENDBRANCH  18  19
ENDBRANCH  17  18
ENDBRANCH  14  17
ENDBRANCH  12  14
ENDBRANCH   7  12
ENDBRANCH   3   6
ENDBRANCH   1   2
BRANCH   1  23
ATOM     23  C   UNL A   1      33.888  26.521  24.085  1.00  0.00     0.021 C 
BRANCH  23  24
ATOM     24  C   UNL A   1      34.349  25.080  24.329  1.00  0.00     0.002 C 
BRANCH  24  25
ATOM     25  C   UNL A   1      34.573  24.693  25.797  1.00  0.00     0.002 C 
BRANCH  25  26
ATOM     26  C   UNL A   1      35.672  23.657  26.054  1.00  0.00     0.021 C 
BRANCH  26  27
ATOM     27  C   UNL A   1      36.916  23.803  25.181  1.00  0.00     0.116 C 
BRANCH  27  28
ATOM     28  N   UNL A   1      37.948  22.836  25.528  1.00  0.00    -0.352 N 
ATOM     29  C   UNL A   1      39.157  23.018  26.149  1.00  0.00     0.251 C 
ATOM     30  H   UNL A   1      37.745  21.905  25.278  1.00  0.00     0.163 HD
ATOM     31  O   UNL A   1      39.989  22.116  26.156  1.00  0.00    -0.269 OA
BRANCH  29  32
ATOM     32  C   UNL A   1      39.471  24.306  26.804  1.00  0.00     0.039 A 
ATOM     33  C   UNL A   1      39.037  24.522  28.115  1.00  0.00     0.014 A 
ATOM     34  C   UNL A   1      40.169  25.306  26.122  1.00  0.00     0.014 A 
ATOM     35  C   UNL A   1      39.361  25.714  28.765  1.00  0.00     0.010 A 
ATOM     36  C   UNL A   1      40.553  26.462  26.794  1.00  0.00     0.010 A 
ATOM     37  C   UNL A   1      40.156  26.677  28.122  1.00  0.00    -0.014 A 
BRANCH  37  38
ATOM     38  C   UNL A   1      40.601  27.903  28.831  1.00  0.00     0.031 A 
ATOM     39  C   UNL A   1      41.999  28.009  29.368  1.00  0.00     0.074 A 
ATOM     40  C   UNL A   1      39.713  28.893  29.055  1.00  0.00     0.049 A 
ATOM     41  N   UNL A   1      42.546  28.970  30.071  1.00  0.00    -0.248 NA
ATOM     42  C   UNL A   1      42.895  26.873  29.104  1.00  0.00     0.031 C 
ATOM     43  C   UNL A   1      38.313  28.882  28.628  1.00  0.00     0.029 A 
ATOM     44  N   UNL A   1      39.852  30.090  29.709  1.00  0.00    -0.354 N 
ATOM     45  C   UNL A   1      43.841  28.549  30.343  1.00  0.00     0.074 A 
ATOM     46  C   UNL A   1      43.981  27.224  29.778  1.00  0.00     0.031 C 
ATOM     47  C   UNL A   1      37.728  30.027  29.012  1.00  0.00     0.029 A 
ATOM     48  C   UNL A   1      38.696  30.832  29.750  1.00  0.00     0.049 A 
ATOM     49  H   UNL A   1      40.700  30.391  30.110  1.00  0.00     0.167 HD
ATOM     50  C   UNL A   1      44.827  29.217  30.989  1.00  0.00     0.037 A 
ATOM     51  C   UNL A   1      38.442  32.020  30.329  1.00  0.00     0.037 A 
ATOM     52  C   UNL A   1      44.682  30.541  31.536  1.00  0.00     0.049 A 
ATOM     53  C   UNL A   1      39.550  32.735  31.052  1.00  0.00     0.074 A 
ATOM     54  C   UNL A   1      45.641  31.332  32.143  1.00  0.00     0.029 A 
ATOM     55  N   UNL A   1      43.498  31.265  31.551  1.00  0.00    -0.354 N 
ATOM     56  N   UNL A   1      40.794  32.365  31.233  1.00  0.00    -0.248 NA
ATOM     57  C   UNL A   1      39.218  34.036  31.649  1.00  0.00     0.031 C 
ATOM     58  C   UNL A   1      45.024  32.509  32.581  1.00  0.00     0.029 A 
ATOM     59  C   UNL A   1      43.694  32.479  32.191  1.00  0.00     0.049 A 
ATOM     60  H   UNL A   1      42.645  30.962  31.164  1.00  0.00     0.167 HD
ATOM     61  C   UNL A   1      41.401  33.392  31.943  1.00  0.00     0.074 A 
ATOM     62  C   UNL A   1      40.390  34.410  32.143  1.00  0.00     0.031 C 
ATOM     63  C   UNL A   1      42.677  33.482  32.390  1.00  0.00     0.037 A 
BRANCH  50  64
ATOM     64  C   UNL A   1      46.149  28.520  31.147  1.00  0.00     0.064 A 
ATOM     65  C   UNL A   1      46.435  27.722  32.265  1.00  0.00     0.173 A 
ATOM     66  C   UNL A   1      47.134  28.630  30.153  1.00  0.00     0.173 A 
ATOM     67  F   UNL A   1      45.533  27.589  33.250  1.00  0.00    -0.203 F 
ATOM     68  C   UNL A   1      47.670  27.091  32.400  1.00  0.00     0.198 A 
ATOM     69  C   UNL A   1      48.354  27.970  30.275  1.00  0.00     0.198 A 
ATOM     70  F   UNL A   1      46.912  29.374  29.060  1.00  0.00    -0.203 F 
ATOM     71  F   UNL A   1      47.941  26.381  33.504  1.00  0.00    -0.200 F 
ATOM     72  C   UNL A   1      48.625  27.209  31.402  1.00  0.00     0.200 A 
ATOM     73  F   UNL A   1      49.270  28.073  29.301  1.00  0.00    -0.200 F 
ATOM     74  F   UNL A   1      49.810  26.597  31.530  1.00  0.00    -0.200 F 
ENDBRANCH  50  64
BRANCH  51  75
ATOM     75  C   UNL A   1      37.082  32.611  30.231  1.00  0.00     0.064 A 
ATOM     76  C   UNL A   1      36.696  33.349  29.103  1.00  0.00     0.173 A 
ATOM     77  C   UNL A   1      36.136  32.438  31.253  1.00  0.00     0.173 A 
ATOM     78  F   UNL A   1      37.571  33.558  28.109  1.00  0.00    -0.203 F 
ATOM     79  C   UNL A   1      35.422  33.904  29.009  1.00  0.00     0.198 A 
ATOM     80  C   UNL A   1      34.853  32.968  31.143  1.00  0.00     0.198 A 
ATOM     81  F   UNL A   1      36.453  31.734  32.349  1.00  0.00    -0.203 F 
ATOM     82  F   UNL A   1      35.092  34.639  27.938  1.00  0.00    -0.200 F 
ATOM     83  C   UNL A   1      34.499  33.707  30.024  1.00  0.00     0.200 A 
ATOM     84  F   UNL A   1      33.959  32.759  32.119  1.00  0.00    -0.200 F 
ATOM     85  F   UNL A   1      33.270  34.232  29.928  1.00  0.00    -0.200 F 
ENDBRANCH  51  75
BRANCH  63  86
ATOM     86  C   UNL A   1      43.063  34.734  33.124  1.00  0.00     0.064 A 
ATOM     87  C   UNL A   1      43.500  35.881  32.444  1.00  0.00     0.173 A 
ATOM     88  C   UNL A   1      42.954  34.802  34.521  1.00  0.00     0.173 A 
ATOM     89  F   UNL A   1      43.637  35.864  31.110  1.00  0.00    -0.203 F 
ATOM     90  C   UNL A   1      43.838  37.039  33.139  1.00  0.00     0.198 A 
ATOM     91  C   UNL A   1      43.261  35.973  35.210  1.00  0.00     0.198 A 
ATOM     92  F   UNL A   1      42.535  33.735  35.220  1.00  0.00    -0.203 F 
ATOM     93  F   UNL A   1      44.301  38.106  32.473  1.00  0.00    -0.200 F 
ATOM     94  C   UNL A   1      43.710  37.088  34.519  1.00  0.00     0.200 A 
ATOM     95  F   UNL A   1      43.121  36.021  36.541  1.00  0.00    -0.200 F 
ATOM     96  F   UNL A   1      44.026  38.207  35.184  1.00  0.00    -0.200 F 
ENDBRANCH  63  86
ENDBRANCH  37  38
ENDBRANCH  29  32
ENDBRANCH  27  28
ENDBRANCH  26  27
ENDBRANCH  25  26
ENDBRANCH  24  25
ENDBRANCH  23  24
ENDBRANCH   1  23
TORSDOF 19
ENDMDL
MODEL 3
REMARK VINA RESULT:     -10.3      0.929      7.442
REMARK SMILES COC(=O)CCS(=O)(=O)Nc1ccc(C(=O)NCCCCCCNC(=O)c2ccc(-c3c4nc(c(-c5c(F)c(F)c(F)c(F)c5F)c5ccc([nH]5)c(-c5c(F)c(F)c(F)c(F)c5F)c5nc(c(-c6c(F)c(F)c(F)c(F)c6F)c6ccc3[nH]6)C=C5)C=C4)cc2)cc1
REMARK SMILES IDX 18 1 17 2 15 3 16 4 14 6 11 7 12 8 91 9 13 10 90 11 10 12
REMARK SMILES IDX 7 14 8 15 9 16 6 17 5 18 3 19 4 20 2 21 1 22 19 23 20 24
REMARK SMILES IDX 21 25 22 26 23 27 24 28 25 29 26 31 27 32 28 33 89 34 29 35
REMARK SMILES IDX 88 36 30 37 31 38 32 39 82 40 33 41 87 42 81 43 83 44 34 45
REMARK SMILES IDX 86 46 80 47 79 48 35 50 67 51 47 52 66 53 48 54 51 55 65 56
REMARK SMILES IDX 84 57 49 58 50 59 64 61 85 62 52 63 36 64 37 65 45 66 38 67
REMARK SMILES IDX 39 68 43 69 46 70 40 71 41 72 44 73 42 74 68 75 69 76 77 77
REMARK SMILES IDX 70 78 71 79 75 80 78 81 72 82 73 83 76 84 74 85 53 86 54 87
REMARK SMILES IDX 62 88 55 89 56 90 60 91 63 92 57 93 58 94 61 95 59 96
REMARK H PARENT 17 5 10 13 24 30 83 49 51 60
REMARK Flexibility Score: inf
ROOT
ATOM      1  C   UNL A   1      32.764  26.290  23.236  1.00  0.00     0.116 C 
ENDROOT
BRANCH   1   2
ATOM      2  N   UNL A   1      32.198  26.930  24.418  1.00  0.00    -0.352 N 
ATOM      3  C   UNL A   1      31.731  26.438  25.620  1.00  0.00     0.251 C 
ATOM      4  O   UNL A   1      31.230  27.236  26.413  1.00  0.00    -0.269 OA
ATOM      5  H   UNL A   1      32.137  27.910  24.344  1.00  0.00     0.163 HD
BRANCH   3   6
ATOM      6  C   UNL A   1      31.738  24.990  25.977  1.00  0.00     0.039 A 
ATOM      7  C   UNL A   1      31.873  22.175  26.132  1.00  0.00     0.049 A 
ATOM      8  C   UNL A   1      30.693  22.801  25.722  1.00  0.00     0.027 A 
ATOM      9  C   UNL A   1      32.875  22.971  26.671  1.00  0.00     0.027 A 
ATOM     10  C   UNL A   1      30.625  24.202  25.644  1.00  0.00     0.016 A 
ATOM     11  C   UNL A   1      32.803  24.366  26.610  1.00  0.00     0.016 A 
BRANCH   7  12
ATOM     12  N   UNL A   1      32.107  20.859  25.645  1.00  0.00    -0.284 N 
ATOM     13  H   UNL A   1      31.767  20.141  26.227  1.00  0.00     0.180 HD
BRANCH  12  14
ATOM     14  S   UNL A   1      32.850  20.332  24.273  1.00  0.00     0.233 S 
ATOM     15  O   UNL A   1      34.255  20.238  24.625  1.00  0.00    -0.207 OA
ATOM     16  O   UNL A   1      32.436  21.192  23.188  1.00  0.00    -0.207 OA
BRANCH  14  17
ATOM     17  C   UNL A   1      32.313  18.680  23.869  1.00  0.00     0.171 C 
BRANCH  17  18
ATOM     18  C   UNL A   1      32.875  17.517  24.658  1.00  0.00     0.141 C 
BRANCH  18  19
ATOM     19  C   UNL A   1      33.572  16.424  23.892  1.00  0.00     0.306 C 
ATOM     20  O   UNL A   1      34.028  16.573  22.765  1.00  0.00    -0.252 OA
BRANCH  19  21
ATOM     21  O   UNL A   1      33.650  15.289  24.629  1.00  0.00    -0.469 OA
ATOM     22  C   UNL A   1      32.625  15.137  25.613  1.00  0.00     0.282 C 
ENDBRANCH  19  21
ENDBRANCH  18  19
ENDBRANCH  17  18
ENDBRANCH  14  17
ENDBRANCH  12  14
ENDBRANCH   7  12
ENDBRANCH   3   6
ENDBRANCH   1   2
BRANCH   1  23
ATOM     23  C   UNL A   1      34.101  25.593  23.499  1.00  0.00     0.021 C 
BRANCH  23  24
ATOM     24  C   UNL A   1      34.130  24.087  23.219  1.00  0.00     0.002 C 
BRANCH  24  25
ATOM     25  C   UNL A   1      35.362  23.337  23.743  1.00  0.00     0.002 C 
BRANCH  25  26
ATOM     26  C   UNL A   1      36.194  24.075  24.798  1.00  0.00     0.021 C 
BRANCH  26  27
ATOM     27  C   UNL A   1      36.370  23.330  26.119  1.00  0.00     0.116 C 
BRANCH  27  28
ATOM     28  N   UNL A   1      37.518  22.434  26.096  1.00  0.00    -0.352 N 
ATOM     29  C   UNL A   1      38.851  22.700  26.279  1.00  0.00     0.251 C 
ATOM     30  H   UNL A   1      37.303  21.489  25.921  1.00  0.00     0.163 HD
ATOM     31  O   UNL A   1      39.692  21.852  26.002  1.00  0.00    -0.269 OA
BRANCH  29  32
ATOM     32  C   UNL A   1      39.282  24.014  26.802  1.00  0.00     0.039 A 
ATOM     33  C   UNL A   1      39.033  24.324  28.142  1.00  0.00     0.014 A 
ATOM     34  C   UNL A   1      39.907  24.947  25.970  1.00  0.00     0.014 A 
ATOM     35  C   UNL A   1      39.471  25.542  28.664  1.00  0.00     0.010 A 
ATOM     36  C   UNL A   1      40.408  26.128  26.509  1.00  0.00     0.010 A 
ATOM     37  C   UNL A   1      40.197  26.437  27.862  1.00  0.00    -0.014 A 
BRANCH  37  38
ATOM     38  C   UNL A   1      40.763  27.688  28.424  1.00  0.00     0.031 A 
ATOM     39  C   UNL A   1      39.864  28.831  28.800  1.00  0.00     0.074 A 
ATOM     40  C   UNL A   1      42.101  27.819  28.526  1.00  0.00     0.049 A 
ATOM     41  N   UNL A   1      40.180  30.023  29.241  1.00  0.00    -0.248 NA
ATOM     42  C   UNL A   1      38.419  28.616  28.633  1.00  0.00     0.031 C 
ATOM     43  C   UNL A   1      43.079  26.799  28.145  1.00  0.00     0.029 A 
ATOM     44  N   UNL A   1      42.869  28.867  28.965  1.00  0.00    -0.354 N 
ATOM     45  C   UNL A   1      38.978  30.701  29.390  1.00  0.00     0.074 A 
ATOM     46  C   UNL A   1      37.931  29.809  28.941  1.00  0.00     0.031 C 
ATOM     47  C   UNL A   1      44.315  27.262  28.385  1.00  0.00     0.029 A 
ATOM     48  C   UNL A   1      44.220  28.626  28.896  1.00  0.00     0.049 A 
ATOM     49  H   UNL A   1      42.488  29.712  29.299  1.00  0.00     0.167 HD
ATOM     50  C   UNL A   1      38.767  31.948  29.876  1.00  0.00     0.037 A 
ATOM     51  C   UNL A   1      45.264  29.421  29.196  1.00  0.00     0.037 A 
ATOM     52  C   UNL A   1      39.814  32.825  30.334  1.00  0.00     0.049 A 
ATOM     53  C   UNL A   1      45.004  30.806  29.720  1.00  0.00     0.074 A 
ATOM     54  C   UNL A   1      39.699  34.077  30.911  1.00  0.00     0.029 A 
ATOM     55  N   UNL A   1      41.171  32.544  30.256  1.00  0.00    -0.354 N 
ATOM     56  N   UNL A   1      43.860  31.409  29.935  1.00  0.00    -0.248 NA
ATOM     57  C   UNL A   1      46.182  31.621  30.048  1.00  0.00     0.031 C 
ATOM     58  C   UNL A   1      40.987  34.580  31.125  1.00  0.00     0.029 A 
ATOM     59  C   UNL A   1      41.905  33.616  30.740  1.00  0.00     0.049 A 
ATOM     60  H   UNL A   1      41.556  31.707  29.909  1.00  0.00     0.167 HD
ATOM     61  C   UNL A   1      44.176  32.662  30.442  1.00  0.00     0.074 A 
ATOM     62  C   UNL A   1      45.621  32.725  30.520  1.00  0.00     0.031 C 
ATOM     63  C   UNL A   1      43.345  33.668  30.807  1.00  0.00     0.037 A 
BRANCH  50  64
ATOM     64  C   UNL A   1      37.349  32.443  29.928  1.00  0.00     0.064 A 
ATOM     65  C   UNL A   1      36.515  32.183  31.026  1.00  0.00     0.173 A 
ATOM     66  C   UNL A   1      36.825  33.212  28.877  1.00  0.00     0.173 A 
ATOM     67  F   UNL A   1      36.961  31.446  32.055  1.00  0.00    -0.203 F 
ATOM     68  C   UNL A   1      35.199  32.642  31.054  1.00  0.00     0.198 A 
ATOM     69  C   UNL A   1      35.522  33.698  28.924  1.00  0.00     0.198 A 
ATOM     70  F   UNL A   1      37.580  33.497  27.806  1.00  0.00    -0.203 F 
ATOM     71  F   UNL A   1      34.405  32.332  32.087  1.00  0.00    -0.200 F 
ATOM     72  C   UNL A   1      34.707  33.405  30.006  1.00  0.00     0.200 A 
ATOM     73  F   UNL A   1      35.051  34.449  27.917  1.00  0.00    -0.200 F 
ATOM     74  F   UNL A   1      33.443  33.850  30.036  1.00  0.00    -0.200 F 
ENDBRANCH  50  64
BRANCH  51  75
ATOM     75  C   UNL A   1      46.650  28.913  29.022  1.00  0.00     0.064 A 
ATOM     76  C   UNL A   1      47.320  29.051  27.799  1.00  0.00     0.173 A 
ATOM     77  C   UNL A   1      47.337  28.294  30.078  1.00  0.00     0.173 A 
ATOM     78  F   UNL A   1      46.699  29.617  26.755  1.00  0.00    -0.203 F 
ATOM     79  C   UNL A   1      48.619  28.575  27.634  1.00  0.00     0.198 A 
ATOM     80  C   UNL A   1      48.646  27.847  29.919  1.00  0.00     0.198 A 
ATOM     81  F   UNL A   1      46.742  28.145  31.270  1.00  0.00    -0.203 F 
ATOM     82  F   UNL A   1      49.223  28.683  26.442  1.00  0.00    -0.200 F 
ATOM     83  C   UNL A   1      49.284  27.981  28.696  1.00  0.00     0.200 A 
ATOM     84  F   UNL A   1      49.291  27.289  30.954  1.00  0.00    -0.200 F 
ATOM     85  F   UNL A   1      50.537  27.533  28.539  1.00  0.00    -0.200 F 
ENDBRANCH  51  75
BRANCH  63  86
ATOM     86  C   UNL A   1      43.975  34.921  31.345  1.00  0.00     0.064 A 
ATOM     87  C   UNL A   1      44.454  35.929  30.495  1.00  0.00     0.173 A 
ATOM     88  C   UNL A   1      44.063  35.134  32.729  1.00  0.00     0.173 A 
ATOM     89  F   UNL A   1      44.409  35.767  29.164  1.00  0.00    -0.203 F 
ATOM     90  C   UNL A   1      45.021  37.091  31.011  1.00  0.00     0.198 A 
ATOM     91  C   UNL A   1      44.599  36.313  33.241  1.00  0.00     0.198 A 
ATOM     92  F   UNL A   1      43.613  34.206  33.588  1.00  0.00    -0.203 F 
ATOM     93  F   UNL A   1      45.517  38.018  30.179  1.00  0.00    -0.200 F 
ATOM     94  C   UNL A   1      45.084  37.287  32.382  1.00  0.00     0.200 A 
ATOM     95  F   UNL A   1      44.644  36.506  34.566  1.00  0.00    -0.200 F 
ATOM     96  F   UNL A   1      45.620  38.411  32.876  1.00  0.00    -0.200 F 
ENDBRANCH  63  86
ENDBRANCH  37  38
ENDBRANCH  29  32
ENDBRANCH  27  28
ENDBRANCH  26  27
ENDBRANCH  25  26
ENDBRANCH  24  25
ENDBRANCH  23  24
ENDBRANCH   1  23
TORSDOF 19
ENDMDL
