MODEL 1
REMARK VINA RESULT:     -11.2      0.000      0.000
REMARK SMILES O=C(C[N@@H+](Cc1nc(-c2ccco2)no1)CC(F)(F)F)NCCCCCCNC(=O)c1ccc(-c2c3nc(c(-c4c(F)c(F)c(F)c(F)c4F)c4ccc([nH]4)c(-c4c(F)c(F)c(F)c(F)c4F)c4nc(c(-c5c(F)c(F)c(F)c(F)c5F)c5ccc2[nH]5)C=C4)C=C3)cc1
REMARK SMILES IDX 23 1 22 2 21 3 1 4 2 5 3 7 4 8 5 10 6 11 7 12 15 13 8 14
REMARK SMILES IDX 14 15 9 16 10 17 13 18 11 19 12 20 16 21 17 22 18 23 19 24
REMARK SMILES IDX 20 25 24 26 25 27 26 28 27 29 28 30 29 31 30 33 31 34 32 35
REMARK SMILES IDX 93 36 33 37 92 38 34 39 35 40 36 41 86 42 37 43 91 44 85 45
REMARK SMILES IDX 87 46 38 47 90 48 84 49 83 50 39 52 71 53 51 54 70 55 52 56
REMARK SMILES IDX 55 57 69 58 88 59 53 60 54 61 68 63 89 64 56 65 40 66 41 67
REMARK SMILES IDX 49 68 42 69 43 70 47 71 50 72 44 73 45 74 48 75 46 76 72 77
REMARK SMILES IDX 73 78 81 79 74 80 75 81 79 82 82 83 76 84 77 85 80 86 78 87
REMARK SMILES IDX 57 88 58 89 66 90 59 91 60 92 64 93 67 94 61 95 62 96 65 97
REMARK SMILES IDX 63 98
REMARK H PARENT 21 6 4 9 28 32 87 51 55 62
REMARK Flexibility Score: inf
ROOT
ATOM      1  C   UNL A   1      35.974  22.729  23.820  1.00  0.00     0.021 C 
ENDROOT
BRANCH   1   2
ATOM      2  C   UNL A   1      35.810  24.012  24.631  1.00  0.00     0.116 C 
BRANCH   2   3
ATOM      3  N   UNL A   1      34.491  24.102  25.218  1.00  0.00    -0.351 N 
ATOM      4  O   UNL A   1      35.029  22.961  27.131  1.00  0.00    -0.269 OA
ATOM      5  C   UNL A   1      34.198  23.542  26.440  1.00  0.00     0.275 C 
ATOM      6  H   UNL A   1      33.782  24.578  24.729  1.00  0.00     0.163 HD
BRANCH   5   7
ATOM      7  C   UNL A   1      32.734  23.665  26.865  1.00  0.00     0.364 C 
BRANCH   7   8
ATOM      8  N   UNL A   1      31.824  23.993  25.739  1.00  0.00    -0.312 N 
ATOM      9  H   UNL A   1      32.423  24.247  24.954  1.00  0.00     0.349 HD
BRANCH   8  10
ATOM     10  C   UNL A   1      31.024  22.807  25.323  1.00  0.00     0.364 C 
BRANCH  10  11
ATOM     11  C   UNL A   1      31.762  21.588  24.868  1.00  0.00     0.282 A 
ATOM     12  N   UNL A   1      31.783  20.379  25.379  1.00  0.00    -0.183 NA
ATOM     13  O   UNL A   1      32.565  21.720  23.772  1.00  0.00    -0.333 OA
ATOM     14  C   UNL A   1      32.635  19.709  24.532  1.00  0.00     0.238 A 
ATOM     15  N   UNL A   1      33.151  20.470  23.557  1.00  0.00    -0.053 NA
BRANCH  14  16
ATOM     16  C   UNL A   1      32.966  18.269  24.726  1.00  0.00     0.174 A 
ATOM     17  C   UNL A   1      33.780  17.518  23.894  1.00  0.00     0.054 A 
ATOM     18  O   UNL A   1      32.506  17.475  25.740  1.00  0.00    -0.461 OA
ATOM     19  C   UNL A   1      33.801  16.203  24.417  1.00  0.00     0.043 A 
ATOM     20  C   UNL A   1      33.006  16.228  25.537  1.00  0.00     0.196 A 
ENDBRANCH  14  16
ENDBRANCH  10  11
ENDBRANCH   8  10
BRANCH   8  21
ATOM     21  C   UNL A   1      30.982  25.202  25.979  1.00  0.00     0.380 C 
BRANCH  21  22
ATOM     22  C   UNL A   1      31.540  26.641  25.951  1.00  0.00     0.438 C 
ATOM     23  F   UNL A   1      30.693  27.516  25.379  1.00  0.00    -0.165 F 
ATOM     24  F   UNL A   1      31.780  27.067  27.213  1.00  0.00    -0.165 F 
ATOM     25  F   UNL A   1      32.715  26.688  25.285  1.00  0.00    -0.165 F 
ENDBRANCH  21  22
ENDBRANCH   8  21
ENDBRANCH   7   8
ENDBRANCH   5   7
ENDBRANCH   2   3
ENDBRANCH   1   2
BRANCH   1  26
ATOM     26  C   UNL A   1      37.182  21.881  24.230  1.00  0.00     0.002 C 
BRANCH  26  27
ATOM     27  C   UNL A   1      36.841  20.561  24.931  1.00  0.00     0.002 C 
BRANCH  27  28
ATOM     28  C   UNL A   1      37.990  19.555  25.015  1.00  0.00     0.021 C 
BRANCH  28  29
ATOM     29  C   UNL A   1      39.231  20.065  25.739  1.00  0.00     0.116 C 
BRANCH  29  30
ATOM     30  N   UNL A   1      40.237  19.029  25.909  1.00  0.00    -0.352 N 
ATOM     31  C   UNL A   1      41.588  19.150  26.125  1.00  0.00     0.251 C 
ATOM     32  H   UNL A   1      39.901  18.105  25.861  1.00  0.00     0.163 HD
ATOM     33  O   UNL A   1      42.314  18.165  26.062  1.00  0.00    -0.269 OA
BRANCH  31  34
ATOM     34  C   UNL A   1      42.173  20.480  26.409  1.00  0.00     0.039 A 
ATOM     35  C   UNL A   1      42.625  21.260  25.342  1.00  0.00     0.014 A 
ATOM     36  C   UNL A   1      42.277  20.955  27.718  1.00  0.00     0.014 A 
ATOM     37  C   UNL A   1      43.124  22.541  25.583  1.00  0.00     0.010 A 
ATOM     38  C   UNL A   1      42.701  22.261  27.950  1.00  0.00     0.010 A 
ATOM     39  C   UNL A   1      43.130  23.067  26.886  1.00  0.00    -0.014 A 
BRANCH  39  40
ATOM     40  C   UNL A   1      43.577  24.460  27.150  1.00  0.00     0.031 A 
ATOM     41  C   UNL A   1      42.603  25.483  27.666  1.00  0.00     0.074 A 
ATOM     42  C   UNL A   1      44.843  24.818  26.865  1.00  0.00     0.049 A 
ATOM     43  N   UNL A   1      42.787  26.759  27.898  1.00  0.00    -0.248 NA
ATOM     44  C   UNL A   1      41.233  25.019  27.934  1.00  0.00     0.031 C 
ATOM     45  C   UNL A   1      45.870  23.930  26.316  1.00  0.00     0.029 A 
ATOM     46  N   UNL A   1      45.483  26.027  26.985  1.00  0.00    -0.354 N 
ATOM     47  C   UNL A   1      41.559  27.248  28.322  1.00  0.00     0.074 A 
ATOM     48  C   UNL A   1      40.623  26.146  28.265  1.00  0.00     0.031 C 
ATOM     49  C   UNL A   1      47.014  24.617  26.170  1.00  0.00     0.029 A 
ATOM     50  C   UNL A   1      46.792  26.003  26.571  1.00  0.00     0.049 A 
ATOM     51  H   UNL A   1      45.044  26.836  27.336  1.00  0.00     0.167 HD
ATOM     52  C   UNL A   1      41.245  28.497  28.742  1.00  0.00     0.037 A 
ATOM     53  C   UNL A   1      47.708  26.989  26.509  1.00  0.00     0.037 A 
ATOM     54  C   UNL A   1      42.186  29.585  28.816  1.00  0.00     0.049 A 
ATOM     55  C   UNL A   1      47.327  28.372  26.966  1.00  0.00     0.074 A 
ATOM     56  C   UNL A   1      41.982  30.869  29.291  1.00  0.00     0.029 A 
ATOM     57  N   UNL A   1      43.507  29.519  28.398  1.00  0.00    -0.354 N 
ATOM     58  N   UNL A   1      46.183  28.803  27.440  1.00  0.00    -0.248 NA
ATOM     59  C   UNL A   1      48.368  29.407  26.883  1.00  0.00     0.031 C 
ATOM     60  C   UNL A   1      43.160  31.598  29.102  1.00  0.00     0.029 A 
ATOM     61  C   UNL A   1      44.120  30.750  28.574  1.00  0.00     0.049 A 
ATOM     62  H   UNL A   1      43.943  28.717  28.030  1.00  0.00     0.167 HD
ATOM     63  C   UNL A   1      46.377  30.145  27.744  1.00  0.00     0.074 A 
ATOM     64  C   UNL A   1      47.752  30.453  27.415  1.00  0.00     0.031 C 
ATOM     65  C   UNL A   1      45.494  31.041  28.251  1.00  0.00     0.037 A 
BRANCH  52  66
ATOM     66  C   UNL A   1      39.824  28.762  29.150  1.00  0.00     0.064 A 
ATOM     67  C   UNL A   1      38.860  29.207  28.231  1.00  0.00     0.173 A 
ATOM     68  C   UNL A   1      39.408  28.524  30.469  1.00  0.00     0.173 A 
ATOM     69  F   UNL A   1      39.206  29.460  26.960  1.00  0.00    -0.203 F 
ATOM     70  C   UNL A   1      37.544  29.432  28.624  1.00  0.00     0.198 A 
ATOM     71  C   UNL A   1      38.081  28.717  30.850  1.00  0.00     0.198 A 
ATOM     72  F   UNL A   1      40.283  28.090  31.388  1.00  0.00    -0.203 F 
ATOM     73  F   UNL A   1      36.654  29.905  27.740  1.00  0.00    -0.200 F 
ATOM     74  C   UNL A   1      37.153  29.178  29.930  1.00  0.00     0.200 A 
ATOM     75  F   UNL A   1      37.703  28.455  32.108  1.00  0.00    -0.200 F 
ATOM     76  F   UNL A   1      35.883  29.385  30.304  1.00  0.00    -0.200 F 
ENDBRANCH  52  66
BRANCH  53  77
ATOM     77  C   UNL A   1      49.079  26.705  26.008  1.00  0.00     0.064 A 
ATOM     78  C   UNL A   1      50.067  26.191  26.860  1.00  0.00     0.173 A 
ATOM     79  C   UNL A   1      49.436  26.959  24.676  1.00  0.00     0.173 A 
ATOM     80  F   UNL A   1      49.782  25.951  28.148  1.00  0.00    -0.203 F 
ATOM     81  C   UNL A   1      51.366  25.969  26.407  1.00  0.00     0.198 A 
ATOM     82  C   UNL A   1      50.727  26.704  24.214  1.00  0.00     0.198 A 
ATOM     83  F   UNL A   1      48.529  27.445  23.817  1.00  0.00    -0.203 F 
ATOM     84  F   UNL A   1      52.304  25.531  27.257  1.00  0.00    -0.200 F 
ATOM     85  C   UNL A   1      51.693  26.220  25.083  1.00  0.00     0.200 A 
ATOM     86  F   UNL A   1      51.035  26.933  22.930  1.00  0.00    -0.200 F 
ATOM     87  F   UNL A   1      52.942  26.006  24.647  1.00  0.00    -0.200 F 
ENDBRANCH  53  77
BRANCH  65  88
ATOM     88  C   UNL A   1      45.998  32.430  28.521  1.00  0.00     0.064 A 
ATOM     89  C   UNL A   1      46.636  32.766  29.723  1.00  0.00     0.173 A 
ATOM     90  C   UNL A   1      45.872  33.430  27.543  1.00  0.00     0.173 A 
ATOM     91  F   UNL A   1      46.768  31.853  30.696  1.00  0.00    -0.203 F 
ATOM     92  C   UNL A   1      47.103  34.060  29.949  1.00  0.00     0.198 A 
ATOM     93  C   UNL A   1      46.372  34.711  27.758  1.00  0.00     0.198 A 
ATOM     94  F   UNL A   1      45.276  33.161  26.371  1.00  0.00    -0.203 F 
ATOM     95  F   UNL A   1      47.660  34.372  31.127  1.00  0.00    -0.200 F 
ATOM     96  C   UNL A   1      46.978  35.028  28.964  1.00  0.00     0.200 A 
ATOM     97  F   UNL A   1      46.266  35.640  26.797  1.00  0.00    -0.200 F 
ATOM     98  F   UNL A   1      47.437  36.269  29.179  1.00  0.00    -0.200 F 
ENDBRANCH  65  88
ENDBRANCH  39  40
ENDBRANCH  31  34
ENDBRANCH  29  30
ENDBRANCH  28  29
ENDBRANCH  27  28
ENDBRANCH  26  27
ENDBRANCH   1  26
TORSDOF 19
ENDMDL
MODEL 2
REMARK VINA RESULT:     -11.1      0.745      7.194
REMARK SMILES O=C(C[N@@H+](Cc1nc(-c2ccco2)no1)CC(F)(F)F)NCCCCCCNC(=O)c1ccc(-c2c3nc(c(-c4c(F)c(F)c(F)c(F)c4F)c4ccc([nH]4)c(-c4c(F)c(F)c(F)c(F)c4F)c4nc(c(-c5c(F)c(F)c(F)c(F)c5F)c5ccc2[nH]5)C=C4)C=C3)cc1
REMARK SMILES IDX 23 1 22 2 21 3 1 4 2 5 3 7 4 8 5 10 6 11 7 12 15 13 8 14
REMARK SMILES IDX 14 15 9 16 10 17 13 18 11 19 12 20 16 21 17 22 18 23 19 24
REMARK SMILES IDX 20 25 24 26 25 27 26 28 27 29 28 30 29 31 30 33 31 34 32 35
REMARK SMILES IDX 93 36 33 37 92 38 34 39 35 40 36 41 86 42 37 43 91 44 85 45
REMARK SMILES IDX 87 46 38 47 90 48 84 49 83 50 39 52 71 53 51 54 70 55 52 56
REMARK SMILES IDX 55 57 69 58 88 59 53 60 54 61 68 63 89 64 56 65 40 66 41 67
REMARK SMILES IDX 49 68 42 69 43 70 47 71 50 72 44 73 45 74 48 75 46 76 72 77
REMARK SMILES IDX 73 78 81 79 74 80 75 81 79 82 82 83 76 84 77 85 80 86 78 87
REMARK SMILES IDX 57 88 58 89 66 90 59 91 60 92 64 93 67 94 61 95 62 96 65 97
REMARK SMILES IDX 63 98
REMARK H PARENT 21 6 4 9 28 32 87 51 55 62
REMARK Flexibility Score: inf
ROOT
ATOM      1  C   UNL A   1      36.655  22.306  24.528  1.00  0.00     0.021 C 
ENDROOT
BRANCH   1   2
ATOM      2  C   UNL A   1      36.585  23.352  25.638  1.00  0.00     0.116 C 
BRANCH   2   3
ATOM      3  N   UNL A   1      35.375  24.138  25.549  1.00  0.00    -0.351 N 
ATOM      4  O   UNL A   1      34.289  23.056  27.252  1.00  0.00    -0.269 OA
ATOM      5  C   UNL A   1      34.296  23.910  26.370  1.00  0.00     0.275 C 
ATOM      6  H   UNL A   1      35.321  24.858  24.880  1.00  0.00     0.163 HD
BRANCH   5   7
ATOM      7  C   UNL A   1      33.074  24.782  26.079  1.00  0.00     0.364 C 
BRANCH   7   8
ATOM      8  N   UNL A   1      32.298  24.325  24.898  1.00  0.00    -0.312 N 
ATOM      9  H   UNL A   1      32.983  24.018  24.209  1.00  0.00     0.349 HD
BRANCH   8  10
ATOM     10  C   UNL A   1      31.444  23.151  25.231  1.00  0.00     0.364 C 
BRANCH  10  11
ATOM     11  C   UNL A   1      31.814  21.826  24.642  1.00  0.00     0.282 A 
ATOM     12  N   UNL A   1      32.119  20.696  25.239  1.00  0.00    -0.183 NA
ATOM     13  O   UNL A   1      31.879  21.746  23.281  1.00  0.00    -0.333 OA
ATOM     14  C   UNL A   1      32.365  19.854  24.180  1.00  0.00     0.238 A 
ATOM     15  N   UNL A   1      32.255  20.435  22.977  1.00  0.00    -0.053 NA
BRANCH  14  16
ATOM     16  C   UNL A   1      32.754  18.429  24.381  1.00  0.00     0.174 A 
ATOM     17  C   UNL A   1      33.807  17.792  23.747  1.00  0.00     0.054 A 
ATOM     18  O   UNL A   1      32.123  17.540  25.207  1.00  0.00    -0.461 OA
ATOM     19  C   UNL A   1      33.804  16.449  24.194  1.00  0.00     0.043 A 
ATOM     20  C   UNL A   1      32.757  16.346  25.078  1.00  0.00     0.196 A 
ENDBRANCH  14  16
ENDBRANCH  10  11
ENDBRANCH   8  10
BRANCH   8  21
ATOM     21  C   UNL A   1      31.539  25.416  24.219  1.00  0.00     0.380 C 
BRANCH  21  22
ATOM     22  C   UNL A   1      30.702  26.466  24.981  1.00  0.00     0.438 C 
ATOM     23  F   UNL A   1      29.692  26.961  24.242  1.00  0.00    -0.165 F 
ATOM     24  F   UNL A   1      30.164  25.909  26.092  1.00  0.00    -0.165 F 
ATOM     25  F   UNL A   1      31.477  27.496  25.388  1.00  0.00    -0.165 F 
ENDBRANCH  21  22
ENDBRANCH   8  21
ENDBRANCH   7   8
ENDBRANCH   5   7
ENDBRANCH   2   3
ENDBRANCH   1   2
BRANCH   1  26
ATOM     26  C   UNL A   1      35.925  20.998  24.855  1.00  0.00     0.002 C 
BRANCH  26  27
ATOM     27  C   UNL A   1      36.823  19.760  24.948  1.00  0.00     0.002 C 
BRANCH  27  28
ATOM     28  C   UNL A   1      38.316  20.024  24.744  1.00  0.00     0.021 C 
BRANCH  28  29
ATOM     29  C   UNL A   1      39.136  20.068  26.029  1.00  0.00     0.116 C 
BRANCH  29  30
ATOM     30  N   UNL A   1      40.236  19.118  26.016  1.00  0.00    -0.352 N 
ATOM     31  C   UNL A   1      41.589  19.346  26.083  1.00  0.00     0.251 C 
ATOM     32  H   UNL A   1      39.974  18.171  25.947  1.00  0.00     0.163 HD
ATOM     33  O   UNL A   1      42.380  18.434  25.874  1.00  0.00    -0.269 OA
BRANCH  31  34
ATOM     34  C   UNL A   1      42.093  20.704  26.383  1.00  0.00     0.039 A 
ATOM     35  C   UNL A   1      42.412  21.555  25.322  1.00  0.00     0.014 A 
ATOM     36  C   UNL A   1      42.252  21.137  27.702  1.00  0.00     0.014 A 
ATOM     37  C   UNL A   1      42.831  22.861  25.584  1.00  0.00     0.010 A 
ATOM     38  C   UNL A   1      42.594  22.462  27.960  1.00  0.00     0.010 A 
ATOM     39  C   UNL A   1      42.889  23.337  26.905  1.00  0.00    -0.014 A 
BRANCH  39  40
ATOM     40  C   UNL A   1      43.250  24.750  27.197  1.00  0.00     0.031 A 
ATOM     41  C   UNL A   1      44.650  25.241  26.951  1.00  0.00     0.074 A 
ATOM     42  C   UNL A   1      42.333  25.571  27.743  1.00  0.00     0.049 A 
ATOM     43  N   UNL A   1      45.171  26.416  27.200  1.00  0.00    -0.248 NA
ATOM     44  C   UNL A   1      45.598  24.277  26.371  1.00  0.00     0.031 C 
ATOM     45  C   UNL A   1      40.956  25.201  28.073  1.00  0.00     0.029 A 
ATOM     46  N   UNL A   1      42.423  26.886  28.129  1.00  0.00    -0.354 N 
ATOM     47  C   UNL A   1      46.505  26.327  26.823  1.00  0.00     0.074 A 
ATOM     48  C   UNL A   1      46.727  24.968  26.379  1.00  0.00     0.031 C 
ATOM     49  C   UNL A   1      40.324  26.268  28.589  1.00  0.00     0.029 A 
ATOM     50  C   UNL A   1      41.262  27.384  28.668  1.00  0.00     0.049 A 
ATOM     51  H   UNL A   1      43.243  27.422  28.029  1.00  0.00     0.167 HD
ATOM     52  C   UNL A   1      47.451  27.296  26.827  1.00  0.00     0.037 A 
ATOM     53  C   UNL A   1      40.986  28.598  29.181  1.00  0.00     0.037 A 
ATOM     54  C   UNL A   1      47.217  28.652  27.251  1.00  0.00     0.049 A 
ATOM     55  C   UNL A   1      42.063  29.652  29.188  1.00  0.00     0.074 A 
ATOM     56  C   UNL A   1      48.093  29.724  27.229  1.00  0.00     0.029 A 
ATOM     57  N   UNL A   1      46.025  29.122  27.780  1.00  0.00    -0.354 N 
ATOM     58  N   UNL A   1      43.298  29.578  28.755  1.00  0.00    -0.248 NA
ATOM     59  C   UNL A   1      41.704  30.960  29.753  1.00  0.00     0.031 C 
ATOM     60  C   UNL A   1      47.451  30.825  27.803  1.00  0.00     0.029 A 
ATOM     61  C   UNL A   1      46.152  30.460  28.120  1.00  0.00     0.049 A 
ATOM     62  H   UNL A   1      45.209  28.584  27.899  1.00  0.00     0.167 HD
ATOM     63  C   UNL A   1      43.851  30.835  28.961  1.00  0.00     0.074 A 
ATOM     64  C   UNL A   1      42.812  31.657  29.544  1.00  0.00     0.031 C 
ATOM     65  C   UNL A   1      45.107  31.270  28.691  1.00  0.00     0.037 A 
BRANCH  52  66
ATOM     66  C   UNL A   1      48.831  26.927  26.363  1.00  0.00     0.064 A 
ATOM     67  C   UNL A   1      49.792  26.403  27.241  1.00  0.00     0.173 A 
ATOM     68  C   UNL A   1      49.184  27.057  25.010  1.00  0.00     0.173 A 
ATOM     69  F   UNL A   1      49.511  26.267  28.546  1.00  0.00    -0.203 F 
ATOM     70  C   UNL A   1      51.062  26.052  26.790  1.00  0.00     0.198 A 
ATOM     71  C   UNL A   1      50.444  26.672  24.557  1.00  0.00     0.198 A 
ATOM     72  F   UNL A   1      48.304  27.545  24.124  1.00  0.00    -0.203 F 
ATOM     73  F   UNL A   1      51.979  25.602  27.658  1.00  0.00    -0.200 F 
ATOM     74  C   UNL A   1      51.384  26.178  25.448  1.00  0.00     0.200 A 
ATOM     75  F   UNL A   1      50.747  26.779  23.256  1.00  0.00    -0.200 F 
ATOM     76  F   UNL A   1      52.603  25.830  25.013  1.00  0.00    -0.200 F 
ENDBRANCH  52  66
BRANCH  53  77
ATOM     77  C   UNL A   1      39.632  28.893  29.719  1.00  0.00     0.064 A 
ATOM     78  C   UNL A   1      39.299  28.583  31.046  1.00  0.00     0.173 A 
ATOM     79  C   UNL A   1      38.638  29.472  28.917  1.00  0.00     0.173 A 
ATOM     80  F   UNL A   1      40.207  28.009  31.848  1.00  0.00    -0.203 F 
ATOM     81  C   UNL A   1      38.016  28.814  31.540  1.00  0.00     0.198 A 
ATOM     82  C   UNL A   1      37.365  29.734  29.422  1.00  0.00     0.198 A 
ATOM     83  F   UNL A   1      38.904  29.794  27.643  1.00  0.00    -0.203 F 
ATOM     84  F   UNL A   1      37.710  28.455  32.793  1.00  0.00    -0.200 F 
ATOM     85  C   UNL A   1      37.053  29.395  30.729  1.00  0.00     0.200 A 
ATOM     86  F   UNL A   1      36.442  30.311  28.641  1.00  0.00    -0.200 F 
ATOM     87  F   UNL A   1      35.820  29.617  31.205  1.00  0.00    -0.200 F 
ENDBRANCH  53  77
BRANCH  65  88
ATOM     88  C   UNL A   1      45.417  32.710  28.984  1.00  0.00     0.064 A 
ATOM     89  C   UNL A   1      45.960  33.117  30.211  1.00  0.00     0.173 A 
ATOM     90  C   UNL A   1      45.203  33.693  28.004  1.00  0.00     0.173 A 
ATOM     91  F   UNL A   1      46.171  32.221  31.187  1.00  0.00    -0.203 F 
ATOM     92  C   UNL A   1      46.249  34.458  30.457  1.00  0.00     0.198 A 
ATOM     93  C   UNL A   1      45.526  35.025  28.241  1.00  0.00     0.198 A 
ATOM     94  F   UNL A   1      44.693  33.358  26.809  1.00  0.00    -0.203 F 
ATOM     95  F   UNL A   1      46.715  34.830  31.658  1.00  0.00    -0.200 F 
ATOM     96  C   UNL A   1      46.039  35.408  29.470  1.00  0.00     0.200 A 
ATOM     97  F   UNL A   1      45.340  35.940  27.278  1.00  0.00    -0.200 F 
ATOM     98  F   UNL A   1      46.327  36.696  29.706  1.00  0.00    -0.200 F 
ENDBRANCH  65  88
ENDBRANCH  39  40
ENDBRANCH  31  34
ENDBRANCH  29  30
ENDBRANCH  28  29
ENDBRANCH  27  28
ENDBRANCH  26  27
ENDBRANCH   1  26
TORSDOF 19
ENDMDL
MODEL 3
REMARK VINA RESULT:     -11.1      1.049      7.243
REMARK SMILES O=C(C[N@@H+](Cc1nc(-c2ccco2)no1)CC(F)(F)F)NCCCCCCNC(=O)c1ccc(-c2c3nc(c(-c4c(F)c(F)c(F)c(F)c4F)c4ccc([nH]4)c(-c4c(F)c(F)c(F)c(F)c4F)c4nc(c(-c5c(F)c(F)c(F)c(F)c5F)c5ccc2[nH]5)C=C4)C=C3)cc1
REMARK SMILES IDX 23 1 22 2 21 3 1 4 2 5 3 7 4 8 5 10 6 11 7 12 15 13 8 14
REMARK SMILES IDX 14 15 9 16 10 17 13 18 11 19 12 20 16 21 17 22 18 23 19 24
REMARK SMILES IDX 20 25 24 26 25 27 26 28 27 29 28 30 29 31 30 33 31 34 32 35
REMARK SMILES IDX 93 36 33 37 92 38 34 39 35 40 36 41 86 42 37 43 91 44 85 45
REMARK SMILES IDX 87 46 38 47 90 48 84 49 83 50 39 52 71 53 51 54 70 55 52 56
REMARK SMILES IDX 55 57 69 58 88 59 53 60 54 61 68 63 89 64 56 65 40 66 41 67
REMARK SMILES IDX 49 68 42 69 43 70 47 71 50 72 44 73 45 74 48 75 46 76 72 77
REMARK SMILES IDX 73 78 81 79 74 80 75 81 79 82 82 83 76 84 77 85 80 86 78 87
REMARK SMILES IDX 57 88 58 89 66 90 59 91 60 92 64 93 67 94 61 95 62 96 65 97
REMARK SMILES IDX 63 98
REMARK H PARENT 21 6 4 9 28 32 87 51 55 62
REMARK Flexibility Score: inf
ROOT
ATOM      1  C   UNL A   1      36.590  22.012  24.494  1.00  0.00     0.021 C 
ENDROOT
BRANCH   1   2
ATOM      2  C   UNL A   1      36.571  23.148  25.514  1.00  0.00     0.116 C 
BRANCH   2   3
ATOM      3  N   UNL A   1      35.390  23.969  25.369  1.00  0.00    -0.351 N 
ATOM      4  O   UNL A   1      34.260  23.034  27.129  1.00  0.00    -0.269 OA
ATOM      5  C   UNL A   1      34.300  23.831  26.197  1.00  0.00     0.275 C 
ATOM      6  H   UNL A   1      35.365  24.647  24.657  1.00  0.00     0.163 HD
BRANCH   5   7
ATOM      7  C   UNL A   1      33.112  24.726  25.845  1.00  0.00     0.364 C 
BRANCH   7   8
ATOM      8  N   UNL A   1      32.578  24.479  24.481  1.00  0.00    -0.312 N 
ATOM      9  H   UNL A   1      33.346  24.081  23.943  1.00  0.00     0.349 HD
BRANCH   8  10
ATOM     10  C   UNL A   1      31.480  23.473  24.502  1.00  0.00     0.364 C 
BRANCH  10  11
ATOM     11  C   UNL A   1      31.812  22.065  24.117  1.00  0.00     0.282 A 
ATOM     12  N   UNL A   1      32.136  21.042  24.874  1.00  0.00    -0.183 NA
ATOM     13  O   UNL A   1      31.813  21.767  22.785  1.00  0.00    -0.333 OA
ATOM     14  C   UNL A   1      32.326  20.036  23.955  1.00  0.00     0.238 A 
ATOM     15  N   UNL A   1      32.164  20.419  22.680  1.00  0.00    -0.053 NA
BRANCH  14  16
ATOM     16  C   UNL A   1      32.714  18.657  24.365  1.00  0.00     0.174 A 
ATOM     17  C   UNL A   1      33.312  17.718  23.541  1.00  0.00     0.054 A 
ATOM     18  O   UNL A   1      32.525  18.112  25.605  1.00  0.00    -0.461 OA
ATOM     19  C   UNL A   1      33.477  16.542  24.311  1.00  0.00     0.043 A 
ATOM     20  C   UNL A   1      32.978  16.832  25.558  1.00  0.00     0.196 A 
ENDBRANCH  14  16
ENDBRANCH  10  11
ENDBRANCH   8  10
BRANCH   8  21
ATOM     21  C   UNL A   1      32.205  25.724  23.747  1.00  0.00     0.380 C 
BRANCH  21  22
ATOM     22  C   UNL A   1      32.466  25.928  22.239  1.00  0.00     0.438 C 
ATOM     23  F   UNL A   1      31.515  26.671  21.644  1.00  0.00    -0.165 F 
ATOM     24  F   UNL A   1      33.652  26.554  22.057  1.00  0.00    -0.165 F 
ATOM     25  F   UNL A   1      32.540  24.740  21.600  1.00  0.00    -0.165 F 
ENDBRANCH  21  22
ENDBRANCH   8  21
ENDBRANCH   7   8
ENDBRANCH   5   7
ENDBRANCH   2   3
ENDBRANCH   1   2
BRANCH   1  26
ATOM     26  C   UNL A   1      35.966  20.707  25.000  1.00  0.00     0.002 C 
BRANCH  26  27
ATOM     27  C   UNL A   1      36.906  19.497  25.005  1.00  0.00     0.002 C 
BRANCH  27  28
ATOM     28  C   UNL A   1      38.383  19.822  24.775  1.00  0.00     0.021 C 
BRANCH  28  29
ATOM     29  C   UNL A   1      39.226  19.888  26.043  1.00  0.00     0.116 C 
BRANCH  29  30
ATOM     30  N   UNL A   1      40.334  18.946  26.020  1.00  0.00    -0.352 N 
ATOM     31  C   UNL A   1      41.686  19.187  26.053  1.00  0.00     0.251 C 
ATOM     32  H   UNL A   1      40.078  17.997  25.973  1.00  0.00     0.163 HD
ATOM     33  O   UNL A   1      42.480  18.278  25.842  1.00  0.00    -0.269 OA
BRANCH  31  34
ATOM     34  C   UNL A   1      42.185  20.554  26.320  1.00  0.00     0.039 A 
ATOM     35  C   UNL A   1      42.515  21.375  25.239  1.00  0.00     0.014 A 
ATOM     36  C   UNL A   1      42.328  21.025  27.627  1.00  0.00     0.014 A 
ATOM     37  C   UNL A   1      42.930  22.688  25.468  1.00  0.00     0.010 A 
ATOM     38  C   UNL A   1      42.666  22.357  27.851  1.00  0.00     0.010 A 
ATOM     39  C   UNL A   1      42.972  23.202  26.774  1.00  0.00    -0.014 A 
BRANCH  39  40
ATOM     40  C   UNL A   1      43.327  24.623  27.030  1.00  0.00     0.031 A 
ATOM     41  C   UNL A   1      44.724  25.114  26.764  1.00  0.00     0.074 A 
ATOM     42  C   UNL A   1      42.410  25.454  27.560  1.00  0.00     0.049 A 
ATOM     43  N   UNL A   1      45.241  26.297  26.982  1.00  0.00    -0.248 NA
ATOM     44  C   UNL A   1      45.674  24.141  26.204  1.00  0.00     0.031 C 
ATOM     45  C   UNL A   1      41.036  25.086  27.906  1.00  0.00     0.029 A 
ATOM     46  N   UNL A   1      42.496  26.778  27.913  1.00  0.00    -0.354 N 
ATOM     47  C   UNL A   1      46.573  26.205  26.600  1.00  0.00     0.074 A 
ATOM     48  C   UNL A   1      46.800  24.836  26.189  1.00  0.00     0.031 C 
ATOM     49  C   UNL A   1      40.402  26.162  28.399  1.00  0.00     0.029 A 
ATOM     50  C   UNL A   1      41.335  27.284  28.446  1.00  0.00     0.049 A 
ATOM     51  H   UNL A   1      43.313  27.315  27.796  1.00  0.00     0.167 HD
ATOM     52  C   UNL A   1      47.515  27.178  26.575  1.00  0.00     0.037 A 
ATOM     53  C   UNL A   1      41.056  28.509  28.930  1.00  0.00     0.037 A 
ATOM     54  C   UNL A   1      47.278  28.543  26.967  1.00  0.00     0.049 A 
ATOM     55  C   UNL A   1      42.128  29.567  28.906  1.00  0.00     0.074 A 
ATOM     56  C   UNL A   1      48.148  29.618  26.915  1.00  0.00     0.029 A 
ATOM     57  N   UNL A   1      46.085  29.020  27.491  1.00  0.00    -0.354 N 
ATOM     58  N   UNL A   1      43.361  29.489  28.468  1.00  0.00    -0.248 NA
ATOM     59  C   UNL A   1      41.766  30.888  29.439  1.00  0.00     0.031 C 
ATOM     60  C   UNL A   1      47.504  30.730  27.465  1.00  0.00     0.029 A 
ATOM     61  C   UNL A   1      46.208  30.367  27.797  1.00  0.00     0.049 A 
ATOM     62  H   UNL A   1      45.272  28.482  27.627  1.00  0.00     0.167 HD
ATOM     63  C   UNL A   1      43.909  30.753  28.641  1.00  0.00     0.074 A 
ATOM     64  C   UNL A   1      42.870  31.584  29.208  1.00  0.00     0.031 C 
ATOM     65  C   UNL A   1      45.162  31.186  28.353  1.00  0.00     0.037 A 
BRANCH  52  66
ATOM     66  C   UNL A   1      48.895  26.804  26.114  1.00  0.00     0.064 A 
ATOM     67  C   UNL A   1      49.304  26.985  24.783  1.00  0.00     0.173 A 
ATOM     68  C   UNL A   1      49.836  26.298  27.024  1.00  0.00     0.173 A 
ATOM     69  F   UNL A   1      48.442  27.455  23.869  1.00  0.00    -0.203 F 
ATOM     70  C   UNL A   1      50.592  26.647  24.376  1.00  0.00     0.198 A 
ATOM     71  C   UNL A   1      51.134  25.995  26.621  1.00  0.00     0.198 A 
ATOM     72  F   UNL A   1      49.502  26.111  28.310  1.00  0.00    -0.203 F 
ATOM     73  F   UNL A   1      50.944  26.781  23.090  1.00  0.00    -0.200 F 
ATOM     74  C   UNL A   1      51.509  26.161  25.297  1.00  0.00     0.200 A 
ATOM     75  F   UNL A   1      52.023  25.540  27.515  1.00  0.00    -0.200 F 
ATOM     76  F   UNL A   1      52.752  25.846  24.906  1.00  0.00    -0.200 F 
ENDBRANCH  52  66
BRANCH  53  77
ATOM     77  C   UNL A   1      39.703  28.811  29.467  1.00  0.00     0.064 A 
ATOM     78  C   UNL A   1      39.387  28.557  30.809  1.00  0.00     0.173 A 
ATOM     79  C   UNL A   1      38.695  29.342  28.650  1.00  0.00     0.173 A 
ATOM     80  F   UNL A   1      40.309  28.031  31.627  1.00  0.00    -0.203 F 
ATOM     81  C   UNL A   1      38.105  28.794  31.305  1.00  0.00     0.198 A 
ATOM     82  C   UNL A   1      37.424  29.611  29.155  1.00  0.00     0.198 A 
ATOM     83  F   UNL A   1      38.945  29.610  27.360  1.00  0.00    -0.203 F 
ATOM     84  F   UNL A   1      37.815  28.488  32.577  1.00  0.00    -0.200 F 
ATOM     85  C   UNL A   1      37.127  29.326  30.479  1.00  0.00     0.200 A 
ATOM     86  F   UNL A   1      36.486  30.140  28.358  1.00  0.00    -0.200 F 
ATOM     87  F   UNL A   1      35.896  29.555  30.956  1.00  0.00    -0.200 F 
ENDBRANCH  53  77
BRANCH  65  88
ATOM     88  C   UNL A   1      45.468  32.635  28.609  1.00  0.00     0.064 A 
ATOM     89  C   UNL A   1      45.205  33.627  27.654  1.00  0.00     0.173 A 
ATOM     90  C   UNL A   1      45.997  33.038  29.845  1.00  0.00     0.173 A 
ATOM     91  F   UNL A   1      44.713  33.294  26.451  1.00  0.00    -0.203 F 
ATOM     92  C   UNL A   1      45.488  34.966  27.916  1.00  0.00     0.198 A 
ATOM     93  C   UNL A   1      46.245  34.380  30.116  1.00  0.00     0.198 A 
ATOM     94  F   UNL A   1      46.261  32.130  30.798  1.00  0.00    -0.203 F 
ATOM     95  F   UNL A   1      45.280  35.891  26.968  1.00  0.00    -0.200 F 
ATOM     96  C   UNL A   1      46.000  35.342  29.148  1.00  0.00     0.200 A 
ATOM     97  F   UNL A   1      46.724  34.743  31.315  1.00  0.00    -0.200 F 
ATOM     98  F   UNL A   1      46.263  36.632  29.402  1.00  0.00    -0.200 F 
ENDBRANCH  65  88
ENDBRANCH  39  40
ENDBRANCH  31  34
ENDBRANCH  29  30
ENDBRANCH  28  29
ENDBRANCH  27  28
ENDBRANCH  26  27
ENDBRANCH   1  26
TORSDOF 19
ENDMDL
