MODEL 1
REMARK VINA RESULT:     -11.6      0.000      0.000
REMARK SMILES CCn1nc(C)c2nc(SCC(=O)NCCCCCCNC(=O)c3ccc(-c4c5nc(c(-c6c(F)c(F)c(F)c(F)c6F)c6ccc([nH]6)c(-c6c(F)c(F)c(F)c(F)c6F)c6nc(c(-c7c(F)c(F)c(F)c(F)c7F)c7ccc4[nH]7)C=C6)C=C5)cc3)n(CC3CC3)c21
REMARK SMILES IDX 16 1 15 2 14 3 12 4 13 5 11 7 10 8 9 9 3 10 4 11 92 12 5 13
REMARK SMILES IDX 7 14 87 15 6 16 8 17 2 18 1 19 88 20 89 21 90 22 91 23 17 24
REMARK SMILES IDX 18 25 19 26 20 27 21 28 22 29 23 31 24 32 25 33 86 34 26 35
REMARK SMILES IDX 85 36 27 37 28 38 29 39 79 40 30 41 84 42 78 43 80 44 31 45
REMARK SMILES IDX 83 46 77 47 76 48 32 50 64 51 44 52 63 53 45 54 48 55 62 56
REMARK SMILES IDX 81 57 46 58 47 59 61 61 82 62 49 63 33 64 34 65 42 66 35 67
REMARK SMILES IDX 36 68 40 69 43 70 37 71 38 72 41 73 39 74 65 75 66 76 74 77
REMARK SMILES IDX 67 78 68 79 72 80 75 81 69 82 70 83 73 84 71 85 50 86 51 87
REMARK SMILES IDX 59 88 52 89 53 90 57 91 60 92 54 93 55 94 58 95 56 96
REMARK H PARENT 14 6 21 30 80 49 48 60
REMARK Flexibility Score: inf
ROOT
ATOM      1  C   UNL A   1      39.054  21.720  26.121  1.00  0.00     0.021 C 
ENDROOT
BRANCH   1   2
ATOM      2  C   UNL A   1      38.051  22.864  25.989  1.00  0.00     0.116 C 
BRANCH   2   3
ATOM      3  N   UNL A   1      37.721  23.097  24.601  1.00  0.00    -0.355 N 
ATOM      4  C   UNL A   1      36.541  22.928  23.955  1.00  0.00     0.230 C 
ATOM      5  O   UNL A   1      36.518  23.164  22.744  1.00  0.00    -0.274 OA
ATOM      6  H   UNL A   1      38.462  23.427  24.042  1.00  0.00     0.163 HD
BRANCH   4   7
ATOM      7  C   UNL A   1      35.278  22.591  24.713  1.00  0.00     0.178 C 
BRANCH   7   8
ATOM      8  S   UNL A   1      34.473  23.944  25.556  1.00  0.00    -0.078 SA
BRANCH   8   9
ATOM      9  C   UNL A   1      33.427  24.887  24.551  1.00  0.00     0.170 A 
ATOM     10  N   UNL A   1      30.990  26.933  22.921  1.00  0.00    -0.247 N 
ATOM     11  N   UNL A   1      31.149  26.734  21.573  1.00  0.00    -0.174 NA
ATOM     12  C   UNL A   1      31.852  26.163  23.650  1.00  0.00     0.159 A 
ATOM     13  C   UNL A   1      32.158  25.859  21.468  1.00  0.00     0.087 A 
ATOM     14  C   UNL A   1      32.622  25.539  22.732  1.00  0.00     0.132 A 
ATOM     15  N   UNL A   1      32.328  25.692  24.857  1.00  0.00    -0.304 N 
ATOM     16  C   UNL A   1      32.597  25.344  20.162  1.00  0.00     0.071 C 
ATOM     17  N   UNL A   1      33.586  24.768  23.242  1.00  0.00    -0.219 NA
BRANCH  10  18
ATOM     18  C   UNL A   1      29.987  27.928  23.237  1.00  0.00     0.143 C 
ATOM     19  C   UNL A   1      30.301  29.396  23.089  1.00  0.00     0.029 C 
ENDBRANCH  10  18
BRANCH  15  20
ATOM     20  C   UNL A   1      31.814  26.032  26.165  1.00  0.00     0.130 C 
BRANCH  20  21
ATOM     21  C   UNL A   1      32.307  27.286  26.823  1.00  0.00     0.009 C 
ATOM     22  C   UNL A   1      31.955  28.671  26.341  1.00  0.00     0.006 C 
ATOM     23  C   UNL A   1      31.485  28.214  27.691  1.00  0.00     0.006 C 
ENDBRANCH  20  21
ENDBRANCH  15  20
ENDBRANCH   8   9
ENDBRANCH   7   8
ENDBRANCH   4   7
ENDBRANCH   2   3
ENDBRANCH   1   2
BRANCH   1  24
ATOM     24  C   UNL A   1      40.440  22.161  26.605  1.00  0.00     0.002 C 
BRANCH  24  25
ATOM     25  C   UNL A   1      41.073  21.301  27.709  1.00  0.00     0.002 C 
BRANCH  25  26
ATOM     26  C   UNL A   1      41.944  20.122  27.253  1.00  0.00     0.021 C 
BRANCH  26  27
ATOM     27  C   UNL A   1      42.045  19.967  25.747  1.00  0.00     0.116 C 
BRANCH  27  28
ATOM     28  N   UNL A   1      43.419  19.718  25.306  1.00  0.00    -0.352 N 
ATOM     29  C   UNL A   1      44.382  20.634  24.943  1.00  0.00     0.251 C 
ATOM     30  H   UNL A   1      43.690  18.773  25.262  1.00  0.00     0.163 HD
ATOM     31  O   UNL A   1      45.341  20.306  24.245  1.00  0.00    -0.269 OA
BRANCH  29  32
ATOM     32  C   UNL A   1      44.252  22.019  25.416  1.00  0.00     0.039 A 
ATOM     33  C   UNL A   1      43.475  22.964  24.743  1.00  0.00     0.014 A 
ATOM     34  C   UNL A   1      44.903  22.347  26.598  1.00  0.00     0.014 A 
ATOM     35  C   UNL A   1      43.308  24.221  25.318  1.00  0.00     0.010 A 
ATOM     36  C   UNL A   1      44.568  23.493  27.260  1.00  0.00     0.010 A 
ATOM     37  C   UNL A   1      43.849  24.471  26.589  1.00  0.00    -0.014 A 
BRANCH  37  38
ATOM     38  C   UNL A   1      43.620  25.731  27.283  1.00  0.00     0.031 A 
ATOM     39  C   UNL A   1      44.553  26.823  26.904  1.00  0.00     0.074 A 
ATOM     40  C   UNL A   1      42.511  25.957  28.022  1.00  0.00     0.049 A 
ATOM     41  N   UNL A   1      45.437  27.406  27.644  1.00  0.00    -0.248 NA
ATOM     42  C   UNL A   1      44.600  27.230  25.490  1.00  0.00     0.031 C 
ATOM     43  C   UNL A   1      41.335  25.092  28.195  1.00  0.00     0.029 A 
ATOM     44  N   UNL A   1      42.148  27.078  28.701  1.00  0.00    -0.354 N 
ATOM     45  C   UNL A   1      46.012  28.394  26.846  1.00  0.00     0.074 A 
ATOM     46  C   UNL A   1      45.603  28.108  25.498  1.00  0.00     0.031 C 
ATOM     47  C   UNL A   1      40.312  25.806  28.715  1.00  0.00     0.029 A 
ATOM     48  C   UNL A   1      40.817  27.108  29.095  1.00  0.00     0.049 A 
ATOM     49  H   UNL A   1      42.779  27.809  28.898  1.00  0.00     0.167 HD
ATOM     50  C   UNL A   1      46.550  29.513  27.408  1.00  0.00     0.037 A 
ATOM     51  C   UNL A   1      40.167  28.145  29.676  1.00  0.00     0.037 A 
ATOM     52  C   UNL A   1      46.811  29.303  28.813  1.00  0.00     0.049 A 
ATOM     53  C   UNL A   1      41.192  29.066  30.217  1.00  0.00     0.074 A 
ATOM     54  C   UNL A   1      47.590  28.424  29.540  1.00  0.00     0.029 A 
ATOM     55  N   UNL A   1      45.920  29.835  29.712  1.00  0.00    -0.354 N 
ATOM     56  N   UNL A   1      41.976  28.773  31.215  1.00  0.00    -0.248 NA
ATOM     57  C   UNL A   1      41.648  30.143  29.353  1.00  0.00     0.031 C 
ATOM     58  C   UNL A   1      46.818  28.118  30.702  1.00  0.00     0.029 A 
ATOM     59  C   UNL A   1      45.649  28.877  30.653  1.00  0.00     0.049 A 
ATOM     60  H   UNL A   1      45.542  30.744  29.685  1.00  0.00     0.167 HD
ATOM     61  C   UNL A   1      43.204  29.307  30.861  1.00  0.00     0.074 A 
ATOM     62  C   UNL A   1      42.917  30.225  29.761  1.00  0.00     0.031 C 
ATOM     63  C   UNL A   1      44.364  28.734  31.297  1.00  0.00     0.037 A 
BRANCH  50  64
ATOM     64  C   UNL A   1      46.446  30.905  26.814  1.00  0.00     0.064 A 
ATOM     65  C   UNL A   1      47.600  31.718  26.791  1.00  0.00     0.173 A 
ATOM     66  C   UNL A   1      45.233  31.584  26.566  1.00  0.00     0.173 A 
ATOM     67  F   UNL A   1      48.814  31.188  27.007  1.00  0.00    -0.203 F 
ATOM     68  C   UNL A   1      47.528  33.107  26.656  1.00  0.00     0.198 A 
ATOM     69  C   UNL A   1      45.170  32.964  26.378  1.00  0.00     0.198 A 
ATOM     70  F   UNL A   1      44.043  30.975  26.600  1.00  0.00    -0.203 F 
ATOM     71  F   UNL A   1      48.637  33.846  26.791  1.00  0.00    -0.200 F 
ATOM     72  C   UNL A   1      46.311  33.730  26.462  1.00  0.00     0.200 A 
ATOM     73  F   UNL A   1      43.977  33.550  26.202  1.00  0.00    -0.200 F 
ATOM     74  F   UNL A   1      46.229  35.066  26.407  1.00  0.00    -0.200 F 
ENDBRANCH  50  64
BRANCH  51  75
ATOM     75  C   UNL A   1      38.765  28.569  29.477  1.00  0.00     0.064 A 
ATOM     76  C   UNL A   1      37.923  28.842  30.565  1.00  0.00     0.173 A 
ATOM     77  C   UNL A   1      38.335  29.019  28.215  1.00  0.00     0.173 A 
ATOM     78  F   UNL A   1      38.299  28.503  31.807  1.00  0.00    -0.203 F 
ATOM     79  C   UNL A   1      36.722  29.539  30.402  1.00  0.00     0.198 A 
ATOM     80  C   UNL A   1      37.151  29.738  28.061  1.00  0.00     0.198 A 
ATOM     81  F   UNL A   1      39.110  28.862  27.132  1.00  0.00    -0.203 F 
ATOM     82  F   UNL A   1      35.967  29.833  31.471  1.00  0.00    -0.200 F 
ATOM     83  C   UNL A   1      36.341  29.994  29.151  1.00  0.00     0.200 A 
ATOM     84  F   UNL A   1      36.840  30.250  26.863  1.00  0.00    -0.200 F 
ATOM     85  F   UNL A   1      35.225  30.721  29.002  1.00  0.00    -0.200 F 
ENDBRANCH  51  75
BRANCH  63  86
ATOM     86  C   UNL A   1      44.262  27.705  32.390  1.00  0.00     0.064 A 
ATOM     87  C   UNL A   1      44.175  26.318  32.170  1.00  0.00     0.173 A 
ATOM     88  C   UNL A   1      44.391  28.136  33.716  1.00  0.00     0.173 A 
ATOM     89  F   UNL A   1      44.144  25.817  30.931  1.00  0.00    -0.203 F 
ATOM     90  C   UNL A   1      44.173  25.414  33.230  1.00  0.00     0.198 A 
ATOM     91  C   UNL A   1      44.426  27.229  34.772  1.00  0.00     0.198 A 
ATOM     92  F   UNL A   1      44.529  29.444  33.985  1.00  0.00    -0.203 F 
ATOM     93  F   UNL A   1      44.075  24.098  32.993  1.00  0.00    -0.200 F 
ATOM     94  C   UNL A   1      44.307  25.870  34.531  1.00  0.00     0.200 A 
ATOM     95  F   UNL A   1      44.605  27.674  36.023  1.00  0.00    -0.200 F 
ATOM     96  F   UNL A   1      44.348  25.000  35.549  1.00  0.00    -0.200 F 
ENDBRANCH  63  86
ENDBRANCH  37  38
ENDBRANCH  29  32
ENDBRANCH  27  28
ENDBRANCH  26  27
ENDBRANCH  25  26
ENDBRANCH  24  25
ENDBRANCH   1  24
TORSDOF 18
ENDMDL
MODEL 2
REMARK VINA RESULT:     -10.9      1.143      2.317
REMARK SMILES CCn1nc(C)c2nc(SCC(=O)NCCCCCCNC(=O)c3ccc(-c4c5nc(c(-c6c(F)c(F)c(F)c(F)c6F)c6ccc([nH]6)c(-c6c(F)c(F)c(F)c(F)c6F)c6nc(c(-c7c(F)c(F)c(F)c(F)c7F)c7ccc4[nH]7)C=C6)C=C5)cc3)n(CC3CC3)c21
REMARK SMILES IDX 16 1 15 2 14 3 12 4 13 5 11 7 10 8 9 9 3 10 4 11 92 12 5 13
REMARK SMILES IDX 7 14 87 15 6 16 8 17 2 18 1 19 88 20 89 21 90 22 91 23 17 24
REMARK SMILES IDX 18 25 19 26 20 27 21 28 22 29 23 31 24 32 25 33 86 34 26 35
REMARK SMILES IDX 85 36 27 37 28 38 29 39 79 40 30 41 84 42 78 43 80 44 31 45
REMARK SMILES IDX 83 46 77 47 76 48 32 50 64 51 44 52 63 53 45 54 48 55 62 56
REMARK SMILES IDX 81 57 46 58 47 59 61 61 82 62 49 63 33 64 34 65 42 66 35 67
REMARK SMILES IDX 36 68 40 69 43 70 37 71 38 72 41 73 39 74 65 75 66 76 74 77
REMARK SMILES IDX 67 78 68 79 72 80 75 81 69 82 70 83 73 84 71 85 50 86 51 87
REMARK SMILES IDX 59 88 52 89 53 90 57 91 60 92 54 93 55 94 58 95 56 96
REMARK H PARENT 14 6 21 30 80 49 48 60
REMARK Flexibility Score: inf
ROOT
ATOM      1  C   UNL A   1      40.340  21.872  26.136  1.00  0.00     0.021 C 
ENDROOT
BRANCH   1   2
ATOM      2  C   UNL A   1      38.892  22.352  26.217  1.00  0.00     0.116 C 
BRANCH   2   3
ATOM      3  N   UNL A   1      38.004  21.414  25.568  1.00  0.00    -0.355 N 
ATOM      4  C   UNL A   1      36.650  21.414  25.502  1.00  0.00     0.230 C 
ATOM      5  O   UNL A   1      36.111  20.472  24.912  1.00  0.00    -0.274 OA
ATOM      6  H   UNL A   1      38.448  20.665  25.108  1.00  0.00     0.163 HD
BRANCH   4   7
ATOM      7  C   UNL A   1      35.844  22.584  26.012  1.00  0.00     0.178 C 
BRANCH   7   8
ATOM      8  S   UNL A   1      35.657  23.968  24.899  1.00  0.00    -0.078 SA
BRANCH   8   9
ATOM      9  C   UNL A   1      34.100  24.720  24.954  1.00  0.00     0.170 A 
ATOM     10  N   UNL A   1      30.794  26.036  24.598  1.00  0.00    -0.247 N 
ATOM     11  N   UNL A   1      30.665  27.029  25.536  1.00  0.00    -0.174 NA
ATOM     12  C   UNL A   1      32.045  25.484  24.618  1.00  0.00     0.159 A 
ATOM     13  C   UNL A   1      31.843  27.059  26.175  1.00  0.00     0.087 A 
ATOM     14  C   UNL A   1      32.675  26.088  25.649  1.00  0.00     0.132 A 
ATOM     15  N   UNL A   1      32.995  24.624  24.106  1.00  0.00    -0.304 N 
ATOM     16  C   UNL A   1      32.120  28.046  27.230  1.00  0.00     0.071 C 
ATOM     17  N   UNL A   1      33.913  25.645  25.883  1.00  0.00    -0.219 NA
BRANCH  10  18
ATOM     18  C   UNL A   1      29.578  25.792  23.854  1.00  0.00     0.143 C 
ATOM     19  C   UNL A   1      28.451  26.795  23.890  1.00  0.00     0.029 C 
ENDBRANCH  10  18
BRANCH  15  20
ATOM     20  C   UNL A   1      32.830  23.759  22.959  1.00  0.00     0.130 C 
BRANCH  20  21
ATOM     21  C   UNL A   1      31.937  22.561  23.089  1.00  0.00     0.009 C 
ATOM     22  C   UNL A   1      32.212  21.242  22.410  1.00  0.00     0.006 C 
ATOM     23  C   UNL A   1      32.229  21.323  23.909  1.00  0.00     0.006 C 
ENDBRANCH  20  21
ENDBRANCH  15  20
ENDBRANCH   8   9
ENDBRANCH   7   8
ENDBRANCH   4   7
ENDBRANCH   2   3
ENDBRANCH   1   2
BRANCH   1  24
ATOM     24  C   UNL A   1      40.940  21.473  27.488  1.00  0.00     0.002 C 
BRANCH  24  25
ATOM     25  C   UNL A   1      41.218  19.975  27.686  1.00  0.00     0.002 C 
BRANCH  25  26
ATOM     26  C   UNL A   1      42.485  19.415  27.026  1.00  0.00     0.021 C 
BRANCH  26  27
ATOM     27  C   UNL A   1      42.532  19.586  25.518  1.00  0.00     0.116 C 
BRANCH  27  28
ATOM     28  N   UNL A   1      43.881  19.401  24.981  1.00  0.00    -0.352 N 
ATOM     29  C   UNL A   1      44.783  20.362  24.577  1.00  0.00     0.251 C 
ATOM     30  H   UNL A   1      44.184  18.468  24.895  1.00  0.00     0.163 HD
ATOM     31  O   UNL A   1      45.704  20.087  23.808  1.00  0.00    -0.269 OA
BRANCH  29  32
ATOM     32  C   UNL A   1      44.633  21.730  25.091  1.00  0.00     0.039 A 
ATOM     33  C   UNL A   1      43.749  22.647  24.517  1.00  0.00     0.014 A 
ATOM     34  C   UNL A   1      45.379  22.069  26.212  1.00  0.00     0.014 A 
ATOM     35  C   UNL A   1      43.579  23.883  25.133  1.00  0.00     0.010 A 
ATOM     36  C   UNL A   1      45.055  23.185  26.929  1.00  0.00     0.010 A 
ATOM     37  C   UNL A   1      44.228  24.138  26.352  1.00  0.00    -0.014 A 
BRANCH  37  38
ATOM     38  C   UNL A   1      44.007  25.372  27.093  1.00  0.00     0.031 A 
ATOM     39  C   UNL A   1      44.953  26.469  26.762  1.00  0.00     0.074 A 
ATOM     40  C   UNL A   1      42.896  25.580  27.834  1.00  0.00     0.049 A 
ATOM     41  N   UNL A   1      45.838  27.015  27.528  1.00  0.00    -0.248 NA
ATOM     42  C   UNL A   1      45.012  26.929  25.364  1.00  0.00     0.031 C 
ATOM     43  C   UNL A   1      41.711  24.721  27.968  1.00  0.00     0.029 A 
ATOM     44  N   UNL A   1      42.540  26.678  28.554  1.00  0.00    -0.354 N 
ATOM     45  C   UNL A   1      46.427  28.026  26.772  1.00  0.00     0.074 A 
ATOM     46  C   UNL A   1      46.023  27.797  25.411  1.00  0.00     0.031 C 
ATOM     47  C   UNL A   1      40.691  25.424  28.508  1.00  0.00     0.029 A 
ATOM     48  C   UNL A   1      41.207  26.706  28.942  1.00  0.00     0.049 A 
ATOM     49  H   UNL A   1      43.177  27.394  28.782  1.00  0.00     0.167 HD
ATOM     50  C   UNL A   1      46.972  29.117  27.379  1.00  0.00     0.037 A 
ATOM     51  C   UNL A   1      40.563  27.726  29.559  1.00  0.00     0.037 A 
ATOM     52  C   UNL A   1      47.224  28.851  28.776  1.00  0.00     0.049 A 
ATOM     53  C   UNL A   1      41.594  28.615  30.140  1.00  0.00     0.074 A 
ATOM     54  C   UNL A   1      47.990  27.937  29.474  1.00  0.00     0.029 A 
ATOM     55  N   UNL A   1      46.332  29.356  29.691  1.00  0.00    -0.354 N 
ATOM     56  N   UNL A   1      42.370  28.277  31.131  1.00  0.00    -0.248 NA
ATOM     57  C   UNL A   1      42.066  29.720  29.321  1.00  0.00     0.031 C 
ATOM     58  C   UNL A   1      47.209  27.594  30.619  1.00  0.00     0.029 A 
ATOM     59  C   UNL A   1      46.046  28.366  30.592  1.00  0.00     0.049 A 
ATOM     60  H   UNL A   1      45.964  30.269  29.696  1.00  0.00     0.167 HD
ATOM     61  C   UNL A   1      43.605  28.811  30.803  1.00  0.00     0.074 A 
ATOM     62  C   UNL A   1      43.334  29.774  29.738  1.00  0.00     0.031 C 
ATOM     63  C   UNL A   1      44.757  28.211  31.224  1.00  0.00     0.037 A 
BRANCH  50  64
ATOM     64  C   UNL A   1      46.885  30.532  26.839  1.00  0.00     0.064 A 
ATOM     65  C   UNL A   1      48.039  31.345  26.885  1.00  0.00     0.173 A 
ATOM     66  C   UNL A   1      45.679  31.220  26.581  1.00  0.00     0.173 A 
ATOM     67  F   UNL A   1      49.246  30.807  27.118  1.00  0.00    -0.203 F 
ATOM     68  C   UNL A   1      47.969  32.739  26.804  1.00  0.00     0.198 A 
ATOM     69  C   UNL A   1      45.621  32.607  26.447  1.00  0.00     0.198 A 
ATOM     70  F   UNL A   1      44.491  30.610  26.553  1.00  0.00    -0.203 F 
ATOM     71  F   UNL A   1      49.072  33.472  27.003  1.00  0.00    -0.200 F 
ATOM     72  C   UNL A   1      46.757  33.370  26.598  1.00  0.00     0.200 A 
ATOM     73  F   UNL A   1      44.433  33.200  26.257  1.00  0.00    -0.200 F 
ATOM     74  F   UNL A   1      46.676  34.706  26.593  1.00  0.00    -0.200 F 
ENDBRANCH  50  64
BRANCH  51  75
ATOM     75  C   UNL A   1      39.167  28.171  29.368  1.00  0.00     0.064 A 
ATOM     76  C   UNL A   1      38.308  28.366  30.460  1.00  0.00     0.173 A 
ATOM     77  C   UNL A   1      38.761  28.716  28.137  1.00  0.00     0.173 A 
ATOM     78  F   UNL A   1      38.661  27.933  31.679  1.00  0.00    -0.203 F 
ATOM     79  C   UNL A   1      37.112  29.080  30.330  1.00  0.00     0.198 A 
ATOM     80  C   UNL A   1      37.582  29.451  28.018  1.00  0.00     0.198 A 
ATOM     81  F   UNL A   1      39.553  28.637  27.058  1.00  0.00    -0.203 F 
ATOM     82  F   UNL A   1      36.341  29.298  31.405  1.00  0.00    -0.200 F 
ATOM     83  C   UNL A   1      36.755  29.630  29.110  1.00  0.00     0.200 A 
ATOM     84  F   UNL A   1      37.293  30.052  26.856  1.00  0.00    -0.200 F 
ATOM     85  F   UNL A   1      35.644  30.372  28.997  1.00  0.00    -0.200 F 
ENDBRANCH  51  75
BRANCH  63  86
ATOM     86  C   UNL A   1      44.638  27.141  32.276  1.00  0.00     0.064 A 
ATOM     87  C   UNL A   1      44.483  27.393  33.651  1.00  0.00     0.173 A 
ATOM     88  C   UNL A   1      44.545  25.809  31.854  1.00  0.00     0.173 A 
ATOM     89  F   UNL A   1      44.465  28.643  34.126  1.00  0.00    -0.203 F 
ATOM     90  C   UNL A   1      44.288  26.356  34.561  1.00  0.00     0.198 A 
ATOM     91  C   UNL A   1      44.313  24.778  32.760  1.00  0.00     0.198 A 
ATOM     92  F   UNL A   1      44.634  25.512  30.548  1.00  0.00    -0.203 F 
ATOM     93  F   UNL A   1      44.157  26.624  35.869  1.00  0.00    -0.200 F 
ATOM     94  C   UNL A   1      44.195  25.049  34.113  1.00  0.00     0.200 A 
ATOM     95  F   UNL A   1      44.176  23.522  32.315  1.00  0.00    -0.200 F 
ATOM     96  F   UNL A   1      43.966  24.054  34.982  1.00  0.00    -0.200 F 
ENDBRANCH  63  86
ENDBRANCH  37  38
ENDBRANCH  29  32
ENDBRANCH  27  28
ENDBRANCH  26  27
ENDBRANCH  25  26
ENDBRANCH  24  25
ENDBRANCH   1  24
TORSDOF 18
ENDMDL
MODEL 3
REMARK VINA RESULT:     -10.6      2.925      8.794
REMARK SMILES CCn1nc(C)c2nc(SCC(=O)NCCCCCCNC(=O)c3ccc(-c4c5nc(c(-c6c(F)c(F)c(F)c(F)c6F)c6ccc([nH]6)c(-c6c(F)c(F)c(F)c(F)c6F)c6nc(c(-c7c(F)c(F)c(F)c(F)c7F)c7ccc4[nH]7)C=C6)C=C5)cc3)n(CC3CC3)c21
REMARK SMILES IDX 16 1 15 2 14 3 12 4 13 5 11 7 10 8 9 9 3 10 4 11 92 12 5 13
REMARK SMILES IDX 7 14 87 15 6 16 8 17 2 18 1 19 88 20 89 21 90 22 91 23 17 24
REMARK SMILES IDX 18 25 19 26 20 27 21 28 22 29 23 31 24 32 25 33 86 34 26 35
REMARK SMILES IDX 85 36 27 37 28 38 29 39 79 40 30 41 84 42 78 43 80 44 31 45
REMARK SMILES IDX 83 46 77 47 76 48 32 50 64 51 44 52 63 53 45 54 48 55 62 56
REMARK SMILES IDX 81 57 46 58 47 59 61 61 82 62 49 63 33 64 34 65 42 66 35 67
REMARK SMILES IDX 36 68 40 69 43 70 37 71 38 72 41 73 39 74 65 75 66 76 74 77
REMARK SMILES IDX 67 78 68 79 72 80 75 81 69 82 70 83 73 84 71 85 50 86 51 87
REMARK SMILES IDX 59 88 52 89 53 90 57 91 60 92 54 93 55 94 58 95 56 96
REMARK H PARENT 14 6 21 30 80 49 48 60
REMARK Flexibility Score: inf
ROOT
ATOM      1  C   UNL A   1      31.136  28.999  25.082  1.00  0.00     0.021 C 
ENDROOT
BRANCH   1   2
ATOM      2  C   UNL A   1      31.098  28.676  23.589  1.00  0.00     0.116 C 
BRANCH   2   3
ATOM      3  N   UNL A   1      32.377  28.950  22.974  1.00  0.00    -0.355 N 
ATOM      4  C   UNL A   1      33.416  28.112  22.737  1.00  0.00     0.230 C 
ATOM      5  O   UNL A   1      34.430  28.596  22.225  1.00  0.00    -0.274 OA
ATOM      6  H   UNL A   1      32.515  29.882  22.685  1.00  0.00     0.163 HD
BRANCH   4   7
ATOM      7  C   UNL A   1      33.288  26.625  22.968  1.00  0.00     0.178 C 
BRANCH   7   8
ATOM      8  S   UNL A   1      33.881  26.010  24.537  1.00  0.00    -0.078 SA
BRANCH   8   9
ATOM      9  C   UNL A   1      34.195  24.309  24.560  1.00  0.00     0.170 A 
ATOM     10  N   UNL A   1      34.316  20.737  24.679  1.00  0.00    -0.247 N 
ATOM     11  N   UNL A   1      35.635  20.394  24.830  1.00  0.00    -0.174 NA
ATOM     12  C   UNL A   1      34.146  22.094  24.660  1.00  0.00     0.159 A 
ATOM     13  C   UNL A   1      36.296  21.561  24.861  1.00  0.00     0.087 A 
ATOM     14  C   UNL A   1      35.397  22.601  24.714  1.00  0.00     0.132 A 
ATOM     15  N   UNL A   1      33.336  23.211  24.626  1.00  0.00    -0.304 N 
ATOM     16  C   UNL A   1      37.751  21.615  25.072  1.00  0.00     0.071 C 
ATOM     17  N   UNL A   1      35.462  23.934  24.648  1.00  0.00    -0.219 NA
BRANCH  10  18
ATOM     18  C   UNL A   1      33.441  19.593  24.537  1.00  0.00     0.143 C 
ATOM     19  C   UNL A   1      32.894  18.900  25.760  1.00  0.00     0.029 C 
ENDBRANCH  10  18
BRANCH  15  20
ATOM     20  C   UNL A   1      31.890  23.212  24.597  1.00  0.00     0.130 C 
BRANCH  20  21
ATOM     21  C   UNL A   1      31.151  22.582  25.739  1.00  0.00     0.009 C 
ATOM     22  C   UNL A   1      31.463  22.866  27.188  1.00  0.00     0.006 C 
ATOM     23  C   UNL A   1      30.132  23.269  26.623  1.00  0.00     0.006 C 
ENDBRANCH  20  21
ENDBRANCH  15  20
ENDBRANCH   8   9
ENDBRANCH   7   8
ENDBRANCH   4   7
ENDBRANCH   2   3
ENDBRANCH   1   2
BRANCH   1  24
ATOM     24  C   UNL A   1      31.600  30.424  25.399  1.00  0.00     0.002 C 
BRANCH  24  25
ATOM     25  C   UNL A   1      31.956  30.705  26.867  1.00  0.00     0.002 C 
BRANCH  25  26
ATOM     26  C   UNL A   1      33.293  30.148  27.372  1.00  0.00     0.021 C 
BRANCH  26  27
ATOM     27  C   UNL A   1      34.388  31.190  27.521  1.00  0.00     0.116 C 
BRANCH  27  28
ATOM     28  N   UNL A   1      34.319  31.887  28.806  1.00  0.00    -0.352 N 
ATOM     29  C   UNL A   1      35.128  31.732  29.911  1.00  0.00     0.251 C 
ATOM     30  H   UNL A   1      33.599  32.553  28.894  1.00  0.00     0.163 HD
ATOM     31  O   UNL A   1      34.751  32.080  31.030  1.00  0.00    -0.269 OA
BRANCH  29  32
ATOM     32  C   UNL A   1      36.465  31.150  29.729  1.00  0.00     0.039 A 
ATOM     33  C   UNL A   1      37.605  31.942  29.569  1.00  0.00     0.014 A 
ATOM     34  C   UNL A   1      36.561  29.765  29.766  1.00  0.00     0.014 A 
ATOM     35  C   UNL A   1      38.848  31.317  29.520  1.00  0.00     0.010 A 
ATOM     36  C   UNL A   1      37.782  29.176  29.932  1.00  0.00     0.010 A 
ATOM     37  C   UNL A   1      38.927  29.929  29.717  1.00  0.00    -0.014 A 
BRANCH  37  38
ATOM     38  C   UNL A   1      40.207  29.237  29.778  1.00  0.00     0.031 A 
ATOM     39  C   UNL A   1      40.741  29.048  31.152  1.00  0.00     0.074 A 
ATOM     40  C   UNL A   1      40.741  28.610  28.706  1.00  0.00     0.049 A 
ATOM     41  N   UNL A   1      41.810  29.559  31.667  1.00  0.00    -0.248 NA
ATOM     42  C   UNL A   1      39.915  28.301  32.115  1.00  0.00     0.031 C 
ATOM     43  C   UNL A   1      40.152  28.414  27.374  1.00  0.00     0.029 A 
ATOM     44  N   UNL A   1      41.902  27.908  28.616  1.00  0.00    -0.354 N 
ATOM     45  C   UNL A   1      41.901  29.036  32.955  1.00  0.00     0.074 A 
ATOM     46  C   UNL A   1      40.625  28.437  33.236  1.00  0.00     0.031 C 
ATOM     47  C   UNL A   1      40.834  27.458  26.706  1.00  0.00     0.029 A 
ATOM     48  C   UNL A   1      42.015  27.124  27.475  1.00  0.00     0.049 A 
ATOM     49  H   UNL A   1      42.606  27.953  29.304  1.00  0.00     0.167 HD
ATOM     50  C   UNL A   1      43.112  28.907  33.567  1.00  0.00     0.037 A 
ATOM     51  C   UNL A   1      43.004  26.242  27.191  1.00  0.00     0.037 A 
ATOM     52  C   UNL A   1      44.101  29.738  32.920  1.00  0.00     0.049 A 
ATOM     53  C   UNL A   1      44.151  26.564  28.069  1.00  0.00     0.074 A 
ATOM     54  C   UNL A   1      44.235  31.092  32.684  1.00  0.00     0.029 A 
ATOM     55  N   UNL A   1      44.982  29.126  32.062  1.00  0.00    -0.354 N 
ATOM     56  N   UNL A   1      44.859  27.654  27.969  1.00  0.00    -0.248 NA
ATOM     57  C   UNL A   1      44.229  25.879  29.349  1.00  0.00     0.031 C 
ATOM     58  C   UNL A   1      44.816  31.187  31.383  1.00  0.00     0.029 A 
ATOM     59  C   UNL A   1      45.066  29.891  30.929  1.00  0.00     0.049 A 
ATOM     60  H   UNL A   1      45.467  28.286  32.232  1.00  0.00     0.167 HD
ATOM     61  C   UNL A   1      45.110  28.027  29.279  1.00  0.00     0.074 A 
ATOM     62  C   UNL A   1      44.792  26.846  30.079  1.00  0.00     0.031 C 
ATOM     63  C   UNL A   1      45.271  29.341  29.610  1.00  0.00     0.037 A 
BRANCH  50  64
ATOM     64  C   UNL A   1      43.505  27.740  34.454  1.00  0.00     0.064 A 
ATOM     65  C   UNL A   1      43.534  26.445  33.892  1.00  0.00     0.173 A 
ATOM     66  C   UNL A   1      43.541  27.781  35.865  1.00  0.00     0.173 A 
ATOM     67  F   UNL A   1      43.510  26.276  32.561  1.00  0.00    -0.203 F 
ATOM     68  C   UNL A   1      43.479  25.292  34.680  1.00  0.00     0.198 A 
ATOM     69  C   UNL A   1      43.539  26.627  36.648  1.00  0.00     0.198 A 
ATOM     70  F   UNL A   1      43.470  28.921  36.557  1.00  0.00    -0.203 F 
ATOM     71  F   UNL A   1      43.358  24.093  34.096  1.00  0.00    -0.200 F 
ATOM     72  C   UNL A   1      43.468  25.385  36.059  1.00  0.00     0.200 A 
ATOM     73  F   UNL A   1      43.518  26.740  37.984  1.00  0.00    -0.200 F 
ATOM     74  F   UNL A   1      43.339  24.288  36.815  1.00  0.00    -0.200 F 
ENDBRANCH  50  64
BRANCH  51  75
ATOM     75  C   UNL A   1      42.894  24.944  26.494  1.00  0.00     0.064 A 
ATOM     76  C   UNL A   1      43.623  24.679  25.326  1.00  0.00     0.173 A 
ATOM     77  C   UNL A   1      42.320  23.838  27.147  1.00  0.00     0.173 A 
ATOM     78  F   UNL A   1      44.254  25.675  24.687  1.00  0.00    -0.203 F 
ATOM     79  C   UNL A   1      43.780  23.376  24.842  1.00  0.00     0.198 A 
ATOM     80  C   UNL A   1      42.502  22.538  26.677  1.00  0.00     0.198 A 
ATOM     81  F   UNL A   1      41.666  23.991  28.307  1.00  0.00    -0.203 F 
ATOM     82  F   UNL A   1      44.530  23.151  23.753  1.00  0.00    -0.200 F 
ATOM     83  C   UNL A   1      43.226  22.306  25.523  1.00  0.00     0.200 A 
ATOM     84  F   UNL A   1      42.039  21.506  27.394  1.00  0.00    -0.200 F 
ATOM     85  F   UNL A   1      43.431  21.050  25.101  1.00  0.00    -0.200 F 
ENDBRANCH  51  75
BRANCH  63  86
ATOM     86  C   UNL A   1      45.454  30.323  28.484  1.00  0.00     0.064 A 
ATOM     87  C   UNL A   1      44.401  30.991  27.833  1.00  0.00     0.173 A 
ATOM     88  C   UNL A   1      46.760  30.699  28.143  1.00  0.00     0.173 A 
ATOM     89  F   UNL A   1      43.127  30.760  28.166  1.00  0.00    -0.203 F 
ATOM     90  C   UNL A   1      44.647  31.956  26.858  1.00  0.00     0.198 A 
ATOM     91  C   UNL A   1      47.002  31.690  27.195  1.00  0.00     0.198 A 
ATOM     92  F   UNL A   1      47.805  30.133  28.767  1.00  0.00    -0.203 F 
ATOM     93  F   UNL A   1      43.624  32.567  26.243  1.00  0.00    -0.200 F 
ATOM     94  C   UNL A   1      45.948  32.310  26.546  1.00  0.00     0.200 A 
ATOM     95  F   UNL A   1      48.263  32.062  26.933  1.00  0.00    -0.200 F 
ATOM     96  F   UNL A   1      46.187  33.268  25.639  1.00  0.00    -0.200 F 
ENDBRANCH  63  86
ENDBRANCH  37  38
ENDBRANCH  29  32
ENDBRANCH  27  28
ENDBRANCH  26  27
ENDBRANCH  25  26
ENDBRANCH  24  25
ENDBRANCH   1  24
TORSDOF 18
ENDMDL
