MODEL 1
REMARK VINA RESULT:     -12.3      0.000      0.000
REMARK SMILES O=C(NCCCCCCNC(=O)[C@H](c1cnn(Cc2ccccc2)c1)[NH+]1CCOCC1)c1ccc(-c2c3nc(c(-c4c(F)c(F)c(F)c(F)c4F)c4ccc([nH]4)c(-c4c(F)c(F)c(F)c(F)c4F)c4nc(c(-c5c(F)c(F)c(F)c(F)c5F)c5ccc2[nH]5)C=C4)C=C3)cc1
REMARK SMILES IDX 7 1 6 2 5 3 4 4 3 5 1 6 2 7 32 9 33 10 94 11 34 12 93 13
REMARK SMILES IDX 35 14 36 15 37 16 87 17 38 18 92 19 86 20 88 21 39 22 91 23
REMARK SMILES IDX 85 24 84 25 40 27 72 28 52 29 71 30 53 31 56 32 70 33 89 34
REMARK SMILES IDX 54 35 55 36 69 38 90 39 57 40 41 41 42 42 50 43 43 44 44 45
REMARK SMILES IDX 48 46 51 47 45 48 46 49 49 50 47 51 73 52 74 53 82 54 75 55
REMARK SMILES IDX 76 56 80 57 83 58 77 59 78 60 81 61 79 62 58 63 59 64 67 65
REMARK SMILES IDX 60 66 61 67 65 68 68 69 62 70 63 71 66 72 64 73 8 74 9 75
REMARK SMILES IDX 10 76 11 77 12 79 13 80 26 81 27 82 31 83 28 85 30 86 29 87
REMARK SMILES IDX 14 88 15 89 25 90 16 91 17 92 18 93 19 94 20 95 24 96 21 97
REMARK SMILES IDX 23 98 22 99
REMARK H PARENT 3 8 88 26 56 37 10 78 26 84
REMARK Flexibility Score: inf
ROOT
ATOM      1  C   UNL A   1      34.606  30.476  28.115  1.00  0.00     0.002 C 
ENDROOT
BRANCH   1   2
ATOM      2  C   UNL A   1      34.942  31.912  27.688  1.00  0.00     0.002 C 
BRANCH   2   3
ATOM      3  C   UNL A   1      34.017  33.048  28.154  1.00  0.00     0.021 C 
BRANCH   3   4
ATOM      4  C   UNL A   1      34.535  33.930  29.288  1.00  0.00     0.116 C 
BRANCH   4   5
ATOM      5  N   UNL A   1      34.355  33.384  30.616  1.00  0.00    -0.352 N 
ATOM      6  O   UNL A   1      34.606  32.472  32.601  1.00  0.00    -0.269 OA
ATOM      7  C   UNL A   1      35.089  32.622  31.484  1.00  0.00     0.251 C 
ATOM      8  H   UNL A   1      33.477  33.623  30.992  1.00  0.00     0.163 HD
BRANCH   7   9
ATOM      9  C   UNL A   1      36.376  31.937  31.171  1.00  0.00     0.039 A 
ATOM     10  C   UNL A   1      37.613  32.546  30.969  1.00  0.00     0.014 A 
ATOM     11  C   UNL A   1      36.309  30.528  31.104  1.00  0.00     0.014 A 
ATOM     12  C   UNL A   1      38.739  31.770  30.668  1.00  0.00     0.010 A 
ATOM     13  C   UNL A   1      37.425  29.750  30.805  1.00  0.00     0.010 A 
ATOM     14  C   UNL A   1      38.645  30.372  30.572  1.00  0.00    -0.014 A 
BRANCH  14  15
ATOM     15  C   UNL A   1      39.882  29.593  30.447  1.00  0.00     0.031 A 
ATOM     16  C   UNL A   1      40.585  29.366  31.743  1.00  0.00     0.074 A 
ATOM     17  C   UNL A   1      40.321  28.976  29.328  1.00  0.00     0.049 A 
ATOM     18  N   UNL A   1      41.765  29.765  32.086  1.00  0.00    -0.248 NA
ATOM     19  C   UNL A   1      39.846  28.694  32.824  1.00  0.00     0.031 C 
ATOM     20  C   UNL A   1      39.619  28.819  28.055  1.00  0.00     0.029 A 
ATOM     21  N   UNL A   1      41.481  28.275  29.127  1.00  0.00    -0.354 N 
ATOM     22  C   UNL A   1      41.991  29.264  33.367  1.00  0.00     0.074 A 
ATOM     23  C   UNL A   1      40.733  28.731  33.820  1.00  0.00     0.031 C 
ATOM     24  C   UNL A   1      40.269  27.909  27.292  1.00  0.00     0.029 A 
ATOM     25  C   UNL A   1      41.500  27.517  27.959  1.00  0.00     0.049 A 
ATOM     26  H   UNL A   1      42.238  28.305  29.755  1.00  0.00     0.167 HD
ATOM     27  C   UNL A   1      43.256  29.139  33.860  1.00  0.00     0.037 A 
ATOM     28  C   UNL A   1      42.437  26.606  27.586  1.00  0.00     0.037 A 
ATOM     29  C   UNL A   1      44.177  29.967  33.122  1.00  0.00     0.049 A 
ATOM     30  C   UNL A   1      43.669  26.880  28.360  1.00  0.00     0.074 A 
ATOM     31  C   UNL A   1      44.302  31.321  32.878  1.00  0.00     0.029 A 
ATOM     32  N   UNL A   1      44.994  29.349  32.212  1.00  0.00    -0.354 N 
ATOM     33  N   UNL A   1      44.440  27.910  28.173  1.00  0.00    -0.248 NA
ATOM     34  C   UNL A   1      43.857  26.175  29.617  1.00  0.00     0.031 C 
ATOM     35  C   UNL A   1      44.808  31.414  31.547  1.00  0.00     0.029 A 
ATOM     36  C   UNL A   1      45.015  30.115  31.081  1.00  0.00     0.049 A 
ATOM     37  H   UNL A   1      45.480  28.505  32.349  1.00  0.00     0.167 HD
ATOM     38  C   UNL A   1      44.860  28.257  29.446  1.00  0.00     0.074 A 
ATOM     39  C   UNL A   1      44.581  27.086  30.270  1.00  0.00     0.031 C 
ATOM     40  C   UNL A   1      45.123  29.559  29.755  1.00  0.00     0.037 A 
BRANCH  27  41
ATOM     41  C   UNL A   1      43.739  27.983  34.714  1.00  0.00     0.064 A 
ATOM     42  C   UNL A   1      43.522  26.664  34.255  1.00  0.00     0.173 A 
ATOM     43  C   UNL A   1      44.080  28.094  36.079  1.00  0.00     0.173 A 
ATOM     44  F   UNL A   1      43.200  26.428  32.974  1.00  0.00    -0.203 F 
ATOM     45  C   UNL A   1      43.515  25.568  35.122  1.00  0.00     0.198 A 
ATOM     46  C   UNL A   1      44.123  26.990  36.930  1.00  0.00     0.198 A 
ATOM     47  F   UNL A   1      44.277  29.274  36.676  1.00  0.00    -0.203 F 
ATOM     48  F   UNL A   1      43.147  24.362  34.666  1.00  0.00    -0.200 F 
ATOM     49  C   UNL A   1      43.800  25.735  36.463  1.00  0.00     0.200 A 
ATOM     50  F   UNL A   1      44.393  27.172  38.231  1.00  0.00    -0.200 F 
ATOM     51  F   UNL A   1      43.717  24.701  37.311  1.00  0.00    -0.200 F 
ENDBRANCH  27  41
BRANCH  28  52
ATOM     52  C   UNL A   1      42.303  25.361  26.789  1.00  0.00     0.064 A 
ATOM     53  C   UNL A   1      43.140  25.109  25.684  1.00  0.00     0.173 A 
ATOM     54  C   UNL A   1      41.573  24.263  27.278  1.00  0.00     0.173 A 
ATOM     55  F   UNL A   1      43.903  26.088  25.177  1.00  0.00    -0.203 F 
ATOM     56  C   UNL A   1      43.268  23.829  25.132  1.00  0.00     0.198 A 
ATOM     57  C   UNL A   1      41.696  22.987  26.722  1.00  0.00     0.198 A 
ATOM     58  F   UNL A   1      40.806  24.383  28.370  1.00  0.00    -0.203 F 
ATOM     59  F   UNL A   1      44.132  23.616  24.130  1.00  0.00    -0.200 F 
ATOM     60  C   UNL A   1      42.556  22.767  25.662  1.00  0.00     0.200 A 
ATOM     61  F   UNL A   1      41.032  21.958  27.266  1.00  0.00    -0.200 F 
ATOM     62  F   UNL A   1      42.731  21.528  25.181  1.00  0.00    -0.200 F 
ENDBRANCH  28  52
BRANCH  40  63
ATOM     63  C   UNL A   1      45.318  30.525  28.623  1.00  0.00     0.064 A 
ATOM     64  C   UNL A   1      44.280  31.180  27.939  1.00  0.00     0.173 A 
ATOM     65  C   UNL A   1      46.634  30.882  28.295  1.00  0.00     0.173 A 
ATOM     66  F   UNL A   1      42.996  30.970  28.261  1.00  0.00    -0.203 F 
ATOM     67  C   UNL A   1      44.554  32.109  26.937  1.00  0.00     0.198 A 
ATOM     68  C   UNL A   1      46.903  31.841  27.325  1.00  0.00     0.198 A 
ATOM     69  F   UNL A   1      47.666  30.323  28.949  1.00  0.00    -0.203 F 
ATOM     70  F   UNL A   1      43.548  32.706  26.279  1.00  0.00    -0.200 F 
ATOM     71  C   UNL A   1      45.864  32.445  26.637  1.00  0.00     0.200 A 
ATOM     72  F   UNL A   1      48.171  32.197  27.075  1.00  0.00    -0.200 F 
ATOM     73  F   UNL A   1      46.127  33.369  25.703  1.00  0.00    -0.200 F 
ENDBRANCH  40  63
ENDBRANCH  14  15
ENDBRANCH   7   9
ENDBRANCH   4   5
ENDBRANCH   3   4
ENDBRANCH   2   3
ENDBRANCH   1   2
BRANCH   1  74
ATOM     74  C   UNL A   1      35.132  29.341  27.245  1.00  0.00     0.021 C 
BRANCH  74  75
ATOM     75  C   UNL A   1      34.113  28.601  26.399  1.00  0.00     0.116 C 
BRANCH  75  76
ATOM     76  N   UNL A   1      32.911  28.121  27.014  1.00  0.00    -0.351 N 
ATOM     77  C   UNL A   1      32.063  27.168  26.496  1.00  0.00     0.283 C 
ATOM     78  H   UNL A   1      32.670  28.507  27.887  1.00  0.00     0.163 HD
ATOM     79  O   UNL A   1      31.154  26.773  27.242  1.00  0.00    -0.268 OA
BRANCH  77  80
ATOM     80  C   UNL A   1      32.154  26.633  25.015  1.00  0.00     0.308 C 
BRANCH  80  81
ATOM     81  N   UNL A   1      32.305  25.148  25.037  1.00  0.00    -0.317 N 
ATOM     82  C   UNL A   1      33.468  24.728  25.857  1.00  0.00     0.292 C 
ATOM     83  C   UNL A   1      32.352  24.385  23.781  1.00  0.00     0.292 C 
ATOM     84  H   UNL A   1      31.399  24.904  25.437  1.00  0.00     0.349 HD
ATOM     85  C   UNL A   1      34.800  24.830  25.092  1.00  0.00     0.221 C 
ATOM     86  C   UNL A   1      33.701  24.430  23.044  1.00  0.00     0.221 C 
ATOM     87  O   UNL A   1      34.775  24.029  23.904  1.00  0.00    -0.370 OA
ENDBRANCH  80  81
BRANCH  80  88
ATOM     88  C   UNL A   1      31.178  27.239  24.030  1.00  0.00     0.057 A 
ATOM     89  C   UNL A   1      31.398  27.903  22.801  1.00  0.00     0.145 A 
ATOM     90  C   UNL A   1      29.791  27.311  24.153  1.00  0.00     0.119 A 
ATOM     91  N   UNL A   1      30.286  28.169  22.137  1.00  0.00    -0.181 NA
ATOM     92  N   UNL A   1      29.327  27.987  23.055  1.00  0.00    -0.268 N 
BRANCH  92  93
ATOM     93  C   UNL A   1      28.001  28.547  22.807  1.00  0.00     0.179 C 
BRANCH  93  94
ATOM     94  C   UNL A   1      28.078  30.035  22.505  1.00  0.00    -0.027 A 
ATOM     95  C   UNL A   1      28.299  30.968  23.524  1.00  0.00     0.005 A 
ATOM     96  C   UNL A   1      27.972  30.507  21.181  1.00  0.00     0.005 A 
ATOM     97  C   UNL A   1      28.445  32.325  23.221  1.00  0.00     0.000 A 
ATOM     98  C   UNL A   1      28.150  31.855  20.876  1.00  0.00     0.000 A 
ATOM     99  C   UNL A   1      28.386  32.767  21.898  1.00  0.00     0.000 A 
ENDBRANCH  93  94
ENDBRANCH  92  93
ENDBRANCH  80  88
ENDBRANCH  77  80
ENDBRANCH  75  76
ENDBRANCH  74  75
ENDBRANCH   1  74
TORSDOF 17
ENDMDL
MODEL 2
REMARK VINA RESULT:     -12.2      3.575      9.560
REMARK SMILES O=C(NCCCCCCNC(=O)[C@H](c1cnn(Cc2ccccc2)c1)[NH+]1CCOCC1)c1ccc(-c2c3nc(c(-c4c(F)c(F)c(F)c(F)c4F)c4ccc([nH]4)c(-c4c(F)c(F)c(F)c(F)c4F)c4nc(c(-c5c(F)c(F)c(F)c(F)c5F)c5ccc2[nH]5)C=C4)C=C3)cc1
REMARK SMILES IDX 7 1 6 2 5 3 4 4 3 5 1 6 2 7 32 9 33 10 94 11 34 12 93 13
REMARK SMILES IDX 35 14 36 15 37 16 87 17 38 18 92 19 86 20 88 21 39 22 91 23
REMARK SMILES IDX 85 24 84 25 40 27 72 28 52 29 71 30 53 31 56 32 70 33 89 34
REMARK SMILES IDX 54 35 55 36 69 38 90 39 57 40 41 41 42 42 50 43 43 44 44 45
REMARK SMILES IDX 48 46 51 47 45 48 46 49 49 50 47 51 73 52 74 53 82 54 75 55
REMARK SMILES IDX 76 56 80 57 83 58 77 59 78 60 81 61 79 62 58 63 59 64 67 65
REMARK SMILES IDX 60 66 61 67 65 68 68 69 62 70 63 71 66 72 64 73 8 74 9 75
REMARK SMILES IDX 10 76 11 77 12 79 13 80 26 81 27 82 31 83 28 85 30 86 29 87
REMARK SMILES IDX 14 88 15 89 25 90 16 91 17 92 18 93 19 94 20 95 24 96 21 97
REMARK SMILES IDX 23 98 22 99
REMARK H PARENT 3 8 88 26 56 37 10 78 26 84
REMARK Flexibility Score: inf
ROOT
ATOM      1  C   UNL A   1      39.268  22.971  27.032  1.00  0.00     0.002 C 
ENDROOT
BRANCH   1   2
ATOM      2  C   UNL A   1      39.511  21.774  26.103  1.00  0.00     0.002 C 
BRANCH   2   3
ATOM      3  C   UNL A   1      40.355  20.602  26.627  1.00  0.00     0.021 C 
BRANCH   3   4
ATOM      4  C   UNL A   1      41.858  20.842  26.751  1.00  0.00     0.116 C 
BRANCH   4   5
ATOM      5  N   UNL A   1      42.451  21.567  25.647  1.00  0.00    -0.352 N 
ATOM      6  O   UNL A   1      43.432  23.041  24.343  1.00  0.00    -0.269 OA
ATOM      7  C   UNL A   1      42.841  22.856  25.401  1.00  0.00     0.251 C 
ATOM      8  H   UNL A   1      42.619  20.981  24.874  1.00  0.00     0.163 HD
BRANCH   7   9
ATOM      9  C   UNL A   1      42.567  24.033  26.274  1.00  0.00     0.039 A 
ATOM     10  C   UNL A   1      42.963  24.191  27.602  1.00  0.00     0.014 A 
ATOM     11  C   UNL A   1      41.857  25.087  25.661  1.00  0.00     0.014 A 
ATOM     12  C   UNL A   1      42.620  25.353  28.304  1.00  0.00     0.010 A 
ATOM     13  C   UNL A   1      41.513  26.246  26.354  1.00  0.00     0.010 A 
ATOM     14  C   UNL A   1      41.883  26.376  27.687  1.00  0.00    -0.014 A 
BRANCH  14  15
ATOM     15  C   UNL A   1      41.717  27.649  28.399  1.00  0.00     0.031 A 
ATOM     16  C   UNL A   1      42.807  28.633  28.136  1.00  0.00     0.074 A 
ATOM     17  C   UNL A   1      40.633  28.022  29.112  1.00  0.00     0.049 A 
ATOM     18  N   UNL A   1      43.642  29.137  28.985  1.00  0.00    -0.248 NA
ATOM     19  C   UNL A   1      43.059  29.033  26.743  1.00  0.00     0.031 C 
ATOM     20  C   UNL A   1      39.347  27.332  29.221  1.00  0.00     0.029 A 
ATOM     21  N   UNL A   1      40.427  29.167  29.837  1.00  0.00    -0.354 N 
ATOM     22  C   UNL A   1      44.428  30.040  28.271  1.00  0.00     0.074 A 
ATOM     23  C   UNL A   1      44.116  29.836  26.881  1.00  0.00     0.031 C 
ATOM     24  C   UNL A   1      38.440  28.158  29.791  1.00  0.00     0.029 A 
ATOM     25  C   UNL A   1      39.103  29.383  30.210  1.00  0.00     0.049 A 
ATOM     26  H   UNL A   1      41.155  29.785  30.075  1.00  0.00     0.167 HD
ATOM     27  C   UNL A   1      45.113  31.031  28.908  1.00  0.00     0.037 A 
ATOM     28  C   UNL A   1      38.583  30.500  30.783  1.00  0.00     0.037 A 
ATOM     29  C   UNL A   1      45.268  30.728  30.309  1.00  0.00     0.049 A 
ATOM     30  C   UNL A   1      39.698  31.261  31.388  1.00  0.00     0.074 A 
ATOM     31  C   UNL A   1      45.865  29.716  31.035  1.00  0.00     0.029 A 
ATOM     32  N   UNL A   1      44.457  31.389  31.193  1.00  0.00    -0.354 N 
ATOM     33  N   UNL A   1      40.350  30.888  32.450  1.00  0.00    -0.248 NA
ATOM     34  C   UNL A   1      40.343  32.287  30.584  1.00  0.00     0.031 C 
ATOM     35  C   UNL A   1      45.028  29.533  32.176  1.00  0.00     0.029 A 
ATOM     36  C   UNL A   1      44.006  30.480  32.109  1.00  0.00     0.049 A 
ATOM     37  H   UNL A   1      44.238  32.348  31.173  1.00  0.00     0.167 HD
ATOM     38  C   UNL A   1      41.657  31.271  32.200  1.00  0.00     0.074 A 
ATOM     39  C   UNL A   1      41.568  32.235  31.108  1.00  0.00     0.031 C 
ATOM     40  C   UNL A   1      42.697  30.550  32.709  1.00  0.00     0.037 A 
BRANCH  27  41
ATOM     41  C   UNL A   1      45.280  32.443  28.380  1.00  0.00     0.064 A 
ATOM     42  C   UNL A   1      44.122  33.204  28.102  1.00  0.00     0.173 A 
ATOM     43  C   UNL A   1      46.475  32.944  27.820  1.00  0.00     0.173 A 
ATOM     44  F   UNL A   1      42.926  32.833  28.585  1.00  0.00    -0.203 F 
ATOM     45  C   UNL A   1      44.142  34.294  27.228  1.00  0.00     0.198 A 
ATOM     46  C   UNL A   1      46.497  34.065  26.990  1.00  0.00     0.198 A 
ATOM     47  F   UNL A   1      47.649  32.319  27.956  1.00  0.00    -0.203 F 
ATOM     48  F   UNL A   1      42.990  34.882  26.874  1.00  0.00    -0.200 F 
ATOM     49  C   UNL A   1      45.328  34.714  26.660  1.00  0.00     0.200 A 
ATOM     50  F   UNL A   1      47.658  34.452  26.440  1.00  0.00    -0.200 F 
ATOM     51  F   UNL A   1      45.339  35.707  25.762  1.00  0.00    -0.200 F 
ENDBRANCH  27  41
BRANCH  28  52
ATOM     52  C   UNL A   1      37.232  31.104  30.658  1.00  0.00     0.064 A 
ATOM     53  C   UNL A   1      36.457  31.398  31.796  1.00  0.00     0.173 A 
ATOM     54  C   UNL A   1      36.809  31.689  29.451  1.00  0.00     0.173 A 
ATOM     55  F   UNL A   1      36.810  30.917  32.997  1.00  0.00    -0.203 F 
ATOM     56  C   UNL A   1      35.354  32.257  31.736  1.00  0.00     0.198 A 
ATOM     57  C   UNL A   1      35.703  32.540  29.390  1.00  0.00     0.198 A 
ATOM     58  F   UNL A   1      37.520  31.529  28.327  1.00  0.00    -0.203 F 
ATOM     59  F   UNL A   1      34.688  32.571  32.857  1.00  0.00    -0.200 F 
ATOM     60  C   UNL A   1      34.987  32.838  30.535  1.00  0.00     0.200 A 
ATOM     61  F   UNL A   1      35.379  33.127  28.229  1.00  0.00    -0.200 F 
ATOM     62  F   UNL A   1      33.975  33.717  30.489  1.00  0.00    -0.200 F 
ENDBRANCH  28  52
BRANCH  40  63
ATOM     63  C   UNL A   1      42.407  29.594  33.829  1.00  0.00     0.064 A 
ATOM     64  C   UNL A   1      41.913  28.288  33.663  1.00  0.00     0.173 A 
ATOM     65  C   UNL A   1      42.756  29.993  35.127  1.00  0.00     0.173 A 
ATOM     66  F   UNL A   1      41.650  27.795  32.444  1.00  0.00    -0.203 F 
ATOM     67  C   UNL A   1      41.729  27.445  34.757  1.00  0.00     0.198 A 
ATOM     68  C   UNL A   1      42.613  29.133  36.211  1.00  0.00     0.198 A 
ATOM     69  F   UNL A   1      43.278  31.212  35.339  1.00  0.00    -0.203 F 
ATOM     70  F   UNL A   1      41.234  26.211  34.581  1.00  0.00    -0.200 F 
ATOM     71  C   UNL A   1      42.087  27.866  36.029  1.00  0.00     0.200 A 
ATOM     72  F   UNL A   1      43.007  29.528  37.430  1.00  0.00    -0.200 F 
ATOM     73  F   UNL A   1      41.950  27.040  37.075  1.00  0.00    -0.200 F 
ENDBRANCH  40  63
ENDBRANCH  14  15
ENDBRANCH   7   9
ENDBRANCH   4   5
ENDBRANCH   3   4
ENDBRANCH   2   3
ENDBRANCH   1   2
BRANCH   1  74
ATOM     74  C   UNL A   1      38.365  24.089  26.522  1.00  0.00     0.021 C 
BRANCH  74  75
ATOM     75  C   UNL A   1      37.009  23.677  25.981  1.00  0.00     0.116 C 
BRANCH  75  76
ATOM     76  N   UNL A   1      36.870  23.402  24.582  1.00  0.00    -0.351 N 
ATOM     77  C   UNL A   1      35.696  23.440  23.863  1.00  0.00     0.283 C 
ATOM     78  H   UNL A   1      37.689  23.165  24.088  1.00  0.00     0.163 HD
ATOM     79  O   UNL A   1      35.797  23.320  22.633  1.00  0.00    -0.268 OA
BRANCH  77  80
ATOM     80  C   UNL A   1      34.270  23.551  24.530  1.00  0.00     0.308 C 
BRANCH  80  81
ATOM     81  N   UNL A   1      33.567  24.752  23.989  1.00  0.00    -0.317 N 
ATOM     82  C   UNL A   1      34.043  26.001  24.633  1.00  0.00     0.292 C 
ATOM     83  C   UNL A   1      32.098  24.804  23.958  1.00  0.00     0.292 C 
ATOM     84  H   UNL A   1      33.829  24.659  23.008  1.00  0.00     0.349 HD
ATOM     85  C   UNL A   1      33.379  26.254  25.999  1.00  0.00     0.221 C 
ATOM     86  C   UNL A   1      31.430  25.121  25.306  1.00  0.00     0.221 C 
ATOM     87  O   UNL A   1      31.953  26.328  25.873  1.00  0.00    -0.370 OA
ENDBRANCH  80  81
BRANCH  80  88
ATOM     88  C   UNL A   1      33.492  22.259  24.649  1.00  0.00     0.057 A 
ATOM     89  C   UNL A   1      32.922  21.624  25.776  1.00  0.00     0.145 A 
ATOM     90  C   UNL A   1      33.193  21.358  23.628  1.00  0.00     0.119 A 
ATOM     91  N   UNL A   1      32.182  20.571  25.473  1.00  0.00    -0.181 NA
ATOM     92  N   UNL A   1      32.521  20.311  24.203  1.00  0.00    -0.268 N 
BRANCH  92  93
ATOM     93  C   UNL A   1      32.197  19.001  23.642  1.00  0.00     0.179 C 
BRANCH  93  94
ATOM     94  C   UNL A   1      33.018  17.902  24.298  1.00  0.00    -0.027 A 
ATOM     95  C   UNL A   1      32.400  16.800  24.900  1.00  0.00     0.005 A 
ATOM     96  C   UNL A   1      34.427  17.945  24.275  1.00  0.00     0.005 A 
ATOM     97  C   UNL A   1      33.170  15.760  25.430  1.00  0.00     0.000 A 
ATOM     98  C   UNL A   1      35.193  16.893  24.774  1.00  0.00     0.000 A 
ATOM     99  C   UNL A   1      34.563  15.799  25.354  1.00  0.00     0.000 A 
ENDBRANCH  93  94
ENDBRANCH  92  93
ENDBRANCH  80  88
ENDBRANCH  77  80
ENDBRANCH  75  76
ENDBRANCH  74  75
ENDBRANCH   1  74
TORSDOF 17
ENDMDL
MODEL 3
REMARK VINA RESULT:     -12.1      3.553      8.745
REMARK SMILES O=C(NCCCCCCNC(=O)[C@H](c1cnn(Cc2ccccc2)c1)[NH+]1CCOCC1)c1ccc(-c2c3nc(c(-c4c(F)c(F)c(F)c(F)c4F)c4ccc([nH]4)c(-c4c(F)c(F)c(F)c(F)c4F)c4nc(c(-c5c(F)c(F)c(F)c(F)c5F)c5ccc2[nH]5)C=C4)C=C3)cc1
REMARK SMILES IDX 7 1 6 2 5 3 4 4 3 5 1 6 2 7 32 9 33 10 94 11 34 12 93 13
REMARK SMILES IDX 35 14 36 15 37 16 87 17 38 18 92 19 86 20 88 21 39 22 91 23
REMARK SMILES IDX 85 24 84 25 40 27 72 28 52 29 71 30 53 31 56 32 70 33 89 34
REMARK SMILES IDX 54 35 55 36 69 38 90 39 57 40 41 41 42 42 50 43 43 44 44 45
REMARK SMILES IDX 48 46 51 47 45 48 46 49 49 50 47 51 73 52 74 53 82 54 75 55
REMARK SMILES IDX 76 56 80 57 83 58 77 59 78 60 81 61 79 62 58 63 59 64 67 65
REMARK SMILES IDX 60 66 61 67 65 68 68 69 62 70 63 71 66 72 64 73 8 74 9 75
REMARK SMILES IDX 10 76 11 77 12 79 13 80 26 81 27 82 31 83 28 85 30 86 29 87
REMARK SMILES IDX 14 88 15 89 25 90 16 91 17 92 18 93 19 94 20 95 24 96 21 97
REMARK SMILES IDX 23 98 22 99
REMARK H PARENT 3 8 88 26 56 37 10 78 26 84
REMARK Flexibility Score: inf
ROOT
ATOM      1  C   UNL A   1      39.357  23.060  27.100  1.00  0.00     0.002 C 
ENDROOT
BRANCH   1   2
ATOM      2  C   UNL A   1      39.876  21.976  26.145  1.00  0.00     0.002 C 
BRANCH   2   3
ATOM      3  C   UNL A   1      40.689  20.812  26.734  1.00  0.00     0.021 C 
BRANCH   3   4
ATOM      4  C   UNL A   1      42.208  20.971  26.736  1.00  0.00     0.116 C 
BRANCH   4   5
ATOM      5  N   UNL A   1      42.746  21.700  25.607  1.00  0.00    -0.352 N 
ATOM      6  O   UNL A   1      43.624  23.193  24.253  1.00  0.00    -0.269 OA
ATOM      7  C   UNL A   1      43.056  23.002  25.323  1.00  0.00     0.251 C 
ATOM      8  H   UNL A   1      42.939  21.104  24.847  1.00  0.00     0.163 HD
BRANCH   7   9
ATOM      9  C   UNL A   1      42.723  24.184  26.168  1.00  0.00     0.039 A 
ATOM     10  C   UNL A   1      43.142  24.412  27.478  1.00  0.00     0.014 A 
ATOM     11  C   UNL A   1      41.922  25.165  25.545  1.00  0.00     0.014 A 
ATOM     12  C   UNL A   1      42.737  25.568  28.155  1.00  0.00     0.010 A 
ATOM     13  C   UNL A   1      41.516  26.319  26.214  1.00  0.00     0.010 A 
ATOM     14  C   UNL A   1      41.912  26.517  27.531  1.00  0.00    -0.014 A 
BRANCH  14  15
ATOM     15  C   UNL A   1      41.675  27.796  28.209  1.00  0.00     0.031 A 
ATOM     16  C   UNL A   1      42.730  28.819  27.952  1.00  0.00     0.074 A 
ATOM     17  C   UNL A   1      40.558  28.139  28.887  1.00  0.00     0.049 A 
ATOM     18  N   UNL A   1      43.521  29.376  28.809  1.00  0.00    -0.248 NA
ATOM     19  C   UNL A   1      43.002  29.200  26.557  1.00  0.00     0.031 C 
ATOM     20  C   UNL A   1      39.300  27.398  28.978  1.00  0.00     0.029 A 
ATOM     21  N   UNL A   1      40.287  29.289  29.580  1.00  0.00    -0.354 N 
ATOM     22  C   UNL A   1      44.287  30.296  28.095  1.00  0.00     0.074 A 
ATOM     23  C   UNL A   1      44.020  30.049  26.703  1.00  0.00     0.031 C 
ATOM     24  C   UNL A   1      38.345  28.198  29.507  1.00  0.00     0.029 A 
ATOM     25  C   UNL A   1      38.946  29.458  29.914  1.00  0.00     0.049 A 
ATOM     26  H   UNL A   1      40.982  29.942  29.822  1.00  0.00     0.167 HD
ATOM     27  C   UNL A   1      44.914  31.328  28.726  1.00  0.00     0.037 A 
ATOM     28  C   UNL A   1      38.365  30.564  30.448  1.00  0.00     0.037 A 
ATOM     29  C   UNL A   1      45.045  31.062  30.137  1.00  0.00     0.049 A 
ATOM     30  C   UNL A   1      39.432  31.384  31.064  1.00  0.00     0.074 A 
ATOM     31  C   UNL A   1      45.665  30.092  30.901  1.00  0.00     0.029 A 
ATOM     32  N   UNL A   1      44.184  31.708  30.986  1.00  0.00    -0.354 N 
ATOM     33  N   UNL A   1      40.071  31.062  32.151  1.00  0.00    -0.248 NA
ATOM     34  C   UNL A   1      40.054  32.418  30.253  1.00  0.00     0.031 C 
ATOM     35  C   UNL A   1      44.806  29.899  32.024  1.00  0.00     0.029 A 
ATOM     36  C   UNL A   1      43.748  30.800  31.910  1.00  0.00     0.049 A 
ATOM     37  H   UNL A   1      43.926  32.656  30.938  1.00  0.00     0.167 HD
ATOM     38  C   UNL A   1      41.367  31.493  31.924  1.00  0.00     0.074 A 
ATOM     39  C   UNL A   1      41.267  32.429  30.810  1.00  0.00     0.031 C 
ATOM     40  C   UNL A   1      42.422  30.828  32.475  1.00  0.00     0.037 A 
BRANCH  27  41
ATOM     41  C   UNL A   1      45.036  32.734  28.171  1.00  0.00     0.064 A 
ATOM     42  C   UNL A   1      46.327  33.278  27.982  1.00  0.00     0.173 A 
ATOM     43  C   UNL A   1      43.982  33.671  28.146  1.00  0.00     0.173 A 
ATOM     44  F   UNL A   1      47.411  32.486  27.977  1.00  0.00    -0.203 F 
ATOM     45  C   UNL A   1      46.549  34.655  27.910  1.00  0.00     0.198 A 
ATOM     46  C   UNL A   1      44.204  35.042  28.022  1.00  0.00     0.198 A 
ATOM     47  F   UNL A   1      42.707  33.323  28.350  1.00  0.00    -0.203 F 
ATOM     48  F   UNL A   1      47.804  35.126  27.891  1.00  0.00    -0.200 F 
ATOM     49  C   UNL A   1      45.487  35.538  27.946  1.00  0.00     0.200 A 
ATOM     50  F   UNL A   1      43.162  35.884  28.068  1.00  0.00    -0.200 F 
ATOM     51  F   UNL A   1      45.700  36.860  27.958  1.00  0.00    -0.200 F 
ENDBRANCH  27  41
BRANCH  28  52
ATOM     52  C   UNL A   1      36.994  31.108  30.276  1.00  0.00     0.064 A 
ATOM     53  C   UNL A   1      36.238  31.541  31.382  1.00  0.00     0.173 A 
ATOM     54  C   UNL A   1      36.525  31.503  29.011  1.00  0.00     0.173 A 
ATOM     55  F   UNL A   1      36.633  31.246  32.629  1.00  0.00    -0.203 F 
ATOM     56  C   UNL A   1      35.108  32.353  31.231  1.00  0.00     0.198 A 
ATOM     57  C   UNL A   1      35.393  32.307  28.860  1.00  0.00     0.198 A 
ATOM     58  F   UNL A   1      37.215  31.203  27.901  1.00  0.00    -0.203 F 
ATOM     59  F   UNL A   1      34.460  32.807  32.313  1.00  0.00    -0.200 F 
ATOM     60  C   UNL A   1      34.696  32.747  29.970  1.00  0.00     0.200 A 
ATOM     61  F   UNL A   1      35.025  32.714  27.637  1.00  0.00    -0.200 F 
ATOM     62  F   UNL A   1      33.657  33.582  29.827  1.00  0.00    -0.200 F 
ENDBRANCH  28  52
BRANCH  40  63
ATOM     63  C   UNL A   1      42.143  29.885  33.609  1.00  0.00     0.064 A 
ATOM     64  C   UNL A   1      41.706  28.557  33.461  1.00  0.00     0.173 A 
ATOM     65  C   UNL A   1      42.443  30.325  34.907  1.00  0.00     0.173 A 
ATOM     66  F   UNL A   1      41.494  28.028  32.248  1.00  0.00    -0.203 F 
ATOM     67  C   UNL A   1      41.529  27.731  34.569  1.00  0.00     0.198 A 
ATOM     68  C   UNL A   1      42.308  29.484  36.006  1.00  0.00     0.198 A 
ATOM     69  F   UNL A   1      42.910  31.569  35.104  1.00  0.00    -0.203 F 
ATOM     70  F   UNL A   1      41.088  26.474  34.408  1.00  0.00    -0.200 F 
ATOM     71  C   UNL A   1      41.838  28.193  35.839  1.00  0.00     0.200 A 
ATOM     72  F   UNL A   1      42.655  29.921  37.224  1.00  0.00    -0.200 F 
ATOM     73  F   UNL A   1      41.708  27.385  36.900  1.00  0.00    -0.200 F 
ENDBRANCH  40  63
ENDBRANCH  14  15
ENDBRANCH   7   9
ENDBRANCH   4   5
ENDBRANCH   3   4
ENDBRANCH   2   3
ENDBRANCH   1   2
BRANCH   1  74
ATOM     74  C   UNL A   1      38.454  24.141  26.517  1.00  0.00     0.021 C 
BRANCH  74  75
ATOM     75  C   UNL A   1      37.237  23.669  25.744  1.00  0.00     0.116 C 
BRANCH  75  76
ATOM     76  N   UNL A   1      37.378  23.328  24.359  1.00  0.00    -0.351 N 
ATOM     77  C   UNL A   1      36.354  22.995  23.501  1.00  0.00     0.283 C 
ATOM     78  H   UNL A   1      38.290  23.334  23.987  1.00  0.00     0.163 HD
ATOM     79  O   UNL A   1      36.654  22.879  22.303  1.00  0.00    -0.268 OA
BRANCH  77  80
ATOM     80  C   UNL A   1      34.881  22.693  23.977  1.00  0.00     0.308 C 
BRANCH  80  81
ATOM     81  N   UNL A   1      34.925  21.945  25.268  1.00  0.00    -0.317 N 
ATOM     82  C   UNL A   1      35.303  20.524  25.065  1.00  0.00     0.292 C 
ATOM     83  C   UNL A   1      33.775  21.969  26.183  1.00  0.00     0.292 C 
ATOM     84  H   UNL A   1      35.632  22.502  25.749  1.00  0.00     0.349 HD
ATOM     85  C   UNL A   1      34.113  19.652  24.625  1.00  0.00     0.221 C 
ATOM     86  C   UNL A   1      32.608  21.050  25.785  1.00  0.00     0.221 C 
ATOM     87  O   UNL A   1      33.054  19.702  25.589  1.00  0.00    -0.370 OA
ENDBRANCH  80  81
BRANCH  80  88
ATOM     88  C   UNL A   1      33.894  23.832  23.843  1.00  0.00     0.057 A 
ATOM     89  C   UNL A   1      32.565  23.852  23.362  1.00  0.00     0.145 A 
ATOM     90  C   UNL A   1      34.112  25.176  24.144  1.00  0.00     0.119 A 
ATOM     91  N   UNL A   1      31.957  25.014  23.534  1.00  0.00    -0.181 NA
ATOM     92  N   UNL A   1      32.964  25.850  23.820  1.00  0.00    -0.268 N 
BRANCH  92  93
ATOM     93  C   UNL A   1      32.738  27.289  23.704  1.00  0.00     0.179 C 
BRANCH  93  94
ATOM     94  C   UNL A   1      32.829  27.973  25.059  1.00  0.00    -0.027 A 
ATOM     95  C   UNL A   1      31.743  27.974  25.942  1.00  0.00     0.005 A 
ATOM     96  C   UNL A   1      34.028  28.585  25.477  1.00  0.00     0.005 A 
ATOM     97  C   UNL A   1      31.868  28.539  27.215  1.00  0.00     0.000 A 
ATOM     98  C   UNL A   1      34.161  29.119  26.757  1.00  0.00     0.000 A 
ATOM     99  C   UNL A   1      33.079  29.097  27.628  1.00  0.00     0.000 A 
ENDBRANCH  93  94
ENDBRANCH  92  93
ENDBRANCH  80  88
ENDBRANCH  77  80
ENDBRANCH  75  76
ENDBRANCH  74  75
ENDBRANCH   1  74
TORSDOF 17
ENDMDL
