MODEL 1
REMARK VINA RESULT:     -10.5      0.000      0.000
REMARK SMILES CC[C@@H](C)C[C@@H](C)NC(=O)NC1(CC(=O)NCCCCCCNC(=O)c2ccc(-c3c4nc(c(-c5c(F)c(F)c(F)c(F)c5F)c5ccc([nH]5)c(-c5c(F)c(F)c(F)c(F)c5F)c5nc(c(-c6c(F)c(F)c(F)c(F)c6F)c6ccc3[nH]6)C=C5)C=C4)cc2)CCC1
REMARK SMILES IDX 17 1 16 2 14 3 15 4 13 6 12 7 89 8 91 9 90 10 11 11 8 12
REMARK SMILES IDX 9 13 10 15 6 17 7 18 5 19 3 20 4 21 2 22 1 23 18 24 19 25
REMARK SMILES IDX 20 26 21 27 22 28 23 29 24 30 25 32 26 33 27 34 88 35 28 36
REMARK SMILES IDX 87 37 29 38 30 39 31 40 81 41 32 42 86 43 80 44 82 45 33 46
REMARK SMILES IDX 85 47 79 48 78 49 34 51 66 52 46 53 65 54 47 55 50 56 64 57
REMARK SMILES IDX 83 58 48 59 49 60 63 62 84 63 51 64 35 65 36 66 44 67 37 68
REMARK SMILES IDX 38 69 42 70 45 71 39 72 40 73 43 74 41 75 67 76 68 77 76 78
REMARK SMILES IDX 69 79 70 80 74 81 77 82 71 83 72 84 75 85 73 86 52 87 53 88
REMARK SMILES IDX 61 89 54 90 55 91 59 92 62 93 56 94 57 95 60 96 58 97
REMARK H PARENT 16 5 8 14 11 16 23 31 82 50 50 61
REMARK Flexibility Score: inf
ROOT
ATOM      1  C   UNL A   1      33.773  30.330  26.880  1.00  0.00     0.116 C 
ENDROOT
BRANCH   1   2
ATOM      2  N   UNL A   1      32.952  29.485  27.735  1.00  0.00    -0.356 N 
ATOM      3  C   UNL A   1      31.981  28.560  27.461  1.00  0.00     0.222 C 
ATOM      4  O   UNL A   1      31.641  27.827  28.396  1.00  0.00    -0.275 OA
ATOM      5  H   UNL A   1      33.132  29.599  28.696  1.00  0.00     0.163 HD
BRANCH   3   6
ATOM      6  C   UNL A   1      31.365  28.393  26.074  1.00  0.00     0.128 C 
BRANCH   6   7
ATOM      7  C   UNL A   1      31.880  27.234  25.165  1.00  0.00     0.051 C 
ATOM      8  C   UNL A   1      30.695  26.271  24.728  1.00  0.00     0.029 C 
ATOM      9  C   UNL A   1      32.471  25.894  25.755  1.00  0.00     0.029 C 
ATOM     10  C   UNL A   1      31.043  25.400  25.959  1.00  0.00     0.005 C 
BRANCH   7  11
ATOM     11  N   UNL A   1      32.677  27.705  24.016  1.00  0.00    -0.332 N 
ATOM     12  N   UNL A   1      31.552  29.703  23.459  1.00  0.00    -0.336 N 
ATOM     13  C   UNL A   1      32.631  28.895  23.384  1.00  0.00     0.315 C 
ATOM     14  H   UNL A   1      31.736  30.661  23.589  1.00  0.00     0.165 HD
ATOM     15  O   UNL A   1      33.628  29.288  22.745  1.00  0.00    -0.249 OA
ATOM     16  H   UNL A   1      33.333  27.061  23.662  1.00  0.00     0.165 HD
BRANCH  12  17
ATOM     17  C   UNL A   1      30.127  29.325  23.372  1.00  0.00     0.081 C 
ATOM     18  C   UNL A   1      29.990  28.646  22.000  1.00  0.00     0.031 C 
BRANCH  17  19
ATOM     19  C   UNL A   1      29.215  30.579  23.556  1.00  0.00     0.028 C 
BRANCH  19  20
ATOM     20  C   UNL A   1      29.070  31.680  22.436  1.00  0.00    -0.013 C 
ATOM     21  C   UNL A   1      28.788  33.024  23.121  1.00  0.00     0.008 C 
BRANCH  20  22
ATOM     22  C   UNL A   1      27.999  31.408  21.357  1.00  0.00    -0.000 C 
ATOM     23  C   UNL A   1      28.027  32.300  20.118  1.00  0.00     0.004 C 
ENDBRANCH  20  22
ENDBRANCH  19  20
ENDBRANCH  17  19
ENDBRANCH  12  17
ENDBRANCH   7  11
ENDBRANCH   6   7
ENDBRANCH   3   6
ENDBRANCH   1   2
BRANCH   1  24
ATOM     24  C   UNL A   1      34.843  31.137  27.626  1.00  0.00     0.021 C 
BRANCH  24  25
ATOM     25  C   UNL A   1      34.411  32.183  28.668  1.00  0.00     0.002 C 
BRANCH  25  26
ATOM     26  C   UNL A   1      34.369  33.648  28.190  1.00  0.00     0.002 C 
BRANCH  26  27
ATOM     27  C   UNL A   1      33.075  34.451  28.402  1.00  0.00     0.021 C 
BRANCH  27  28
ATOM     28  C   UNL A   1      33.236  35.883  28.911  1.00  0.00     0.116 C 
BRANCH  28  29
ATOM     29  N   UNL A   1      32.528  36.113  30.166  1.00  0.00    -0.352 N 
ATOM     30  C   UNL A   1      32.755  35.585  31.400  1.00  0.00     0.251 C 
ATOM     31  H   UNL A   1      31.774  36.744  30.112  1.00  0.00     0.163 HD
ATOM     32  O   UNL A   1      31.902  35.746  32.302  1.00  0.00    -0.269 OA
BRANCH  30  33
ATOM     33  C   UNL A   1      33.973  34.816  31.718  1.00  0.00     0.039 A 
ATOM     34  C   UNL A   1      33.851  33.569  32.341  1.00  0.00     0.014 A 
ATOM     35  C   UNL A   1      35.246  35.351  31.489  1.00  0.00     0.014 A 
ATOM     36  C   UNL A   1      34.993  32.845  32.699  1.00  0.00     0.010 A 
ATOM     37  C   UNL A   1      36.387  34.604  31.800  1.00  0.00     0.010 A 
ATOM     38  C   UNL A   1      36.273  33.351  32.422  1.00  0.00    -0.014 A 
BRANCH  38  39
ATOM     39  C   UNL A   1      37.494  32.595  32.817  1.00  0.00     0.031 A 
ATOM     40  C   UNL A   1      38.187  32.901  34.119  1.00  0.00     0.074 A 
ATOM     41  C   UNL A   1      37.999  31.652  31.999  1.00  0.00     0.049 A 
ATOM     42  N   UNL A   1      39.277  32.377  34.624  1.00  0.00    -0.248 NA
ATOM     43  C   UNL A   1      37.588  33.954  34.953  1.00  0.00     0.031 C 
ATOM     44  C   UNL A   1      37.446  31.280  30.697  1.00  0.00     0.029 A 
ATOM     45  N   UNL A   1      39.098  30.839  32.137  1.00  0.00    -0.354 N 
ATOM     46  C   UNL A   1      39.498  33.041  35.824  1.00  0.00     0.074 A 
ATOM     47  C   UNL A   1      38.461  34.042  35.947  1.00  0.00     0.031 C 
ATOM     48  C   UNL A   1      38.196  30.301  30.164  1.00  0.00     0.029 A 
ATOM     49  C   UNL A   1      39.298  29.994  31.072  1.00  0.00     0.049 A 
ATOM     50  H   UNL A   1      39.687  30.858  32.926  1.00  0.00     0.167 HD
ATOM     51  C   UNL A   1      40.464  32.823  36.750  1.00  0.00     0.037 A 
ATOM     52  C   UNL A   1      40.261  29.078  30.851  1.00  0.00     0.037 A 
ATOM     53  C   UNL A   1      41.481  31.810  36.642  1.00  0.00     0.049 A 
ATOM     54  C   UNL A   1      41.323  28.855  31.897  1.00  0.00     0.074 A 
ATOM     55  C   UNL A   1      42.471  31.479  37.551  1.00  0.00     0.029 A 
ATOM     56  N   UNL A   1      41.637  30.963  35.555  1.00  0.00    -0.354 N 
ATOM     57  N   UNL A   1      41.482  29.447  33.054  1.00  0.00    -0.248 NA
ATOM     58  C   UNL A   1      42.333  27.827  31.606  1.00  0.00     0.031 C 
ATOM     59  C   UNL A   1      43.252  30.460  36.997  1.00  0.00     0.029 A 
ATOM     60  C   UNL A   1      42.718  30.120  35.764  1.00  0.00     0.049 A 
ATOM     61  H   UNL A   1      41.065  30.960  34.754  1.00  0.00     0.167 HD
ATOM     62  C   UNL A   1      42.585  28.843  33.644  1.00  0.00     0.074 A 
ATOM     63  C   UNL A   1      43.050  27.829  32.721  1.00  0.00     0.031 C 
ATOM     64  C   UNL A   1      43.160  29.104  34.844  1.00  0.00     0.037 A 
BRANCH  51  65
ATOM     65  C   UNL A   1      40.464  33.699  37.971  1.00  0.00     0.064 A 
ATOM     66  C   UNL A   1      39.676  33.396  39.093  1.00  0.00     0.173 A 
ATOM     67  C   UNL A   1      41.289  34.832  38.037  1.00  0.00     0.173 A 
ATOM     68  F   UNL A   1      38.864  32.330  39.079  1.00  0.00    -0.203 F 
ATOM     69  C   UNL A   1      39.689  34.214  40.220  1.00  0.00     0.198 A 
ATOM     70  C   UNL A   1      41.323  35.630  39.178  1.00  0.00     0.198 A 
ATOM     71  F   UNL A   1      42.070  35.162  36.997  1.00  0.00    -0.203 F 
ATOM     72  F   UNL A   1      38.889  33.934  41.259  1.00  0.00    -0.200 F 
ATOM     73  C   UNL A   1      40.517  35.326  40.264  1.00  0.00     0.200 A 
ATOM     74  F   UNL A   1      42.134  36.696  39.225  1.00  0.00    -0.200 F 
ATOM     75  F   UNL A   1      40.533  36.108  41.352  1.00  0.00    -0.200 F 
ENDBRANCH  51  65
BRANCH  52  76
ATOM     76  C   UNL A   1      40.253  28.276  29.598  1.00  0.00     0.064 A 
ATOM     77  C   UNL A   1      39.539  27.072  29.519  1.00  0.00     0.173 A 
ATOM     78  C   UNL A   1      40.966  28.688  28.463  1.00  0.00     0.173 A 
ATOM     79  F   UNL A   1      38.861  26.625  30.586  1.00  0.00    -0.203 F 
ATOM     80  C   UNL A   1      39.558  26.299  28.359  1.00  0.00     0.198 A 
ATOM     81  C   UNL A   1      40.960  27.929  27.295  1.00  0.00     0.198 A 
ATOM     82  F   UNL A   1      41.662  29.834  28.486  1.00  0.00    -0.203 F 
ATOM     83  F   UNL A   1      38.906  25.128  28.328  1.00  0.00    -0.200 F 
ATOM     84  C   UNL A   1      40.264  26.731  27.247  1.00  0.00     0.200 A 
ATOM     85  F   UNL A   1      41.631  28.356  26.217  1.00  0.00    -0.200 F 
ATOM     86  F   UNL A   1      40.278  25.988  26.131  1.00  0.00    -0.200 F 
ENDBRANCH  52  76
BRANCH  64  87
ATOM     87  C   UNL A   1      44.328  28.253  35.251  1.00  0.00     0.064 A 
ATOM     88  C   UNL A   1      44.157  27.036  35.927  1.00  0.00     0.173 A 
ATOM     89  C   UNL A   1      45.636  28.643  34.920  1.00  0.00     0.173 A 
ATOM     90  F   UNL A   1      42.928  26.627  36.278  1.00  0.00    -0.203 F 
ATOM     91  C   UNL A   1      45.252  26.253  36.280  1.00  0.00     0.198 A 
ATOM     92  C   UNL A   1      46.727  27.842  35.248  1.00  0.00     0.198 A 
ATOM     93  F   UNL A   1      45.854  29.794  34.268  1.00  0.00    -0.203 F 
ATOM     94  F   UNL A   1      45.068  25.117  36.966  1.00  0.00    -0.200 F 
ATOM     95  C   UNL A   1      46.535  26.652  35.934  1.00  0.00     0.200 A 
ATOM     96  F   UNL A   1      47.963  28.223  34.900  1.00  0.00    -0.200 F 
ATOM     97  F   UNL A   1      47.587  25.893  36.267  1.00  0.00    -0.200 F 
ENDBRANCH  64  87
ENDBRANCH  38  39
ENDBRANCH  30  33
ENDBRANCH  28  29
ENDBRANCH  27  28
ENDBRANCH  26  27
ENDBRANCH  25  26
ENDBRANCH  24  25
ENDBRANCH   1  24
TORSDOF 19
ENDMDL
MODEL 2
REMARK VINA RESULT:     -10.5      1.572      3.199
REMARK SMILES CC[C@@H](C)C[C@@H](C)NC(=O)NC1(CC(=O)NCCCCCCNC(=O)c2ccc(-c3c4nc(c(-c5c(F)c(F)c(F)c(F)c5F)c5ccc([nH]5)c(-c5c(F)c(F)c(F)c(F)c5F)c5nc(c(-c6c(F)c(F)c(F)c(F)c6F)c6ccc3[nH]6)C=C5)C=C4)cc2)CCC1
REMARK SMILES IDX 17 1 16 2 14 3 15 4 13 6 12 7 89 8 91 9 90 10 11 11 8 12
REMARK SMILES IDX 9 13 10 15 6 17 7 18 5 19 3 20 4 21 2 22 1 23 18 24 19 25
REMARK SMILES IDX 20 26 21 27 22 28 23 29 24 30 25 32 26 33 27 34 88 35 28 36
REMARK SMILES IDX 87 37 29 38 30 39 31 40 81 41 32 42 86 43 80 44 82 45 33 46
REMARK SMILES IDX 85 47 79 48 78 49 34 51 66 52 46 53 65 54 47 55 50 56 64 57
REMARK SMILES IDX 83 58 48 59 49 60 63 62 84 63 51 64 35 65 36 66 44 67 37 68
REMARK SMILES IDX 38 69 42 70 45 71 39 72 40 73 43 74 41 75 67 76 68 77 76 78
REMARK SMILES IDX 69 79 70 80 74 81 77 82 71 83 72 84 75 85 73 86 52 87 53 88
REMARK SMILES IDX 61 89 54 90 55 91 59 92 62 93 56 94 57 95 60 96 58 97
REMARK H PARENT 16 5 8 14 11 16 23 31 82 50 50 61
REMARK Flexibility Score: inf
ROOT
ATOM      1  C   UNL A   1      33.666  29.476  26.511  1.00  0.00     0.116 C 
ENDROOT
BRANCH   1   2
ATOM      2  N   UNL A   1      34.128  29.310  25.141  1.00  0.00    -0.356 N 
ATOM      3  C   UNL A   1      33.593  28.667  24.057  1.00  0.00     0.222 C 
ATOM      4  O   UNL A   1      34.108  28.916  22.961  1.00  0.00    -0.275 OA
ATOM      5  H   UNL A   1      34.992  29.745  24.957  1.00  0.00     0.163 HD
BRANCH   3   6
ATOM      6  C   UNL A   1      32.398  27.723  24.162  1.00  0.00     0.128 C 
BRANCH   6   7
ATOM      7  C   UNL A   1      31.571  27.423  22.872  1.00  0.00     0.051 C 
ATOM      8  C   UNL A   1      30.621  28.639  22.498  1.00  0.00     0.029 C 
ATOM      9  C   UNL A   1      30.202  26.638  22.908  1.00  0.00     0.029 C 
ATOM     10  C   UNL A   1      29.514  27.936  23.317  1.00  0.00     0.005 C 
BRANCH   7  11
ATOM     11  N   UNL A   1      32.404  26.987  21.734  1.00  0.00    -0.332 N 
ATOM     12  N   UNL A   1      32.428  24.647  22.047  1.00  0.00    -0.336 N 
ATOM     13  C   UNL A   1      32.624  25.738  21.275  1.00  0.00     0.315 C 
ATOM     14  H   UNL A   1      31.977  23.886  21.615  1.00  0.00     0.165 HD
ATOM     15  O   UNL A   1      32.977  25.576  20.090  1.00  0.00    -0.249 OA
ATOM     16  H   UNL A   1      32.861  27.707  21.243  1.00  0.00     0.165 HD
BRANCH  12  17
ATOM     17  C   UNL A   1      32.805  24.457  23.462  1.00  0.00     0.081 C 
ATOM     18  C   UNL A   1      34.246  23.926  23.411  1.00  0.00     0.031 C 
BRANCH  17  19
ATOM     19  C   UNL A   1      31.798  23.499  24.174  1.00  0.00     0.028 C 
BRANCH  19  20
ATOM     20  C   UNL A   1      31.118  23.872  25.547  1.00  0.00    -0.013 C 
ATOM     21  C   UNL A   1      32.069  24.802  26.313  1.00  0.00     0.008 C 
BRANCH  20  22
ATOM     22  C   UNL A   1      30.713  22.683  26.445  1.00  0.00    -0.000 C 
ATOM     23  C   UNL A   1      29.389  22.805  27.196  1.00  0.00     0.004 C 
ENDBRANCH  20  22
ENDBRANCH  19  20
ENDBRANCH  17  19
ENDBRANCH  12  17
ENDBRANCH   7  11
ENDBRANCH   6   7
ENDBRANCH   3   6
ENDBRANCH   1   2
BRANCH   1  24
ATOM     24  C   UNL A   1      34.721  30.039  27.471  1.00  0.00     0.021 C 
BRANCH  24  25
ATOM     25  C   UNL A   1      34.416  31.322  28.264  1.00  0.00     0.002 C 
BRANCH  25  26
ATOM     26  C   UNL A   1      35.227  32.574  27.879  1.00  0.00     0.002 C 
BRANCH  26  27
ATOM     27  C   UNL A   1      34.479  33.906  27.701  1.00  0.00     0.021 C 
BRANCH  27  28
ATOM     28  C   UNL A   1      33.016  33.932  28.142  1.00  0.00     0.116 C 
BRANCH  28  29
ATOM     29  N   UNL A   1      32.745  34.987  29.113  1.00  0.00    -0.352 N 
ATOM     30  C   UNL A   1      33.276  35.186  30.351  1.00  0.00     0.251 C 
ATOM     31  H   UNL A   1      32.079  35.655  28.831  1.00  0.00     0.163 HD
ATOM     32  O   UNL A   1      32.754  36.030  31.113  1.00  0.00    -0.269 OA
BRANCH  30  33
ATOM     33  C   UNL A   1      34.447  34.432  30.838  1.00  0.00     0.039 A 
ATOM     34  C   UNL A   1      35.732  34.902  30.546  1.00  0.00     0.014 A 
ATOM     35  C   UNL A   1      34.294  33.211  31.506  1.00  0.00     0.014 A 
ATOM     36  C   UNL A   1      36.857  34.176  30.950  1.00  0.00     0.010 A 
ATOM     37  C   UNL A   1      35.419  32.513  31.956  1.00  0.00     0.010 A 
ATOM     38  C   UNL A   1      36.712  32.979  31.670  1.00  0.00    -0.014 A 
BRANCH  38  39
ATOM     39  C   UNL A   1      37.904  32.191  32.089  1.00  0.00     0.031 A 
ATOM     40  C   UNL A   1      38.567  32.465  33.413  1.00  0.00     0.074 A 
ATOM     41  C   UNL A   1      38.412  31.249  31.272  1.00  0.00     0.049 A 
ATOM     42  N   UNL A   1      39.631  31.911  33.941  1.00  0.00    -0.248 NA
ATOM     43  C   UNL A   1      37.968  33.520  34.245  1.00  0.00     0.031 C 
ATOM     44  C   UNL A   1      37.888  30.906  29.950  1.00  0.00     0.029 A 
ATOM     45  N   UNL A   1      39.489  30.409  31.430  1.00  0.00    -0.354 N 
ATOM     46  C   UNL A   1      39.832  32.555  35.156  1.00  0.00     0.074 A 
ATOM     47  C   UNL A   1      38.814  33.576  35.264  1.00  0.00     0.031 C 
ATOM     48  C   UNL A   1      38.631  29.918  29.425  1.00  0.00     0.029 A 
ATOM     49  C   UNL A   1      39.701  29.575  30.359  1.00  0.00     0.049 A 
ATOM     50  H   UNL A   1      40.056  30.406  32.235  1.00  0.00     0.167 HD
ATOM     51  C   UNL A   1      40.766  32.303  36.106  1.00  0.00     0.037 A 
ATOM     52  C   UNL A   1      40.649  28.641  30.153  1.00  0.00     0.037 A 
ATOM     53  C   UNL A   1      41.763  31.270  36.012  1.00  0.00     0.049 A 
ATOM     54  C   UNL A   1      41.677  28.381  31.224  1.00  0.00     0.074 A 
ATOM     55  C   UNL A   1      42.721  30.905  36.944  1.00  0.00     0.029 A 
ATOM     56  N   UNL A   1      41.933  30.433  34.919  1.00  0.00    -0.354 N 
ATOM     57  N   UNL A   1      41.816  28.954  32.394  1.00  0.00    -0.248 NA
ATOM     58  C   UNL A   1      42.672  27.335  30.948  1.00  0.00     0.031 C 
ATOM     59  C   UNL A   1      43.495  29.876  36.398  1.00  0.00     0.029 A 
ATOM     60  C   UNL A   1      42.989  29.565  35.146  1.00  0.00     0.049 A 
ATOM     61  H   UNL A   1      41.383  30.453  34.102  1.00  0.00     0.167 HD
ATOM     62  C   UNL A   1      42.888  28.318  33.006  1.00  0.00     0.074 A 
ATOM     63  C   UNL A   1      43.356  27.306  32.083  1.00  0.00     0.031 C 
ATOM     64  C   UNL A   1      43.434  28.551  34.225  1.00  0.00     0.037 A 
BRANCH  51  65
ATOM     65  C   UNL A   1      40.750  33.162  37.338  1.00  0.00     0.064 A 
ATOM     66  C   UNL A   1      39.811  32.963  38.362  1.00  0.00     0.173 A 
ATOM     67  C   UNL A   1      41.709  34.172  37.516  1.00  0.00     0.173 A 
ATOM     68  F   UNL A   1      38.869  32.017  38.238  1.00  0.00    -0.203 F 
ATOM     69  C   UNL A   1      39.811  33.764  39.501  1.00  0.00     0.198 A 
ATOM     70  C   UNL A   1      41.725  34.950  38.671  1.00  0.00     0.198 A 
ATOM     71  F   UNL A   1      42.636  34.399  36.574  1.00  0.00    -0.203 F 
ATOM     72  F   UNL A   1      38.871  33.589  40.441  1.00  0.00    -0.200 F 
ATOM     73  C   UNL A   1      40.771  34.752  39.658  1.00  0.00     0.200 A 
ATOM     74  F   UNL A   1      42.662  35.896  38.828  1.00  0.00    -0.200 F 
ATOM     75  F   UNL A   1      40.773  35.517  40.758  1.00  0.00    -0.200 F 
ENDBRANCH  51  65
BRANCH  52  76
ATOM     76  C   UNL A   1      40.660  27.856  28.889  1.00  0.00     0.064 A 
ATOM     77  C   UNL A   1      39.903  26.683  28.765  1.00  0.00     0.173 A 
ATOM     78  C   UNL A   1      41.433  28.253  27.789  1.00  0.00     0.173 A 
ATOM     79  F   UNL A   1      39.164  26.250  29.797  1.00  0.00    -0.203 F 
ATOM     80  C   UNL A   1      39.937  25.924  27.596  1.00  0.00     0.198 A 
ATOM     81  C   UNL A   1      41.443  27.509  26.611  1.00  0.00     0.198 A 
ATOM     82  F   UNL A   1      42.172  29.370  27.856  1.00  0.00    -0.203 F 
ATOM     83  F   UNL A   1      39.241  24.781  27.522  1.00  0.00    -0.200 F 
ATOM     84  C   UNL A   1      40.703  26.341  26.518  1.00  0.00     0.200 A 
ATOM     85  F   UNL A   1      42.174  27.922  25.566  1.00  0.00    -0.200 F 
ATOM     86  F   UNL A   1      40.732  25.612  25.394  1.00  0.00    -0.200 F 
ENDBRANCH  52  76
BRANCH  64  87
ATOM     87  C   UNL A   1      44.572  27.669  34.653  1.00  0.00     0.064 A 
ATOM     88  C   UNL A   1      45.909  28.026  34.426  1.00  0.00     0.173 A 
ATOM     89  C   UNL A   1      44.318  26.469  35.337  1.00  0.00     0.173 A 
ATOM     90  F   UNL A   1      46.203  29.155  33.763  1.00  0.00    -0.203 F 
ATOM     91  C   UNL A   1      46.950  27.202  34.846  1.00  0.00     0.198 A 
ATOM     92  C   UNL A   1      45.362  25.664  35.781  1.00  0.00     0.198 A 
ATOM     93  F   UNL A   1      43.057  26.086  35.585  1.00  0.00    -0.203 F 
ATOM     94  F   UNL A   1      48.219  27.540  34.578  1.00  0.00    -0.200 F 
ATOM     95  C   UNL A   1      46.677  26.026  35.529  1.00  0.00     0.200 A 
ATOM     96  F   UNL A   1      45.096  24.536  36.454  1.00  0.00    -0.200 F 
ATOM     97  F   UNL A   1      47.681  25.240  35.940  1.00  0.00    -0.200 F 
ENDBRANCH  64  87
ENDBRANCH  38  39
ENDBRANCH  30  33
ENDBRANCH  28  29
ENDBRANCH  27  28
ENDBRANCH  26  27
ENDBRANCH  25  26
ENDBRANCH  24  25
ENDBRANCH   1  24
TORSDOF 19
ENDMDL
MODEL 3
REMARK VINA RESULT:     -10.4      1.498      3.435
REMARK SMILES CC[C@@H](C)C[C@@H](C)NC(=O)NC1(CC(=O)NCCCCCCNC(=O)c2ccc(-c3c4nc(c(-c5c(F)c(F)c(F)c(F)c5F)c5ccc([nH]5)c(-c5c(F)c(F)c(F)c(F)c5F)c5nc(c(-c6c(F)c(F)c(F)c(F)c6F)c6ccc3[nH]6)C=C5)C=C4)cc2)CCC1
REMARK SMILES IDX 17 1 16 2 14 3 15 4 13 6 12 7 89 8 91 9 90 10 11 11 8 12
REMARK SMILES IDX 9 13 10 15 6 17 7 18 5 19 3 20 4 21 2 22 1 23 18 24 19 25
REMARK SMILES IDX 20 26 21 27 22 28 23 29 24 30 25 32 26 33 27 34 88 35 28 36
REMARK SMILES IDX 87 37 29 38 30 39 31 40 81 41 32 42 86 43 80 44 82 45 33 46
REMARK SMILES IDX 85 47 79 48 78 49 34 51 66 52 46 53 65 54 47 55 50 56 64 57
REMARK SMILES IDX 83 58 48 59 49 60 63 62 84 63 51 64 35 65 36 66 44 67 37 68
REMARK SMILES IDX 38 69 42 70 45 71 39 72 40 73 43 74 41 75 67 76 68 77 76 78
REMARK SMILES IDX 69 79 70 80 74 81 77 82 71 83 72 84 75 85 73 86 52 87 53 88
REMARK SMILES IDX 61 89 54 90 55 91 59 92 62 93 56 94 57 95 60 96 58 97
REMARK H PARENT 16 5 8 14 11 16 23 31 82 50 50 61
REMARK Flexibility Score: inf
ROOT
ATOM      1  C   UNL A   1      33.825  29.415  26.635  1.00  0.00     0.116 C 
ENDROOT
BRANCH   1   2
ATOM      2  N   UNL A   1      34.319  29.155  25.291  1.00  0.00    -0.356 N 
ATOM      3  C   UNL A   1      33.753  28.554  24.199  1.00  0.00     0.222 C 
ATOM      4  O   UNL A   1      34.340  28.708  23.122  1.00  0.00    -0.275 OA
ATOM      5  H   UNL A   1      35.237  29.475  25.136  1.00  0.00     0.163 HD
BRANCH   3   6
ATOM      6  C   UNL A   1      32.446  27.769  24.271  1.00  0.00     0.128 C 
BRANCH   6   7
ATOM      7  C   UNL A   1      31.636  27.550  22.955  1.00  0.00     0.051 C 
ATOM      8  C   UNL A   1      30.791  28.840  22.574  1.00  0.00     0.029 C 
ATOM      9  C   UNL A   1      30.212  26.870  22.940  1.00  0.00     0.029 C 
ATOM     10  C   UNL A   1      29.612  28.211  23.351  1.00  0.00     0.005 C 
BRANCH   7  11
ATOM     11  N   UNL A   1      32.465  27.067  21.833  1.00  0.00    -0.332 N 
ATOM     12  N   UNL A   1      32.435  24.736  22.203  1.00  0.00    -0.336 N 
ATOM     13  C   UNL A   1      32.660  25.803  21.406  1.00  0.00     0.315 C 
ATOM     14  H   UNL A   1      31.971  23.975  21.787  1.00  0.00     0.165 HD
ATOM     15  O   UNL A   1      33.016  25.603  20.227  1.00  0.00    -0.249 OA
ATOM     16  H   UNL A   1      32.942  27.765  21.327  1.00  0.00     0.165 HD
BRANCH  12  17
ATOM     17  C   UNL A   1      32.800  24.573  23.624  1.00  0.00     0.081 C 
ATOM     18  C   UNL A   1      34.320  24.348  23.612  1.00  0.00     0.031 C 
BRANCH  17  19
ATOM     19  C   UNL A   1      31.988  23.404  24.268  1.00  0.00     0.028 C 
BRANCH  19  20
ATOM     20  C   UNL A   1      31.670  23.358  25.811  1.00  0.00    -0.013 C 
ATOM     21  C   UNL A   1      31.784  24.785  26.365  1.00  0.00     0.008 C 
BRANCH  20  22
ATOM     22  C   UNL A   1      32.542  22.401  26.653  1.00  0.00    -0.000 C 
ATOM     23  C   UNL A   1      33.925  22.904  27.059  1.00  0.00     0.004 C 
ENDBRANCH  20  22
ENDBRANCH  19  20
ENDBRANCH  17  19
ENDBRANCH  12  17
ENDBRANCH   7  11
ENDBRANCH   6   7
ENDBRANCH   3   6
ENDBRANCH   1   2
BRANCH   1  24
ATOM     24  C   UNL A   1      34.815  30.156  27.542  1.00  0.00     0.021 C 
BRANCH  24  25
ATOM     25  C   UNL A   1      34.373  31.450  28.247  1.00  0.00     0.002 C 
BRANCH  25  26
ATOM     26  C   UNL A   1      35.219  32.707  27.965  1.00  0.00     0.002 C 
BRANCH  26  27
ATOM     27  C   UNL A   1      34.515  34.073  27.932  1.00  0.00     0.021 C 
BRANCH  27  28
ATOM     28  C   UNL A   1      33.027  34.083  28.283  1.00  0.00     0.116 C 
BRANCH  28  29
ATOM     29  N   UNL A   1      32.701  35.080  29.297  1.00  0.00    -0.352 N 
ATOM     30  C   UNL A   1      33.191  35.228  30.559  1.00  0.00     0.251 C 
ATOM     31  H   UNL A   1      32.026  35.745  29.029  1.00  0.00     0.163 HD
ATOM     32  O   UNL A   1      32.625  36.020  31.346  1.00  0.00    -0.269 OA
BRANCH  30  33
ATOM     33  C   UNL A   1      34.366  34.480  31.043  1.00  0.00     0.039 A 
ATOM     34  C   UNL A   1      35.645  35.003  30.827  1.00  0.00     0.014 A 
ATOM     35  C   UNL A   1      34.227  33.216  31.630  1.00  0.00     0.014 A 
ATOM     36  C   UNL A   1      36.777  34.286  31.229  1.00  0.00     0.010 A 
ATOM     37  C   UNL A   1      35.356  32.524  32.079  1.00  0.00     0.010 A 
ATOM     38  C   UNL A   1      36.643  33.043  31.870  1.00  0.00    -0.014 A 
BRANCH  38  39
ATOM     39  C   UNL A   1      37.843  32.265  32.284  1.00  0.00     0.031 A 
ATOM     40  C   UNL A   1      38.515  32.552  33.601  1.00  0.00     0.074 A 
ATOM     41  C   UNL A   1      38.351  31.320  31.470  1.00  0.00     0.049 A 
ATOM     42  N   UNL A   1      39.586  32.008  34.124  1.00  0.00    -0.248 NA
ATOM     43  C   UNL A   1      37.916  33.609  34.431  1.00  0.00     0.031 C 
ATOM     44  C   UNL A   1      37.818  30.965  30.154  1.00  0.00     0.029 A 
ATOM     45  N   UNL A   1      39.433  30.488  31.625  1.00  0.00    -0.354 N 
ATOM     46  C   UNL A   1      39.793  32.661  35.333  1.00  0.00     0.074 A 
ATOM     47  C   UNL A   1      38.770  33.677  35.442  1.00  0.00     0.031 C 
ATOM     48  C   UNL A   1      38.563  29.978  29.630  1.00  0.00     0.029 A 
ATOM     49  C   UNL A   1      39.642  29.648  30.558  1.00  0.00     0.049 A 
ATOM     50  H   UNL A   1      40.007  30.494  32.425  1.00  0.00     0.167 HD
ATOM     51  C   UNL A   1      40.736  32.421  36.277  1.00  0.00     0.037 A 
ATOM     52  C   UNL A   1      40.594  28.718  30.350  1.00  0.00     0.037 A 
ATOM     53  C   UNL A   1      41.739  31.393  36.183  1.00  0.00     0.049 A 
ATOM     54  C   UNL A   1      41.631  28.471  31.416  1.00  0.00     0.074 A 
ATOM     55  C   UNL A   1      42.706  31.040  37.109  1.00  0.00     0.029 A 
ATOM     56  N   UNL A   1      41.905  30.550  35.094  1.00  0.00    -0.354 N 
ATOM     57  N   UNL A   1      41.776  29.053  32.580  1.00  0.00    -0.248 NA
ATOM     58  C   UNL A   1      42.630  27.429  31.139  1.00  0.00     0.031 C 
ATOM     59  C   UNL A   1      43.482  30.012  36.564  1.00  0.00     0.029 A 
ATOM     60  C   UNL A   1      42.967  29.689  35.319  1.00  0.00     0.049 A 
ATOM     61  H   UNL A   1      41.349  30.561  34.281  1.00  0.00     0.167 HD
ATOM     62  C   UNL A   1      42.856  28.428  33.188  1.00  0.00     0.074 A 
ATOM     63  C   UNL A   1      43.324  27.412  32.268  1.00  0.00     0.031 C 
ATOM     64  C   UNL A   1      43.412  28.672  34.401  1.00  0.00     0.037 A 
BRANCH  51  65
ATOM     65  C   UNL A   1      40.725  33.289  37.504  1.00  0.00     0.064 A 
ATOM     66  C   UNL A   1      41.624  34.356  37.659  1.00  0.00     0.173 A 
ATOM     67  C   UNL A   1      39.781  33.075  38.521  1.00  0.00     0.173 A 
ATOM     68  F   UNL A   1      42.550  34.598  36.720  1.00  0.00    -0.203 F 
ATOM     69  C   UNL A   1      41.600  35.155  38.799  1.00  0.00     0.198 A 
ATOM     70  C   UNL A   1      39.739  33.896  39.645  1.00  0.00     0.198 A 
ATOM     71  F   UNL A   1      38.893  32.075  38.420  1.00  0.00    -0.203 F 
ATOM     72  F   UNL A   1      42.501  36.136  38.948  1.00  0.00    -0.200 F 
ATOM     73  C   UNL A   1      40.654  34.928  39.788  1.00  0.00     0.200 A 
ATOM     74  F   UNL A   1      38.817  33.685  40.594  1.00  0.00    -0.200 F 
ATOM     75  F   UNL A   1      40.628  35.702  40.882  1.00  0.00    -0.200 F 
ENDBRANCH  51  65
BRANCH  52  76
ATOM     76  C   UNL A   1      40.599  27.924  29.092  1.00  0.00     0.064 A 
ATOM     77  C   UNL A   1      41.396  28.306  28.004  1.00  0.00     0.173 A 
ATOM     78  C   UNL A   1      39.802  26.780  28.948  1.00  0.00     0.173 A 
ATOM     79  F   UNL A   1      42.159  29.405  28.086  1.00  0.00    -0.203 F 
ATOM     80  C   UNL A   1      41.377  27.586  26.810  1.00  0.00     0.198 A 
ATOM     81  C   UNL A   1      39.806  26.045  27.765  1.00  0.00     0.198 A 
ATOM     82  F   UNL A   1      39.024  26.370  29.961  1.00  0.00    -0.203 F 
ATOM     83  F   UNL A   1      42.112  28.001  25.769  1.00  0.00    -0.200 F 
ATOM     84  C   UNL A   1      40.587  26.453  26.694  1.00  0.00     0.200 A 
ATOM     85  F   UNL A   1      39.052  24.942  27.660  1.00  0.00    -0.200 F 
ATOM     86  F   UNL A   1      40.572  25.760  25.547  1.00  0.00    -0.200 F 
ENDBRANCH  52  76
BRANCH  64  87
ATOM     87  C   UNL A   1      44.558  27.800  34.825  1.00  0.00     0.064 A 
ATOM     88  C   UNL A   1      44.353  26.583  35.492  1.00  0.00     0.173 A 
ATOM     89  C   UNL A   1      45.878  28.170  34.522  1.00  0.00     0.173 A 
ATOM     90  F   UNL A   1      43.111  26.192  35.817  1.00  0.00    -0.203 F 
ATOM     91  C   UNL A   1      45.429  25.780  35.861  1.00  0.00     0.198 A 
ATOM     92  C   UNL A   1      46.949  27.350  34.867  1.00  0.00     0.198 A 
ATOM     93  F   UNL A   1      46.127  29.321  33.881  1.00  0.00    -0.203 F 
ATOM     94  F   UNL A   1      45.213  24.643  36.537  1.00  0.00    -0.200 F 
ATOM     95  C   UNL A   1      46.725  26.159  35.542  1.00  0.00     0.200 A 
ATOM     96  F   UNL A   1      48.198  27.712  34.545  1.00  0.00    -0.200 F 
ATOM     97  F   UNL A   1      47.758  25.381  35.891  1.00  0.00    -0.200 F 
ENDBRANCH  64  87
ENDBRANCH  38  39
ENDBRANCH  30  33
ENDBRANCH  28  29
ENDBRANCH  27  28
ENDBRANCH  26  27
ENDBRANCH  25  26
ENDBRANCH  24  25
ENDBRANCH   1  24
TORSDOF 19
ENDMDL
