MODEL 1
REMARK VINA RESULT:     -13.0      0.000      0.000
REMARK SMILES CC(C)c1ccc2c(c1)C(=O)C[C@@H]1[C@@]2(C)CCC[C@]1(C)C(=O)NCCCCCCNC(=O)c1ccc(-c2c3nc(c(-c4c(F)c(F)c(F)c(F)c4F)c4ccc([nH]4)c(-c4c(F)c(F)c(F)c(F)c4F)c4nc(c(-c5c(F)c(F)c(F)c(F)c5F)c5ccc2[nH]5)C=C4)C=C3)cc1
REMARK SMILES IDX 27 1 26 2 25 3 24 4 23 5 21 6 22 7 19 9 4 10 5 11 9 12 6 13
REMARK SMILES IDX 8 14 7 15 10 16 14 17 12 18 11 19 13 20 16 21 15 22 17 23
REMARK SMILES IDX 18 24 20 25 2 26 1 27 3 28 28 29 29 30 30 31 31 32 32 34
REMARK SMILES IDX 33 35 34 36 95 37 35 38 94 39 36 40 37 41 38 42 88 43 39 44
REMARK SMILES IDX 93 45 87 46 89 47 40 48 92 49 86 50 85 51 41 53 73 54 53 55
REMARK SMILES IDX 72 56 54 57 57 58 71 59 90 60 55 61 56 62 70 64 91 65 58 66
REMARK SMILES IDX 42 67 43 68 51 69 44 70 45 71 49 72 52 73 46 74 47 75 50 76
REMARK SMILES IDX 48 77 74 78 75 79 83 80 76 81 77 82 81 83 84 84 78 85 79 86
REMARK SMILES IDX 82 87 80 88 59 89 60 90 68 91 61 92 62 93 66 94 69 95 63 96
REMARK SMILES IDX 64 97 67 98 65 99
REMARK H PARENT 23 8 30 33 89 52 57 63
REMARK Flexibility Score: inf
ROOT
ATOM      1  C   UNL A   1      34.777  32.966  29.202  1.00  0.00     0.002 C 
ENDROOT
BRANCH   1   2
ATOM      2  C   UNL A   1      35.433  32.256  28.012  1.00  0.00     0.002 C 
BRANCH   2   3
ATOM      3  C   UNL A   1      35.299  30.733  27.964  1.00  0.00     0.021 C 
BRANCH   3   4
ATOM      4  C   UNL A   1      33.966  30.227  27.449  1.00  0.00     0.116 C 
BRANCH   4   5
ATOM      5  N   UNL A   1      33.951  29.921  26.042  1.00  0.00    -0.356 N 
ATOM      6  C   UNL A   1      33.649  28.651  25.630  1.00  0.00     0.226 C 
ATOM      7  O   UNL A   1      34.194  27.681  26.153  1.00  0.00    -0.274 OA
ATOM      8  H   UNL A   1      34.155  30.622  25.380  1.00  0.00     0.163 HD
BRANCH   6   9
ATOM      9  C   UNL A   1      32.449  28.518  24.652  1.00  0.00     0.050 C 
ATOM     10  C   UNL A   1      32.612  21.873  24.298  1.00  0.00    -0.045 A 
ATOM     11  C   UNL A   1      32.791  22.374  23.008  1.00  0.00     0.004 A 
ATOM     12  C   UNL A   1      32.182  22.783  25.273  1.00  0.00     0.016 A 
ATOM     13  C   UNL A   1      32.631  23.736  22.731  1.00  0.00     0.005 A 
ATOM     14  C   UNL A   1      31.999  24.155  24.991  1.00  0.00     0.022 A 
ATOM     15  C   UNL A   1      32.267  24.671  23.724  1.00  0.00    -0.031 A 
ATOM     16  C   UNL A   1      31.505  25.005  26.087  1.00  0.00     0.163 C 
ATOM     17  C   UNL A   1      32.202  26.165  23.380  1.00  0.00    -0.003 C 
ATOM     18  C   UNL A   1      31.586  26.494  25.963  1.00  0.00     0.086 C 
ATOM     19  O   UNL A   1      31.101  24.491  27.129  1.00  0.00    -0.294 OA
ATOM     20  C   UNL A   1      31.747  27.107  24.564  1.00  0.00     0.022 C 
ATOM     21  C   UNL A   1      33.591  26.562  22.824  1.00  0.00     0.012 C 
ATOM     22  C   UNL A   1      31.162  26.334  22.227  1.00  0.00     0.017 C 
ATOM     23  C   UNL A   1      33.762  28.025  22.452  1.00  0.00     0.002 C 
ATOM     24  C   UNL A   1      32.945  29.011  23.272  1.00  0.00     0.017 C 
ATOM     25  C   UNL A   1      31.404  29.567  25.132  1.00  0.00     0.022 C 
BRANCH  10  26
ATOM     26  C   UNL A   1      32.825  20.387  24.576  1.00  0.00     0.013 C 
ATOM     27  C   UNL A   1      32.344  19.508  23.409  1.00  0.00     0.012 C 
ATOM     28  C   UNL A   1      34.269  19.988  24.907  1.00  0.00     0.012 C 
ENDBRANCH  10  26
ENDBRANCH   6   9
ENDBRANCH   4   5
ENDBRANCH   3   4
ENDBRANCH   2   3
ENDBRANCH   1   2
BRANCH   1  29
ATOM     29  C   UNL A   1      33.674  33.968  28.872  1.00  0.00     0.021 C 
BRANCH  29  30
ATOM     30  C   UNL A   1      33.844  35.353  29.472  1.00  0.00     0.116 C 
BRANCH  30  31
ATOM     31  N   UNL A   1      32.781  35.732  30.384  1.00  0.00    -0.352 N 
ATOM     32  C   UNL A   1      32.736  35.536  31.745  1.00  0.00     0.251 C 
ATOM     33  H   UNL A   1      32.001  36.179  29.982  1.00  0.00     0.163 HD
ATOM     34  O   UNL A   1      31.737  35.824  32.397  1.00  0.00    -0.269 OA
BRANCH  32  35
ATOM     35  C   UNL A   1      33.904  34.914  32.406  1.00  0.00     0.039 A 
ATOM     36  C   UNL A   1      35.117  35.602  32.486  1.00  0.00     0.014 A 
ATOM     37  C   UNL A   1      33.806  33.595  32.854  1.00  0.00     0.014 A 
ATOM     38  C   UNL A   1      36.269  34.914  32.850  1.00  0.00     0.010 A 
ATOM     39  C   UNL A   1      34.952  32.934  33.304  1.00  0.00     0.010 A 
ATOM     40  C   UNL A   1      36.203  33.571  33.256  1.00  0.00    -0.014 A 
BRANCH  40  41
ATOM     41  C   UNL A   1      37.452  32.852  33.617  1.00  0.00     0.031 A 
ATOM     42  C   UNL A   1      38.070  31.855  32.674  1.00  0.00     0.074 A 
ATOM     43  C   UNL A   1      38.057  33.137  34.786  1.00  0.00     0.049 A 
ATOM     44  N   UNL A   1      39.149  31.128  32.832  1.00  0.00    -0.248 NA
ATOM     45  C   UNL A   1      37.391  31.637  31.387  1.00  0.00     0.031 C 
ATOM     46  C   UNL A   1      37.561  34.094  35.777  1.00  0.00     0.029 A 
ATOM     47  N   UNL A   1      39.226  32.670  35.331  1.00  0.00    -0.354 N 
ATOM     48  C   UNL A   1      39.264  30.357  31.682  1.00  0.00     0.074 A 
ATOM     49  C   UNL A   1      38.134  30.684  30.840  1.00  0.00     0.031 C 
ATOM     50  C   UNL A   1      38.441  34.179  36.785  1.00  0.00     0.029 A 
ATOM     51  C   UNL A   1      39.528  33.235  36.546  1.00  0.00     0.049 A 
ATOM     52  H   UNL A   1      39.794  31.995  34.894  1.00  0.00     0.167 HD
ATOM     53  C   UNL A   1      40.232  29.467  31.357  1.00  0.00     0.037 A 
ATOM     54  C   UNL A   1      40.555  33.007  37.386  1.00  0.00     0.037 A 
ATOM     55  C   UNL A   1      41.374  29.169  32.183  1.00  0.00     0.049 A 
ATOM     56  C   UNL A   1      41.594  31.989  37.013  1.00  0.00     0.074 A 
ATOM     57  C   UNL A   1      42.425  28.307  31.920  1.00  0.00     0.029 A 
ATOM     58  N   UNL A   1      41.618  29.729  33.428  1.00  0.00    -0.354 N 
ATOM     59  N   UNL A   1      41.693  31.273  35.921  1.00  0.00    -0.248 NA
ATOM     60  C   UNL A   1      42.659  31.739  37.995  1.00  0.00     0.031 C 
ATOM     61  C   UNL A   1      43.282  28.312  33.023  1.00  0.00     0.029 A 
ATOM     62  C   UNL A   1      42.791  29.212  33.955  1.00  0.00     0.049 A 
ATOM     63  H   UNL A   1      41.043  30.394  33.871  1.00  0.00     0.167 HD
ATOM     64  C   UNL A   1      42.830  30.495  36.076  1.00  0.00     0.074 A 
ATOM     65  C   UNL A   1      43.404  30.844  37.360  1.00  0.00     0.031 C 
ATOM     66  C   UNL A   1      43.349  29.568  35.234  1.00  0.00     0.037 A 
BRANCH  53  67
ATOM     67  C   UNL A   1      40.113  28.736  30.052  1.00  0.00     0.064 A 
ATOM     68  C   UNL A   1      40.691  29.233  28.876  1.00  0.00     0.173 A 
ATOM     69  C   UNL A   1      39.497  27.475  29.998  1.00  0.00     0.173 A 
ATOM     70  F   UNL A   1      41.282  30.437  28.872  1.00  0.00    -0.203 F 
ATOM     71  C   UNL A   1      40.653  28.499  27.693  1.00  0.00     0.198 A 
ATOM     72  C   UNL A   1      39.482  26.732  28.821  1.00  0.00     0.198 A 
ATOM     73  F   UNL A   1      38.936  26.950  31.098  1.00  0.00    -0.203 F 
ATOM     74  F   UNL A   1      41.194  29.004  26.575  1.00  0.00    -0.200 F 
ATOM     75  C   UNL A   1      40.059  27.245  27.669  1.00  0.00     0.200 A 
ATOM     76  F   UNL A   1      38.921  25.516  28.804  1.00  0.00    -0.200 F 
ATOM     77  F   UNL A   1      40.043  26.532  26.535  1.00  0.00    -0.200 F 
ENDBRANCH  53  67
BRANCH  54  78
ATOM     78  C   UNL A   1      40.635  33.756  38.666  1.00  0.00     0.064 A 
ATOM     79  C   UNL A   1      41.462  34.880  38.792  1.00  0.00     0.173 A 
ATOM     80  C   UNL A   1      39.867  33.381  39.778  1.00  0.00     0.173 A 
ATOM     81  F   UNL A   1      42.231  35.263  37.762  1.00  0.00    -0.203 F 
ATOM     82  C   UNL A   1      41.523  35.596  39.985  1.00  0.00     0.198 A 
ATOM     83  C   UNL A   1      39.906  34.116  40.960  1.00  0.00     0.198 A 
ATOM     84  F   UNL A   1      39.057  32.314  39.706  1.00  0.00    -0.203 F 
ATOM     85  F   UNL A   1      42.348  36.647  40.091  1.00  0.00    -0.200 F 
ATOM     86  C   UNL A   1      40.738  35.219  41.065  1.00  0.00     0.200 A 
ATOM     87  F   UNL A   1      39.132  33.759  41.994  1.00  0.00    -0.200 F 
ATOM     88  F   UNL A   1      40.786  35.918  42.207  1.00  0.00    -0.200 F 
ENDBRANCH  54  78
BRANCH  66  89
ATOM     89  C   UNL A   1      44.603  28.869  35.664  1.00  0.00     0.064 A 
ATOM     90  C   UNL A   1      44.556  27.664  36.379  1.00  0.00     0.173 A 
ATOM     91  C   UNL A   1      45.861  29.372  35.300  1.00  0.00     0.173 A 
ATOM     92  F   UNL A   1      43.377  27.151  36.761  1.00  0.00    -0.203 F 
ATOM     93  C   UNL A   1      45.726  26.994  36.726  1.00  0.00     0.198 A 
ATOM     94  C   UNL A   1      47.027  28.686  35.625  1.00  0.00     0.198 A 
ATOM     95  F   UNL A   1      45.957  30.518  34.609  1.00  0.00    -0.203 F 
ATOM     96  F   UNL A   1      45.660  25.861  37.439  1.00  0.00    -0.200 F 
ATOM     97  C   UNL A   1      46.958  27.500  36.342  1.00  0.00     0.200 A 
ATOM     98  F   UNL A   1      48.216  29.168  35.241  1.00  0.00    -0.200 F 
ATOM     99  F   UNL A   1      48.083  26.845  36.663  1.00  0.00    -0.200 F 
ENDBRANCH  66  89
ENDBRANCH  40  41
ENDBRANCH  32  35
ENDBRANCH  30  31
ENDBRANCH  29  30
ENDBRANCH   1  29
TORSDOF 14
ENDMDL
MODEL 2
REMARK VINA RESULT:     -13.0      1.865      7.397
REMARK SMILES CC(C)c1ccc2c(c1)C(=O)C[C@@H]1[C@@]2(C)CCC[C@]1(C)C(=O)NCCCCCCNC(=O)c1ccc(-c2c3nc(c(-c4c(F)c(F)c(F)c(F)c4F)c4ccc([nH]4)c(-c4c(F)c(F)c(F)c(F)c4F)c4nc(c(-c5c(F)c(F)c(F)c(F)c5F)c5ccc2[nH]5)C=C4)C=C3)cc1
REMARK SMILES IDX 27 1 26 2 25 3 24 4 23 5 21 6 22 7 19 9 4 10 5 11 9 12 6 13
REMARK SMILES IDX 8 14 7 15 10 16 14 17 12 18 11 19 13 20 16 21 15 22 17 23
REMARK SMILES IDX 18 24 20 25 2 26 1 27 3 28 28 29 29 30 30 31 31 32 32 34
REMARK SMILES IDX 33 35 34 36 95 37 35 38 94 39 36 40 37 41 38 42 88 43 39 44
REMARK SMILES IDX 93 45 87 46 89 47 40 48 92 49 86 50 85 51 41 53 73 54 53 55
REMARK SMILES IDX 72 56 54 57 57 58 71 59 90 60 55 61 56 62 70 64 91 65 58 66
REMARK SMILES IDX 42 67 43 68 51 69 44 70 45 71 49 72 52 73 46 74 47 75 50 76
REMARK SMILES IDX 48 77 74 78 75 79 83 80 76 81 77 82 81 83 84 84 78 85 79 86
REMARK SMILES IDX 82 87 80 88 59 89 60 90 68 91 61 92 62 93 66 94 69 95 63 96
REMARK SMILES IDX 64 97 67 98 65 99
REMARK H PARENT 23 8 30 33 89 52 57 63
REMARK Flexibility Score: inf
ROOT
ATOM      1  C   UNL A   1      32.283  30.611  26.904  1.00  0.00     0.002 C 
ENDROOT
BRANCH   1   2
ATOM      2  C   UNL A   1      33.553  30.230  27.673  1.00  0.00     0.002 C 
BRANCH   2   3
ATOM      3  C   UNL A   1      34.306  28.992  27.183  1.00  0.00     0.021 C 
BRANCH   3   4
ATOM      4  C   UNL A   1      33.675  28.292  25.995  1.00  0.00     0.116 C 
BRANCH   4   5
ATOM      5  N   UNL A   1      33.222  26.952  26.268  1.00  0.00    -0.356 N 
ATOM      6  C   UNL A   1      31.885  26.713  26.442  1.00  0.00     0.226 C 
ATOM      7  O   UNL A   1      31.218  27.426  27.189  1.00  0.00    -0.274 OA
ATOM      8  H   UNL A   1      33.870  26.212  26.328  1.00  0.00     0.163 HD
BRANCH   6   9
ATOM      9  C   UNL A   1      31.250  25.663  25.490  1.00  0.00     0.050 C 
ATOM     10  C   UNL A   1      36.771  22.019  24.742  1.00  0.00    -0.045 A 
ATOM     11  C   UNL A   1      36.381  22.468  23.480  1.00  0.00     0.004 A 
ATOM     12  C   UNL A   1      35.842  22.172  25.779  1.00  0.00     0.016 A 
ATOM     13  C   UNL A   1      35.155  23.115  23.287  1.00  0.00     0.005 A 
ATOM     14  C   UNL A   1      34.594  22.806  25.583  1.00  0.00     0.022 A 
ATOM     15  C   UNL A   1      34.243  23.335  24.342  1.00  0.00    -0.031 A 
ATOM     16  C   UNL A   1      33.686  22.870  26.740  1.00  0.00     0.163 C 
ATOM     17  C   UNL A   1      32.960  24.136  24.088  1.00  0.00    -0.003 C 
ATOM     18  C   UNL A   1      32.503  23.785  26.702  1.00  0.00     0.086 C 
ATOM     19  O   UNL A   1      33.943  22.233  27.760  1.00  0.00    -0.294 OA
ATOM     20  C   UNL A   1      32.003  24.284  25.337  1.00  0.00     0.022 C 
ATOM     21  C   UNL A   1      33.389  25.511  23.521  1.00  0.00     0.012 C 
ATOM     22  C   UNL A   1      32.158  23.391  22.975  1.00  0.00     0.017 C 
ATOM     23  C   UNL A   1      32.263  26.488  23.231  1.00  0.00     0.002 C 
ATOM     24  C   UNL A   1      31.041  26.368  24.128  1.00  0.00     0.017 C 
ATOM     25  C   UNL A   1      29.827  25.395  26.057  1.00  0.00     0.022 C 
BRANCH  10  26
ATOM     26  C   UNL A   1      38.128  21.346  24.927  1.00  0.00     0.013 C 
ATOM     27  C   UNL A   1      38.895  21.916  26.132  1.00  0.00     0.012 C 
ATOM     28  C   UNL A   1      38.083  19.819  25.072  1.00  0.00     0.012 C 
ENDBRANCH  10  26
ENDBRANCH   6   9
ENDBRANCH   4   5
ENDBRANCH   3   4
ENDBRANCH   2   3
ENDBRANCH   1   2
BRANCH   1  29
ATOM     29  C   UNL A   1      31.907  32.090  26.901  1.00  0.00     0.021 C 
BRANCH  29  30
ATOM     30  C   UNL A   1      33.006  33.047  27.330  1.00  0.00     0.116 C 
BRANCH  30  31
ATOM     31  N   UNL A   1      32.521  34.355  27.731  1.00  0.00    -0.352 N 
ATOM     32  C   UNL A   1      33.018  35.161  28.730  1.00  0.00     0.251 C 
ATOM     33  H   UNL A   1      31.747  34.705  27.233  1.00  0.00     0.163 HD
ATOM     34  O   UNL A   1      32.463  36.212  29.034  1.00  0.00    -0.269 OA
BRANCH  32  35
ATOM     35  C   UNL A   1      34.210  34.704  29.476  1.00  0.00     0.039 A 
ATOM     36  C   UNL A   1      35.472  34.737  28.876  1.00  0.00     0.014 A 
ATOM     37  C   UNL A   1      34.044  34.146  30.745  1.00  0.00     0.014 A 
ATOM     38  C   UNL A   1      36.528  34.055  29.469  1.00  0.00     0.010 A 
ATOM     39  C   UNL A   1      35.132  33.539  31.379  1.00  0.00     0.010 A 
ATOM     40  C   UNL A   1      36.369  33.441  30.723  1.00  0.00    -0.014 A 
BRANCH  40  41
ATOM     41  C   UNL A   1      37.508  32.699  31.324  1.00  0.00     0.031 A 
ATOM     42  C   UNL A   1      37.987  33.014  32.715  1.00  0.00     0.074 A 
ATOM     43  C   UNL A   1      38.081  31.701  30.624  1.00  0.00     0.049 A 
ATOM     44  N   UNL A   1      38.973  32.475  33.391  1.00  0.00    -0.248 NA
ATOM     45  C   UNL A   1      37.275  34.073  33.448  1.00  0.00     0.031 C 
ATOM     46  C   UNL A   1      37.696  31.294  29.272  1.00  0.00     0.029 A 
ATOM     47  N   UNL A   1      39.092  30.835  30.956  1.00  0.00    -0.354 N 
ATOM     48  C   UNL A   1      39.012  33.141  34.609  1.00  0.00     0.074 A 
ATOM     49  C   UNL A   1      37.967  34.140  34.577  1.00  0.00     0.031 C 
ATOM     50  C   UNL A   1      38.426  30.230  28.908  1.00  0.00     0.029 A 
ATOM     51  C   UNL A   1      39.377  29.922  29.971  1.00  0.00     0.049 A 
ATOM     52  H   UNL A   1      39.569  30.866  31.818  1.00  0.00     0.167 HD
ATOM     53  C   UNL A   1      39.839  32.926  35.661  1.00  0.00     0.037 A 
ATOM     54  C   UNL A   1      40.312  28.954  29.918  1.00  0.00     0.037 A 
ATOM     55  C   UNL A   1      40.856  31.907  35.702  1.00  0.00     0.049 A 
ATOM     56  C   UNL A   1      41.236  28.765  31.085  1.00  0.00     0.074 A 
ATOM     57  C   UNL A   1      41.718  31.594  36.738  1.00  0.00     0.029 A 
ATOM     58  N   UNL A   1      41.143  31.033  34.664  1.00  0.00    -0.354 N 
ATOM     59  N   UNL A   1      41.256  29.396  32.233  1.00  0.00    -0.248 NA
ATOM     60  C   UNL A   1      42.274  27.733  30.948  1.00  0.00     0.031 C 
ATOM     61  C   UNL A   1      42.555  30.559  36.314  1.00  0.00     0.029 A 
ATOM     62  C   UNL A   1      42.185  30.196  35.029  1.00  0.00     0.049 A 
ATOM     63  H   UNL A   1      40.676  31.012  33.798  1.00  0.00     0.167 HD
ATOM     64  C   UNL A   1      42.299  28.839  32.957  1.00  0.00     0.074 A 
ATOM     65  C   UNL A   1      42.873  27.797  32.129  1.00  0.00     0.031 C 
ATOM     66  C   UNL A   1      42.746  29.165  34.194  1.00  0.00     0.037 A 
BRANCH  53  67
ATOM     67  C   UNL A   1      39.693  33.808  36.867  1.00  0.00     0.064 A 
ATOM     68  C   UNL A   1      40.287  35.076  36.926  1.00  0.00     0.173 A 
ATOM     69  C   UNL A   1      38.868  33.419  37.934  1.00  0.00     0.173 A 
ATOM     70  F   UNL A   1      41.092  35.491  35.937  1.00  0.00    -0.203 F 
ATOM     71  C   UNL A   1      40.065  35.920  38.011  1.00  0.00     0.198 A 
ATOM     72  C   UNL A   1      38.629  34.275  39.006  1.00  0.00     0.198 A 
ATOM     73  F   UNL A   1      38.269  32.218  37.923  1.00  0.00    -0.203 F 
ATOM     74  F   UNL A   1      40.662  37.120  38.057  1.00  0.00    -0.200 F 
ATOM     75  C   UNL A   1      39.229  35.525  39.044  1.00  0.00     0.200 A 
ATOM     76  F   UNL A   1      37.809  33.895  39.996  1.00  0.00    -0.200 F 
ATOM     77  F   UNL A   1      39.001  36.347  40.076  1.00  0.00    -0.200 F 
ENDBRANCH  53  67
BRANCH  54  78
ATOM     78  C   UNL A   1      40.417  28.103  28.705  1.00  0.00     0.064 A 
ATOM     79  C   UNL A   1      41.196  28.501  27.611  1.00  0.00     0.173 A 
ATOM     80  C   UNL A   1      39.765  26.863  28.628  1.00  0.00     0.173 A 
ATOM     81  F   UNL A   1      41.821  29.687  27.631  1.00  0.00    -0.203 F 
ATOM     82  C   UNL A   1      41.314  27.694  26.482  1.00  0.00     0.198 A 
ATOM     83  C   UNL A   1      39.907  26.044  27.512  1.00  0.00     0.198 A 
ATOM     84  F   UNL A   1      39.010  26.436  29.652  1.00  0.00    -0.203 F 
ATOM     85  F   UNL A   1      42.037  28.112  25.435  1.00  0.00    -0.200 F 
ATOM     86  C   UNL A   1      40.676  26.462  26.437  1.00  0.00     0.200 A 
ATOM     87  F   UNL A   1      39.305  24.847  27.480  1.00  0.00    -0.200 F 
ATOM     88  F   UNL A   1      40.801  25.680  25.356  1.00  0.00    -0.200 F 
ENDBRANCH  54  78
BRANCH  66  89
ATOM     89  C   UNL A   1      43.907  28.387  34.737  1.00  0.00     0.064 A 
ATOM     90  C   UNL A   1      43.717  27.179  35.423  1.00  0.00     0.173 A 
ATOM     91  C   UNL A   1      45.223  28.817  34.510  1.00  0.00     0.173 A 
ATOM     92  F   UNL A   1      42.476  26.735  35.676  1.00  0.00    -0.203 F 
ATOM     93  C   UNL A   1      44.803  26.437  35.876  1.00  0.00     0.198 A 
ATOM     94  C   UNL A   1      46.307  28.059  34.940  1.00  0.00     0.198 A 
ATOM     95  F   UNL A   1      45.456  29.962  33.852  1.00  0.00    -0.203 F 
ATOM     96  F   UNL A   1      44.599  25.303  36.559  1.00  0.00    -0.200 F 
ATOM     97  C   UNL A   1      46.096  26.871  35.626  1.00  0.00     0.200 A 
ATOM     98  F   UNL A   1      47.555  28.472  34.685  1.00  0.00    -0.200 F 
ATOM     99  F   UNL A   1      47.142  26.147  36.049  1.00  0.00    -0.200 F 
ENDBRANCH  66  89
ENDBRANCH  40  41
ENDBRANCH  32  35
ENDBRANCH  30  31
ENDBRANCH  29  30
ENDBRANCH   1  29
TORSDOF 14
ENDMDL
MODEL 3
REMARK VINA RESULT:     -13.0      0.186      7.077
REMARK SMILES CC(C)c1ccc2c(c1)C(=O)C[C@@H]1[C@@]2(C)CCC[C@]1(C)C(=O)NCCCCCCNC(=O)c1ccc(-c2c3nc(c(-c4c(F)c(F)c(F)c(F)c4F)c4ccc([nH]4)c(-c4c(F)c(F)c(F)c(F)c4F)c4nc(c(-c5c(F)c(F)c(F)c(F)c5F)c5ccc2[nH]5)C=C4)C=C3)cc1
REMARK SMILES IDX 27 1 26 2 25 3 24 4 23 5 21 6 22 7 19 9 4 10 5 11 9 12 6 13
REMARK SMILES IDX 8 14 7 15 10 16 14 17 12 18 11 19 13 20 16 21 15 22 17 23
REMARK SMILES IDX 18 24 20 25 2 26 1 27 3 28 28 29 29 30 30 31 31 32 32 34
REMARK SMILES IDX 33 35 34 36 95 37 35 38 94 39 36 40 37 41 38 42 88 43 39 44
REMARK SMILES IDX 93 45 87 46 89 47 40 48 92 49 86 50 85 51 41 53 73 54 53 55
REMARK SMILES IDX 72 56 54 57 57 58 71 59 90 60 55 61 56 62 70 64 91 65 58 66
REMARK SMILES IDX 42 67 43 68 51 69 44 70 45 71 49 72 52 73 46 74 47 75 50 76
REMARK SMILES IDX 48 77 74 78 75 79 83 80 76 81 77 82 81 83 84 84 78 85 79 86
REMARK SMILES IDX 82 87 80 88 59 89 60 90 68 91 61 92 62 93 66 94 69 95 63 96
REMARK SMILES IDX 64 97 67 98 65 99
REMARK H PARENT 23 8 30 33 89 52 57 63
REMARK Flexibility Score: inf
ROOT
ATOM      1  C   UNL A   1      34.662  33.050  29.246  1.00  0.00     0.002 C 
ENDROOT
BRANCH   1   2
ATOM      2  C   UNL A   1      35.330  32.361  28.050  1.00  0.00     0.002 C 
BRANCH   2   3
ATOM      3  C   UNL A   1      35.113  30.853  27.920  1.00  0.00     0.021 C 
BRANCH   3   4
ATOM      4  C   UNL A   1      33.775  30.449  27.330  1.00  0.00     0.116 C 
BRANCH   4   5
ATOM      5  N   UNL A   1      33.837  30.027  25.954  1.00  0.00    -0.356 N 
ATOM      6  C   UNL A   1      33.536  28.731  25.631  1.00  0.00     0.226 C 
ATOM      7  O   UNL A   1      34.032  27.801  26.265  1.00  0.00    -0.274 OA
ATOM      8  H   UNL A   1      34.093  30.667  25.250  1.00  0.00     0.163 HD
BRANCH   6   9
ATOM      9  C   UNL A   1      32.394  28.533  24.598  1.00  0.00     0.050 C 
ATOM     10  C   UNL A   1      32.814  21.893  24.405  1.00  0.00    -0.045 A 
ATOM     11  C   UNL A   1      33.042  22.372  23.114  1.00  0.00     0.004 A 
ATOM     12  C   UNL A   1      32.302  22.806  25.335  1.00  0.00     0.016 A 
ATOM     13  C   UNL A   1      32.847  23.722  22.798  1.00  0.00     0.005 A 
ATOM     14  C   UNL A   1      32.085  24.164  25.013  1.00  0.00     0.022 A 
ATOM     15  C   UNL A   1      32.398  24.664  23.750  1.00  0.00    -0.031 A 
ATOM     16  C   UNL A   1      31.505  25.018  26.063  1.00  0.00     0.163 C 
ATOM     17  C   UNL A   1      32.297  26.146  23.369  1.00  0.00    -0.003 C 
ATOM     18  C   UNL A   1      31.538  26.506  25.910  1.00  0.00     0.086 C 
ATOM     19  O   UNL A   1      31.067  24.512  27.095  1.00  0.00    -0.294 OA
ATOM     20  C   UNL A   1      31.748  27.096  24.507  1.00  0.00     0.022 C 
ATOM     21  C   UNL A   1      33.698  26.583  22.874  1.00  0.00     0.012 C 
ATOM     22  C   UNL A   1      31.312  26.252  22.162  1.00  0.00     0.017 C 
ATOM     23  C   UNL A   1      33.834  28.043  22.479  1.00  0.00     0.002 C 
ATOM     24  C   UNL A   1      32.941  29.015  23.233  1.00  0.00     0.017 C 
ATOM     25  C   UNL A   1      31.289  29.552  25.000  1.00  0.00     0.022 C 
BRANCH  10  26
ATOM     26  C   UNL A   1      33.067  20.422  24.727  1.00  0.00     0.013 C 
ATOM     27  C   UNL A   1      32.467  19.488  23.662  1.00  0.00     0.012 C 
ATOM     28  C   UNL A   1      34.542  20.041  24.915  1.00  0.00     0.012 C 
ENDBRANCH  10  26
ENDBRANCH   6   9
ENDBRANCH   4   5
ENDBRANCH   3   4
ENDBRANCH   2   3
ENDBRANCH   1   2
BRANCH   1  29
ATOM     29  C   UNL A   1      33.555  34.050  28.925  1.00  0.00     0.021 C 
BRANCH  29  30
ATOM     30  C   UNL A   1      33.714  35.426  29.548  1.00  0.00     0.116 C 
BRANCH  30  31
ATOM     31  N   UNL A   1      32.663  35.769  30.489  1.00  0.00    -0.352 N 
ATOM     32  C   UNL A   1      32.655  35.554  31.848  1.00  0.00     0.251 C 
ATOM     33  H   UNL A   1      31.865  36.203  30.111  1.00  0.00     0.163 HD
ATOM     34  O   UNL A   1      31.666  35.810  32.526  1.00  0.00    -0.269 OA
BRANCH  32  35
ATOM     35  C   UNL A   1      33.851  34.950  32.473  1.00  0.00     0.039 A 
ATOM     36  C   UNL A   1      35.057  35.654  32.515  1.00  0.00     0.014 A 
ATOM     37  C   UNL A   1      33.787  33.630  32.926  1.00  0.00     0.014 A 
ATOM     38  C   UNL A   1      36.229  34.984  32.844  1.00  0.00     0.010 A 
ATOM     39  C   UNL A   1      34.956  32.986  33.341  1.00  0.00     0.010 A 
ATOM     40  C   UNL A   1      36.195  33.641  33.253  1.00  0.00    -0.014 A 
BRANCH  40  41
ATOM     41  C   UNL A   1      37.465  32.941  33.576  1.00  0.00     0.031 A 
ATOM     42  C   UNL A   1      38.176  33.192  34.879  1.00  0.00     0.074 A 
ATOM     43  C   UNL A   1      37.955  32.037  32.706  1.00  0.00     0.049 A 
ATOM     44  N   UNL A   1      39.299  32.678  35.319  1.00  0.00    -0.248 NA
ATOM     45  C   UNL A   1      37.553  34.144  35.811  1.00  0.00     0.031 C 
ATOM     46  C   UNL A   1      37.349  31.698  31.417  1.00  0.00     0.029 A 
ATOM     47  N   UNL A   1      39.057  31.224  32.778  1.00  0.00    -0.354 N 
ATOM     48  C   UNL A   1      39.525  33.259  36.560  1.00  0.00     0.074 A 
ATOM     49  C   UNL A   1      38.437  34.182  36.799  1.00  0.00     0.031 C 
ATOM     50  C   UNL A   1      38.058  30.717  30.841  1.00  0.00     0.029 A 
ATOM     51  C   UNL A   1      39.205  30.403  31.687  1.00  0.00     0.049 A 
ATOM     52  H   UNL A   1      39.682  31.228  33.539  1.00  0.00     0.167 HD
ATOM     53  C   UNL A   1      40.544  33.032  37.424  1.00  0.00     0.037 A 
ATOM     54  C   UNL A   1      40.167  29.511  31.387  1.00  0.00     0.037 A 
ATOM     55  C   UNL A   1      41.607  32.087  37.198  1.00  0.00     0.049 A 
ATOM     56  C   UNL A   1      41.301  29.306  32.349  1.00  0.00     0.074 A 
ATOM     57  C   UNL A   1      42.663  31.764  38.033  1.00  0.00     0.029 A 
ATOM     58  N   UNL A   1      41.746  31.309  36.058  1.00  0.00    -0.354 N 
ATOM     59  N   UNL A   1      41.498  29.857  33.522  1.00  0.00    -0.248 NA
ATOM     60  C   UNL A   1      42.353  28.363  31.944  1.00  0.00     0.031 C 
ATOM     61  C   UNL A   1      43.464  30.822  37.381  1.00  0.00     0.029 A 
ATOM     62  C   UNL A   1      42.883  30.524  36.159  1.00  0.00     0.049 A 
ATOM     63  H   UNL A   1      41.128  31.315  35.291  1.00  0.00     0.167 HD
ATOM     64  C   UNL A   1      42.688  29.325  33.998  1.00  0.00     0.074 A 
ATOM     65  C   UNL A   1      43.157  28.387  32.998  1.00  0.00     0.031 C 
ATOM     66  C   UNL A   1      43.337  29.596  35.156  1.00  0.00     0.037 A 
BRANCH  53  67
ATOM     67  C   UNL A   1      40.575  33.815  38.704  1.00  0.00     0.064 A 
ATOM     68  C   UNL A   1      41.315  34.998  38.823  1.00  0.00     0.173 A 
ATOM     69  C   UNL A   1      39.775  33.428  39.792  1.00  0.00     0.173 A 
ATOM     70  F   UNL A   1      42.103  35.406  37.817  1.00  0.00    -0.203 F 
ATOM     71  C   UNL A   1      41.259  35.765  39.985  1.00  0.00     0.198 A 
ATOM     72  C   UNL A   1      39.702  34.209  40.943  1.00  0.00     0.198 A 
ATOM     73  F   UNL A   1      39.040  32.308  39.726  1.00  0.00    -0.203 F 
ATOM     74  F   UNL A   1      41.994  36.882  40.085  1.00  0.00    -0.200 F 
ATOM     75  C   UNL A   1      40.446  35.375  41.039  1.00  0.00     0.200 A 
ATOM     76  F   UNL A   1      38.904  33.838  41.953  1.00  0.00    -0.200 F 
ATOM     77  F   UNL A   1      40.378  36.125  42.147  1.00  0.00    -0.200 F 
ENDBRANCH  53  67
BRANCH  54  78
ATOM     78  C   UNL A   1      40.094  28.755  30.111  1.00  0.00     0.064 A 
ATOM     79  C   UNL A   1      40.673  29.260  28.940  1.00  0.00     0.173 A 
ATOM     80  C   UNL A   1      39.469  27.500  30.043  1.00  0.00     0.173 A 
ATOM     81  F   UNL A   1      41.263  30.465  28.952  1.00  0.00    -0.203 F 
ATOM     82  C   UNL A   1      40.625  28.543  27.747  1.00  0.00     0.198 A 
ATOM     83  C   UNL A   1      39.447  26.771  28.858  1.00  0.00     0.198 A 
ATOM     84  F   UNL A   1      38.903  26.972  31.138  1.00  0.00    -0.203 F 
ATOM     85  F   UNL A   1      41.156  29.064  26.633  1.00  0.00    -0.200 F 
ATOM     86  C   UNL A   1      40.019  27.295  27.709  1.00  0.00     0.200 A 
ATOM     87  F   UNL A   1      38.878  25.559  28.830  1.00  0.00    -0.200 F 
ATOM     88  F   UNL A   1      39.985  26.600  26.564  1.00  0.00    -0.200 F 
ENDBRANCH  54  78
BRANCH  66  89
ATOM     89  C   UNL A   1      44.621  28.866  35.415  1.00  0.00     0.064 A 
ATOM     90  C   UNL A   1      45.858  29.413  35.046  1.00  0.00     0.173 A 
ATOM     91  C   UNL A   1      44.619  27.641  36.099  1.00  0.00     0.173 A 
ATOM     92  F   UNL A   1      45.908  30.576  34.377  1.00  0.00    -0.203 F 
ATOM     93  C   UNL A   1      47.047  28.753  35.339  1.00  0.00     0.198 A 
ATOM     94  C   UNL A   1      45.811  26.997  36.415  1.00  0.00     0.198 A 
ATOM     95  F   UNL A   1      43.461  27.081  36.480  1.00  0.00    -0.203 F 
ATOM     96  F   UNL A   1      48.216  29.277  34.947  1.00  0.00    -0.200 F 
ATOM     97  C   UNL A   1      47.024  27.552  36.032  1.00  0.00     0.200 A 
ATOM     98  F   UNL A   1      45.788  25.844  37.097  1.00  0.00    -0.200 F 
ATOM     99  F   UNL A   1      48.171  26.925  36.328  1.00  0.00    -0.200 F 
ENDBRANCH  66  89
ENDBRANCH  40  41
ENDBRANCH  32  35
ENDBRANCH  30  31
ENDBRANCH  29  30
ENDBRANCH   1  29
TORSDOF 14
ENDMDL
