MODEL 1
REMARK VINA RESULT:     -12.2      0.000      0.000
REMARK SMILES COc1ccc(/C=C(/Sc2nc(C)n[nH]2)C(=O)NCCCCCCNC(=O)c2ccc(-c3c4nc(c(-c5c(F)c(F)c(F)c(F)c5F)c5ccc([nH]5)c(-c5c(F)c(F)c(F)c(F)c5F)c5nc(c(-c6c(F)c(F)c(F)c(F)c6F)c6ccc3[nH]6)C=C5)C=C4)cc2)cc1OC
REMARK SMILES IDX 21 1 20 2 19 3 18 4 16 5 17 6 8 8 7 9 6 10 3 11 4 12 92 13
REMARK SMILES IDX 5 14 91 15 2 16 1 17 93 18 94 19 9 20 10 21 11 22 15 23
REMARK SMILES IDX 12 24 14 25 13 27 22 28 23 29 24 30 25 31 26 32 27 34 28 35
REMARK SMILES IDX 29 36 90 37 30 38 89 39 31 40 32 41 33 42 83 43 34 44 88 45
REMARK SMILES IDX 82 46 84 47 35 48 87 49 81 50 80 51 36 53 68 54 48 55 67 56
REMARK SMILES IDX 49 57 52 58 66 59 85 60 50 61 51 62 65 64 86 65 53 66 37 67
REMARK SMILES IDX 38 68 46 69 39 70 40 71 44 72 47 73 41 74 42 75 45 76 43 77
REMARK SMILES IDX 69 78 70 79 78 80 71 81 72 82 76 83 79 84 73 85 74 86 77 87
REMARK SMILES IDX 75 88 54 89 55 90 63 91 56 92 57 93 61 94 64 95 58 96 59 97
REMARK SMILES IDX 62 98 60 99
REMARK H PARENT 18 7 15 26 25 33 84 52 52 63
REMARK Flexibility Score: inf
ROOT
ATOM      1  C   UNL A   1      33.857  28.790  26.926  1.00  0.00     0.002 C 
ENDROOT
BRANCH   1   2
ATOM      2  C   UNL A   1      32.337  28.814  27.117  1.00  0.00     0.021 C 
BRANCH   2   3
ATOM      3  C   UNL A   1      31.654  27.452  27.034  1.00  0.00     0.116 C 
BRANCH   3   4
ATOM      4  N   UNL A   1      30.958  27.215  25.784  1.00  0.00    -0.352 N 
ATOM      5  C   UNL A   1      31.373  26.788  24.552  1.00  0.00     0.258 C 
ATOM      6  O   UNL A   1      30.562  26.071  23.959  1.00  0.00    -0.269 OA
ATOM      7  H   UNL A   1      29.991  27.398  25.831  1.00  0.00     0.163 HD
BRANCH   5   8
ATOM      8  C   UNL A   1      32.670  27.215  23.887  1.00  0.00     0.081 C 
ATOM      9  C   UNL A   1      33.694  26.341  23.753  1.00  0.00     0.029 C 
BRANCH   9  10
ATOM     10  C   UNL A   1      33.905  24.921  24.125  1.00  0.00    -0.020 A 
ATOM     11  C   UNL A   1      34.659  22.268  24.782  1.00  0.00     0.160 A 
ATOM     12  C   UNL A   1      33.667  22.517  23.826  1.00  0.00     0.051 A 
ATOM     13  C   UNL A   1      35.313  23.337  25.396  1.00  0.00     0.161 A 
ATOM     14  C   UNL A   1      33.311  23.831  23.485  1.00  0.00     0.012 A 
ATOM     15  C   UNL A   1      34.907  24.646  25.074  1.00  0.00     0.058 A 
BRANCH  11  16
ATOM     16  O   UNL A   1      35.030  20.962  24.964  1.00  0.00    -0.493 OA
ATOM     17  C   UNL A   1      33.965  20.058  24.670  1.00  0.00     0.278 C 
ENDBRANCH  11  16
BRANCH  13  18
ATOM     18  O   UNL A   1      36.360  23.323  26.274  1.00  0.00    -0.493 OA
ATOM     19  C   UNL A   1      37.663  23.023  25.803  1.00  0.00     0.278 C 
ENDBRANCH  13  18
ENDBRANCH   9  10
BRANCH   8  20
ATOM     20  S   UNL A   1      32.740  28.790  23.145  1.00  0.00    -0.045 SA
BRANCH  20  21
ATOM     21  C   UNL A   1      31.118  29.276  22.851  1.00  0.00     0.188 A 
ATOM     22  N   UNL A   1      30.159  29.582  23.687  1.00  0.00    -0.206 NA
ATOM     23  N   UNL A   1      30.763  29.668  21.594  1.00  0.00    -0.254 N 
ATOM     24  C   UNL A   1      29.232  30.204  22.885  1.00  0.00     0.148 A 
ATOM     25  N   UNL A   1      29.562  30.271  21.589  1.00  0.00    -0.158 NA
ATOM     26  H   UNL A   1      31.316  29.527  20.792  1.00  0.00     0.192 HD
ATOM     27  C   UNL A   1      28.010  30.826  23.433  1.00  0.00     0.092 C 
ENDBRANCH  20  21
ENDBRANCH   8  20
ENDBRANCH   5   8
ENDBRANCH   3   4
ENDBRANCH   2   3
ENDBRANCH   1   2
BRANCH   1  28
ATOM     28  C   UNL A   1      34.610  30.089  27.259  1.00  0.00     0.002 C 
BRANCH  28  29
ATOM     29  C   UNL A   1      33.765  31.312  27.650  1.00  0.00     0.021 C 
BRANCH  29  30
ATOM     30  C   UNL A   1      34.575  32.531  28.050  1.00  0.00     0.116 C 
BRANCH  30  31
ATOM     31  N   UNL A   1      34.459  32.840  29.471  1.00  0.00    -0.352 N 
ATOM     32  C   UNL A   1      35.137  32.261  30.527  1.00  0.00     0.251 C 
ATOM     33  H   UNL A   1      33.818  33.549  29.707  1.00  0.00     0.163 HD
ATOM     34  O   UNL A   1      34.694  32.303  31.662  1.00  0.00    -0.269 OA
BRANCH  32  35
ATOM     35  C   UNL A   1      36.424  31.594  30.253  1.00  0.00     0.039 A 
ATOM     36  C   UNL A   1      37.588  32.333  30.028  1.00  0.00     0.014 A 
ATOM     37  C   UNL A   1      36.449  30.202  30.235  1.00  0.00     0.014 A 
ATOM     38  C   UNL A   1      38.789  31.650  29.856  1.00  0.00     0.010 A 
ATOM     39  C   UNL A   1      37.648  29.538  30.234  1.00  0.00     0.010 A 
ATOM     40  C   UNL A   1      38.811  30.250  29.981  1.00  0.00    -0.014 A 
BRANCH  40  41
ATOM     41  C   UNL A   1      40.073  29.520  29.994  1.00  0.00     0.031 A 
ATOM     42  C   UNL A   1      40.627  29.335  31.359  1.00  0.00     0.074 A 
ATOM     43  C   UNL A   1      40.577  28.893  28.907  1.00  0.00     0.049 A 
ATOM     44  N   UNL A   1      41.683  29.887  31.852  1.00  0.00    -0.248 NA
ATOM     45  C   UNL A   1      39.828  28.593  32.350  1.00  0.00     0.031 C 
ATOM     46  C   UNL A   1      39.963  28.748  27.582  1.00  0.00     0.029 A 
ATOM     47  N   UNL A   1      41.718  28.157  28.782  1.00  0.00    -0.354 N 
ATOM     48  C   UNL A   1      41.812  29.379  33.142  1.00  0.00     0.074 A 
ATOM     49  C   UNL A   1      40.548  28.772  33.460  1.00  0.00     0.031 C 
ATOM     50  C   UNL A   1      40.612  27.794  26.877  1.00  0.00     0.029 A 
ATOM     51  C   UNL A   1      41.784  27.382  27.625  1.00  0.00     0.049 A 
ATOM     52  H   UNL A   1      42.437  28.173  29.454  1.00  0.00     0.167 HD
ATOM     53  C   UNL A   1      43.048  29.240  33.695  1.00  0.00     0.037 A 
ATOM     54  C   UNL A   1      42.728  26.457  27.317  1.00  0.00     0.037 A 
ATOM     55  C   UNL A   1      44.015  30.035  32.974  1.00  0.00     0.049 A 
ATOM     56  C   UNL A   1      43.912  26.752  28.157  1.00  0.00     0.074 A 
ATOM     57  C   UNL A   1      44.172  31.377  32.691  1.00  0.00     0.029 A 
ATOM     58  N   UNL A   1      44.809  29.365  32.077  1.00  0.00    -0.354 N 
ATOM     59  N   UNL A   1      44.647  27.820  28.024  1.00  0.00    -0.248 NA
ATOM     60  C   UNL A   1      44.014  26.077  29.440  1.00  0.00     0.031 C 
ATOM     61  C   UNL A   1      44.700  31.421  31.364  1.00  0.00     0.029 A 
ATOM     62  C   UNL A   1      44.913  30.110  30.934  1.00  0.00     0.049 A 
ATOM     63  H   UNL A   1      45.234  28.491  32.230  1.00  0.00     0.167 HD
ATOM     64  C   UNL A   1      44.932  28.207  29.324  1.00  0.00     0.074 A 
ATOM     65  C   UNL A   1      44.617  27.038  30.143  1.00  0.00     0.031 C 
ATOM     66  C   UNL A   1      45.107  29.527  29.627  1.00  0.00     0.037 A 
BRANCH  53  67
ATOM     67  C   UNL A   1      43.474  28.057  34.546  1.00  0.00     0.064 A 
ATOM     68  C   UNL A   1      43.335  26.761  34.007  1.00  0.00     0.173 A 
ATOM     69  C   UNL A   1      43.683  28.108  35.942  1.00  0.00     0.173 A 
ATOM     70  F   UNL A   1      43.126  26.584  32.694  1.00  0.00    -0.203 F 
ATOM     71  C   UNL A   1      43.290  25.621  34.817  1.00  0.00     0.198 A 
ATOM     72  C   UNL A   1      43.689  26.965  36.740  1.00  0.00     0.198 A 
ATOM     73  F   UNL A   1      43.775  29.257  36.618  1.00  0.00    -0.203 F 
ATOM     74  F   UNL A   1      43.005  24.430  34.274  1.00  0.00    -0.200 F 
ATOM     75  C   UNL A   1      43.455  25.727  36.185  1.00  0.00     0.200 A 
ATOM     76  F   UNL A   1      43.833  27.092  38.067  1.00  0.00    -0.200 F 
ATOM     77  F   UNL A   1      43.340  24.649  36.972  1.00  0.00    -0.200 F 
ENDBRANCH  53  67
BRANCH  54  78
ATOM     78  C   UNL A   1      42.588  25.168  26.591  1.00  0.00     0.064 A 
ATOM     79  C   UNL A   1      43.373  24.888  25.458  1.00  0.00     0.173 A 
ATOM     80  C   UNL A   1      41.915  24.073  27.168  1.00  0.00     0.173 A 
ATOM     81  F   UNL A   1      44.082  25.863  24.871  1.00  0.00    -0.203 F 
ATOM     82  C   UNL A   1      43.513  23.587  24.961  1.00  0.00     0.198 A 
ATOM     83  C   UNL A   1      42.051  22.776  26.666  1.00  0.00     0.198 A 
ATOM     84  F   UNL A   1      41.197  24.222  28.290  1.00  0.00    -0.203 F 
ATOM     85  F   UNL A   1      44.332  23.349  23.926  1.00  0.00    -0.200 F 
ATOM     86  C   UNL A   1      42.863  22.530  25.574  1.00  0.00     0.200 A 
ATOM     87  F   UNL A   1      41.447  21.756  27.294  1.00  0.00    -0.200 F 
ATOM     88  F   UNL A   1      43.051  21.274  25.145  1.00  0.00    -0.200 F 
ENDBRANCH  54  78
BRANCH  66  89
ATOM     89  C   UNL A   1      45.329  30.481  28.484  1.00  0.00     0.064 A 
ATOM     90  C   UNL A   1      44.308  31.131  27.769  1.00  0.00     0.173 A 
ATOM     91  C   UNL A   1      46.650  30.839  28.185  1.00  0.00     0.173 A 
ATOM     92  F   UNL A   1      43.018  30.914  28.054  1.00  0.00    -0.203 F 
ATOM     93  C   UNL A   1      44.603  32.061  26.773  1.00  0.00     0.198 A 
ATOM     94  C   UNL A   1      46.942  31.796  27.220  1.00  0.00     0.198 A 
ATOM     95  F   UNL A   1      47.666  30.286  28.868  1.00  0.00    -0.203 F 
ATOM     96  F   UNL A   1      43.611  32.656  26.092  1.00  0.00    -0.200 F 
ATOM     97  C   UNL A   1      45.919  32.398  26.506  1.00  0.00     0.200 A 
ATOM     98  F   UNL A   1      48.214  32.151  26.999  1.00  0.00    -0.200 F 
ATOM     99  F   UNL A   1      46.203  33.322  25.576  1.00  0.00    -0.200 F 
ENDBRANCH  66  89
ENDBRANCH  40  41
ENDBRANCH  32  35
ENDBRANCH  30  31
ENDBRANCH  29  30
ENDBRANCH  28  29
ENDBRANCH   1  28
TORSDOF 18
ENDMDL
MODEL 2
REMARK VINA RESULT:     -11.9      1.957      3.919
REMARK SMILES COc1ccc(/C=C(/Sc2nc(C)n[nH]2)C(=O)NCCCCCCNC(=O)c2ccc(-c3c4nc(c(-c5c(F)c(F)c(F)c(F)c5F)c5ccc([nH]5)c(-c5c(F)c(F)c(F)c(F)c5F)c5nc(c(-c6c(F)c(F)c(F)c(F)c6F)c6ccc3[nH]6)C=C5)C=C4)cc2)cc1OC
REMARK SMILES IDX 21 1 20 2 19 3 18 4 16 5 17 6 8 8 7 9 6 10 3 11 4 12 92 13
REMARK SMILES IDX 5 14 91 15 2 16 1 17 93 18 94 19 9 20 10 21 11 22 15 23
REMARK SMILES IDX 12 24 14 25 13 27 22 28 23 29 24 30 25 31 26 32 27 34 28 35
REMARK SMILES IDX 29 36 90 37 30 38 89 39 31 40 32 41 33 42 83 43 34 44 88 45
REMARK SMILES IDX 82 46 84 47 35 48 87 49 81 50 80 51 36 53 68 54 48 55 67 56
REMARK SMILES IDX 49 57 52 58 66 59 85 60 50 61 51 62 65 64 86 65 53 66 37 67
REMARK SMILES IDX 38 68 46 69 39 70 40 71 44 72 47 73 41 74 42 75 45 76 43 77
REMARK SMILES IDX 69 78 70 79 78 80 71 81 72 82 76 83 79 84 73 85 74 86 77 87
REMARK SMILES IDX 75 88 54 89 55 90 63 91 56 92 57 93 61 94 64 95 58 96 59 97
REMARK SMILES IDX 62 98 60 99
REMARK H PARENT 18 7 15 26 25 33 84 52 52 63
REMARK Flexibility Score: inf
ROOT
ATOM      1  C   UNL A   1      32.425  27.617  26.461  1.00  0.00     0.002 C 
ENDROOT
BRANCH   1   2
ATOM      2  C   UNL A   1      33.647  26.813  26.006  1.00  0.00     0.021 C 
BRANCH   2   3
ATOM      3  C   UNL A   1      33.494  25.298  26.098  1.00  0.00     0.116 C 
BRANCH   3   4
ATOM      4  N   UNL A   1      32.194  24.862  26.572  1.00  0.00    -0.352 N 
ATOM      5  C   UNL A   1      31.456  23.730  26.357  1.00  0.00     0.258 C 
ATOM      6  O   UNL A   1      30.803  23.352  27.334  1.00  0.00    -0.269 OA
ATOM      7  H   UNL A   1      31.754  25.510  27.168  1.00  0.00     0.163 HD
BRANCH   5   8
ATOM      8  C   UNL A   1      31.340  23.020  25.019  1.00  0.00     0.081 C 
ATOM      9  C   UNL A   1      30.947  23.695  23.915  1.00  0.00     0.029 C 
BRANCH   9  10
ATOM     10  C   UNL A   1      30.558  25.100  23.637  1.00  0.00    -0.020 A 
ATOM     11  C   UNL A   1      30.109  27.878  23.292  1.00  0.00     0.160 A 
ATOM     12  C   UNL A   1      29.103  27.044  23.795  1.00  0.00     0.051 A 
ATOM     13  C   UNL A   1      31.363  27.344  22.989  1.00  0.00     0.161 A 
ATOM     14  C   UNL A   1      29.334  25.674  23.986  1.00  0.00     0.012 A 
ATOM     15  C   UNL A   1      31.558  25.959  23.144  1.00  0.00     0.058 A 
BRANCH  11  16
ATOM     16  O   UNL A   1      29.841  29.220  23.252  1.00  0.00    -0.493 OA
ATOM     17  C   UNL A   1      29.201  29.600  22.033  1.00  0.00     0.278 C 
ENDBRANCH  11  16
BRANCH  13  18
ATOM     18  O   UNL A   1      32.501  27.982  22.582  1.00  0.00    -0.493 OA
ATOM     19  C   UNL A   1      33.548  27.233  21.988  1.00  0.00     0.278 C 
ENDBRANCH  13  18
ENDBRANCH   9  10
BRANCH   8  20
ATOM     20  S   UNL A   1      31.896  21.372  24.906  1.00  0.00    -0.045 SA
BRANCH  20  21
ATOM     21  C   UNL A   1      33.608  21.429  24.780  1.00  0.00     0.188 A 
ATOM     22  N   UNL A   1      34.381  22.199  24.055  1.00  0.00    -0.206 NA
ATOM     23  N   UNL A   1      34.362  20.790  25.719  1.00  0.00    -0.254 N 
ATOM     24  C   UNL A   1      35.620  22.018  24.621  1.00  0.00     0.148 A 
ATOM     25  N   UNL A   1      35.653  21.153  25.644  1.00  0.00    -0.158 NA
ATOM     26  H   UNL A   1      34.005  20.142  26.370  1.00  0.00     0.192 HD
ATOM     27  C   UNL A   1      36.801  22.789  24.188  1.00  0.00     0.092 C 
ENDBRANCH  20  21
ENDBRANCH   8  20
ENDBRANCH   5   8
ENDBRANCH   3   4
ENDBRANCH   2   3
ENDBRANCH   1   2
BRANCH   1  28
ATOM     28  C   UNL A   1      32.665  28.663  27.561  1.00  0.00     0.002 C 
BRANCH  28  29
ATOM     29  C   UNL A   1      32.705  30.139  27.134  1.00  0.00     0.021 C 
BRANCH  29  30
ATOM     30  C   UNL A   1      34.045  30.818  27.349  1.00  0.00     0.116 C 
BRANCH  30  31
ATOM     31  N   UNL A   1      34.025  31.756  28.467  1.00  0.00    -0.352 N 
ATOM     32  C   UNL A   1      34.878  31.806  29.553  1.00  0.00     0.251 C 
ATOM     33  H   UNL A   1      33.316  32.439  28.444  1.00  0.00     0.163 HD
ATOM     34  O   UNL A   1      34.546  32.347  30.593  1.00  0.00    -0.269 OA
BRANCH  32  35
ATOM     35  C   UNL A   1      36.213  31.192  29.425  1.00  0.00     0.039 A 
ATOM     36  C   UNL A   1      37.366  31.978  29.356  1.00  0.00     0.014 A 
ATOM     37  C   UNL A   1      36.295  29.803  29.386  1.00  0.00     0.014 A 
ATOM     38  C   UNL A   1      38.605  31.343  29.318  1.00  0.00     0.010 A 
ATOM     39  C   UNL A   1      37.509  29.183  29.518  1.00  0.00     0.010 A 
ATOM     40  C   UNL A   1      38.666  29.942  29.420  1.00  0.00    -0.014 A 
BRANCH  40  41
ATOM     41  C   UNL A   1      39.945  29.259  29.573  1.00  0.00     0.031 A 
ATOM     42  C   UNL A   1      40.357  29.100  30.991  1.00  0.00     0.074 A 
ATOM     43  C   UNL A   1      40.584  28.646  28.551  1.00  0.00     0.049 A 
ATOM     44  N   UNL A   1      41.334  29.691  31.589  1.00  0.00    -0.248 NA
ATOM     45  C   UNL A   1      39.483  28.333  31.897  1.00  0.00     0.031 C 
ATOM     46  C   UNL A   1      40.121  28.474  27.169  1.00  0.00     0.029 A 
ATOM     47  N   UNL A   1      41.757  27.952  28.553  1.00  0.00    -0.354 N 
ATOM     48  C   UNL A   1      41.342  29.193  32.889  1.00  0.00     0.074 A 
ATOM     49  C   UNL A   1      40.074  28.542  33.075  1.00  0.00     0.031 C 
ATOM     50  C   UNL A   1      40.875  27.542  26.544  1.00  0.00     0.029 A 
ATOM     51  C   UNL A   1      41.974  27.176  27.416  1.00  0.00     0.049 A 
ATOM     52  H   UNL A   1      42.400  27.996  29.298  1.00  0.00     0.167 HD
ATOM     53  C   UNL A   1      42.516  29.102  33.572  1.00  0.00     0.037 A 
ATOM     54  C   UNL A   1      42.978  26.284  27.217  1.00  0.00     0.037 A 
ATOM     55  C   UNL A   1      43.526  29.928  32.951  1.00  0.00     0.049 A 
ATOM     56  C   UNL A   1      44.054  26.626  28.176  1.00  0.00     0.074 A 
ATOM     57  C   UNL A   1      43.664  31.274  32.677  1.00  0.00     0.029 A 
ATOM     58  N   UNL A   1      44.435  29.285  32.149  1.00  0.00    -0.354 N 
ATOM     59  N   UNL A   1      44.761  27.719  28.114  1.00  0.00    -0.248 NA
ATOM     60  C   UNL A   1      44.043  25.959  29.468  1.00  0.00     0.031 C 
ATOM     61  C   UNL A   1      44.328  31.332  31.413  1.00  0.00     0.029 A 
ATOM     62  C   UNL A   1      44.633  30.028  31.018  1.00  0.00     0.049 A 
ATOM     63  H   UNL A   1      44.871  28.427  32.353  1.00  0.00     0.167 HD
ATOM     64  C   UNL A   1      44.891  28.121  29.434  1.00  0.00     0.074 A 
ATOM     65  C   UNL A   1      44.533  26.945  30.224  1.00  0.00     0.031 C 
ATOM     66  C   UNL A   1      44.986  29.448  29.744  1.00  0.00     0.037 A 
BRANCH  53  67
ATOM     67  C   UNL A   1      42.891  27.938  34.472  1.00  0.00     0.064 A 
ATOM     68  C   UNL A   1      43.166  28.203  35.830  1.00  0.00     0.173 A 
ATOM     69  C   UNL A   1      43.315  26.673  34.010  1.00  0.00     0.173 A 
ATOM     70  F   UNL A   1      42.816  29.375  36.383  1.00  0.00    -0.203 F 
ATOM     71  C   UNL A   1      43.907  27.323  36.624  1.00  0.00     0.198 A 
ATOM     72  C   UNL A   1      44.010  25.775  34.819  1.00  0.00     0.198 A 
ATOM     73  F   UNL A   1      43.186  26.287  32.737  1.00  0.00    -0.203 F 
ATOM     74  F   UNL A   1      44.271  27.687  37.861  1.00  0.00    -0.200 F 
ATOM     75  C   UNL A   1      44.339  26.114  36.113  1.00  0.00     0.200 A 
ATOM     76  F   UNL A   1      44.435  24.615  34.298  1.00  0.00    -0.200 F 
ATOM     77  F   UNL A   1      45.112  25.300  36.844  1.00  0.00    -0.200 F 
ENDBRANCH  53  67
BRANCH  54  78
ATOM     78  C   UNL A   1      42.963  24.989  26.490  1.00  0.00     0.064 A 
ATOM     79  C   UNL A   1      43.765  24.789  25.353  1.00  0.00     0.173 A 
ATOM     80  C   UNL A   1      42.405  23.832  27.070  1.00  0.00     0.173 A 
ATOM     81  F   UNL A   1      44.369  25.830  24.762  1.00  0.00    -0.203 F 
ATOM     82  C   UNL A   1      44.030  23.508  24.852  1.00  0.00     0.198 A 
ATOM     83  C   UNL A   1      42.667  22.555  26.566  1.00  0.00     0.198 A 
ATOM     84  F   UNL A   1      41.684  23.908  28.197  1.00  0.00    -0.203 F 
ATOM     85  F   UNL A   1      44.862  23.354  23.812  1.00  0.00    -0.200 F 
ATOM     86  C   UNL A   1      43.492  22.392  25.469  1.00  0.00     0.200 A 
ATOM     87  F   UNL A   1      42.172  21.480  27.196  1.00  0.00    -0.200 F 
ATOM     88  F   UNL A   1      43.802  21.161  25.037  1.00  0.00    -0.200 F 
ENDBRANCH  54  78
BRANCH  66  89
ATOM     89  C   UNL A   1      45.294  30.404  28.624  1.00  0.00     0.064 A 
ATOM     90  C   UNL A   1      44.333  31.009  27.795  1.00  0.00     0.173 A 
ATOM     91  C   UNL A   1      46.625  30.815  28.469  1.00  0.00     0.173 A 
ATOM     92  F   UNL A   1      43.029  30.741  27.938  1.00  0.00    -0.203 F 
ATOM     93  C   UNL A   1      44.699  31.946  26.829  1.00  0.00     0.198 A 
ATOM     94  C   UNL A   1      46.983  31.779  27.533  1.00  0.00     0.198 A 
ATOM     95  F   UNL A   1      47.580  30.307  29.264  1.00  0.00    -0.203 F 
ATOM     96  F   UNL A   1      43.765  32.497  26.037  1.00  0.00    -0.200 F 
ATOM     97  C   UNL A   1      46.022  32.336  26.705  1.00  0.00     0.200 A 
ATOM     98  F   UNL A   1      48.257  32.185  27.450  1.00  0.00    -0.200 F 
ATOM     99  F   UNL A   1      46.369  33.266  25.804  1.00  0.00    -0.200 F 
ENDBRANCH  66  89
ENDBRANCH  40  41
ENDBRANCH  32  35
ENDBRANCH  30  31
ENDBRANCH  29  30
ENDBRANCH  28  29
ENDBRANCH   1  28
TORSDOF 18
ENDMDL
MODEL 3
REMARK VINA RESULT:     -11.8      2.817      8.042
REMARK SMILES COc1ccc(/C=C(/Sc2nc(C)n[nH]2)C(=O)NCCCCCCNC(=O)c2ccc(-c3c4nc(c(-c5c(F)c(F)c(F)c(F)c5F)c5ccc([nH]5)c(-c5c(F)c(F)c(F)c(F)c5F)c5nc(c(-c6c(F)c(F)c(F)c(F)c6F)c6ccc3[nH]6)C=C5)C=C4)cc2)cc1OC
REMARK SMILES IDX 21 1 20 2 19 3 18 4 16 5 17 6 8 8 7 9 6 10 3 11 4 12 92 13
REMARK SMILES IDX 5 14 91 15 2 16 1 17 93 18 94 19 9 20 10 21 11 22 15 23
REMARK SMILES IDX 12 24 14 25 13 27 22 28 23 29 24 30 25 31 26 32 27 34 28 35
REMARK SMILES IDX 29 36 90 37 30 38 89 39 31 40 32 41 33 42 83 43 34 44 88 45
REMARK SMILES IDX 82 46 84 47 35 48 87 49 81 50 80 51 36 53 68 54 48 55 67 56
REMARK SMILES IDX 49 57 52 58 66 59 85 60 50 61 51 62 65 64 86 65 53 66 37 67
REMARK SMILES IDX 38 68 46 69 39 70 40 71 44 72 47 73 41 74 42 75 45 76 43 77
REMARK SMILES IDX 69 78 70 79 78 80 71 81 72 82 76 83 79 84 73 85 74 86 77 87
REMARK SMILES IDX 75 88 54 89 55 90 63 91 56 92 57 93 61 94 64 95 58 96 59 97
REMARK SMILES IDX 62 98 60 99
REMARK H PARENT 18 7 15 26 25 33 84 52 52 63
REMARK Flexibility Score: inf
ROOT
ATOM      1  C   UNL A   1      35.253  23.254  24.972  1.00  0.00     0.002 C 
ENDROOT
BRANCH   1   2
ATOM      2  C   UNL A   1      35.269  24.725  25.399  1.00  0.00     0.021 C 
BRANCH   2   3
ATOM      3  C   UNL A   1      34.194  25.596  24.757  1.00  0.00     0.116 C 
BRANCH   3   4
ATOM      4  N   UNL A   1      34.023  25.372  23.334  1.00  0.00    -0.352 N 
ATOM      5  C   UNL A   1      33.102  25.819  22.425  1.00  0.00     0.258 C 
ATOM      6  O   UNL A   1      33.559  26.034  21.299  1.00  0.00    -0.269 OA
ATOM      7  H   UNL A   1      34.706  24.780  22.943  1.00  0.00     0.163 HD
BRANCH   5   8
ATOM      8  C   UNL A   1      31.616  25.958  22.704  1.00  0.00     0.081 C 
ATOM      9  C   UNL A   1      30.926  24.945  23.277  1.00  0.00     0.029 C 
BRANCH   9  10
ATOM     10  C   UNL A   1      31.279  23.587  23.758  1.00  0.00    -0.020 A 
ATOM     11  C   UNL A   1      32.182  21.155  24.902  1.00  0.00     0.160 A 
ATOM     12  C   UNL A   1      32.188  21.342  23.515  1.00  0.00     0.051 A 
ATOM     13  C   UNL A   1      31.759  22.190  25.738  1.00  0.00     0.161 A 
ATOM     14  C   UNL A   1      31.763  22.555  22.951  1.00  0.00     0.012 A 
ATOM     15  C   UNL A   1      31.292  23.380  25.149  1.00  0.00     0.058 A 
BRANCH  11  16
ATOM     16  O   UNL A   1      32.727  19.991  25.374  1.00  0.00    -0.493 OA
ATOM     17  C   UNL A   1      33.342  19.230  24.333  1.00  0.00     0.278 C 
ENDBRANCH  11  16
BRANCH  13  18
ATOM     18  O   UNL A   1      31.760  22.256  27.104  1.00  0.00    -0.493 OA
ATOM     19  C   UNL A   1      32.965  22.551  27.788  1.00  0.00     0.278 C 
ENDBRANCH  13  18
ENDBRANCH   9  10
BRANCH   8  20
ATOM     20  S   UNL A   1      30.866  27.508  22.436  1.00  0.00    -0.045 SA
BRANCH  20  21
ATOM     21  C   UNL A   1      30.962  28.372  23.918  1.00  0.00     0.188 A 
ATOM     22  N   UNL A   1      31.455  28.017  25.078  1.00  0.00    -0.206 NA
ATOM     23  N   UNL A   1      30.744  29.718  23.914  1.00  0.00    -0.254 N 
ATOM     24  C   UNL A   1      31.555  29.210  25.752  1.00  0.00     0.148 A 
ATOM     25  N   UNL A   1      31.121  30.281  25.074  1.00  0.00    -0.158 NA
ATOM     26  H   UNL A   1      30.358  30.215  23.156  1.00  0.00     0.192 HD
ATOM     27  C   UNL A   1      32.177  29.307  27.088  1.00  0.00     0.092 C 
ENDBRANCH  20  21
ENDBRANCH   8  20
ENDBRANCH   5   8
ENDBRANCH   3   4
ENDBRANCH   2   3
ENDBRANCH   1   2
BRANCH   1  28
ATOM     28  C   UNL A   1      36.345  22.817  23.981  1.00  0.00     0.002 C 
BRANCH  28  29
ATOM     29  C   UNL A   1      37.325  21.729  24.449  1.00  0.00     0.021 C 
BRANCH  29  30
ATOM     30  C   UNL A   1      38.067  22.063  25.730  1.00  0.00     0.116 C 
BRANCH  30  31
ATOM     31  N   UNL A   1      39.255  21.237  25.922  1.00  0.00    -0.352 N 
ATOM     32  C   UNL A   1      40.521  21.640  26.299  1.00  0.00     0.251 C 
ATOM     33  H   UNL A   1      39.139  20.272  25.763  1.00  0.00     0.163 HD
ATOM     34  O   UNL A   1      41.502  20.961  26.048  1.00  0.00    -0.269 OA
BRANCH  32  35
ATOM     35  C   UNL A   1      40.664  22.916  27.026  1.00  0.00     0.039 A 
ATOM     36  C   UNL A   1      41.647  23.085  28.003  1.00  0.00     0.014 A 
ATOM     37  C   UNL A   1      39.795  23.955  26.701  1.00  0.00     0.014 A 
ATOM     38  C   UNL A   1      41.788  24.337  28.598  1.00  0.00     0.010 A 
ATOM     39  C   UNL A   1      40.040  25.222  27.160  1.00  0.00     0.010 A 
ATOM     40  C   UNL A   1      40.991  25.406  28.154  1.00  0.00    -0.014 A 
BRANCH  40  41
ATOM     41  C   UNL A   1      41.238  26.766  28.617  1.00  0.00     0.031 A 
ATOM     42  C   UNL A   1      42.453  27.376  28.020  1.00  0.00     0.074 A 
ATOM     43  C   UNL A   1      40.345  27.475  29.344  1.00  0.00     0.049 A 
ATOM     44  N   UNL A   1      43.559  27.659  28.620  1.00  0.00    -0.248 NA
ATOM     45  C   UNL A   1      42.518  27.528  26.555  1.00  0.00     0.031 C 
ATOM     46  C   UNL A   1      38.984  27.085  29.732  1.00  0.00     0.029 A 
ATOM     47  N   UNL A   1      40.428  28.751  29.816  1.00  0.00    -0.354 N 
ATOM     48  C   UNL A   1      44.377  28.242  27.658  1.00  0.00     0.074 A 
ATOM     49  C   UNL A   1      43.776  27.940  26.387  1.00  0.00     0.031 C 
ATOM     50  C   UNL A   1      38.301  28.170  30.163  1.00  0.00     0.029 A 
ATOM     51  C   UNL A   1      39.217  29.291  30.246  1.00  0.00     0.049 A 
ATOM     52  H   UNL A   1      41.276  29.250  29.852  1.00  0.00     0.167 HD
ATOM     53  C   UNL A   1      45.296  29.176  28.026  1.00  0.00     0.037 A 
ATOM     54  C   UNL A   1      38.985  30.573  30.625  1.00  0.00     0.037 A 
ATOM     55  C   UNL A   1      45.538  29.112  29.449  1.00  0.00     0.049 A 
ATOM     56  C   UNL A   1      40.298  31.164  30.972  1.00  0.00     0.074 A 
ATOM     57  C   UNL A   1      46.001  28.151  30.326  1.00  0.00     0.029 A 
ATOM     58  N   UNL A   1      44.902  30.052  30.221  1.00  0.00    -0.354 N 
ATOM     59  N   UNL A   1      41.012  30.793  31.997  1.00  0.00    -0.248 NA
ATOM     60  C   UNL A   1      41.024  31.860  29.922  1.00  0.00     0.031 C 
ATOM     61  C   UNL A   1      45.238  28.336  31.520  1.00  0.00     0.029 A 
ATOM     62  C   UNL A   1      44.409  29.445  31.342  1.00  0.00     0.049 A 
ATOM     63  H   UNL A   1      44.814  31.007  30.002  1.00  0.00     0.167 HD
ATOM     64  C   UNL A   1      42.316  30.786  31.526  1.00  0.00     0.074 A 
ATOM     65  C   UNL A   1      42.272  31.559  30.286  1.00  0.00     0.031 C 
ATOM     66  C   UNL A   1      43.226  29.904  32.034  1.00  0.00     0.037 A 
BRANCH  53  67
ATOM     67  C   UNL A   1      45.605  30.430  27.228  1.00  0.00     0.064 A 
ATOM     68  C   UNL A   1      46.954  30.819  27.086  1.00  0.00     0.173 A 
ATOM     69  C   UNL A   1      44.656  31.424  26.900  1.00  0.00     0.173 A 
ATOM     70  F   UNL A   1      47.946  29.963  27.374  1.00  0.00    -0.203 F 
ATOM     71  C   UNL A   1      47.319  32.128  26.757  1.00  0.00     0.198 A 
ATOM     72  C   UNL A   1      45.025  32.715  26.522  1.00  0.00     0.198 A 
ATOM     73  F   UNL A   1      43.340  31.240  27.036  1.00  0.00    -0.203 F 
ATOM     74  F   UNL A   1      48.610  32.485  26.783  1.00  0.00    -0.200 F 
ATOM     75  C   UNL A   1      46.353  33.078  26.487  1.00  0.00     0.200 A 
ATOM     76  F   UNL A   1      44.071  33.626  26.281  1.00  0.00    -0.200 F 
ATOM     77  F   UNL A   1      46.694  34.350  26.244  1.00  0.00    -0.200 F 
ENDBRANCH  53  67
BRANCH  54  78
ATOM     78  C   UNL A   1      37.779  31.416  30.422  1.00  0.00     0.064 A 
ATOM     79  C   UNL A   1      37.264  32.205  31.466  1.00  0.00     0.173 A 
ATOM     80  C   UNL A   1      37.297  31.704  29.129  1.00  0.00     0.173 A 
ATOM     81  F   UNL A   1      37.699  32.028  32.722  1.00  0.00    -0.203 F 
ATOM     82  C   UNL A   1      36.358  33.245  31.228  1.00  0.00     0.198 A 
ATOM     83  C   UNL A   1      36.389  32.739  28.894  1.00  0.00     0.198 A 
ATOM     84  F   UNL A   1      37.776  31.056  28.058  1.00  0.00    -0.203 F 
ATOM     85  F   UNL A   1      35.951  34.024  32.240  1.00  0.00    -0.200 F 
ATOM     86  C   UNL A   1      35.933  33.521  29.940  1.00  0.00     0.200 A 
ATOM     87  F   UNL A   1      36.015  33.020  27.637  1.00  0.00    -0.200 F 
ATOM     88  F   UNL A   1      35.123  34.561  29.699  1.00  0.00    -0.200 F 
ENDBRANCH  54  78
BRANCH  66  89
ATOM     89  C   UNL A   1      42.881  29.211  33.324  1.00  0.00     0.064 A 
ATOM     90  C   UNL A   1      42.157  28.010  33.422  1.00  0.00     0.173 A 
ATOM     91  C   UNL A   1      43.419  29.735  34.507  1.00  0.00     0.173 A 
ATOM     92  F   UNL A   1      41.685  27.395  32.331  1.00  0.00    -0.203 F 
ATOM     93  C   UNL A   1      41.946  27.392  34.655  1.00  0.00     0.198 A 
ATOM     94  C   UNL A   1      43.243  29.096  35.729  1.00  0.00     0.198 A 
ATOM     95  F   UNL A   1      44.160  30.854  34.468  1.00  0.00    -0.203 F 
ATOM     96  F   UNL A   1      41.236  26.256  34.726  1.00  0.00    -0.200 F 
ATOM     97  C   UNL A   1      42.497  27.932  35.805  1.00  0.00     0.200 A 
ATOM     98  F   UNL A   1      43.818  29.598  36.830  1.00  0.00    -0.200 F 
ATOM     99  F   UNL A   1      42.330  27.317  36.985  1.00  0.00    -0.200 F 
ENDBRANCH  66  89
ENDBRANCH  40  41
ENDBRANCH  32  35
ENDBRANCH  30  31
ENDBRANCH  29  30
ENDBRANCH  28  29
ENDBRANCH   1  28
TORSDOF 18
ENDMDL
