MODEL 1
REMARK VINA RESULT:     -12.8      0.000      0.000
REMARK SMILES [NH3+][C@H]1C=C[C@H](C(=O)N2CC[NH+](CC(=O)NCCCCCCNC(=O)c3ccc(-c4c5nc(c(-c6c(F)c(F)c(F)c(F)c6F)c6ccc([nH]6)c(-c6c(F)c(F)c(F)c(F)c6F)c6nc(c(-c7c(F)c(F)c(F)c(F)c7F)c7ccc4[nH]7)C=C6)C=C5)cc3)CC2)C1
REMARK SMILES IDX 18 1 17 2 16 3 15 4 13 5 14 6 12 8 11 9 6 10 7 11 8 12 9 13
REMARK SMILES IDX 89 14 10 15 88 16 5 18 2 19 3 20 90 21 4 22 1 23 19 27 20 28
REMARK SMILES IDX 21 29 22 30 23 31 24 33 25 34 26 35 87 36 27 37 86 38 28 39
REMARK SMILES IDX 29 40 30 41 80 42 31 43 85 44 79 45 81 46 32 47 84 48 78 49
REMARK SMILES IDX 77 50 33 52 65 53 45 54 64 55 46 56 49 57 63 58 82 59 47 60
REMARK SMILES IDX 48 61 62 63 83 64 50 65 34 66 35 67 43 68 36 69 37 70 41 71
REMARK SMILES IDX 44 72 38 73 39 74 42 75 40 76 66 77 67 78 75 79 68 80 69 81
REMARK SMILES IDX 73 82 76 83 70 84 71 85 74 86 72 87 51 88 52 89 60 90 53 91
REMARK SMILES IDX 54 92 58 93 61 94 55 95 56 96 59 97 57 98
REMARK H PARENT 15 7 11 17 1 24 1 25 1 26 22 32 81 51 49 62
REMARK Flexibility Score: inf
ROOT
ATOM      1  C   UNL A   1      32.449  29.802  27.144  1.00  0.00     0.002 C 
ENDROOT
BRANCH   1   2
ATOM      2  C   UNL A   1      31.774  28.456  27.461  1.00  0.00     0.021 C 
BRANCH   2   3
ATOM      3  C   UNL A   1      31.712  27.451  26.303  1.00  0.00     0.116 C 
BRANCH   3   4
ATOM      4  N   UNL A   1      30.880  26.288  26.568  1.00  0.00    -0.351 N 
ATOM      5  C   UNL A   1      31.138  24.949  26.570  1.00  0.00     0.275 C 
ATOM      6  O   UNL A   1      30.202  24.196  26.858  1.00  0.00    -0.269 OA
ATOM      7  H   UNL A   1      29.948  26.511  26.790  1.00  0.00     0.163 HD
BRANCH   5   8
ATOM      8  C   UNL A   1      32.520  24.398  26.238  1.00  0.00     0.363 C 
BRANCH   8   9
ATOM      9  N   UNL A   1      32.634  23.677  24.957  1.00  0.00    -0.324 N 
ATOM     10  C   UNL A   1      34.055  19.586  24.650  1.00  0.00     0.230 C 
ATOM     11  O   UNL A   1      35.241  19.280  24.770  1.00  0.00    -0.274 OA
ATOM     12  N   UNL A   1      33.616  20.896  24.808  1.00  0.00    -0.331 N 
ATOM     13  C   UNL A   1      34.593  21.984  24.914  1.00  0.00     0.181 C 
ATOM     14  C   UNL A   1      32.310  21.213  25.349  1.00  0.00     0.181 C 
ATOM     15  C   UNL A   1      34.006  23.361  24.509  1.00  0.00     0.284 C 
ATOM     16  C   UNL A   1      31.744  22.529  24.806  1.00  0.00     0.284 C 
ATOM     17  H   UNL A   1      32.298  24.392  24.311  1.00  0.00     0.348 HD
BRANCH  10  18
ATOM     18  C   UNL A   1      32.978  18.555  24.260  1.00  0.00     0.107 C 
ATOM     19  C   UNL A   1      33.197  16.262  25.127  1.00  0.00     0.205 C 
ATOM     20  C   UNL A   1      33.583  16.354  23.692  1.00  0.00     0.033 C 
ATOM     21  C   UNL A   1      32.556  17.633  25.414  1.00  0.00     0.087 C 
ATOM     22  C   UNL A   1      33.480  17.601  23.222  1.00  0.00    -0.012 C 
BRANCH  19  23
ATOM     23  N   UNL A   1      32.277  15.156  25.339  1.00  0.00    -0.352 N 
ATOM     24  H   UNL A   1      31.369  15.389  24.940  1.00  0.00     0.345 HD
ATOM     25  H   UNL A   1      32.176  14.985  26.339  1.00  0.00     0.345 HD
ATOM     26  H   UNL A   1      32.643  14.319  24.885  1.00  0.00     0.345 HD
ENDBRANCH  19  23
ENDBRANCH  10  18
ENDBRANCH   8   9
ENDBRANCH   5   8
ENDBRANCH   3   4
ENDBRANCH   2   3
ENDBRANCH   1   2
BRANCH   1  27
ATOM     27  C   UNL A   1      31.700  30.666  26.129  1.00  0.00     0.002 C 
BRANCH  27  28
ATOM     28  C   UNL A   1      31.444  32.108  26.575  1.00  0.00     0.021 C 
BRANCH  28  29
ATOM     29  C   UNL A   1      32.550  32.715  27.434  1.00  0.00     0.116 C 
BRANCH  29  30
ATOM     30  N   UNL A   1      32.369  34.147  27.609  1.00  0.00    -0.352 N 
ATOM     31  C   UNL A   1      32.956  34.959  28.549  1.00  0.00     0.251 C 
ATOM     32  H   UNL A   1      31.753  34.587  26.978  1.00  0.00     0.163 HD
ATOM     33  O   UNL A   1      32.522  36.088  28.767  1.00  0.00    -0.269 OA
BRANCH  31  34
ATOM     34  C   UNL A   1      34.115  34.450  29.308  1.00  0.00     0.039 A 
ATOM     35  C   UNL A   1      33.909  33.817  30.534  1.00  0.00     0.014 A 
ATOM     36  C   UNL A   1      35.404  34.575  28.779  1.00  0.00     0.014 A 
ATOM     37  C   UNL A   1      34.996  33.255  31.208  1.00  0.00     0.010 A 
ATOM     38  C   UNL A   1      36.473  33.956  29.418  1.00  0.00     0.010 A 
ATOM     39  C   UNL A   1      36.281  33.293  30.641  1.00  0.00    -0.014 A 
BRANCH  39  40
ATOM     40  C   UNL A   1      37.439  32.644  31.309  1.00  0.00     0.031 A 
ATOM     41  C   UNL A   1      38.144  31.494  30.646  1.00  0.00     0.074 A 
ATOM     42  C   UNL A   1      37.814  33.047  32.538  1.00  0.00     0.049 A 
ATOM     43  N   UNL A   1      39.125  30.752  31.096  1.00  0.00    -0.248 NA
ATOM     44  C   UNL A   1      37.665  31.108  29.309  1.00  0.00     0.031 C 
ATOM     45  C   UNL A   1      37.184  34.123  33.304  1.00  0.00     0.029 A 
ATOM     46  N   UNL A   1      38.810  32.591  33.366  1.00  0.00    -0.354 N 
ATOM     47  C   UNL A   1      39.372  29.812  30.104  1.00  0.00     0.074 A 
ATOM     48  C   UNL A   1      38.402  30.037  29.055  1.00  0.00     0.031 C 
ATOM     49  C   UNL A   1      37.818  34.257  34.480  1.00  0.00     0.029 A 
ATOM     50  C   UNL A   1      38.874  33.252  34.569  1.00  0.00     0.049 A 
ATOM     51  H   UNL A   1      39.421  31.859  33.121  1.00  0.00     0.167 HD
ATOM     52  C   UNL A   1      40.336  28.860  30.063  1.00  0.00     0.037 A 
ATOM     53  C   UNL A   1      39.685  33.063  35.627  1.00  0.00     0.037 A 
ATOM     54  C   UNL A   1      41.311  28.651  31.101  1.00  0.00     0.049 A 
ATOM     55  C   UNL A   1      40.735  31.984  35.563  1.00  0.00     0.074 A 
ATOM     56  C   UNL A   1      42.362  27.752  31.130  1.00  0.00     0.029 A 
ATOM     57  N   UNL A   1      41.350  29.348  32.301  1.00  0.00    -0.354 N 
ATOM     58  N   UNL A   1      41.004  31.146  34.592  1.00  0.00    -0.248 NA
ATOM     59  C   UNL A   1      41.598  31.831  36.743  1.00  0.00     0.031 C 
ATOM     60  C   UNL A   1      43.004  27.865  32.367  1.00  0.00     0.029 A 
ATOM     61  C   UNL A   1      42.391  28.878  33.087  1.00  0.00     0.049 A 
ATOM     62  H   UNL A   1      40.731  30.069  32.556  1.00  0.00     0.167 HD
ATOM     63  C   UNL A   1      42.083  30.390  35.028  1.00  0.00     0.074 A 
ATOM     64  C   UNL A   1      42.430  30.879  36.346  1.00  0.00     0.031 C 
ATOM     65  C   UNL A   1      42.729  29.379  34.395  1.00  0.00     0.037 A 
BRANCH  52  66
ATOM     66  C   UNL A   1      40.385  27.971  28.855  1.00  0.00     0.064 A 
ATOM     67  C   UNL A   1      41.135  28.311  27.718  1.00  0.00     0.173 A 
ATOM     68  C   UNL A   1      39.708  26.741  28.847  1.00  0.00     0.173 A 
ATOM     69  F   UNL A   1      41.793  29.479  27.669  1.00  0.00    -0.203 F 
ATOM     70  C   UNL A   1      41.182  27.469  26.609  1.00  0.00     0.198 A 
ATOM     71  C   UNL A   1      39.783  25.887  27.750  1.00  0.00     0.198 A 
ATOM     72  F   UNL A   1      38.980  26.363  29.909  1.00  0.00    -0.203 F 
ATOM     73  F   UNL A   1      41.863  27.840  25.518  1.00  0.00    -0.200 F 
ATOM     74  C   UNL A   1      40.512  26.255  26.629  1.00  0.00     0.200 A 
ATOM     75  F   UNL A   1      39.148  24.707  27.777  1.00  0.00    -0.200 F 
ATOM     76  F   UNL A   1      40.567  25.441  25.566  1.00  0.00    -0.200 F 
ENDBRANCH  52  66
BRANCH  53  77
ATOM     77  C   UNL A   1      39.550  33.921  36.833  1.00  0.00     0.064 A 
ATOM     78  C   UNL A   1      40.194  35.163  36.910  1.00  0.00     0.173 A 
ATOM     79  C   UNL A   1      38.784  33.515  37.936  1.00  0.00     0.173 A 
ATOM     80  F   UNL A   1      40.954  35.587  35.890  1.00  0.00    -0.203 F 
ATOM     81  C   UNL A   1      40.100  35.955  38.054  1.00  0.00     0.198 A 
ATOM     82  C   UNL A   1      38.665  34.322  39.067  1.00  0.00     0.198 A 
ATOM     83  F   UNL A   1      38.142  32.338  37.912  1.00  0.00    -0.203 F 
ATOM     84  F   UNL A   1      40.769  37.115  38.120  1.00  0.00    -0.200 F 
ATOM     85  C   UNL A   1      39.331  35.536  39.129  1.00  0.00     0.200 A 
ATOM     86  F   UNL A   1      37.906  33.920  40.096  1.00  0.00    -0.200 F 
ATOM     87  F   UNL A   1      39.236  36.299  40.225  1.00  0.00    -0.200 F 
ENDBRANCH  53  77
BRANCH  65  88
ATOM     88  C   UNL A   1      43.902  28.759  35.101  1.00  0.00     0.064 A 
ATOM     89  C   UNL A   1      45.202  29.267  34.957  1.00  0.00     0.173 A 
ATOM     90  C   UNL A   1      43.714  27.668  35.961  1.00  0.00     0.173 A 
ATOM     91  F   UNL A   1      45.437  30.300  34.135  1.00  0.00    -0.203 F 
ATOM     92  C   UNL A   1      46.275  28.685  35.628  1.00  0.00     0.198 A 
ATOM     93  C   UNL A   1      44.783  27.110  36.656  1.00  0.00     0.198 A 
ATOM     94  F   UNL A   1      42.490  27.149  36.139  1.00  0.00    -0.203 F 
ATOM     95  F   UNL A   1      47.515  29.154  35.436  1.00  0.00    -0.200 F 
ATOM     96  C   UNL A   1      46.064  27.613  36.482  1.00  0.00     0.200 A 
ATOM     97  F   UNL A   1      44.575  26.084  37.493  1.00  0.00    -0.200 F 
ATOM     98  F   UNL A   1      47.096  27.060  37.134  1.00  0.00    -0.200 F 
ENDBRANCH  65  88
ENDBRANCH  39  40
ENDBRANCH  31  34
ENDBRANCH  29  30
ENDBRANCH  28  29
ENDBRANCH  27  28
ENDBRANCH   1  27
TORSDOF 16
ENDMDL
MODEL 2
REMARK VINA RESULT:     -12.6      0.574      7.293
REMARK SMILES [NH3+][C@H]1C=C[C@H](C(=O)N2CC[NH+](CC(=O)NCCCCCCNC(=O)c3ccc(-c4c5nc(c(-c6c(F)c(F)c(F)c(F)c6F)c6ccc([nH]6)c(-c6c(F)c(F)c(F)c(F)c6F)c6nc(c(-c7c(F)c(F)c(F)c(F)c7F)c7ccc4[nH]7)C=C6)C=C5)cc3)CC2)C1
REMARK SMILES IDX 18 1 17 2 16 3 15 4 13 5 14 6 12 8 11 9 6 10 7 11 8 12 9 13
REMARK SMILES IDX 89 14 10 15 88 16 5 18 2 19 3 20 90 21 4 22 1 23 19 27 20 28
REMARK SMILES IDX 21 29 22 30 23 31 24 33 25 34 26 35 87 36 27 37 86 38 28 39
REMARK SMILES IDX 29 40 30 41 80 42 31 43 85 44 79 45 81 46 32 47 84 48 78 49
REMARK SMILES IDX 77 50 33 52 65 53 45 54 64 55 46 56 49 57 63 58 82 59 47 60
REMARK SMILES IDX 48 61 62 63 83 64 50 65 34 66 35 67 43 68 36 69 37 70 41 71
REMARK SMILES IDX 44 72 38 73 39 74 42 75 40 76 66 77 67 78 75 79 68 80 69 81
REMARK SMILES IDX 73 82 76 83 70 84 71 85 74 86 72 87 51 88 52 89 60 90 53 91
REMARK SMILES IDX 54 92 58 93 61 94 55 95 56 96 59 97 57 98
REMARK H PARENT 15 7 11 17 1 24 1 25 1 26 22 32 81 51 49 62
REMARK Flexibility Score: inf
ROOT
ATOM      1  C   UNL A   1      32.490  29.906  26.950  1.00  0.00     0.002 C 
ENDROOT
BRANCH   1   2
ATOM      2  C   UNL A   1      33.439  29.008  26.138  1.00  0.00     0.021 C 
BRANCH   2   3
ATOM      3  C   UNL A   1      33.332  27.502  26.411  1.00  0.00     0.116 C 
BRANCH   3   4
ATOM      4  N   UNL A   1      31.973  26.985  26.382  1.00  0.00    -0.351 N 
ATOM      5  C   UNL A   1      31.467  25.720  26.356  1.00  0.00     0.275 C 
ATOM      6  O   UNL A   1      30.238  25.605  26.352  1.00  0.00    -0.269 OA
ATOM      7  H   UNL A   1      31.284  27.687  26.381  1.00  0.00     0.163 HD
BRANCH   5   8
ATOM      8  C   UNL A   1      32.373  24.493  26.337  1.00  0.00     0.363 C 
BRANCH   8   9
ATOM      9  N   UNL A   1      32.470  23.784  25.049  1.00  0.00    -0.324 N 
ATOM     10  C   UNL A   1      33.949  19.718  24.679  1.00  0.00     0.230 C 
ATOM     11  O   UNL A   1      35.142  19.431  24.770  1.00  0.00    -0.274 OA
ATOM     12  N   UNL A   1      33.493  21.021  24.857  1.00  0.00    -0.331 N 
ATOM     13  C   UNL A   1      34.454  22.123  24.949  1.00  0.00     0.181 C 
ATOM     14  C   UNL A   1      32.194  21.313  25.429  1.00  0.00     0.181 C 
ATOM     15  C   UNL A   1      33.836  23.494  24.568  1.00  0.00     0.284 C 
ATOM     16  C   UNL A   1      31.595  22.623  24.908  1.00  0.00     0.284 C 
ATOM     17  H   UNL A   1      32.109  24.498  24.416  1.00  0.00     0.348 HD
BRANCH  10  18
ATOM     18  C   UNL A   1      32.880  18.674  24.305  1.00  0.00     0.107 C 
ATOM     19  C   UNL A   1      33.188  16.362  25.093  1.00  0.00     0.205 C 
ATOM     20  C   UNL A   1      33.509  16.505  23.646  1.00  0.00     0.033 C 
ATOM     21  C   UNL A   1      32.529  17.708  25.448  1.00  0.00     0.087 C 
ATOM     22  C   UNL A   1      33.357  17.763  23.218  1.00  0.00    -0.012 C 
BRANCH  19  23
ATOM     23  N   UNL A   1      32.304  15.229  25.311  1.00  0.00    -0.352 N 
ATOM     24  H   UNL A   1      31.537  15.509  25.921  1.00  0.00     0.345 HD
ATOM     25  H   UNL A   1      32.826  14.470  25.748  1.00  0.00     0.345 HD
ATOM     26  H   UNL A   1      31.930  14.914  24.416  1.00  0.00     0.345 HD
ENDBRANCH  19  23
ENDBRANCH  10  18
ENDBRANCH   8   9
ENDBRANCH   5   8
ENDBRANCH   3   4
ENDBRANCH   2   3
ENDBRANCH   1   2
BRANCH   1  27
ATOM     27  C   UNL A   1      31.567  30.784  26.104  1.00  0.00     0.002 C 
BRANCH  27  28
ATOM     28  C   UNL A   1      31.403  32.220  26.609  1.00  0.00     0.021 C 
BRANCH  28  29
ATOM     29  C   UNL A   1      32.659  32.825  27.229  1.00  0.00     0.116 C 
BRANCH  29  30
ATOM     30  N   UNL A   1      32.464  34.222  27.582  1.00  0.00    -0.352 N 
ATOM     31  C   UNL A   1      33.023  34.908  28.633  1.00  0.00     0.251 C 
ATOM     32  H   UNL A   1      31.861  34.737  26.998  1.00  0.00     0.163 HD
ATOM     33  O   UNL A   1      32.576  35.998  28.983  1.00  0.00    -0.269 OA
BRANCH  31  34
ATOM     34  C   UNL A   1      34.167  34.310  29.349  1.00  0.00     0.039 A 
ATOM     35  C   UNL A   1      33.932  33.475  30.442  1.00  0.00     0.014 A 
ATOM     36  C   UNL A   1      35.471  34.555  28.908  1.00  0.00     0.014 A 
ATOM     37  C   UNL A   1      35.010  32.837  31.061  1.00  0.00     0.010 A 
ATOM     38  C   UNL A   1      36.534  33.867  29.483  1.00  0.00     0.010 A 
ATOM     39  C   UNL A   1      36.315  33.003  30.568  1.00  0.00    -0.014 A 
BRANCH  39  40
ATOM     40  C   UNL A   1      37.466  32.282  31.171  1.00  0.00     0.031 A 
ATOM     41  C   UNL A   1      37.968  32.671  32.533  1.00  0.00     0.074 A 
ATOM     42  C   UNL A   1      38.096  31.322  30.468  1.00  0.00     0.049 A 
ATOM     43  N   UNL A   1      38.998  32.213  33.199  1.00  0.00    -0.248 NA
ATOM     44  C   UNL A   1      37.230  33.737  33.230  1.00  0.00     0.031 C 
ATOM     45  C   UNL A   1      37.732  30.883  29.121  1.00  0.00     0.029 A 
ATOM     46  N   UNL A   1      39.187  30.549  30.785  1.00  0.00    -0.354 N 
ATOM     47  C   UNL A   1      39.035  32.938  34.383  1.00  0.00     0.074 A 
ATOM     48  C   UNL A   1      37.962  33.906  34.321  1.00  0.00     0.031 C 
ATOM     49  C   UNL A   1      38.569  29.907  28.734  1.00  0.00     0.029 A 
ATOM     50  C   UNL A   1      39.554  29.679  29.787  1.00  0.00     0.049 A 
ATOM     51  H   UNL A   1      39.660  30.613  31.645  1.00  0.00     0.167 HD
ATOM     52  C   UNL A   1      39.875  32.794  35.436  1.00  0.00     0.037 A 
ATOM     53  C   UNL A   1      40.575  28.803  29.725  1.00  0.00     0.037 A 
ATOM     54  C   UNL A   1      40.931  31.818  35.502  1.00  0.00     0.049 A 
ATOM     55  C   UNL A   1      41.507  28.678  30.903  1.00  0.00     0.074 A 
ATOM     56  C   UNL A   1      41.799  31.554  36.547  1.00  0.00     0.029 A 
ATOM     57  N   UNL A   1      41.266  30.946  34.476  1.00  0.00    -0.354 N 
ATOM     58  N   UNL A   1      41.490  29.320  32.044  1.00  0.00    -0.248 NA
ATOM     59  C   UNL A   1      42.596  27.697  30.782  1.00  0.00     0.031 C 
ATOM     60  C   UNL A   1      42.695  30.563  36.134  1.00  0.00     0.029 A 
ATOM     61  C   UNL A   1      42.347  30.164  34.854  1.00  0.00     0.049 A 
ATOM     62  H   UNL A   1      40.805  30.891  33.608  1.00  0.00     0.167 HD
ATOM     63  C   UNL A   1      42.542  28.804  32.789  1.00  0.00     0.074 A 
ATOM     64  C   UNL A   1      43.167  27.783  31.975  1.00  0.00     0.031 C 
ATOM     65  C   UNL A   1      42.954  29.146  34.035  1.00  0.00     0.037 A 
BRANCH  52  66
ATOM     66  C   UNL A   1      39.688  33.715  36.607  1.00  0.00     0.064 A 
ATOM     67  C   UNL A   1      38.879  33.365  37.700  1.00  0.00     0.173 A 
ATOM     68  C   UNL A   1      40.358  34.948  36.658  1.00  0.00     0.173 A 
ATOM     69  F   UNL A   1      38.208  32.203  37.697  1.00  0.00    -0.203 F 
ATOM     70  C   UNL A   1      38.726  34.225  38.785  1.00  0.00     0.198 A 
ATOM     71  C   UNL A   1      40.228  35.790  37.760  1.00  0.00     0.198 A 
ATOM     72  F   UNL A   1      41.149  35.331  35.644  1.00  0.00    -0.203 F 
ATOM     73  F   UNL A   1      37.909  33.889  39.792  1.00  0.00    -0.200 F 
ATOM     74  C   UNL A   1      39.406  35.432  38.817  1.00  0.00     0.200 A 
ATOM     75  F   UNL A   1      40.898  36.950  37.797  1.00  0.00    -0.200 F 
ATOM     76  F   UNL A   1      39.266  36.254  39.867  1.00  0.00    -0.200 F 
ENDBRANCH  52  66
BRANCH  53  77
ATOM     77  C   UNL A   1      40.765  27.963  28.513  1.00  0.00     0.064 A 
ATOM     78  C   UNL A   1      41.546  28.412  27.440  1.00  0.00     0.173 A 
ATOM     79  C   UNL A   1      40.163  26.701  28.397  1.00  0.00     0.173 A 
ATOM     80  F   UNL A   1      42.127  29.620  27.494  1.00  0.00    -0.203 F 
ATOM     81  C   UNL A   1      41.698  27.644  26.286  1.00  0.00     0.198 A 
ATOM     82  C   UNL A   1      40.341  25.920  27.257  1.00  0.00     0.198 A 
ATOM     83  F   UNL A   1      39.410  26.222  29.398  1.00  0.00    -0.203 F 
ATOM     84  F   UNL A   1      42.408  28.121  25.254  1.00  0.00    -0.200 F 
ATOM     85  C   UNL A   1      41.099  26.396  26.198  1.00  0.00     0.200 A 
ATOM     86  F   UNL A   1      39.775  24.708  27.184  1.00  0.00    -0.200 F 
ATOM     87  F   UNL A   1      41.248  25.656  25.093  1.00  0.00    -0.200 F 
ENDBRANCH  53  77
BRANCH  65  88
ATOM     88  C   UNL A   1      44.113  28.383  34.612  1.00  0.00     0.064 A 
ATOM     89  C   UNL A   1      45.433  28.841  34.489  1.00  0.00     0.173 A 
ATOM     90  C   UNL A   1      43.894  27.198  35.329  1.00  0.00     0.173 A 
ATOM     91  F   UNL A   1      45.698  29.961  33.800  1.00  0.00    -0.203 F 
ATOM     92  C   UNL A   1      46.493  28.126  35.039  1.00  0.00     0.198 A 
ATOM     93  C   UNL A   1      44.953  26.503  35.907  1.00  0.00     0.198 A 
ATOM     94  F   UNL A   1      42.650  26.719  35.482  1.00  0.00    -0.203 F 
ATOM     95  F   UNL A   1      47.751  28.555  34.865  1.00  0.00    -0.200 F 
ATOM     96  C   UNL A   1      46.252  26.962  35.754  1.00  0.00     0.200 A 
ATOM     97  F   UNL A   1      44.715  25.387  36.611  1.00  0.00    -0.200 F 
ATOM     98  F   UNL A   1      47.273  26.279  36.291  1.00  0.00    -0.200 F 
ENDBRANCH  65  88
ENDBRANCH  39  40
ENDBRANCH  31  34
ENDBRANCH  29  30
ENDBRANCH  28  29
ENDBRANCH  27  28
ENDBRANCH   1  27
TORSDOF 16
ENDMDL
MODEL 3
REMARK VINA RESULT:     -12.6      0.947      1.879
REMARK SMILES [NH3+][C@H]1C=C[C@H](C(=O)N2CC[NH+](CC(=O)NCCCCCCNC(=O)c3ccc(-c4c5nc(c(-c6c(F)c(F)c(F)c(F)c6F)c6ccc([nH]6)c(-c6c(F)c(F)c(F)c(F)c6F)c6nc(c(-c7c(F)c(F)c(F)c(F)c7F)c7ccc4[nH]7)C=C6)C=C5)cc3)CC2)C1
REMARK SMILES IDX 18 1 17 2 16 3 15 4 13 5 14 6 12 8 11 9 6 10 7 11 8 12 9 13
REMARK SMILES IDX 89 14 10 15 88 16 5 18 2 19 3 20 90 21 4 22 1 23 19 27 20 28
REMARK SMILES IDX 21 29 22 30 23 31 24 33 25 34 26 35 87 36 27 37 86 38 28 39
REMARK SMILES IDX 29 40 30 41 80 42 31 43 85 44 79 45 81 46 32 47 84 48 78 49
REMARK SMILES IDX 77 50 33 52 65 53 45 54 64 55 46 56 49 57 63 58 82 59 47 60
REMARK SMILES IDX 48 61 62 63 83 64 50 65 34 66 35 67 43 68 36 69 37 70 41 71
REMARK SMILES IDX 44 72 38 73 39 74 42 75 40 76 66 77 67 78 75 79 68 80 69 81
REMARK SMILES IDX 73 82 76 83 70 84 71 85 74 86 72 87 51 88 52 89 60 90 53 91
REMARK SMILES IDX 54 92 58 93 61 94 55 95 56 96 59 97 57 98
REMARK H PARENT 15 7 11 17 1 24 1 25 1 26 22 32 81 51 49 62
REMARK Flexibility Score: inf
ROOT
ATOM      1  C   UNL A   1      32.738  29.965  26.972  1.00  0.00     0.002 C 
ENDROOT
BRANCH   1   2
ATOM      2  C   UNL A   1      32.617  28.431  26.969  1.00  0.00     0.021 C 
BRANCH   2   3
ATOM      3  C   UNL A   1      33.659  27.680  26.130  1.00  0.00     0.116 C 
BRANCH   3   4
ATOM      4  N   UNL A   1      33.429  27.745  24.696  1.00  0.00    -0.351 N 
ATOM      5  C   UNL A   1      32.828  26.893  23.818  1.00  0.00     0.275 C 
ATOM      6  O   UNL A   1      32.773  27.248  22.636  1.00  0.00    -0.269 OA
ATOM      7  H   UNL A   1      33.773  28.566  24.277  1.00  0.00     0.163 HD
BRANCH   5   8
ATOM      8  C   UNL A   1      32.242  25.559  24.268  1.00  0.00     0.363 C 
BRANCH   8   9
ATOM      9  N   UNL A   1      32.423  24.430  23.338  1.00  0.00    -0.324 N 
ATOM     10  C   UNL A   1      33.632  20.463  24.624  1.00  0.00     0.230 C 
ATOM     11  O   UNL A   1      34.785  20.192  24.960  1.00  0.00    -0.274 OA
ATOM     12  N   UNL A   1      33.256  21.754  24.270  1.00  0.00    -0.331 N 
ATOM     13  C   UNL A   1      34.280  22.786  24.083  1.00  0.00     0.181 C 
ATOM     14  C   UNL A   1      31.929  22.272  24.534  1.00  0.00     0.181 C 
ATOM     15  C   UNL A   1      33.807  23.944  23.166  1.00  0.00     0.284 C 
ATOM     16  C   UNL A   1      31.485  23.323  23.512  1.00  0.00     0.284 C 
ATOM     17  H   UNL A   1      32.183  24.877  22.453  1.00  0.00     0.348 HD
BRANCH  10  18
ATOM     18  C   UNL A   1      32.536  19.386  24.516  1.00  0.00     0.107 C 
ATOM     19  C   UNL A   1      33.208  17.023  24.668  1.00  0.00     0.205 C 
ATOM     20  C   UNL A   1      32.904  17.427  23.267  1.00  0.00     0.033 C 
ATOM     21  C   UNL A   1      32.712  18.220  25.501  1.00  0.00     0.087 C 
ATOM     22  C   UNL A   1      32.554  18.714  23.179  1.00  0.00    -0.012 C 
BRANCH  19  23
ATOM     23  N   UNL A   1      32.525  15.784  25.001  1.00  0.00    -0.352 N 
ATOM     24  H   UNL A   1      31.825  15.965  25.720  1.00  0.00     0.345 HD
ATOM     25  H   UNL A   1      33.202  15.105  25.349  1.00  0.00     0.345 HD
ATOM     26  H   UNL A   1      32.069  15.413  24.168  1.00  0.00     0.345 HD
ENDBRANCH  19  23
ENDBRANCH  10  18
ENDBRANCH   8   9
ENDBRANCH   5   8
ENDBRANCH   3   4
ENDBRANCH   2   3
ENDBRANCH   1   2
BRANCH   1  27
ATOM     27  C   UNL A   1      31.634  30.691  26.202  1.00  0.00     0.002 C 
BRANCH  27  28
ATOM     28  C   UNL A   1      31.438  32.159  26.587  1.00  0.00     0.021 C 
BRANCH  28  29
ATOM     29  C   UNL A   1      32.603  32.778  27.355  1.00  0.00     0.116 C 
BRANCH  29  30
ATOM     30  N   UNL A   1      32.408  34.203  27.570  1.00  0.00    -0.352 N 
ATOM     31  C   UNL A   1      32.973  34.989  28.544  1.00  0.00     0.251 C 
ATOM     32  H   UNL A   1      31.799  34.657  26.943  1.00  0.00     0.163 HD
ATOM     33  O   UNL A   1      32.527  36.108  28.789  1.00  0.00    -0.269 OA
BRANCH  31  34
ATOM     34  C   UNL A   1      34.123  34.466  29.307  1.00  0.00     0.039 A 
ATOM     35  C   UNL A   1      33.906  33.838  30.534  1.00  0.00     0.014 A 
ATOM     36  C   UNL A   1      35.415  34.572  28.781  1.00  0.00     0.014 A 
ATOM     37  C   UNL A   1      34.984  33.263  31.211  1.00  0.00     0.010 A 
ATOM     38  C   UNL A   1      36.474  33.940  29.423  1.00  0.00     0.010 A 
ATOM     39  C   UNL A   1      36.270  33.282  30.646  1.00  0.00    -0.014 A 
BRANCH  39  40
ATOM     40  C   UNL A   1      37.418  32.618  31.319  1.00  0.00     0.031 A 
ATOM     41  C   UNL A   1      38.118  31.467  30.652  1.00  0.00     0.074 A 
ATOM     42  C   UNL A   1      37.787  33.009  32.553  1.00  0.00     0.049 A 
ATOM     43  N   UNL A   1      39.089  30.714  31.103  1.00  0.00    -0.248 NA
ATOM     44  C   UNL A   1      37.646  31.095  29.309  1.00  0.00     0.031 C 
ATOM     45  C   UNL A   1      37.160  34.084  33.323  1.00  0.00     0.029 A 
ATOM     46  N   UNL A   1      38.773  32.538  33.385  1.00  0.00    -0.354 N 
ATOM     47  C   UNL A   1      39.336  29.779  30.107  1.00  0.00     0.074 A 
ATOM     48  C   UNL A   1      38.376  30.020  29.052  1.00  0.00     0.031 C 
ATOM     49  C   UNL A   1      37.787  34.204  34.504  1.00  0.00     0.029 A 
ATOM     50  C   UNL A   1      38.833  33.190  34.593  1.00  0.00     0.049 A 
ATOM     51  H   UNL A   1      39.380  31.803  33.139  1.00  0.00     0.167 HD
ATOM     52  C   UNL A   1      40.292  28.819  30.066  1.00  0.00     0.037 A 
ATOM     53  C   UNL A   1      39.635  32.986  35.656  1.00  0.00     0.037 A 
ATOM     54  C   UNL A   1      41.257  28.594  31.110  1.00  0.00     0.049 A 
ATOM     55  C   UNL A   1      40.676  31.899  35.592  1.00  0.00     0.074 A 
ATOM     56  C   UNL A   1      42.301  27.686  31.139  1.00  0.00     0.029 A 
ATOM     57  N   UNL A   1      41.294  29.282  32.315  1.00  0.00    -0.354 N 
ATOM     58  N   UNL A   1      40.945  31.066  34.617  1.00  0.00    -0.248 NA
ATOM     59  C   UNL A   1      41.530  31.730  36.777  1.00  0.00     0.031 C 
ATOM     60  C   UNL A   1      42.934  27.785  32.382  1.00  0.00     0.029 A 
ATOM     61  C   UNL A   1      42.325  28.797  33.105  1.00  0.00     0.049 A 
ATOM     62  H   UNL A   1      40.678  30.006  32.571  1.00  0.00     0.167 HD
ATOM     63  C   UNL A   1      42.015  30.297  35.055  1.00  0.00     0.074 A 
ATOM     64  C   UNL A   1      42.356  30.774  36.379  1.00  0.00     0.031 C 
ATOM     65  C   UNL A   1      42.657  29.286  34.419  1.00  0.00     0.037 A 
BRANCH  52  66
ATOM     66  C   UNL A   1      40.342  27.938  28.851  1.00  0.00     0.064 A 
ATOM     67  C   UNL A   1      41.109  28.278  27.725  1.00  0.00     0.173 A 
ATOM     68  C   UNL A   1      39.650  26.718  28.827  1.00  0.00     0.173 A 
ATOM     69  F   UNL A   1      41.782  29.438  27.692  1.00  0.00    -0.203 F 
ATOM     70  C   UNL A   1      41.156  27.444  26.610  1.00  0.00     0.198 A 
ATOM     71  C   UNL A   1      39.726  25.871  27.724  1.00  0.00     0.198 A 
ATOM     72  F   UNL A   1      38.907  26.340  29.879  1.00  0.00    -0.203 F 
ATOM     73  F   UNL A   1      41.854  27.814  25.529  1.00  0.00    -0.200 F 
ATOM     74  C   UNL A   1      40.472  26.238  26.614  1.00  0.00     0.200 A 
ATOM     75  F   UNL A   1      39.076  24.699  27.736  1.00  0.00    -0.200 F 
ATOM     76  F   UNL A   1      40.527  25.431  25.546  1.00  0.00    -0.200 F 
ENDBRANCH  52  66
BRANCH  53  77
ATOM     77  C   UNL A   1      39.498  33.837  36.867  1.00  0.00     0.064 A 
ATOM     78  C   UNL A   1      38.727  33.417  37.960  1.00  0.00     0.173 A 
ATOM     79  C   UNL A   1      40.124  35.089  36.955  1.00  0.00     0.173 A 
ATOM     80  F   UNL A   1      38.092  32.236  37.917  1.00  0.00    -0.203 F 
ATOM     81  C   UNL A   1      38.567  34.227  39.083  1.00  0.00     0.198 A 
ATOM     82  C   UNL A   1      39.989  35.885  38.091  1.00  0.00     0.198 A 
ATOM     83  F   UNL A   1      40.878  35.536  35.939  1.00  0.00    -0.203 F 
ATOM     84  F   UNL A   1      37.782  33.823  40.092  1.00  0.00    -0.200 F 
ATOM     85  C   UNL A   1      39.202  35.458  39.150  1.00  0.00     0.200 A 
ATOM     86  F   UNL A   1      40.620  37.065  38.158  1.00  0.00    -0.200 F 
ATOM     87  F   UNL A   1      39.052  36.234  40.230  1.00  0.00    -0.200 F 
ENDBRANCH  53  77
BRANCH  65  88
ATOM     88  C   UNL A   1      43.819  28.651  35.129  1.00  0.00     0.064 A 
ATOM     89  C   UNL A   1      43.655  27.531  35.957  1.00  0.00     0.173 A 
ATOM     90  C   UNL A   1      45.118  29.149  34.947  1.00  0.00     0.173 A 
ATOM     91  F   UNL A   1      42.432  27.025  36.175  1.00  0.00    -0.203 F 
ATOM     92  C   UNL A   1      44.746  26.950  36.599  1.00  0.00     0.198 A 
ATOM     93  C   UNL A   1      46.210  28.545  35.563  1.00  0.00     0.198 A 
ATOM     94  F   UNL A   1      45.330  30.214  34.160  1.00  0.00    -0.203 F 
ATOM     95  F   UNL A   1      44.559  25.912  37.426  1.00  0.00    -0.200 F 
ATOM     96  C   UNL A   1      46.023  27.452  36.395  1.00  0.00     0.200 A 
ATOM     97  F   UNL A   1      47.444  29.022  35.353  1.00  0.00    -0.200 F 
ATOM     98  F   UNL A   1      47.073  26.886  37.007  1.00  0.00    -0.200 F 
ENDBRANCH  65  88
ENDBRANCH  39  40
ENDBRANCH  31  34
ENDBRANCH  29  30
ENDBRANCH  28  29
ENDBRANCH  27  28
ENDBRANCH   1  27
TORSDOF 16
ENDMDL
