MODEL 1
REMARK VINA RESULT:     -11.5      0.000      0.000
REMARK SMILES O=C(CC[N@@H+]1CCC[C@@H](C(=O)NCCCCCCNC(=O)c2ccc(-c3c4nc(c(-c5c(F)c(F)c(F)c(F)c5F)c5ccc([nH]5)c(-c5c(F)c(F)c(F)c(F)c5F)c5nc(c(-c6c(F)c(F)c(F)c(F)c6F)c6ccc3[nH]6)C=C5)C=C4)cc2)C1)Nc1cccc(F)c1
REMARK SMILES IDX 14 1 13 2 12 3 10 4 11 5 9 7 5 8 6 9 85 10 7 12 8 13 4 14
REMARK SMILES IDX 3 15 2 16 1 17 86 18 87 20 88 21 93 22 89 23 91 24 90 25
REMARK SMILES IDX 92 26 15 27 16 28 17 29 18 30 19 31 20 32 21 34 22 35 23 36
REMARK SMILES IDX 84 37 24 38 83 39 25 40 26 41 27 42 77 43 28 44 82 45 76 46
REMARK SMILES IDX 78 47 29 48 81 49 75 50 74 51 30 53 62 54 42 55 61 56 43 57
REMARK SMILES IDX 46 58 60 59 79 60 44 61 45 62 59 64 80 65 47 66 31 67 32 68
REMARK SMILES IDX 40 69 33 70 34 71 38 72 41 73 35 74 36 75 39 76 37 77 63 78
REMARK SMILES IDX 64 79 72 80 65 81 66 82 70 83 73 84 67 85 68 86 71 87 69 88
REMARK SMILES IDX 48 89 49 90 57 91 50 92 51 93 55 94 58 95 52 96 53 97 56 98
REMARK SMILES IDX 54 99
REMARK H PARENT 12 6 5 11 86 19 19 33 78 52 46 63
REMARK Flexibility Score: inf
ROOT
ATOM      1  C   UNL A   1      33.007  23.493  26.967  1.00  0.00     0.021 C 
ENDROOT
BRANCH   1   2
ATOM      2  C   UNL A   1      31.599  22.931  26.778  1.00  0.00     0.116 C 
BRANCH   2   3
ATOM      3  N   UNL A   1      31.610  21.647  26.106  1.00  0.00    -0.356 N 
ATOM      4  C   UNL A   1      31.875  21.234  24.844  1.00  0.00     0.228 C 
ATOM      5  O   UNL A   1      31.822  20.009  24.668  1.00  0.00    -0.275 OA
ATOM      6  H   UNL A   1      31.371  20.903  26.704  1.00  0.00     0.163 HD
BRANCH   4   7
ATOM      7  C   UNL A   1      32.169  22.132  23.637  1.00  0.00     0.133 C 
ATOM      8  N   UNL A   1      31.708  24.600  23.102  1.00  0.00    -0.334 N 
ATOM      9  C   UNL A   1      32.830  24.653  22.188  1.00  0.00     0.262 C 
ATOM     10  C   UNL A   1      31.275  23.380  23.775  1.00  0.00     0.275 C 
ATOM     11  H   UNL A   1      32.372  24.643  23.876  1.00  0.00     0.348 HD
ATOM     12  C   UNL A   1      33.601  23.350  22.018  1.00  0.00     0.062 C 
ATOM     13  C   UNL A   1      33.596  22.519  23.295  1.00  0.00     0.025 C 
BRANCH   8  14
ATOM     14  C   UNL A   1      30.814  25.756  23.124  1.00  0.00     0.272 C 
BRANCH  14  15
ATOM     15  C   UNL A   1      30.048  25.940  24.440  1.00  0.00     0.161 C 
BRANCH  15  16
ATOM     16  C   UNL A   1      30.747  26.745  25.536  1.00  0.00     0.230 C 
ATOM     17  O   UNL A   1      30.714  26.352  26.700  1.00  0.00    -0.275 OA
ATOM     18  N   UNL A   1      31.436  27.853  25.094  1.00  0.00    -0.326 N 
ATOM     19  H   UNL A   1      31.272  28.118  24.160  1.00  0.00     0.169 HD
BRANCH  18  20
ATOM     20  C   UNL A   1      32.342  28.653  25.810  1.00  0.00     0.044 A 
ATOM     21  C   UNL A   1      33.563  28.075  26.189  1.00  0.00     0.026 A 
ATOM     22  C   UNL A   1      32.059  29.960  26.202  1.00  0.00     0.065 A 
ATOM     23  C   UNL A   1      34.498  28.799  26.934  1.00  0.00     0.005 A 
ATOM     24  C   UNL A   1      32.986  30.664  26.966  1.00  0.00     0.125 A 
ATOM     25  C   UNL A   1      34.202  30.099  27.331  1.00  0.00     0.039 A 
ATOM     26  F   UNL A   1      32.695  31.907  27.373  1.00  0.00    -0.207 F 
ENDBRANCH  18  20
ENDBRANCH  15  16
ENDBRANCH  14  15
ENDBRANCH   8  14
ENDBRANCH   4   7
ENDBRANCH   2   3
ENDBRANCH   1   2
BRANCH   1  27
ATOM     27  C   UNL A   1      34.054  22.447  27.371  1.00  0.00     0.002 C 
BRANCH  27  28
ATOM     28  C   UNL A   1      35.475  22.705  26.852  1.00  0.00     0.002 C 
BRANCH  28  29
ATOM     29  C   UNL A   1      35.591  23.729  25.718  1.00  0.00     0.021 C 
BRANCH  29  30
ATOM     30  C   UNL A   1      36.933  23.724  24.990  1.00  0.00     0.116 C 
BRANCH  30  31
ATOM     31  N   UNL A   1      37.824  22.698  25.507  1.00  0.00    -0.352 N 
ATOM     32  C   UNL A   1      39.002  22.823  26.200  1.00  0.00     0.251 C 
ATOM     33  H   UNL A   1      37.539  21.772  25.332  1.00  0.00     0.163 HD
ATOM     34  O   UNL A   1      39.734  21.851  26.347  1.00  0.00    -0.269 OA
BRANCH  32  35
ATOM     35  C   UNL A   1      39.400  24.128  26.771  1.00  0.00     0.039 A 
ATOM     36  C   UNL A   1      39.013  24.440  28.077  1.00  0.00     0.014 A 
ATOM     37  C   UNL A   1      40.106  25.064  26.008  1.00  0.00     0.014 A 
ATOM     38  C   UNL A   1      39.376  25.668  28.636  1.00  0.00     0.010 A 
ATOM     39  C   UNL A   1      40.523  26.260  26.588  1.00  0.00     0.010 A 
ATOM     40  C   UNL A   1      40.155  26.578  27.904  1.00  0.00    -0.014 A 
BRANCH  40  41
ATOM     41  C   UNL A   1      40.576  27.876  28.491  1.00  0.00     0.031 A 
ATOM     42  C   UNL A   1      42.011  28.095  28.885  1.00  0.00     0.074 A 
ATOM     43  C   UNL A   1      39.660  28.836  28.716  1.00  0.00     0.049 A 
ATOM     44  N   UNL A   1      42.560  29.124  29.480  1.00  0.00    -0.248 NA
ATOM     45  C   UNL A   1      42.949  27.000  28.594  1.00  0.00     0.031 C 
ATOM     46  C   UNL A   1      38.233  28.734  28.407  1.00  0.00     0.029 A 
ATOM     47  N   UNL A   1      39.790  30.087  29.267  1.00  0.00    -0.354 N 
ATOM     48  C   UNL A   1      43.900  28.797  29.640  1.00  0.00     0.074 A 
ATOM     49  C   UNL A   1      44.072  27.453  29.133  1.00  0.00     0.031 C 
ATOM     50  C   UNL A   1      37.623  29.878  28.755  1.00  0.00     0.029 A 
ATOM     51  C   UNL A   1      38.608  30.782  29.343  1.00  0.00     0.049 A 
ATOM     52  H   UNL A   1      40.651  30.451  29.578  1.00  0.00     0.167 HD
ATOM     53  C   UNL A   1      44.903  29.559  30.140  1.00  0.00     0.037 A 
ATOM     54  C   UNL A   1      38.348  32.006  29.840  1.00  0.00     0.037 A 
ATOM     55  C   UNL A   1      44.734  30.904  30.626  1.00  0.00     0.049 A 
ATOM     56  C   UNL A   1      39.477  32.823  30.408  1.00  0.00     0.074 A 
ATOM     57  C   UNL A   1      45.693  31.770  31.124  1.00  0.00     0.029 A 
ATOM     58  N   UNL A   1      43.523  31.579  30.671  1.00  0.00    -0.354 N 
ATOM     59  N   UNL A   1      40.748  32.522  30.509  1.00  0.00    -0.248 NA
ATOM     60  C   UNL A   1      39.133  34.155  30.926  1.00  0.00     0.031 C 
ATOM     61  C   UNL A   1      45.055  32.955  31.504  1.00  0.00     0.029 A 
ATOM     62  C   UNL A   1      43.708  32.846  31.201  1.00  0.00     0.049 A 
ATOM     63  H   UNL A   1      42.660  31.212  30.372  1.00  0.00     0.167 HD
ATOM     64  C   UNL A   1      41.361  33.636  31.066  1.00  0.00     0.074 A 
ATOM     65  C   UNL A   1      40.324  34.625  31.271  1.00  0.00     0.031 C 
ATOM     66  C   UNL A   1      42.666  33.825  31.380  1.00  0.00     0.037 A 
BRANCH  53  67
ATOM     67  C   UNL A   1      46.278  28.957  30.177  1.00  0.00     0.064 A 
ATOM     68  C   UNL A   1      46.736  28.247  31.298  1.00  0.00     0.173 A 
ATOM     69  C   UNL A   1      47.134  29.056  29.070  1.00  0.00     0.173 A 
ATOM     70  F   UNL A   1      45.961  28.133  32.387  1.00  0.00    -0.203 F 
ATOM     71  C   UNL A   1      48.009  27.686  31.320  1.00  0.00     0.198 A 
ATOM     72  C   UNL A   1      48.395  28.466  29.083  1.00  0.00     0.198 A 
ATOM     73  F   UNL A   1      46.743  29.718  27.970  1.00  0.00    -0.203 F 
ATOM     74  F   UNL A   1      48.442  27.054  32.420  1.00  0.00    -0.200 F 
ATOM     75  C   UNL A   1      48.835  27.789  30.211  1.00  0.00     0.200 A 
ATOM     76  F   UNL A   1      49.187  28.556  28.006  1.00  0.00    -0.200 F 
ATOM     77  F   UNL A   1      50.058  27.240  30.230  1.00  0.00    -0.200 F 
ENDBRANCH  53  67
BRANCH  54  78
ATOM     78  C   UNL A   1      36.964  32.549  29.802  1.00  0.00     0.064 A 
ATOM     79  C   UNL A   1      36.499  33.251  28.681  1.00  0.00     0.173 A 
ATOM     80  C   UNL A   1      36.090  32.400  30.889  1.00  0.00     0.173 A 
ATOM     81  F   UNL A   1      37.304  33.438  27.626  1.00  0.00    -0.203 F 
ATOM     82  C   UNL A   1      35.221  33.806  28.659  1.00  0.00     0.198 A 
ATOM     83  C   UNL A   1      34.802  32.931  30.853  1.00  0.00     0.198 A 
ATOM     84  F   UNL A   1      36.485  31.733  31.982  1.00  0.00    -0.203 F 
ATOM     85  F   UNL A   1      34.820  34.517  27.596  1.00  0.00    -0.200 F 
ATOM     86  C   UNL A   1      34.372  33.642  29.743  1.00  0.00     0.200 A 
ATOM     87  F   UNL A   1      33.980  32.758  31.897  1.00  0.00    -0.200 F 
ATOM     88  F   UNL A   1      33.144  34.177  29.722  1.00  0.00    -0.200 F 
ENDBRANCH  54  78
BRANCH  66  89
ATOM     89  C   UNL A   1      43.055  35.165  31.931  1.00  0.00     0.064 A 
ATOM     90  C   UNL A   1      42.912  35.472  33.292  1.00  0.00     0.173 A 
ATOM     91  C   UNL A   1      43.610  36.142  31.091  1.00  0.00     0.173 A 
ATOM     92  F   UNL A   1      42.371  34.577  34.133  1.00  0.00    -0.203 F 
ATOM     93  C   UNL A   1      43.285  36.719  33.787  1.00  0.00     0.198 A 
ATOM     94  C   UNL A   1      44.010  37.377  31.595  1.00  0.00     0.198 A 
ATOM     95  F   UNL A   1      43.773  35.896  29.783  1.00  0.00    -0.203 F 
ATOM     96  F   UNL A   1      43.093  37.008  35.081  1.00  0.00    -0.200 F 
ATOM     97  C   UNL A   1      43.839  37.667  32.940  1.00  0.00     0.200 A 
ATOM     98  F   UNL A   1      44.557  38.287  30.778  1.00  0.00    -0.200 F 
ATOM     99  F   UNL A   1      44.203  38.864  33.420  1.00  0.00    -0.200 F 
ENDBRANCH  66  89
ENDBRANCH  40  41
ENDBRANCH  32  35
ENDBRANCH  30  31
ENDBRANCH  29  30
ENDBRANCH  28  29
ENDBRANCH  27  28
ENDBRANCH   1  27
TORSDOF 17
ENDMDL
MODEL 2
REMARK VINA RESULT:     -11.5      4.661      9.876
REMARK SMILES O=C(CC[N@@H+]1CCC[C@@H](C(=O)NCCCCCCNC(=O)c2ccc(-c3c4nc(c(-c5c(F)c(F)c(F)c(F)c5F)c5ccc([nH]5)c(-c5c(F)c(F)c(F)c(F)c5F)c5nc(c(-c6c(F)c(F)c(F)c(F)c6F)c6ccc3[nH]6)C=C5)C=C4)cc2)C1)Nc1cccc(F)c1
REMARK SMILES IDX 14 1 13 2 12 3 10 4 11 5 9 7 5 8 6 9 85 10 7 12 8 13 4 14
REMARK SMILES IDX 3 15 2 16 1 17 86 18 87 20 88 21 93 22 89 23 91 24 90 25
REMARK SMILES IDX 92 26 15 27 16 28 17 29 18 30 19 31 20 32 21 34 22 35 23 36
REMARK SMILES IDX 84 37 24 38 83 39 25 40 26 41 27 42 77 43 28 44 82 45 76 46
REMARK SMILES IDX 78 47 29 48 81 49 75 50 74 51 30 53 62 54 42 55 61 56 43 57
REMARK SMILES IDX 46 58 60 59 79 60 44 61 45 62 59 64 80 65 47 66 31 67 32 68
REMARK SMILES IDX 40 69 33 70 34 71 38 72 41 73 35 74 36 75 39 76 37 77 63 78
REMARK SMILES IDX 64 79 72 80 65 81 66 82 70 83 73 84 67 85 68 86 71 87 69 88
REMARK SMILES IDX 48 89 49 90 57 91 50 92 51 93 55 94 58 95 52 96 53 97 56 98
REMARK SMILES IDX 54 99
REMARK H PARENT 12 6 5 11 86 19 19 33 78 52 46 63
REMARK Flexibility Score: inf
ROOT
ATOM      1  C   UNL A   1      35.801  32.121  28.134  1.00  0.00     0.021 C 
ENDROOT
BRANCH   1   2
ATOM      2  C   UNL A   1      35.482  30.636  27.967  1.00  0.00     0.116 C 
BRANCH   2   3
ATOM      3  N   UNL A   1      34.057  30.392  27.871  1.00  0.00    -0.356 N 
ATOM      4  C   UNL A   1      33.268  29.672  27.041  1.00  0.00     0.228 C 
ATOM      5  O   UNL A   1      32.061  29.676  27.323  1.00  0.00    -0.275 OA
ATOM      6  H   UNL A   1      33.544  30.858  28.570  1.00  0.00     0.163 HD
BRANCH   4   7
ATOM      7  C   UNL A   1      33.718  28.919  25.784  1.00  0.00     0.133 C 
ATOM      8  N   UNL A   1      33.498  26.487  24.993  1.00  0.00    -0.334 N 
ATOM      9  C   UNL A   1      33.582  26.888  23.605  1.00  0.00     0.262 C 
ATOM     10  C   UNL A   1      33.647  27.414  26.110  1.00  0.00     0.275 C 
ATOM     11  H   UNL A   1      32.535  26.822  25.004  1.00  0.00     0.348 HD
ATOM     12  C   UNL A   1      33.763  28.381  23.362  1.00  0.00     0.062 C 
ATOM     13  C   UNL A   1      33.081  29.216  24.439  1.00  0.00     0.025 C 
BRANCH   8  14
ATOM     14  C   UNL A   1      33.548  25.053  25.275  1.00  0.00     0.272 C 
BRANCH  14  15
ATOM     15  C   UNL A   1      34.751  24.328  24.657  1.00  0.00     0.161 C 
BRANCH  15  16
ATOM     16  C   UNL A   1      35.705  23.629  25.625  1.00  0.00     0.230 C 
ATOM     17  O   UNL A   1      35.262  23.070  26.626  1.00  0.00    -0.275 OA
ATOM     18  N   UNL A   1      37.029  23.632  25.241  1.00  0.00    -0.326 N 
ATOM     19  H   UNL A   1      37.257  24.222  24.487  1.00  0.00     0.169 HD
BRANCH  18  20
ATOM     20  C   UNL A   1      38.093  22.900  25.792  1.00  0.00     0.044 A 
ATOM     21  C   UNL A   1      38.986  23.580  26.634  1.00  0.00     0.026 A 
ATOM     22  C   UNL A   1      38.326  21.558  25.498  1.00  0.00     0.065 A 
ATOM     23  C   UNL A   1      40.089  22.925  27.189  1.00  0.00     0.005 A 
ATOM     24  C   UNL A   1      39.441  20.920  26.035  1.00  0.00     0.125 A 
ATOM     25  C   UNL A   1      40.320  21.588  26.880  1.00  0.00     0.039 A 
ATOM     26  F   UNL A   1      39.683  19.641  25.721  1.00  0.00    -0.207 F 
ENDBRANCH  18  20
ENDBRANCH  15  16
ENDBRANCH  14  15
ENDBRANCH   8  14
ENDBRANCH   4   7
ENDBRANCH   2   3
ENDBRANCH   1   2
BRANCH   1  27
ATOM     27  C   UNL A   1      34.584  33.045  28.003  1.00  0.00     0.002 C 
BRANCH  27  28
ATOM     28  C   UNL A   1      34.309  33.946  29.215  1.00  0.00     0.002 C 
BRANCH  28  29
ATOM     29  C   UNL A   1      33.084  34.859  29.099  1.00  0.00     0.021 C 
BRANCH  29  30
ATOM     30  C   UNL A   1      33.256  36.238  29.731  1.00  0.00     0.116 C 
BRANCH  30  31
ATOM     31  N   UNL A   1      32.424  36.399  30.912  1.00  0.00    -0.352 N 
ATOM     32  C   UNL A   1      32.531  35.817  32.150  1.00  0.00     0.251 C 
ATOM     33  H   UNL A   1      31.668  37.021  30.807  1.00  0.00     0.163 HD
ATOM     34  O   UNL A   1      31.602  35.893  32.947  1.00  0.00    -0.269 OA
BRANCH  32  35
ATOM     35  C   UNL A   1      33.762  35.092  32.532  1.00  0.00     0.039 A 
ATOM     36  C   UNL A   1      33.659  33.761  32.950  1.00  0.00     0.014 A 
ATOM     37  C   UNL A   1      35.006  35.730  32.530  1.00  0.00     0.014 A 
ATOM     38  C   UNL A   1      34.809  33.057  33.318  1.00  0.00     0.010 A 
ATOM     39  C   UNL A   1      36.158  35.008  32.834  1.00  0.00     0.010 A 
ATOM     40  C   UNL A   1      36.071  33.668  33.239  1.00  0.00    -0.014 A 
BRANCH  40  41
ATOM     41  C   UNL A   1      37.307  32.927  33.597  1.00  0.00     0.031 A 
ATOM     42  C   UNL A   1      38.018  33.226  34.888  1.00  0.00     0.074 A 
ATOM     43  C   UNL A   1      37.816  32.023  32.739  1.00  0.00     0.049 A 
ATOM     44  N   UNL A   1      39.148  32.744  35.344  1.00  0.00    -0.248 NA
ATOM     45  C   UNL A   1      37.389  34.218  35.773  1.00  0.00     0.031 C 
ATOM     46  C   UNL A   1      37.237  31.667  31.443  1.00  0.00     0.029 A 
ATOM     47  N   UNL A   1      38.944  31.244  32.823  1.00  0.00    -0.354 N 
ATOM     48  C   UNL A   1      39.365  33.379  36.560  1.00  0.00     0.074 A 
ATOM     49  C   UNL A   1      38.284  34.321  36.746  1.00  0.00     0.031 C 
ATOM     50  C   UNL A   1      38.001  30.727  30.863  1.00  0.00     0.029 A 
ATOM     51  C   UNL A   1      39.142  30.441  31.727  1.00  0.00     0.049 A 
ATOM     52  H   UNL A   1      39.552  31.260  33.598  1.00  0.00     0.167 HD
ATOM     53  C   UNL A   1      40.363  33.174  37.453  1.00  0.00     0.037 A 
ATOM     54  C   UNL A   1      40.137  29.578  31.449  1.00  0.00     0.037 A 
ATOM     55  C   UNL A   1      41.429  32.222  37.276  1.00  0.00     0.049 A 
ATOM     56  C   UNL A   1      41.244  29.385  32.451  1.00  0.00     0.074 A 
ATOM     57  C   UNL A   1      42.470  31.919  38.137  1.00  0.00     0.029 A 
ATOM     58  N   UNL A   1      41.585  31.416  36.159  1.00  0.00    -0.354 N 
ATOM     59  N   UNL A   1      41.412  29.955  33.619  1.00  0.00    -0.248 NA
ATOM     60  C   UNL A   1      42.297  28.423  32.096  1.00  0.00     0.031 C 
ATOM     61  C   UNL A   1      43.276  30.955  37.524  1.00  0.00     0.029 A 
ATOM     62  C   UNL A   1      42.714  30.623  36.303  1.00  0.00     0.049 A 
ATOM     63  H   UNL A   1      40.984  31.406  35.379  1.00  0.00     0.167 HD
ATOM     64  C   UNL A   1      42.565  29.396  34.153  1.00  0.00     0.074 A 
ATOM     65  C   UNL A   1      43.050  28.433  33.186  1.00  0.00     0.031 C 
ATOM     66  C   UNL A   1      43.170  29.656  35.338  1.00  0.00     0.037 A 
BRANCH  53  67
ATOM     67  C   UNL A   1      40.344  33.993  38.713  1.00  0.00     0.064 A 
ATOM     68  C   UNL A   1      41.017  35.222  38.797  1.00  0.00     0.173 A 
ATOM     69  C   UNL A   1      39.616  33.566  39.833  1.00  0.00     0.173 A 
ATOM     70  F   UNL A   1      41.736  35.670  37.758  1.00  0.00    -0.203 F 
ATOM     71  C   UNL A   1      40.986  35.977  39.966  1.00  0.00     0.198 A 
ATOM     72  C   UNL A   1      39.561  34.339  40.990  1.00  0.00     0.198 A 
ATOM     73  F   UNL A   1      38.949  32.402  39.803  1.00  0.00    -0.203 F 
ATOM     74  F   UNL A   1      41.676  37.123  40.039  1.00  0.00    -0.200 F 
ATOM     75  C   UNL A   1      40.253  35.539  41.059  1.00  0.00     0.200 A 
ATOM     76  F   UNL A   1      38.842  33.921  42.041  1.00  0.00    -0.200 F 
ATOM     77  F   UNL A   1      40.216  36.272  42.181  1.00  0.00    -0.200 F 
ENDBRANCH  53  67
BRANCH  54  78
ATOM     78  C   UNL A   1      40.124  28.807  30.177  1.00  0.00     0.064 A 
ATOM     79  C   UNL A   1      39.500  27.554  30.102  1.00  0.00     0.173 A 
ATOM     80  C   UNL A   1      40.753  29.294  29.021  1.00  0.00     0.173 A 
ATOM     81  F   UNL A   1      38.903  27.038  31.186  1.00  0.00    -0.203 F 
ATOM     82  C   UNL A   1      39.528  26.805  28.928  1.00  0.00     0.198 A 
ATOM     83  C   UNL A   1      40.754  28.556  27.839  1.00  0.00     0.198 A 
ATOM     84  F   UNL A   1      41.360  30.489  29.039  1.00  0.00    -0.203 F 
ATOM     85  F   UNL A   1      38.969  25.588  28.899  1.00  0.00    -0.200 F 
ATOM     86  C   UNL A   1      40.151  27.309  27.796  1.00  0.00     0.200 A 
ATOM     87  F   UNL A   1      41.346  29.052  26.744  1.00  0.00    -0.200 F 
ATOM     88  F   UNL A   1      40.179  26.587  26.668  1.00  0.00    -0.200 F 
ENDBRANCH  54  78
BRANCH  66  89
ATOM     89  C   UNL A   1      44.392  28.855  35.677  1.00  0.00     0.064 A 
ATOM     90  C   UNL A   1      45.680  29.289  35.329  1.00  0.00     0.173 A 
ATOM     91  C   UNL A   1      44.275  27.652  36.392  1.00  0.00     0.173 A 
ATOM     92  F   UNL A   1      45.843  30.424  34.631  1.00  0.00    -0.203 F 
ATOM     93  C   UNL A   1      46.802  28.535  35.659  1.00  0.00     0.198 A 
ATOM     94  C   UNL A   1      45.402  26.917  36.747  1.00  0.00     0.198 A 
ATOM     95  F   UNL A   1      43.066  27.197  36.754  1.00  0.00    -0.203 F 
ATOM     96  F   UNL A   1      48.019  28.945  35.273  1.00  0.00    -0.200 F 
ATOM     97  C   UNL A   1      46.664  27.354  36.373  1.00  0.00     0.200 A 
ATOM     98  F   UNL A   1      45.267  25.783  37.447  1.00  0.00    -0.200 F 
ATOM     99  F   UNL A   1      47.746  26.633  36.695  1.00  0.00    -0.200 F 
ENDBRANCH  66  89
ENDBRANCH  40  41
ENDBRANCH  32  35
ENDBRANCH  30  31
ENDBRANCH  29  30
ENDBRANCH  28  29
ENDBRANCH  27  28
ENDBRANCH   1  27
TORSDOF 17
ENDMDL
MODEL 3
REMARK VINA RESULT:     -11.4      4.305      7.000
REMARK SMILES O=C(CC[N@@H+]1CCC[C@@H](C(=O)NCCCCCCNC(=O)c2ccc(-c3c4nc(c(-c5c(F)c(F)c(F)c(F)c5F)c5ccc([nH]5)c(-c5c(F)c(F)c(F)c(F)c5F)c5nc(c(-c6c(F)c(F)c(F)c(F)c6F)c6ccc3[nH]6)C=C5)C=C4)cc2)C1)Nc1cccc(F)c1
REMARK SMILES IDX 14 1 13 2 12 3 10 4 11 5 9 7 5 8 6 9 85 10 7 12 8 13 4 14
REMARK SMILES IDX 3 15 2 16 1 17 86 18 87 20 88 21 93 22 89 23 91 24 90 25
REMARK SMILES IDX 92 26 15 27 16 28 17 29 18 30 19 31 20 32 21 34 22 35 23 36
REMARK SMILES IDX 84 37 24 38 83 39 25 40 26 41 27 42 77 43 28 44 82 45 76 46
REMARK SMILES IDX 78 47 29 48 81 49 75 50 74 51 30 53 62 54 42 55 61 56 43 57
REMARK SMILES IDX 46 58 60 59 79 60 44 61 45 62 59 64 80 65 47 66 31 67 32 68
REMARK SMILES IDX 40 69 33 70 34 71 38 72 41 73 35 74 36 75 39 76 37 77 63 78
REMARK SMILES IDX 64 79 72 80 65 81 66 82 70 83 73 84 67 85 68 86 71 87 69 88
REMARK SMILES IDX 48 89 49 90 57 91 50 92 51 93 55 94 58 95 52 96 53 97 56 98
REMARK SMILES IDX 54 99
REMARK H PARENT 12 6 5 11 86 19 19 33 78 52 46 63
REMARK Flexibility Score: inf
ROOT
ATOM      1  C   UNL A   1      40.655  22.780  27.282  1.00  0.00     0.021 C 
ENDROOT
BRANCH   1   2
ATOM      2  C   UNL A   1      39.269  23.136  26.750  1.00  0.00     0.116 C 
BRANCH   2   3
ATOM      3  N   UNL A   1      38.707  22.076  25.938  1.00  0.00    -0.356 N 
ATOM      4  C   UNL A   1      37.620  21.961  25.140  1.00  0.00     0.228 C 
ATOM      5  O   UNL A   1      37.504  20.872  24.560  1.00  0.00    -0.275 OA
ATOM      6  H   UNL A   1      39.238  21.248  25.975  1.00  0.00     0.163 HD
BRANCH   4   7
ATOM      7  C   UNL A   1      36.521  23.012  24.943  1.00  0.00     0.133 C 
ATOM      8  N   UNL A   1      34.180  22.960  23.893  1.00  0.00    -0.334 N 
ATOM      9  C   UNL A   1      33.741  24.066  24.718  1.00  0.00     0.262 C 
ATOM     10  C   UNL A   1      35.548  22.453  23.887  1.00  0.00     0.275 C 
ATOM     11  H   UNL A   1      34.089  22.352  24.707  1.00  0.00     0.348 HD
ATOM     12  C   UNL A   1      34.792  24.640  25.660  1.00  0.00     0.062 C 
ATOM     13  C   UNL A   1      35.769  23.572  26.136  1.00  0.00     0.025 C 
BRANCH   8  14
ATOM     14  C   UNL A   1      33.278  22.529  22.825  1.00  0.00     0.272 C 
BRANCH  14  15
ATOM     15  C   UNL A   1      32.274  21.447  23.242  1.00  0.00     0.161 C 
BRANCH  15  16
ATOM     16  C   UNL A   1      32.783  20.367  24.196  1.00  0.00     0.230 C 
ATOM     17  O   UNL A   1      32.885  20.609  25.397  1.00  0.00    -0.275 OA
ATOM     18  N   UNL A   1      33.034  19.145  23.611  1.00  0.00    -0.326 N 
ATOM     19  H   UNL A   1      33.032  19.130  22.627  1.00  0.00     0.169 HD
BRANCH  18  20
ATOM     20  C   UNL A   1      33.294  17.918  24.244  1.00  0.00     0.044 A 
ATOM     21  C   UNL A   1      32.204  17.221  24.787  1.00  0.00     0.026 A 
ATOM     22  C   UNL A   1      34.577  17.399  24.400  1.00  0.00     0.065 A 
ATOM     23  C   UNL A   1      32.391  16.012  25.463  1.00  0.00     0.005 A 
ATOM     24  C   UNL A   1      34.756  16.207  25.097  1.00  0.00     0.125 A 
ATOM     25  C   UNL A   1      33.677  15.507  25.625  1.00  0.00     0.039 A 
ATOM     26  F   UNL A   1      35.995  15.729  25.278  1.00  0.00    -0.207 F 
ENDBRANCH  18  20
ENDBRANCH  15  16
ENDBRANCH  14  15
ENDBRANCH   8  14
ENDBRANCH   4   7
ENDBRANCH   2   3
ENDBRANCH   1   2
BRANCH   1  27
ATOM     27  C   UNL A   1      41.301  21.569  26.596  1.00  0.00     0.002 C 
BRANCH  27  28
ATOM     28  C   UNL A   1      41.911  20.525  27.542  1.00  0.00     0.002 C 
BRANCH  28  29
ATOM     29  C   UNL A   1      42.520  19.293  26.866  1.00  0.00     0.021 C 
BRANCH  29  30
ATOM     30  C   UNL A   1      42.495  19.327  25.340  1.00  0.00     0.116 C 
BRANCH  30  31
ATOM     31  N   UNL A   1      43.749  18.865  24.768  1.00  0.00    -0.352 N 
ATOM     32  C   UNL A   1      44.867  19.575  24.410  1.00  0.00     0.251 C 
ATOM     33  H   UNL A   1      43.803  17.895  24.613  1.00  0.00     0.163 HD
ATOM     34  O   UNL A   1      45.737  19.047  23.726  1.00  0.00    -0.269 OA
BRANCH  32  35
ATOM     35  C   UNL A   1      45.032  20.980  24.841  1.00  0.00     0.039 A 
ATOM     36  C   UNL A   1      44.763  22.003  23.926  1.00  0.00     0.014 A 
ATOM     37  C   UNL A   1      45.497  21.292  26.122  1.00  0.00     0.014 A 
ATOM     38  C   UNL A   1      44.915  23.337  24.311  1.00  0.00     0.010 A 
ATOM     39  C   UNL A   1      45.584  22.623  26.525  1.00  0.00     0.010 A 
ATOM     40  C   UNL A   1      45.303  23.658  25.621  1.00  0.00    -0.014 A 
BRANCH  40  41
ATOM     41  C   UNL A   1      45.440  25.072  26.058  1.00  0.00     0.031 A 
ATOM     42  C   UNL A   1      46.777  25.756  25.989  1.00  0.00     0.074 A 
ATOM     43  C   UNL A   1      44.374  25.721  26.564  1.00  0.00     0.049 A 
ATOM     44  N   UNL A   1      47.117  26.955  26.392  1.00  0.00    -0.248 NA
ATOM     45  C   UNL A   1      47.887  24.979  25.414  1.00  0.00     0.031 C 
ATOM     46  C   UNL A   1      43.032  25.157  26.712  1.00  0.00     0.029 A 
ATOM     47  N   UNL A   1      44.254  26.997  27.056  1.00  0.00    -0.354 N 
ATOM     48  C   UNL A   1      48.475  27.071  26.126  1.00  0.00     0.074 A 
ATOM     49  C   UNL A   1      48.911  25.804  25.582  1.00  0.00     0.031 C 
ATOM     50  C   UNL A   1      42.219  26.087  27.239  1.00  0.00     0.029 A 
ATOM     51  C   UNL A   1      42.990  27.299  27.500  1.00  0.00     0.049 A 
ATOM     52  H   UNL A   1      45.003  27.635  27.087  1.00  0.00     0.167 HD
ATOM     53  C   UNL A   1      49.281  28.147  26.296  1.00  0.00     0.037 A 
ATOM     54  C   UNL A   1      42.510  28.425  28.061  1.00  0.00     0.037 A 
ATOM     55  C   UNL A   1      48.843  29.414  26.820  1.00  0.00     0.049 A 
ATOM     56  C   UNL A   1      43.433  29.599  28.257  1.00  0.00     0.074 A 
ATOM     57  C   UNL A   1      49.575  30.575  27.002  1.00  0.00     0.029 A 
ATOM     58  N   UNL A   1      47.550  29.686  27.243  1.00  0.00    -0.354 N 
ATOM     59  N   UNL A   1      44.703  29.713  27.956  1.00  0.00    -0.248 NA
ATOM     60  C   UNL A   1      42.850  30.803  28.866  1.00  0.00     0.031 C 
ATOM     61  C   UNL A   1      48.734  31.538  27.570  1.00  0.00     0.029 A 
ATOM     62  C   UNL A   1      47.467  30.992  27.698  1.00  0.00     0.049 A 
ATOM     63  H   UNL A   1      46.802  29.046  27.224  1.00  0.00     0.167 HD
ATOM     64  C   UNL A   1      45.062  31.008  28.304  1.00  0.00     0.074 A 
ATOM     65  C   UNL A   1      43.873  31.645  28.828  1.00  0.00     0.031 C 
ATOM     66  C   UNL A   1      46.269  31.616  28.199  1.00  0.00     0.037 A 
BRANCH  53  67
ATOM     67  C   UNL A   1      50.723  28.002  25.900  1.00  0.00     0.064 A 
ATOM     68  C   UNL A   1      51.721  27.745  26.853  1.00  0.00     0.173 A 
ATOM     69  C   UNL A   1      51.108  28.083  24.554  1.00  0.00     0.173 A 
ATOM     70  F   UNL A   1      51.407  27.669  28.155  1.00  0.00    -0.203 F 
ATOM     71  C   UNL A   1      53.053  27.604  26.476  1.00  0.00     0.198 A 
ATOM     72  C   UNL A   1      52.437  27.911  24.176  1.00  0.00     0.198 A 
ATOM     73  F   UNL A   1      50.193  28.321  23.602  1.00  0.00    -0.203 F 
ATOM     74  F   UNL A   1      53.995  27.407  27.409  1.00  0.00    -0.200 F 
ATOM     75  C   UNL A   1      53.409  27.680  25.138  1.00  0.00     0.200 A 
ATOM     76  F   UNL A   1      52.778  27.972  22.882  1.00  0.00    -0.200 F 
ATOM     77  F   UNL A   1      54.692  27.534  24.775  1.00  0.00    -0.200 F 
ENDBRANCH  53  67
BRANCH  54  78
ATOM     78  C   UNL A   1      41.080  28.512  28.458  1.00  0.00     0.064 A 
ATOM     79  C   UNL A   1      40.110  28.970  27.555  1.00  0.00     0.173 A 
ATOM     80  C   UNL A   1      40.657  28.163  29.749  1.00  0.00     0.173 A 
ATOM     81  F   UNL A   1      40.469  29.335  26.316  1.00  0.00    -0.203 F 
ATOM     82  C   UNL A   1      38.776  29.101  27.936  1.00  0.00     0.198 A 
ATOM     83  C   UNL A   1      39.317  28.267  30.119  1.00  0.00     0.198 A 
ATOM     84  F   UNL A   1      41.544  27.714  30.649  1.00  0.00    -0.203 F 
ATOM     85  F   UNL A   1      37.880  29.591  27.069  1.00  0.00    -0.200 F 
ATOM     86  C   UNL A   1      38.381  28.745  29.216  1.00  0.00     0.200 A 
ATOM     87  F   UNL A   1      38.937  27.909  31.353  1.00  0.00    -0.200 F 
ATOM     88  F   UNL A   1      37.098  28.873  29.583  1.00  0.00    -0.200 F 
ENDBRANCH  54  78
BRANCH  66  89
ATOM     89  C   UNL A   1      46.352  33.056  28.612  1.00  0.00     0.064 A 
ATOM     90  C   UNL A   1      46.118  34.099  27.704  1.00  0.00     0.173 A 
ATOM     91  C   UNL A   1      46.636  33.395  29.944  1.00  0.00     0.173 A 
ATOM     92  F   UNL A   1      45.859  33.827  26.415  1.00  0.00    -0.203 F 
ATOM     93  C   UNL A   1      46.193  35.429  28.108  1.00  0.00     0.198 A 
ATOM     94  C   UNL A   1      46.680  34.726  30.351  1.00  0.00     0.198 A 
ATOM     95  F   UNL A   1      46.862  32.434  30.853  1.00  0.00    -0.203 F 
ATOM     96  F   UNL A   1      46.014  36.410  27.213  1.00  0.00    -0.200 F 
ATOM     97  C   UNL A   1      46.467  35.741  29.432  1.00  0.00     0.200 A 
ATOM     98  F   UNL A   1      46.932  35.024  31.632  1.00  0.00    -0.200 F 
ATOM     99  F   UNL A   1      46.532  37.022  29.819  1.00  0.00    -0.200 F 
ENDBRANCH  66  89
ENDBRANCH  40  41
ENDBRANCH  32  35
ENDBRANCH  30  31
ENDBRANCH  29  30
ENDBRANCH  28  29
ENDBRANCH  27  28
ENDBRANCH   1  27
TORSDOF 17
ENDMDL
