MODEL 1
REMARK VINA RESULT:     -10.9      0.000      0.000
REMARK SMILES CCN(CCC(=O)NCCCCCCNC(=O)c1ccc(-c2c3nc(c(-c4c(F)c(F)c(F)c(F)c4F)c4ccc([nH]4)c(-c4c(F)c(F)c(F)c(F)c4F)c4nc(c(-c5c(F)c(F)c(F)c(F)c5F)c5ccc2[nH]5)C=C4)C=C3)cc1)C(=O)C1(C)CCCC1
REMARK SMILES IDX 10 1 9 2 8 3 6 4 7 5 5 7 4 8 3 9 2 10 1 11 81 12 82 13 83 14
REMARK SMILES IDX 84 15 85 16 88 17 86 18 87 19 11 20 12 21 13 22 14 23 15 24
REMARK SMILES IDX 16 25 17 27 18 28 19 29 80 30 20 31 79 32 21 33 22 34 23 35
REMARK SMILES IDX 73 36 24 37 78 38 72 39 74 40 25 41 77 42 71 43 70 44 26 46
REMARK SMILES IDX 58 47 38 48 57 49 39 50 42 51 56 52 75 53 40 54 41 55 55 57
REMARK SMILES IDX 76 58 43 59 27 60 28 61 36 62 29 63 30 64 34 65 37 66 31 67
REMARK SMILES IDX 32 68 35 69 33 70 59 71 60 72 68 73 61 74 62 75 66 76 69 77
REMARK SMILES IDX 63 78 64 79 67 80 65 81 44 82 45 83 53 84 46 85 47 86 51 87
REMARK SMILES IDX 54 88 48 89 49 90 52 91 50 92
REMARK H PARENT 8 6 15 26 74 45 42 56
REMARK Flexibility Score: inf
ROOT
ATOM      1  C   UNL A   1      30.657  26.750  24.995  1.00  0.00     0.021 C 
ENDROOT
BRANCH   1   2
ATOM      2  C   UNL A   1      30.416  25.244  24.815  1.00  0.00     0.116 C 
BRANCH   2   3
ATOM      3  N   UNL A   1      30.186  24.507  26.044  1.00  0.00    -0.356 N 
ATOM      4  C   UNL A   1      30.571  23.259  26.434  1.00  0.00     0.221 C 
ATOM      5  O   UNL A   1      30.469  22.961  27.626  1.00  0.00    -0.275 OA
ATOM      6  H   UNL A   1      29.657  24.996  26.715  1.00  0.00     0.163 HD
BRANCH   4   7
ATOM      7  C   UNL A   1      31.139  22.272  25.441  1.00  0.00     0.121 C 
BRANCH   7   8
ATOM      8  C   UNL A   1      32.571  21.857  25.788  1.00  0.00     0.129 C 
BRANCH   8   9
ATOM      9  N   UNL A   1      33.344  21.308  24.656  1.00  0.00    -0.342 N 
BRANCH   9  10
ATOM     10  C   UNL A   1      32.622  20.363  23.803  1.00  0.00     0.116 C 
ATOM     11  C   UNL A   1      32.567  18.938  24.330  1.00  0.00     0.027 C 
ENDBRANCH   9  10
BRANCH   9  12
ATOM     12  C   UNL A   1      34.708  21.584  24.650  1.00  0.00     0.228 C 
ATOM     13  O   UNL A   1      35.469  20.785  25.215  1.00  0.00    -0.274 OA
BRANCH  12  14
ATOM     14  C   UNL A   1      35.316  22.943  24.193  1.00  0.00     0.047 C 
ATOM     15  C   UNL A   1      36.644  22.583  23.503  1.00  0.00     0.022 C 
ATOM     16  C   UNL A   1      34.367  23.596  23.128  1.00  0.00     0.016 C 
ATOM     17  C   UNL A   1      35.554  24.079  25.190  1.00  0.00     0.016 C 
ATOM     18  C   UNL A   1      33.910  24.942  23.674  1.00  0.00     0.001 C 
ATOM     19  C   UNL A   1      34.331  24.950  25.124  1.00  0.00     0.001 C 
ENDBRANCH  12  14
ENDBRANCH   9  12
ENDBRANCH   8   9
ENDBRANCH   7   8
ENDBRANCH   4   7
ENDBRANCH   2   3
ENDBRANCH   1   2
BRANCH   1  20
ATOM     20  C   UNL A   1      30.717  27.579  23.700  1.00  0.00     0.002 C 
BRANCH  20  21
ATOM     21  C   UNL A   1      31.702  28.769  23.627  1.00  0.00     0.002 C 
BRANCH  21  22
ATOM     22  C   UNL A   1      33.169  28.618  24.059  1.00  0.00     0.021 C 
BRANCH  22  23
ATOM     23  C   UNL A   1      33.628  29.250  25.371  1.00  0.00     0.116 C 
BRANCH  23  24
ATOM     24  N   UNL A   1      32.831  30.332  25.910  1.00  0.00    -0.352 N 
ATOM     25  C   UNL A   1      33.200  31.230  26.891  1.00  0.00     0.251 C 
ATOM     26  H   UNL A   1      31.927  30.440  25.534  1.00  0.00     0.163 HD
ATOM     27  O   UNL A   1      32.470  32.176  27.176  1.00  0.00    -0.269 OA
BRANCH  25  28
ATOM     28  C   UNL A   1      34.449  31.023  27.667  1.00  0.00     0.039 A 
ATOM     29  C   UNL A   1      34.598  29.817  28.355  1.00  0.00     0.014 A 
ATOM     30  C   UNL A   1      35.464  31.983  27.732  1.00  0.00     0.014 A 
ATOM     31  C   UNL A   1      35.779  29.549  29.054  1.00  0.00     0.010 A 
ATOM     32  C   UNL A   1      36.670  31.691  28.389  1.00  0.00     0.010 A 
ATOM     33  C   UNL A   1      36.843  30.468  29.059  1.00  0.00    -0.014 A 
BRANCH  33  34
ATOM     34  C   UNL A   1      38.109  30.125  29.772  1.00  0.00     0.031 A 
ATOM     35  C   UNL A   1      38.396  30.665  31.149  1.00  0.00     0.074 A 
ATOM     36  C   UNL A   1      38.997  29.285  29.198  1.00  0.00     0.049 A 
ATOM     37  N   UNL A   1      39.389  30.382  31.959  1.00  0.00    -0.248 NA
ATOM     38  C   UNL A   1      37.456  31.661  31.683  1.00  0.00     0.031 C 
ATOM     39  C   UNL A   1      38.878  28.725  27.851  1.00  0.00     0.029 A 
ATOM     40  N   UNL A   1      40.166  28.742  29.679  1.00  0.00    -0.354 N 
ATOM     41  C   UNL A   1      39.180  31.145  33.101  1.00  0.00     0.074 A 
ATOM     42  C   UNL A   1      38.009  31.958  32.852  1.00  0.00     0.031 C 
ATOM     43  C   UNL A   1      39.907  27.892  27.627  1.00  0.00     0.029 A 
ATOM     44  C   UNL A   1      40.773  27.872  28.804  1.00  0.00     0.049 A 
ATOM     45  H   UNL A   1      40.533  28.956  30.566  1.00  0.00     0.167 HD
ATOM     46  C   UNL A   1      39.876  31.148  34.265  1.00  0.00     0.037 A 
ATOM     47  C   UNL A   1      41.892  27.131  28.936  1.00  0.00     0.037 A 
ATOM     48  C   UNL A   1      41.043  30.342  34.524  1.00  0.00     0.049 A 
ATOM     49  C   UNL A   1      42.653  27.162  30.237  1.00  0.00     0.074 A 
ATOM     50  C   UNL A   1      41.800  30.266  35.682  1.00  0.00     0.029 A 
ATOM     51  N   UNL A   1      41.625  29.474  33.613  1.00  0.00    -0.354 N 
ATOM     52  N   UNL A   1      42.395  27.831  31.335  1.00  0.00    -0.248 NA
ATOM     53  C   UNL A   1      43.853  26.316  30.324  1.00  0.00     0.031 C 
ATOM     54  C   UNL A   1      42.863  29.385  35.457  1.00  0.00     0.029 A 
ATOM     55  C   UNL A   1      42.737  28.869  34.179  1.00  0.00     0.049 A 
ATOM     56  H   UNL A   1      41.296  29.311  32.699  1.00  0.00     0.167 HD
ATOM     57  C   UNL A   1      43.376  27.462  32.247  1.00  0.00     0.074 A 
ATOM     58  C   UNL A   1      44.219  26.491  31.584  1.00  0.00     0.031 C 
ATOM     59  C   UNL A   1      43.566  27.895  33.518  1.00  0.00     0.037 A 
BRANCH  46  60
ATOM     60  C   UNL A   1      39.382  32.040  35.367  1.00  0.00     0.064 A 
ATOM     61  C   UNL A   1      38.526  31.554  36.369  1.00  0.00     0.173 A 
ATOM     62  C   UNL A   1      39.813  33.371  35.464  1.00  0.00     0.173 A 
ATOM     63  F   UNL A   1      38.078  30.291  36.319  1.00  0.00    -0.203 F 
ATOM     64  C   UNL A   1      38.102  32.375  37.410  1.00  0.00     0.198 A 
ATOM     65  C   UNL A   1      39.412  34.180  36.524  1.00  0.00     0.198 A 
ATOM     66  F   UNL A   1      40.640  33.884  34.540  1.00  0.00    -0.203 F 
ATOM     67  F   UNL A   1      37.251  31.900  38.331  1.00  0.00    -0.200 F 
ATOM     68  C   UNL A   1      38.552  33.683  37.493  1.00  0.00     0.200 A 
ATOM     69  F   UNL A   1      39.859  35.440  36.612  1.00  0.00    -0.200 F 
ATOM     70  F   UNL A   1      38.152  34.469  38.503  1.00  0.00    -0.200 F 
ENDBRANCH  46  60
BRANCH  47  71
ATOM     71  C   UNL A   1      42.366  26.274  27.814  1.00  0.00     0.064 A 
ATOM     72  C   UNL A   1      43.349  26.721  26.919  1.00  0.00     0.173 A 
ATOM     73  C   UNL A   1      41.801  25.012  27.580  1.00  0.00     0.173 A 
ATOM     74  F   UNL A   1      43.904  27.930  27.083  1.00  0.00    -0.203 F 
ATOM     75  C   UNL A   1      43.719  25.957  25.813  1.00  0.00     0.198 A 
ATOM     76  C   UNL A   1      42.197  24.233  26.495  1.00  0.00     0.198 A 
ATOM     77  F   UNL A   1      40.859  24.533  28.407  1.00  0.00    -0.203 F 
ATOM     78  F   UNL A   1      44.608  26.442  24.935  1.00  0.00    -0.200 F 
ATOM     79  C   UNL A   1      43.144  24.713  25.603  1.00  0.00     0.200 A 
ATOM     80  F   UNL A   1      41.650  23.025  26.304  1.00  0.00    -0.200 F 
ATOM     81  F   UNL A   1      43.493  23.982  24.535  1.00  0.00    -0.200 F 
ENDBRANCH  47  71
BRANCH  59  82
ATOM     82  C   UNL A   1      44.703  27.287  34.292  1.00  0.00     0.064 A 
ATOM     83  C   UNL A   1      45.983  27.864  34.301  1.00  0.00     0.173 A 
ATOM     84  C   UNL A   1      44.508  26.118  35.044  1.00  0.00     0.173 A 
ATOM     85  F   UNL A   1      46.229  28.974  33.590  1.00  0.00    -0.203 F 
ATOM     86  C   UNL A   1      47.032  27.269  34.999  1.00  0.00     0.198 A 
ATOM     87  C   UNL A   1      45.550  25.547  35.769  1.00  0.00     0.198 A 
ATOM     88  F   UNL A   1      43.303  25.530  35.079  1.00  0.00    -0.203 F 
ATOM     89  F   UNL A   1      48.260  27.803  34.940  1.00  0.00    -0.200 F 
ATOM     90  C   UNL A   1      46.814  26.115  35.737  1.00  0.00     0.200 A 
ATOM     91  F   UNL A   1      45.333  24.440  36.493  1.00  0.00    -0.200 F 
ATOM     92  F   UNL A   1      47.825  25.545  36.406  1.00  0.00    -0.200 F 
ENDBRANCH  59  82
ENDBRANCH  33  34
ENDBRANCH  25  28
ENDBRANCH  23  24
ENDBRANCH  22  23
ENDBRANCH  21  22
ENDBRANCH  20  21
ENDBRANCH   1  20
TORSDOF 18
ENDMDL
MODEL 2
REMARK VINA RESULT:     -10.6      2.955      8.933
REMARK SMILES CCN(CCC(=O)NCCCCCCNC(=O)c1ccc(-c2c3nc(c(-c4c(F)c(F)c(F)c(F)c4F)c4ccc([nH]4)c(-c4c(F)c(F)c(F)c(F)c4F)c4nc(c(-c5c(F)c(F)c(F)c(F)c5F)c5ccc2[nH]5)C=C4)C=C3)cc1)C(=O)C1(C)CCCC1
REMARK SMILES IDX 10 1 9 2 8 3 6 4 7 5 5 7 4 8 3 9 2 10 1 11 81 12 82 13 83 14
REMARK SMILES IDX 84 15 85 16 88 17 86 18 87 19 11 20 12 21 13 22 14 23 15 24
REMARK SMILES IDX 16 25 17 27 18 28 19 29 80 30 20 31 79 32 21 33 22 34 23 35
REMARK SMILES IDX 73 36 24 37 78 38 72 39 74 40 25 41 77 42 71 43 70 44 26 46
REMARK SMILES IDX 58 47 38 48 57 49 39 50 42 51 56 52 75 53 40 54 41 55 55 57
REMARK SMILES IDX 76 58 43 59 27 60 28 61 36 62 29 63 30 64 34 65 37 66 31 67
REMARK SMILES IDX 32 68 35 69 33 70 59 71 60 72 68 73 61 74 62 75 66 76 69 77
REMARK SMILES IDX 63 78 64 79 67 80 65 81 44 82 45 83 53 84 46 85 47 86 51 87
REMARK SMILES IDX 54 88 48 89 49 90 52 91 50 92
REMARK H PARENT 8 6 15 26 74 45 42 56
REMARK Flexibility Score: inf
ROOT
ATOM      1  C   UNL A   1      35.133  31.566  27.968  1.00  0.00     0.021 C 
ENDROOT
BRANCH   1   2
ATOM      2  C   UNL A   1      33.826  31.135  27.285  1.00  0.00     0.116 C 
BRANCH   2   3
ATOM      3  N   UNL A   1      33.331  29.828  27.675  1.00  0.00    -0.356 N 
ATOM      4  C   UNL A   1      32.498  28.953  27.043  1.00  0.00     0.221 C 
ATOM      5  O   UNL A   1      32.434  27.797  27.466  1.00  0.00    -0.275 OA
ATOM      6  H   UNL A   1      33.653  29.519  28.552  1.00  0.00     0.163 HD
BRANCH   4   7
ATOM      7  C   UNL A   1      31.694  29.374  25.835  1.00  0.00     0.121 C 
BRANCH   7   8
ATOM      8  C   UNL A   1      32.406  29.046  24.520  1.00  0.00     0.129 C 
BRANCH   8   9
ATOM      9  N   UNL A   1      32.228  27.657  24.054  1.00  0.00    -0.342 N 
BRANCH   9  10
ATOM     10  C   UNL A   1      33.457  26.869  23.946  1.00  0.00     0.116 C 
ATOM     11  C   UNL A   1      33.626  26.127  22.630  1.00  0.00     0.027 C 
ENDBRANCH   9  10
BRANCH   9  12
ATOM     12  C   UNL A   1      30.963  27.324  23.581  1.00  0.00     0.228 C 
ATOM     13  O   UNL A   1      30.449  28.053  22.721  1.00  0.00    -0.274 OA
BRANCH  12  14
ATOM     14  C   UNL A   1      30.052  26.238  24.228  1.00  0.00     0.047 C 
ATOM     15  C   UNL A   1      28.612  26.645  23.866  1.00  0.00     0.022 C 
ATOM     16  C   UNL A   1      30.356  24.851  23.560  1.00  0.00     0.016 C 
ATOM     17  C   UNL A   1      30.131  25.929  25.724  1.00  0.00     0.016 C 
ATOM     18  C   UNL A   1      30.832  23.902  24.653  1.00  0.00     0.001 C 
ATOM     19  C   UNL A   1      31.085  24.775  25.859  1.00  0.00     0.001 C 
ENDBRANCH  12  14
ENDBRANCH   9  12
ENDBRANCH   8   9
ENDBRANCH   7   8
ENDBRANCH   4   7
ENDBRANCH   2   3
ENDBRANCH   1   2
BRANCH   1  20
ATOM     20  C   UNL A   1      35.244  33.060  28.321  1.00  0.00     0.002 C 
BRANCH  20  21
ATOM     21  C   UNL A   1      34.261  33.652  29.357  1.00  0.00     0.002 C 
BRANCH  21  22
ATOM     22  C   UNL A   1      33.232  34.721  28.958  1.00  0.00     0.021 C 
BRANCH  22  23
ATOM     23  C   UNL A   1      33.303  36.102  29.608  1.00  0.00     0.116 C 
BRANCH  23  24
ATOM     24  N   UNL A   1      32.419  36.366  30.723  1.00  0.00    -0.352 N 
ATOM     25  C   UNL A   1      32.631  36.046  32.048  1.00  0.00     0.251 C 
ATOM     26  H   UNL A   1      31.573  36.825  30.512  1.00  0.00     0.163 HD
ATOM     27  O   UNL A   1      31.850  36.432  32.915  1.00  0.00    -0.269 OA
BRANCH  25  28
ATOM     28  C   UNL A   1      33.765  35.170  32.438  1.00  0.00     0.039 A 
ATOM     29  C   UNL A   1      35.058  35.676  32.298  1.00  0.00     0.014 A 
ATOM     30  C   UNL A   1      33.581  33.873  32.930  1.00  0.00     0.014 A 
ATOM     31  C   UNL A   1      36.158  34.913  32.703  1.00  0.00     0.010 A 
ATOM     32  C   UNL A   1      34.680  33.130  33.386  1.00  0.00     0.010 A 
ATOM     33  C   UNL A   1      35.985  33.641  33.278  1.00  0.00    -0.014 A 
BRANCH  33  34
ATOM     34  C   UNL A   1      37.178  32.877  33.749  1.00  0.00     0.031 A 
ATOM     35  C   UNL A   1      37.829  31.836  32.874  1.00  0.00     0.074 A 
ATOM     36  C   UNL A   1      37.715  33.147  34.958  1.00  0.00     0.049 A 
ATOM     37  N   UNL A   1      38.935  31.160  33.075  1.00  0.00    -0.248 NA
ATOM     38  C   UNL A   1      37.144  31.500  31.618  1.00  0.00     0.031 C 
ATOM     39  C   UNL A   1      37.165  34.090  35.932  1.00  0.00     0.029 A 
ATOM     40  N   UNL A   1      38.850  32.666  35.568  1.00  0.00    -0.354 N 
ATOM     41  C   UNL A   1      39.088  30.339  31.965  1.00  0.00     0.074 A 
ATOM     42  C   UNL A   1      37.926  30.547  31.128  1.00  0.00     0.031 C 
ATOM     43  C   UNL A   1      37.980  34.148  36.999  1.00  0.00     0.029 A 
ATOM     44  C   UNL A   1      39.099  33.231  36.797  1.00  0.00     0.049 A 
ATOM     45  H   UNL A   1      39.430  31.981  35.164  1.00  0.00     0.167 HD
ATOM     46  C   UNL A   1      40.117  29.513  31.650  1.00  0.00     0.037 A 
ATOM     47  C   UNL A   1      40.119  33.044  37.660  1.00  0.00     0.037 A 
ATOM     48  C   UNL A   1      41.279  29.299  32.474  1.00  0.00     0.049 A 
ATOM     49  C   UNL A   1      41.243  32.110  37.289  1.00  0.00     0.074 A 
ATOM     50  C   UNL A   1      42.380  28.495  32.224  1.00  0.00     0.029 A 
ATOM     51  N   UNL A   1      41.493  29.891  33.710  1.00  0.00    -0.354 N 
ATOM     52  N   UNL A   1      41.409  31.402  36.199  1.00  0.00    -0.248 NA
ATOM     53  C   UNL A   1      42.335  31.966  38.265  1.00  0.00     0.031 C 
ATOM     54  C   UNL A   1      43.238  28.567  33.327  1.00  0.00     0.029 A 
ATOM     55  C   UNL A   1      42.701  29.459  34.239  1.00  0.00     0.049 A 
ATOM     56  H   UNL A   1      40.879  30.524  34.147  1.00  0.00     0.167 HD
ATOM     57  C   UNL A   1      42.632  30.758  36.342  1.00  0.00     0.074 A 
ATOM     58  C   UNL A   1      43.179  31.180  37.614  1.00  0.00     0.031 C 
ATOM     59  C   UNL A   1      43.245  29.891  35.500  1.00  0.00     0.037 A 
BRANCH  46  60
ATOM     60  C   UNL A   1      40.045  28.785  30.338  1.00  0.00     0.064 A 
ATOM     61  C   UNL A   1      40.637  29.312  29.179  1.00  0.00     0.173 A 
ATOM     62  C   UNL A   1      39.439  27.524  30.247  1.00  0.00     0.173 A 
ATOM     63  F   UNL A   1      41.223  30.519  29.210  1.00  0.00    -0.203 F 
ATOM     64  C   UNL A   1      40.601  28.615  27.975  1.00  0.00     0.198 A 
ATOM     65  C   UNL A   1      39.432  26.815  29.048  1.00  0.00     0.198 A 
ATOM     66  F   UNL A   1      38.867  26.968  31.326  1.00  0.00    -0.203 F 
ATOM     67  F   UNL A   1      41.137  29.159  26.872  1.00  0.00    -0.200 F 
ATOM     68  C   UNL A   1      40.008  27.365  27.911  1.00  0.00     0.200 A 
ATOM     69  F   UNL A   1      38.872  25.599  28.991  1.00  0.00    -0.200 F 
ATOM     70  F   UNL A   1      39.986  26.689  26.754  1.00  0.00    -0.200 F 
ENDBRANCH  46  60
BRANCH  47  71
ATOM     71  C   UNL A   1      40.147  33.766  38.963  1.00  0.00     0.064 A 
ATOM     72  C   UNL A   1      39.395  33.320  40.061  1.00  0.00     0.173 A 
ATOM     73  C   UNL A   1      40.881  34.950  39.117  1.00  0.00     0.173 A 
ATOM     74  F   UNL A   1      38.657  32.206  39.958  1.00  0.00    -0.203 F 
ATOM     75  C   UNL A   1      39.345  34.052  41.245  1.00  0.00     0.198 A 
ATOM     76  C   UNL A   1      40.859  35.663  40.314  1.00  0.00     0.198 A 
ATOM     77  F   UNL A   1      41.620  35.421  38.100  1.00  0.00    -0.203 F 
ATOM     78  F   UNL A   1      38.562  33.641  42.252  1.00  0.00    -0.200 F 
ATOM     79  C   UNL A   1      40.079  35.222  41.372  1.00  0.00     0.200 A 
ATOM     80  F   UNL A   1      41.581  36.785  40.437  1.00  0.00    -0.200 F 
ATOM     81  F   UNL A   1      40.025  35.930  42.509  1.00  0.00    -0.200 F 
ENDBRANCH  47  71
BRANCH  59  82
ATOM     82  C   UNL A   1      44.597  29.373  35.905  1.00  0.00     0.064 A 
ATOM     83  C   UNL A   1      44.745  28.197  36.657  1.00  0.00     0.173 A 
ATOM     84  C   UNL A   1      45.764  30.056  35.526  1.00  0.00     0.173 A 
ATOM     85  F   UNL A   1      43.664  27.511  37.056  1.00  0.00    -0.203 F 
ATOM     86  C   UNL A   1      46.005  27.750  37.049  1.00  0.00     0.198 A 
ATOM     87  C   UNL A   1      47.022  29.588  35.889  1.00  0.00     0.198 A 
ATOM     88  F   UNL A   1      45.683  31.181  34.799  1.00  0.00    -0.203 F 
ATOM     89  F   UNL A   1      46.116  26.660  37.821  1.00  0.00    -0.200 F 
ATOM     90  C   UNL A   1      47.143  28.441  36.661  1.00  0.00     0.200 A 
ATOM     91  F   UNL A   1      48.121  30.249  35.500  1.00  0.00    -0.200 F 
ATOM     92  F   UNL A   1      48.353  28.010  37.040  1.00  0.00    -0.200 F 
ENDBRANCH  59  82
ENDBRANCH  33  34
ENDBRANCH  25  28
ENDBRANCH  23  24
ENDBRANCH  22  23
ENDBRANCH  21  22
ENDBRANCH  20  21
ENDBRANCH   1  20
TORSDOF 18
ENDMDL
MODEL 3
REMARK VINA RESULT:     -10.4      4.616     10.070
REMARK SMILES CCN(CCC(=O)NCCCCCCNC(=O)c1ccc(-c2c3nc(c(-c4c(F)c(F)c(F)c(F)c4F)c4ccc([nH]4)c(-c4c(F)c(F)c(F)c(F)c4F)c4nc(c(-c5c(F)c(F)c(F)c(F)c5F)c5ccc2[nH]5)C=C4)C=C3)cc1)C(=O)C1(C)CCCC1
REMARK SMILES IDX 10 1 9 2 8 3 6 4 7 5 5 7 4 8 3 9 2 10 1 11 81 12 82 13 83 14
REMARK SMILES IDX 84 15 85 16 88 17 86 18 87 19 11 20 12 21 13 22 14 23 15 24
REMARK SMILES IDX 16 25 17 27 18 28 19 29 80 30 20 31 79 32 21 33 22 34 23 35
REMARK SMILES IDX 73 36 24 37 78 38 72 39 74 40 25 41 77 42 71 43 70 44 26 46
REMARK SMILES IDX 58 47 38 48 57 49 39 50 42 51 56 52 75 53 40 54 41 55 55 57
REMARK SMILES IDX 76 58 43 59 27 60 28 61 36 62 29 63 30 64 34 65 37 66 31 67
REMARK SMILES IDX 32 68 35 69 33 70 59 71 60 72 68 73 61 74 62 75 66 76 69 77
REMARK SMILES IDX 63 78 64 79 67 80 65 81 44 82 45 83 53 84 46 85 47 86 51 87
REMARK SMILES IDX 54 88 48 89 49 90 52 91 50 92
REMARK H PARENT 8 6 15 26 74 45 42 56
REMARK Flexibility Score: inf
ROOT
ATOM      1  C   UNL A   1      36.895  23.552  25.127  1.00  0.00     0.021 C 
ENDROOT
BRANCH   1   2
ATOM      2  C   UNL A   1      35.494  24.182  25.157  1.00  0.00     0.116 C 
BRANCH   2   3
ATOM      3  N   UNL A   1      34.800  24.194  23.883  1.00  0.00    -0.356 N 
ATOM      4  C   UNL A   1      33.942  25.098  23.331  1.00  0.00     0.221 C 
ATOM      5  O   UNL A   1      33.687  25.006  22.128  1.00  0.00    -0.275 OA
ATOM      6  H   UNL A   1      34.979  23.410  23.317  1.00  0.00     0.163 HD
BRANCH   4   7
ATOM      7  C   UNL A   1      33.339  26.209  24.160  1.00  0.00     0.121 C 
BRANCH   7   8
ATOM      8  C   UNL A   1      32.120  26.841  23.485  1.00  0.00     0.129 C 
BRANCH   8   9
ATOM      9  N   UNL A   1      31.122  27.402  24.418  1.00  0.00    -0.342 N 
BRANCH   9  10
ATOM     10  C   UNL A   1      30.122  26.454  24.912  1.00  0.00     0.116 C 
ATOM     11  C   UNL A   1      28.972  26.181  23.956  1.00  0.00     0.027 C 
ENDBRANCH   9  10
BRANCH   9  12
ATOM     12  C   UNL A   1      31.119  28.787  24.557  1.00  0.00     0.228 C 
ATOM     13  O   UNL A   1      30.641  29.465  23.637  1.00  0.00    -0.274 OA
BRANCH  12  14
ATOM     14  C   UNL A   1      31.887  29.549  25.678  1.00  0.00     0.047 C 
ATOM     15  C   UNL A   1      31.207  30.926  25.774  1.00  0.00     0.022 C 
ATOM     16  C   UNL A   1      31.680  28.799  27.040  1.00  0.00     0.016 C 
ATOM     17  C   UNL A   1      33.404  29.736  25.610  1.00  0.00     0.016 C 
ATOM     18  C   UNL A   1      33.051  28.375  27.551  1.00  0.00     0.001 C 
ATOM     19  C   UNL A   1      33.996  28.599  26.396  1.00  0.00     0.001 C 
ENDBRANCH  12  14
ENDBRANCH   9  12
ENDBRANCH   8   9
ENDBRANCH   7   8
ENDBRANCH   4   7
ENDBRANCH   2   3
ENDBRANCH   1   2
BRANCH   1  20
ATOM     20  C   UNL A   1      37.041  22.278  24.277  1.00  0.00     0.002 C 
BRANCH  20  21
ATOM     21  C   UNL A   1      36.797  20.907  24.948  1.00  0.00     0.002 C 
BRANCH  21  22
ATOM     22  C   UNL A   1      37.890  19.827  24.973  1.00  0.00     0.021 C 
BRANCH  22  23
ATOM     23  C   UNL A   1      39.190  20.100  25.728  1.00  0.00     0.116 C 
BRANCH  23  24
ATOM     24  N   UNL A   1      40.259  19.133  25.595  1.00  0.00    -0.352 N 
ATOM     25  C   UNL A   1      41.559  19.262  26.041  1.00  0.00     0.251 C 
ATOM     26  H   UNL A   1      40.034  18.291  25.137  1.00  0.00     0.163 HD
ATOM     27  O   UNL A   1      42.339  18.316  25.967  1.00  0.00    -0.269 OA
BRANCH  25  28
ATOM     28  C   UNL A   1      42.053  20.568  26.547  1.00  0.00     0.039 A 
ATOM     29  C   UNL A   1      42.419  21.534  25.609  1.00  0.00     0.014 A 
ATOM     30  C   UNL A   1      42.164  20.854  27.912  1.00  0.00     0.014 A 
ATOM     31  C   UNL A   1      42.838  22.800  26.033  1.00  0.00     0.010 A 
ATOM     32  C   UNL A   1      42.532  22.141  28.334  1.00  0.00     0.010 A 
ATOM     33  C   UNL A   1      42.874  23.132  27.398  1.00  0.00    -0.014 A 
BRANCH  33  34
ATOM     34  C   UNL A   1      43.274  24.509  27.812  1.00  0.00     0.031 A 
ATOM     35  C   UNL A   1      44.721  24.929  27.822  1.00  0.00     0.074 A 
ATOM     36  C   UNL A   1      42.327  25.414  28.142  1.00  0.00     0.049 A 
ATOM     37  N   UNL A   1      45.239  26.114  28.043  1.00  0.00    -0.248 NA
ATOM     38  C   UNL A   1      45.719  23.880  27.564  1.00  0.00     0.031 C 
ATOM     39  C   UNL A   1      40.892  25.138  28.226  1.00  0.00     0.029 A 
ATOM     40  N   UNL A   1      42.425  26.750  28.452  1.00  0.00    -0.354 N 
ATOM     41  C   UNL A   1      46.614  25.957  27.928  1.00  0.00     0.074 A 
ATOM     42  C   UNL A   1      46.857  24.550  27.692  1.00  0.00     0.031 C 
ATOM     43  C   UNL A   1      40.242  26.274  28.528  1.00  0.00     0.029 A 
ATOM     44  C   UNL A   1      41.212  27.356  28.681  1.00  0.00     0.049 A 
ATOM     45  H   UNL A   1      43.283  27.228  28.506  1.00  0.00     0.167 HD
ATOM     46  C   UNL A   1      47.588  26.900  27.980  1.00  0.00     0.037 A 
ATOM     47  C   UNL A   1      40.910  28.639  28.968  1.00  0.00     0.037 A 
ATOM     48  C   UNL A   1      47.358  28.303  28.214  1.00  0.00     0.049 A 
ATOM     49  C   UNL A   1      42.014  29.664  29.031  1.00  0.00     0.074 A 
ATOM     50  C   UNL A   1      48.284  29.334  28.263  1.00  0.00     0.029 A 
ATOM     51  N   UNL A   1      46.116  28.876  28.440  1.00  0.00    -0.354 N 
ATOM     52  N   UNL A   1      43.302  29.511  28.843  1.00  0.00    -0.248 NA
ATOM     53  C   UNL A   1      41.616  31.049  29.329  1.00  0.00     0.031 C 
ATOM     54  C   UNL A   1      47.606  30.521  28.561  1.00  0.00     0.029 A 
ATOM     55  C   UNL A   1      46.253  30.242  28.641  1.00  0.00     0.049 A 
ATOM     56  H   UNL A   1      45.262  28.385  28.454  1.00  0.00     0.167 HD
ATOM     57  C   UNL A   1      43.860  30.777  28.964  1.00  0.00     0.074 A 
ATOM     58  C   UNL A   1      42.768  31.692  29.218  1.00  0.00     0.031 C 
ATOM     59  C   UNL A   1      45.161  31.149  28.881  1.00  0.00     0.037 A 
BRANCH  46  60
ATOM     60  C   UNL A   1      49.004  26.449  27.759  1.00  0.00     0.064 A 
ATOM     61  C   UNL A   1      49.527  26.302  26.464  1.00  0.00     0.173 A 
ATOM     62  C   UNL A   1      49.865  26.224  28.842  1.00  0.00     0.173 A 
ATOM     63  F   UNL A   1      48.743  26.499  25.394  1.00  0.00    -0.203 F 
ATOM     64  C   UNL A   1      50.851  25.922  26.265  1.00  0.00     0.198 A 
ATOM     65  C   UNL A   1      51.197  25.874  28.639  1.00  0.00     0.198 A 
ATOM     66  F   UNL A   1      49.420  26.360  30.101  1.00  0.00    -0.203 F 
ATOM     67  F   UNL A   1      51.316  25.747  25.019  1.00  0.00    -0.200 F 
ATOM     68  C   UNL A   1      51.688  25.717  27.351  1.00  0.00     0.200 A 
ATOM     69  F   UNL A   1      52.009  25.691  29.689  1.00  0.00    -0.200 F 
ATOM     70  F   UNL A   1      52.966  25.363  27.157  1.00  0.00    -0.200 F 
ENDBRANCH  46  60
BRANCH  47  71
ATOM     71  C   UNL A   1      39.497  29.047  29.203  1.00  0.00     0.064 A 
ATOM     72  C   UNL A   1      38.913  28.955  30.476  1.00  0.00     0.173 A 
ATOM     73  C   UNL A   1      38.685  29.482  28.147  1.00  0.00     0.173 A 
ATOM     74  F   UNL A   1      39.640  28.521  31.516  1.00  0.00    -0.203 F 
ATOM     75  C   UNL A   1      37.564  29.243  30.673  1.00  0.00     0.198 A 
ATOM     76  C   UNL A   1      37.345  29.805  28.352  1.00  0.00     0.198 A 
ATOM     77  F   UNL A   1      39.192  29.592  26.910  1.00  0.00    -0.203 F 
ATOM     78  F   UNL A   1      37.016  29.076  31.885  1.00  0.00    -0.200 F 
ATOM     79  C   UNL A   1      36.781  29.669  29.612  1.00  0.00     0.200 A 
ATOM     80  F   UNL A   1      36.596  30.230  27.326  1.00  0.00    -0.200 F 
ATOM     81  F   UNL A   1      35.481  29.938  29.799  1.00  0.00    -0.200 F 
ENDBRANCH  47  71
BRANCH  59  82
ATOM     82  C   UNL A   1      45.472  32.613  29.021  1.00  0.00     0.064 A 
ATOM     83  C   UNL A   1      45.802  33.185  30.259  1.00  0.00     0.173 A 
ATOM     84  C   UNL A   1      45.450  33.456  27.898  1.00  0.00     0.173 A 
ATOM     85  F   UNL A   1      45.826  32.430  31.367  1.00  0.00    -0.203 F 
ATOM     86  C   UNL A   1      46.057  34.550  30.374  1.00  0.00     0.198 A 
ATOM     87  C   UNL A   1      45.739  34.812  28.010  1.00  0.00     0.198 A 
ATOM     88  F   UNL A   1      45.150  32.961  26.687  1.00  0.00    -0.203 F 
ATOM     89  F   UNL A   1      46.307  35.084  31.578  1.00  0.00    -0.200 F 
ATOM     90  C   UNL A   1      46.031  35.362  29.250  1.00  0.00     0.200 A 
ATOM     91  F   UNL A   1      45.729  35.592  26.920  1.00  0.00    -0.200 F 
ATOM     92  F   UNL A   1      46.275  36.674  29.363  1.00  0.00    -0.200 F 
ENDBRANCH  59  82
ENDBRANCH  33  34
ENDBRANCH  25  28
ENDBRANCH  23  24
ENDBRANCH  22  23
ENDBRANCH  21  22
ENDBRANCH  20  21
ENDBRANCH   1  20
TORSDOF 18
ENDMDL
