MODEL 1
REMARK VINA RESULT:     -12.7      0.000      0.000
REMARK SMILES COc1ccc(C(=O)N(C)C)cc1NC(=O)[C@H]1[C@@H](C(=O)NCCCCCCNC(=O)c2ccc(-c3c4nc(c(-c5c(F)c(F)c(F)c(F)c5F)c5ccc([nH]5)c(-c5c(F)c(F)c(F)c(F)c5F)c5nc(c(-c6c(F)c(F)c(F)c(F)c6F)c6ccc3[nH]6)C=C5)C=C4)cc2)[C@H]2C=C[C@@H]1C2
REMARK SMILES IDX 24 1 23 2 22 3 21 4 19 5 20 6 18 8 17 9 97 10 94 11 96 12
REMARK SMILES IDX 98 13 95 14 15 15 14 16 16 18 13 19 3 20 4 21 5 22 12 23
REMARK SMILES IDX 6 24 2 25 1 26 7 27 8 28 9 29 10 30 11 31 25 32 26 33 27 34
REMARK SMILES IDX 28 35 29 36 30 38 31 39 32 40 93 41 33 42 92 43 34 44 35 45
REMARK SMILES IDX 36 46 86 47 37 48 91 49 85 50 87 51 38 52 90 53 84 54 83 55
REMARK SMILES IDX 39 57 71 58 51 59 70 60 52 61 55 62 69 63 88 64 53 65 54 66
REMARK SMILES IDX 68 68 89 69 56 70 40 71 41 72 49 73 42 74 43 75 47 76 50 77
REMARK SMILES IDX 44 78 45 79 48 80 46 81 72 82 73 83 81 84 74 85 75 86 79 87
REMARK SMILES IDX 82 88 76 89 77 90 80 91 78 92 57 93 58 94 66 95 59 96 60 97
REMARK SMILES IDX 64 98 67 99 61 100 62 101 65 102 63 103
REMARK H PARENT 21 7 14 17 28 37 87 56 55 67
REMARK Flexibility Score: inf
ROOT
ATOM      1  C   UNL A   1      32.177  29.782  27.223  1.00  0.00     0.002 C 
ENDROOT
BRANCH   1   2
ATOM      2  C   UNL A   1      33.677  29.476  27.171  1.00  0.00     0.021 C 
BRANCH   2   3
ATOM      3  C   UNL A   1      34.020  28.104  26.600  1.00  0.00     0.116 C 
BRANCH   3   4
ATOM      4  N   UNL A   1      34.133  28.143  25.155  1.00  0.00    -0.356 N 
ATOM      5  C   UNL A   1      33.399  27.538  24.180  1.00  0.00     0.224 C 
ATOM      6  O   UNL A   1      33.668  27.807  23.010  1.00  0.00    -0.275 OA
ATOM      7  H   UNL A   1      34.870  28.704  24.820  1.00  0.00     0.163 HD
BRANCH   5   8
ATOM      8  C   UNL A   1      32.237  26.661  24.592  1.00  0.00     0.098 C 
ATOM      9  C   UNL A   1      31.779  25.453  23.700  1.00  0.00     0.099 C 
ATOM     10  C   UNL A   1      30.244  25.716  23.611  1.00  0.00     0.025 C 
ATOM     11  C   UNL A   1      30.937  27.478  24.795  1.00  0.00     0.025 C 
ATOM     12  C   UNL A   1      29.995  26.943  22.771  1.00  0.00    -0.027 C 
ATOM     13  C   UNL A   1      29.951  26.328  24.989  1.00  0.00     0.017 C 
ATOM     14  C   UNL A   1      30.409  27.998  23.483  1.00  0.00    -0.027 C 
BRANCH   9  15
ATOM     15  C   UNL A   1      32.466  25.189  22.360  1.00  0.00     0.229 C 
ATOM     16  N   UNL A   1      33.233  24.071  22.150  1.00  0.00    -0.323 N 
ATOM     17  H   UNL A   1      33.460  23.935  21.201  1.00  0.00     0.170 HD
ATOM     18  O   UNL A   1      32.401  25.988  21.425  1.00  0.00    -0.274 OA
BRANCH  16  19
ATOM     19  C   UNL A   1      33.768  23.075  22.992  1.00  0.00     0.084 A 
ATOM     20  C   UNL A   1      32.968  21.975  23.321  1.00  0.00     0.142 A 
ATOM     21  C   UNL A   1      33.371  21.092  24.317  1.00  0.00     0.049 A 
ATOM     22  C   UNL A   1      34.602  21.285  24.955  1.00  0.00     0.018 A 
ATOM     23  C   UNL A   1      35.067  23.129  23.513  1.00  0.00     0.044 A 
ATOM     24  C   UNL A   1      35.489  22.309  24.560  1.00  0.00     0.042 A 
BRANCH  20  25
ATOM     25  O   UNL A   1      31.737  21.773  22.751  1.00  0.00    -0.495 OA
ATOM     26  C   UNL A   1      31.778  20.712  21.789  1.00  0.00     0.278 C 
ENDBRANCH  20  25
BRANCH  24  27
ATOM     27  C   UNL A   1      36.779  22.421  25.335  1.00  0.00     0.253 C 
ATOM     28  O   UNL A   1      36.964  23.515  25.886  1.00  0.00    -0.269 OA
ATOM     29  N   UNL A   1      37.794  21.452  25.417  1.00  0.00    -0.345 N 
ATOM     30  C   UNL A   1      37.855  20.066  25.000  1.00  0.00     0.146 C 
ATOM     31  C   UNL A   1      39.055  21.930  25.976  1.00  0.00     0.146 C 
ENDBRANCH  24  27
ENDBRANCH  16  19
ENDBRANCH   9  15
ENDBRANCH   5   8
ENDBRANCH   3   4
ENDBRANCH   2   3
ENDBRANCH   1   2
BRANCH   1  32
ATOM     32  C   UNL A   1      31.679  30.748  26.144  1.00  0.00     0.002 C 
BRANCH  32  33
ATOM     33  C   UNL A   1      31.444  32.180  26.626  1.00  0.00     0.021 C 
BRANCH  33  34
ATOM     34  C   UNL A   1      32.658  32.829  27.277  1.00  0.00     0.116 C 
BRANCH  34  35
ATOM     35  N   UNL A   1      32.416  34.220  27.626  1.00  0.00    -0.352 N 
ATOM     36  C   UNL A   1      32.984  34.976  28.620  1.00  0.00     0.251 C 
ATOM     37  H   UNL A   1      31.750  34.685  27.069  1.00  0.00     0.163 HD
ATOM     38  O   UNL A   1      32.528  36.077  28.902  1.00  0.00    -0.269 OA
BRANCH  36  39
ATOM     39  C   UNL A   1      34.141  34.442  29.365  1.00  0.00     0.039 A 
ATOM     40  C   UNL A   1      33.920  33.806  30.588  1.00  0.00     0.014 A 
ATOM     41  C   UNL A   1      35.438  34.562  28.856  1.00  0.00     0.014 A 
ATOM     42  C   UNL A   1      34.995  33.239  31.274  1.00  0.00     0.010 A 
ATOM     43  C   UNL A   1      36.494  33.927  29.500  1.00  0.00     0.010 A 
ATOM     44  C   UNL A   1      36.285  33.265  30.717  1.00  0.00    -0.014 A 
BRANCH  44  45
ATOM     45  C   UNL A   1      37.427  32.604  31.398  1.00  0.00     0.031 A 
ATOM     46  C   UNL A   1      38.119  31.437  30.751  1.00  0.00     0.074 A 
ATOM     47  C   UNL A   1      37.799  33.017  32.625  1.00  0.00     0.049 A 
ATOM     48  N   UNL A   1      39.093  30.694  31.210  1.00  0.00    -0.248 NA
ATOM     49  C   UNL A   1      37.636  31.037  29.419  1.00  0.00     0.031 C 
ATOM     50  C   UNL A   1      37.175  34.108  33.375  1.00  0.00     0.029 A 
ATOM     51  N   UNL A   1      38.789  32.563  33.460  1.00  0.00    -0.354 N 
ATOM     52  C   UNL A   1      39.329  29.736  30.234  1.00  0.00     0.074 A 
ATOM     53  C   UNL A   1      38.359  29.952  29.184  1.00  0.00     0.031 C 
ATOM     54  C   UNL A   1      37.812  34.257  34.547  1.00  0.00     0.029 A 
ATOM     55  C   UNL A   1      38.859  33.245  34.651  1.00  0.00     0.049 A 
ATOM     56  H   UNL A   1      39.390  31.819  33.230  1.00  0.00     0.167 HD
ATOM     57  C   UNL A   1      40.287  28.777  30.205  1.00  0.00     0.037 A 
ATOM     58  C   UNL A   1      39.672  33.069  35.710  1.00  0.00     0.037 A 
ATOM     59  C   UNL A   1      41.262  28.578  31.245  1.00  0.00     0.049 A 
ATOM     60  C   UNL A   1      40.712  31.982  35.661  1.00  0.00     0.074 A 
ATOM     61  C   UNL A   1      42.307  27.672  31.286  1.00  0.00     0.029 A 
ATOM     62  N   UNL A   1      41.306  29.292  32.434  1.00  0.00    -0.354 N 
ATOM     63  N   UNL A   1      40.974  31.127  34.701  1.00  0.00    -0.248 NA
ATOM     64  C   UNL A   1      41.576  31.839  36.841  1.00  0.00     0.031 C 
ATOM     65  C   UNL A   1      42.946  27.798  32.523  1.00  0.00     0.029 A 
ATOM     66  C   UNL A   1      42.344  28.826  33.227  1.00  0.00     0.049 A 
ATOM     67  H   UNL A   1      40.691  30.022  32.677  1.00  0.00     0.167 HD
ATOM     68  C   UNL A   1      42.049  30.369  35.147  1.00  0.00     0.074 A 
ATOM     69  C   UNL A   1      42.402  30.876  36.456  1.00  0.00     0.031 C 
ATOM     70  C   UNL A   1      42.687  29.346  34.526  1.00  0.00     0.037 A 
BRANCH  57  71
ATOM     71  C   UNL A   1      40.326  27.869  29.009  1.00  0.00     0.064 A 
ATOM     72  C   UNL A   1      41.078  28.184  27.866  1.00  0.00     0.173 A 
ATOM     73  C   UNL A   1      39.633  26.648  29.018  1.00  0.00     0.173 A 
ATOM     74  F   UNL A   1      41.752  29.342  27.799  1.00  0.00    -0.203 F 
ATOM     75  C   UNL A   1      41.109  27.328  26.768  1.00  0.00     0.198 A 
ATOM     76  C   UNL A   1      39.694  25.780  27.932  1.00  0.00     0.198 A 
ATOM     77  F   UNL A   1      38.903  26.294  30.087  1.00  0.00    -0.203 F 
ATOM     78  F   UNL A   1      41.790  27.676  25.668  1.00  0.00    -0.200 F 
ATOM     79  C   UNL A   1      40.424  26.123  26.805  1.00  0.00     0.200 A 
ATOM     80  F   UNL A   1      39.043  24.608  27.977  1.00  0.00    -0.200 F 
ATOM     81  F   UNL A   1      40.461  25.297  25.751  1.00  0.00    -0.200 F 
ENDBRANCH  57  71
BRANCH  58  82
ATOM     82  C   UNL A   1      39.548  33.952  36.900  1.00  0.00     0.064 A 
ATOM     83  C   UNL A   1      38.779  33.567  38.006  1.00  0.00     0.173 A 
ATOM     84  C   UNL A   1      40.186  35.201  36.952  1.00  0.00     0.173 A 
ATOM     85  F   UNL A   1      38.135  32.391  37.997  1.00  0.00    -0.203 F 
ATOM     86  C   UNL A   1      38.630  34.407  39.108  1.00  0.00     0.198 A 
ATOM     87  C   UNL A   1      40.063  36.025  38.068  1.00  0.00     0.198 A 
ATOM     88  F   UNL A   1      40.939  35.615  35.923  1.00  0.00    -0.203 F 
ATOM     89  F   UNL A   1      37.845  34.036  40.129  1.00  0.00    -0.200 F 
ATOM     90  C   UNL A   1      39.277  35.634  39.141  1.00  0.00     0.200 A 
ATOM     91  F   UNL A   1      40.703  37.203  38.101  1.00  0.00    -0.200 F 
ATOM     92  F   UNL A   1      39.135  36.440  40.202  1.00  0.00    -0.200 F 
ENDBRANCH  58  82
BRANCH  70  93
ATOM     93  C   UNL A   1      43.859  28.732  35.238  1.00  0.00     0.064 A 
ATOM     94  C   UNL A   1      43.702  27.685  36.157  1.00  0.00     0.173 A 
ATOM     95  C   UNL A   1      45.163  29.174  34.963  1.00  0.00     0.173 A 
ATOM     96  F   UNL A   1      42.476  27.236  36.465  1.00  0.00    -0.203 F 
ATOM     97  C   UNL A   1      44.803  27.123  36.799  1.00  0.00     0.198 A 
ATOM     98  C   UNL A   1      46.265  28.586  35.580  1.00  0.00     0.198 A 
ATOM     99  F   UNL A   1      45.372  30.166  34.086  1.00  0.00    -0.203 F 
ATOM    100  F   UNL A   1      44.623  26.161  37.714  1.00  0.00    -0.200 F 
ATOM    101  C   UNL A   1      46.083  27.568  36.503  1.00  0.00     0.200 A 
ATOM    102  F   UNL A   1      47.501  29.005  35.280  1.00  0.00    -0.200 F 
ATOM    103  F   UNL A   1      47.141  27.019  37.114  1.00  0.00    -0.200 F 
ENDBRANCH  70  93
ENDBRANCH  44  45
ENDBRANCH  36  39
ENDBRANCH  34  35
ENDBRANCH  33  34
ENDBRANCH  32  33
ENDBRANCH   1  32
TORSDOF 17
ENDMDL
MODEL 2
REMARK VINA RESULT:     -12.7      5.263     11.181
REMARK SMILES COc1ccc(C(=O)N(C)C)cc1NC(=O)[C@H]1[C@@H](C(=O)NCCCCCCNC(=O)c2ccc(-c3c4nc(c(-c5c(F)c(F)c(F)c(F)c5F)c5ccc([nH]5)c(-c5c(F)c(F)c(F)c(F)c5F)c5nc(c(-c6c(F)c(F)c(F)c(F)c6F)c6ccc3[nH]6)C=C5)C=C4)cc2)[C@H]2C=C[C@@H]1C2
REMARK SMILES IDX 24 1 23 2 22 3 21 4 19 5 20 6 18 8 17 9 97 10 94 11 96 12
REMARK SMILES IDX 98 13 95 14 15 15 14 16 16 18 13 19 3 20 4 21 5 22 12 23
REMARK SMILES IDX 6 24 2 25 1 26 7 27 8 28 9 29 10 30 11 31 25 32 26 33 27 34
REMARK SMILES IDX 28 35 29 36 30 38 31 39 32 40 93 41 33 42 92 43 34 44 35 45
REMARK SMILES IDX 36 46 86 47 37 48 91 49 85 50 87 51 38 52 90 53 84 54 83 55
REMARK SMILES IDX 39 57 71 58 51 59 70 60 52 61 55 62 69 63 88 64 53 65 54 66
REMARK SMILES IDX 68 68 89 69 56 70 40 71 41 72 49 73 42 74 43 75 47 76 50 77
REMARK SMILES IDX 44 78 45 79 48 80 46 81 72 82 73 83 81 84 74 85 75 86 79 87
REMARK SMILES IDX 82 88 76 89 77 90 80 91 78 92 57 93 58 94 66 95 59 96 60 97
REMARK SMILES IDX 64 98 67 99 61 100 62 101 65 102 63 103
REMARK H PARENT 21 7 14 17 28 37 87 56 55 67
REMARK Flexibility Score: inf
ROOT
ATOM      1  C   UNL A   1      35.766  20.877  25.413  1.00  0.00     0.002 C 
ENDROOT
BRANCH   1   2
ATOM      2  C   UNL A   1      35.408  22.231  26.034  1.00  0.00     0.021 C 
BRANCH   2   3
ATOM      3  C   UNL A   1      34.399  22.154  27.175  1.00  0.00     0.116 C 
BRANCH   3   4
ATOM      4  N   UNL A   1      33.106  21.690  26.710  1.00  0.00    -0.356 N 
ATOM      5  C   UNL A   1      32.327  22.096  25.668  1.00  0.00     0.224 C 
ATOM      6  O   UNL A   1      31.292  21.469  25.449  1.00  0.00    -0.275 OA
ATOM      7  H   UNL A   1      32.724  20.953  27.239  1.00  0.00     0.163 HD
BRANCH   5   8
ATOM      8  C   UNL A   1      32.830  23.219  24.787  1.00  0.00     0.098 C 
ATOM      9  C   UNL A   1      32.449  24.712  25.083  1.00  0.00     0.099 C 
ATOM     10  C   UNL A   1      31.959  25.178  23.678  1.00  0.00     0.025 C 
ATOM     11  C   UNL A   1      32.415  23.023  23.307  1.00  0.00     0.025 C 
ATOM     12  C   UNL A   1      30.655  24.496  23.352  1.00  0.00    -0.027 C 
ATOM     13  C   UNL A   1      32.872  24.367  22.744  1.00  0.00     0.017 C 
ATOM     14  C   UNL A   1      30.931  23.205  23.128  1.00  0.00    -0.027 C 
BRANCH   9  15
ATOM     15  C   UNL A   1      31.503  25.045  26.237  1.00  0.00     0.229 C 
ATOM     16  N   UNL A   1      30.874  26.261  26.328  1.00  0.00    -0.323 N 
ATOM     17  H   UNL A   1      30.162  26.275  27.008  1.00  0.00     0.170 HD
ATOM     18  O   UNL A   1      31.298  24.257  27.161  1.00  0.00    -0.274 OA
BRANCH  16  19
ATOM     19  C   UNL A   1      31.023  27.495  25.662  1.00  0.00     0.084 A 
ATOM     20  C   UNL A   1      31.795  28.494  26.265  1.00  0.00     0.142 A 
ATOM     21  C   UNL A   1      31.784  29.788  25.756  1.00  0.00     0.049 A 
ATOM     22  C   UNL A   1      31.032  30.073  24.610  1.00  0.00     0.018 A 
ATOM     23  C   UNL A   1      30.439  27.769  24.419  1.00  0.00     0.044 A 
ATOM     24  C   UNL A   1      30.345  29.063  23.905  1.00  0.00     0.042 A 
BRANCH  20  25
ATOM     25  O   UNL A   1      32.511  28.268  27.413  1.00  0.00    -0.495 OA
ATOM     26  C   UNL A   1      33.900  28.569  27.226  1.00  0.00     0.278 C 
ENDBRANCH  20  25
BRANCH  24  27
ATOM     27  C   UNL A   1      29.560  29.501  22.692  1.00  0.00     0.253 C 
ATOM     28  O   UNL A   1      29.905  28.969  21.628  1.00  0.00    -0.269 OA
ATOM     29  N   UNL A   1      28.559  30.488  22.652  1.00  0.00    -0.345 N 
ATOM     30  C   UNL A   1      27.857  31.206  23.696  1.00  0.00     0.146 C 
ATOM     31  C   UNL A   1      28.181  30.925  21.312  1.00  0.00     0.146 C 
ENDBRANCH  24  27
ENDBRANCH  16  19
ENDBRANCH   9  15
ENDBRANCH   5   8
ENDBRANCH   3   4
ENDBRANCH   2   3
ENDBRANCH   1   2
BRANCH   1  32
ATOM     32  C   UNL A   1      37.075  20.858  24.620  1.00  0.00     0.002 C 
BRANCH  32  33
ATOM     33  C   UNL A   1      38.036  19.730  24.999  1.00  0.00     0.021 C 
BRANCH  33  34
ATOM     34  C   UNL A   1      39.232  20.179  25.828  1.00  0.00     0.116 C 
BRANCH  34  35
ATOM     35  N   UNL A   1      40.234  19.134  25.957  1.00  0.00    -0.352 N 
ATOM     36  C   UNL A   1      41.592  19.248  26.122  1.00  0.00     0.251 C 
ATOM     37  H   UNL A   1      39.890  18.212  25.921  1.00  0.00     0.163 HD
ATOM     38  O   UNL A   1      42.316  18.267  26.019  1.00  0.00    -0.269 OA
BRANCH  36  39
ATOM     39  C   UNL A   1      42.178  20.575  26.404  1.00  0.00     0.039 A 
ATOM     40  C   UNL A   1      42.594  21.368  25.333  1.00  0.00     0.014 A 
ATOM     41  C   UNL A   1      42.308  21.034  27.717  1.00  0.00     0.014 A 
ATOM     42  C   UNL A   1      43.090  22.650  25.579  1.00  0.00     0.010 A 
ATOM     43  C   UNL A   1      42.726  22.339  27.954  1.00  0.00     0.010 A 
ATOM     44  C   UNL A   1      43.127  23.157  26.889  1.00  0.00    -0.014 A 
BRANCH  44  45
ATOM     45  C   UNL A   1      43.583  24.544  27.161  1.00  0.00     0.031 A 
ATOM     46  C   UNL A   1      42.609  25.576  27.653  1.00  0.00     0.074 A 
ATOM     47  C   UNL A   1      44.862  24.885  26.906  1.00  0.00     0.049 A 
ATOM     48  N   UNL A   1      42.801  26.849  27.892  1.00  0.00    -0.248 NA
ATOM     49  C   UNL A   1      41.228  25.125  27.886  1.00  0.00     0.031 C 
ATOM     50  C   UNL A   1      45.889  23.983  26.384  1.00  0.00     0.029 A 
ATOM     51  N   UNL A   1      45.512  26.084  27.047  1.00  0.00    -0.354 N 
ATOM     52  C   UNL A   1      41.568  27.349  28.289  1.00  0.00     0.074 A 
ATOM     53  C   UNL A   1      40.621  26.260  28.202  1.00  0.00     0.031 C 
ATOM     54  C   UNL A   1      47.047  24.653  26.272  1.00  0.00     0.029 A 
ATOM     55  C   UNL A   1      46.834  26.040  26.672  1.00  0.00     0.049 A 
ATOM     56  H   UNL A   1      45.075  26.900  27.382  1.00  0.00     0.167 HD
ATOM     57  C   UNL A   1      41.260  28.599  28.712  1.00  0.00     0.037 A 
ATOM     58  C   UNL A   1      47.766  27.012  26.647  1.00  0.00     0.037 A 
ATOM     59  C   UNL A   1      42.212  29.675  28.813  1.00  0.00     0.049 A 
ATOM     60  C   UNL A   1      47.391  28.397  27.102  1.00  0.00     0.074 A 
ATOM     61  C   UNL A   1      42.012  30.961  29.282  1.00  0.00     0.029 A 
ATOM     62  N   UNL A   1      43.542  29.591  28.431  1.00  0.00    -0.354 N 
ATOM     63  N   UNL A   1      46.239  28.842  27.543  1.00  0.00    -0.248 NA
ATOM     64  C   UNL A   1      48.449  29.415  27.060  1.00  0.00     0.031 C 
ATOM     65  C   UNL A   1      43.206  31.672  29.129  1.00  0.00     0.029 A 
ATOM     66  C   UNL A   1      44.168  30.812  28.627  1.00  0.00     0.049 A 
ATOM     67  H   UNL A   1      43.978  28.783  28.074  1.00  0.00     0.167 HD
ATOM     68  C   UNL A   1      46.441  30.178  27.862  1.00  0.00     0.074 A 
ATOM     69  C   UNL A   1      47.831  30.468  27.578  1.00  0.00     0.031 C 
ATOM     70  C   UNL A   1      45.556  31.084  28.347  1.00  0.00     0.037 A 
BRANCH  57  71
ATOM     71  C   UNL A   1      39.834  28.871  29.096  1.00  0.00     0.064 A 
ATOM     72  C   UNL A   1      39.372  28.677  30.408  1.00  0.00     0.173 A 
ATOM     73  C   UNL A   1      38.924  29.369  28.150  1.00  0.00     0.173 A 
ATOM     74  F   UNL A   1      40.197  28.194  31.350  1.00  0.00    -0.203 F 
ATOM     75  C   UNL A   1      38.048  28.940  30.750  1.00  0.00     0.198 A 
ATOM     76  C   UNL A   1      37.610  29.663  28.505  1.00  0.00     0.198 A 
ATOM     77  F   UNL A   1      39.312  29.579  26.883  1.00  0.00    -0.203 F 
ATOM     78  F   UNL A   1      37.617  28.696  31.995  1.00  0.00    -0.200 F 
ATOM     79  C   UNL A   1      37.170  29.441  29.800  1.00  0.00     0.200 A 
ATOM     80  F   UNL A   1      36.767  30.162  27.589  1.00  0.00    -0.200 F 
ATOM     81  F   UNL A   1      35.899  29.701  30.132  1.00  0.00    -0.200 F 
ENDBRANCH  57  71
BRANCH  58  82
ATOM     82  C   UNL A   1      49.149  26.707  26.193  1.00  0.00     0.064 A 
ATOM     83  C   UNL A   1      50.112  26.227  27.090  1.00  0.00     0.173 A 
ATOM     84  C   UNL A   1      49.539  26.899  24.859  1.00  0.00     0.173 A 
ATOM     85  F   UNL A   1      49.794  26.045  28.380  1.00  0.00    -0.203 F 
ATOM     86  C   UNL A   1      51.419  25.974  26.678  1.00  0.00     0.198 A 
ATOM     87  C   UNL A   1      50.836  26.615  24.441  1.00  0.00     0.198 A 
ATOM     88  F   UNL A   1      48.654  27.350  23.958  1.00  0.00    -0.203 F 
ATOM     89  F   UNL A   1      52.334  25.567  27.569  1.00  0.00    -0.200 F 
ATOM     90  C   UNL A   1      51.779  26.163  25.351  1.00  0.00     0.200 A 
ATOM     91  F   UNL A   1      51.174  26.783  23.154  1.00  0.00    -0.200 F 
ATOM     92  F   UNL A   1      53.035  25.918  24.954  1.00  0.00    -0.200 F 
ENDBRANCH  58  82
BRANCH  70  93
ATOM     93  C   UNL A   1      46.072  32.464  28.640  1.00  0.00     0.064 A 
ATOM     94  C   UNL A   1      46.019  33.492  27.688  1.00  0.00     0.173 A 
ATOM     95  C   UNL A   1      46.590  32.769  29.908  1.00  0.00     0.173 A 
ATOM     96  F   UNL A   1      45.546  33.248  26.457  1.00  0.00    -0.203 F 
ATOM     97  C   UNL A   1      46.495  34.767  27.985  1.00  0.00     0.198 A 
ATOM     98  C   UNL A   1      47.032  34.054  30.213  1.00  0.00     0.198 A 
ATOM     99  F   UNL A   1      46.656  31.825  30.859  1.00  0.00    -0.203 F 
ATOM    100  F   UNL A   1      46.484  35.719  27.041  1.00  0.00    -0.200 F 
ATOM    101  C   UNL A   1      46.992  35.049  29.248  1.00  0.00     0.200 A 
ATOM    102  F   UNL A   1      47.495  34.329  31.440  1.00  0.00    -0.200 F 
ATOM    103  F   UNL A   1      47.439  36.279  29.534  1.00  0.00    -0.200 F 
ENDBRANCH  70  93
ENDBRANCH  44  45
ENDBRANCH  36  39
ENDBRANCH  34  35
ENDBRANCH  33  34
ENDBRANCH  32  33
ENDBRANCH   1  32
TORSDOF 17
ENDMDL
MODEL 3
REMARK VINA RESULT:     -12.7      1.217      2.132
REMARK SMILES COc1ccc(C(=O)N(C)C)cc1NC(=O)[C@H]1[C@@H](C(=O)NCCCCCCNC(=O)c2ccc(-c3c4nc(c(-c5c(F)c(F)c(F)c(F)c5F)c5ccc([nH]5)c(-c5c(F)c(F)c(F)c(F)c5F)c5nc(c(-c6c(F)c(F)c(F)c(F)c6F)c6ccc3[nH]6)C=C5)C=C4)cc2)[C@H]2C=C[C@@H]1C2
REMARK SMILES IDX 24 1 23 2 22 3 21 4 19 5 20 6 18 8 17 9 97 10 94 11 96 12
REMARK SMILES IDX 98 13 95 14 15 15 14 16 16 18 13 19 3 20 4 21 5 22 12 23
REMARK SMILES IDX 6 24 2 25 1 26 7 27 8 28 9 29 10 30 11 31 25 32 26 33 27 34
REMARK SMILES IDX 28 35 29 36 30 38 31 39 32 40 93 41 33 42 92 43 34 44 35 45
REMARK SMILES IDX 36 46 86 47 37 48 91 49 85 50 87 51 38 52 90 53 84 54 83 55
REMARK SMILES IDX 39 57 71 58 51 59 70 60 52 61 55 62 69 63 88 64 53 65 54 66
REMARK SMILES IDX 68 68 89 69 56 70 40 71 41 72 49 73 42 74 43 75 47 76 50 77
REMARK SMILES IDX 44 78 45 79 48 80 46 81 72 82 73 83 81 84 74 85 75 86 79 87
REMARK SMILES IDX 82 88 76 89 77 90 80 91 78 92 57 93 58 94 66 95 59 96 60 97
REMARK SMILES IDX 64 98 67 99 61 100 62 101 65 102 63 103
REMARK H PARENT 21 7 14 17 28 37 87 56 55 67
REMARK Flexibility Score: inf
ROOT
ATOM      1  C   UNL A   1      32.731  30.153  25.987  1.00  0.00     0.002 C 
ENDROOT
BRANCH   1   2
ATOM      2  C   UNL A   1      32.752  29.132  27.129  1.00  0.00     0.021 C 
BRANCH   2   3
ATOM      3  C   UNL A   1      33.725  27.977  26.924  1.00  0.00     0.116 C 
BRANCH   3   4
ATOM      4  N   UNL A   1      33.924  27.693  25.516  1.00  0.00    -0.356 N 
ATOM      5  C   UNL A   1      33.342  26.776  24.693  1.00  0.00     0.224 C 
ATOM      6  O   UNL A   1      33.646  26.800  23.502  1.00  0.00    -0.275 OA
ATOM      7  H   UNL A   1      34.597  28.262  25.077  1.00  0.00     0.163 HD
BRANCH   5   8
ATOM      8  C   UNL A   1      32.287  25.857  25.271  1.00  0.00     0.098 C 
ATOM      9  C   UNL A   1      31.834  24.564  24.506  1.00  0.00     0.099 C 
ATOM     10  C   UNL A   1      30.283  24.722  24.548  1.00  0.00     0.025 C 
ATOM     11  C   UNL A   1      30.957  26.603  25.545  1.00  0.00     0.025 C 
ATOM     12  C   UNL A   1      29.873  25.869  23.659  1.00  0.00    -0.027 C 
ATOM     13  C   UNL A   1      30.075  25.410  25.906  1.00  0.00     0.017 C 
ATOM     14  C   UNL A   1      30.277  26.996  24.260  1.00  0.00    -0.027 C 
BRANCH   9  15
ATOM     15  C   UNL A   1      32.411  24.250  23.125  1.00  0.00     0.229 C 
ATOM     16  N   UNL A   1      33.143  23.114  22.890  1.00  0.00    -0.323 N 
ATOM     17  H   UNL A   1      33.294  22.947  21.931  1.00  0.00     0.170 HD
ATOM     18  O   UNL A   1      32.287  25.024  22.175  1.00  0.00    -0.274 OA
BRANCH  16  19
ATOM     19  C   UNL A   1      33.725  22.132  23.717  1.00  0.00     0.084 A 
ATOM     20  C   UNL A   1      35.046  22.312  24.144  1.00  0.00     0.142 A 
ATOM     21  C   UNL A   1      35.725  21.271  24.768  1.00  0.00     0.049 A 
ATOM     22  C   UNL A   1      35.064  20.061  25.010  1.00  0.00     0.018 A 
ATOM     23  C   UNL A   1      33.042  20.984  24.140  1.00  0.00     0.044 A 
ATOM     24  C   UNL A   1      33.697  19.890  24.707  1.00  0.00     0.042 A 
BRANCH  20  25
ATOM     25  O   UNL A   1      35.742  23.465  23.890  1.00  0.00    -0.495 OA
ATOM     26  C   UNL A   1      36.736  23.703  24.895  1.00  0.00     0.278 C 
ENDBRANCH  20  25
BRANCH  24  27
ATOM     27  C   UNL A   1      33.104  18.534  25.002  1.00  0.00     0.253 C 
ATOM     28  O   UNL A   1      32.384  18.487  26.009  1.00  0.00    -0.269 OA
ATOM     29  N   UNL A   1      33.354  17.339  24.304  1.00  0.00    -0.345 N 
ATOM     30  C   UNL A   1      34.035  17.065  23.056  1.00  0.00     0.146 C 
ATOM     31  C   UNL A   1      32.897  16.128  24.977  1.00  0.00     0.146 C 
ENDBRANCH  24  27
ENDBRANCH  16  19
ENDBRANCH   9  15
ENDBRANCH   5   8
ENDBRANCH   3   4
ENDBRANCH   2   3
ENDBRANCH   1   2
BRANCH   1  32
ATOM     32  C   UNL A   1      31.445  30.977  25.883  1.00  0.00     0.002 C 
BRANCH  32  33
ATOM     33  C   UNL A   1      31.309  32.084  26.930  1.00  0.00     0.021 C 
BRANCH  33  34
ATOM     34  C   UNL A   1      32.607  32.820  27.236  1.00  0.00     0.116 C 
BRANCH  34  35
ATOM     35  N   UNL A   1      32.380  34.217  27.569  1.00  0.00    -0.352 N 
ATOM     36  C   UNL A   1      32.970  34.983  28.543  1.00  0.00     0.251 C 
ATOM     37  H   UNL A   1      31.708  34.679  27.017  1.00  0.00     0.163 HD
ATOM     38  O   UNL A   1      32.526  36.091  28.817  1.00  0.00    -0.269 OA
BRANCH  36  39
ATOM     39  C   UNL A   1      34.136  34.451  29.276  1.00  0.00     0.039 A 
ATOM     40  C   UNL A   1      33.925  33.783  30.484  1.00  0.00     0.014 A 
ATOM     41  C   UNL A   1      35.430  34.606  28.771  1.00  0.00     0.014 A 
ATOM     42  C   UNL A   1      35.009  33.218  31.157  1.00  0.00     0.010 A 
ATOM     43  C   UNL A   1      36.497  33.974  29.400  1.00  0.00     0.010 A 
ATOM     44  C   UNL A   1      36.299  33.280  30.602  1.00  0.00    -0.014 A 
BRANCH  44  45
ATOM     45  C   UNL A   1      37.452  32.622  31.267  1.00  0.00     0.031 A 
ATOM     46  C   UNL A   1      38.165  31.484  30.593  1.00  0.00     0.074 A 
ATOM     47  C   UNL A   1      37.816  33.012  32.504  1.00  0.00     0.049 A 
ATOM     48  N   UNL A   1      39.152  30.747  31.035  1.00  0.00    -0.248 NA
ATOM     49  C   UNL A   1      37.690  31.108  29.251  1.00  0.00     0.031 C 
ATOM     50  C   UNL A   1      37.172  34.074  33.280  1.00  0.00     0.029 A 
ATOM     51  N   UNL A   1      38.812  32.556  33.329  1.00  0.00    -0.354 N 
ATOM     52  C   UNL A   1      39.405  29.817  30.036  1.00  0.00     0.074 A 
ATOM     53  C   UNL A   1      38.432  30.042  28.990  1.00  0.00     0.031 C 
ATOM     54  C   UNL A   1      37.805  34.205  34.456  1.00  0.00     0.029 A 
ATOM     55  C   UNL A   1      38.870  33.210  34.537  1.00  0.00     0.049 A 
ATOM     56  H   UNL A   1      39.427  31.828  33.082  1.00  0.00     0.167 HD
ATOM     57  C   UNL A   1      40.380  28.877  29.985  1.00  0.00     0.037 A 
ATOM     58  C   UNL A   1      39.685  33.022  35.592  1.00  0.00     0.037 A 
ATOM     59  C   UNL A   1      41.357  28.669  31.021  1.00  0.00     0.049 A 
ATOM     60  C   UNL A   1      40.744  31.955  35.517  1.00  0.00     0.074 A 
ATOM     61  C   UNL A   1      42.418  27.781  31.041  1.00  0.00     0.029 A 
ATOM     62  N   UNL A   1      41.388  29.355  32.227  1.00  0.00    -0.354 N 
ATOM     63  N   UNL A   1      41.022  31.129  34.538  1.00  0.00    -0.248 NA
ATOM     64  C   UNL A   1      41.609  31.799  36.694  1.00  0.00     0.031 C 
ATOM     65  C   UNL A   1      43.054  27.888  32.281  1.00  0.00     0.029 A 
ATOM     66  C   UNL A   1      42.433  28.889  33.009  1.00  0.00     0.049 A 
ATOM     67  H   UNL A   1      40.760  30.068  32.487  1.00  0.00     0.167 HD
ATOM     68  C   UNL A   1      42.110  30.379  34.966  1.00  0.00     0.074 A 
ATOM     69  C   UNL A   1      42.452  30.860  36.287  1.00  0.00     0.031 C 
ATOM     70  C   UNL A   1      42.767  29.383  34.321  1.00  0.00     0.037 A 
BRANCH  57  71
ATOM     71  C   UNL A   1      40.435  27.999  28.767  1.00  0.00     0.064 A 
ATOM     72  C   UNL A   1      41.194  28.348  27.638  1.00  0.00     0.173 A 
ATOM     73  C   UNL A   1      39.752  26.773  28.741  1.00  0.00     0.173 A 
ATOM     74  F   UNL A   1      41.859  29.513  27.605  1.00  0.00    -0.203 F 
ATOM     75  C   UNL A   1      41.240  27.520  26.520  1.00  0.00     0.198 A 
ATOM     76  C   UNL A   1      39.829  25.932  27.634  1.00  0.00     0.198 A 
ATOM     77  F   UNL A   1      39.017  26.386  29.795  1.00  0.00    -0.203 F 
ATOM     78  F   UNL A   1      41.927  27.901  25.434  1.00  0.00    -0.200 F 
ATOM     79  C   UNL A   1      40.565  26.309  26.522  1.00  0.00     0.200 A 
ATOM     80  F   UNL A   1      39.188  24.755  27.644  1.00  0.00    -0.200 F 
ATOM     81  F   UNL A   1      40.617  25.509  25.448  1.00  0.00    -0.200 F 
ENDBRANCH  57  71
BRANCH  58  82
ATOM     82  C   UNL A   1      39.545  33.874  36.803  1.00  0.00     0.064 A 
ATOM     83  C   UNL A   1      38.773  33.453  37.894  1.00  0.00     0.173 A 
ATOM     84  C   UNL A   1      40.170  35.127  36.891  1.00  0.00     0.173 A 
ATOM     85  F   UNL A   1      38.140  32.271  37.851  1.00  0.00    -0.203 F 
ATOM     86  C   UNL A   1      38.608  34.264  39.016  1.00  0.00     0.198 A 
ATOM     87  C   UNL A   1      40.032  35.922  38.026  1.00  0.00     0.198 A 
ATOM     88  F   UNL A   1      40.926  35.574  35.878  1.00  0.00    -0.203 F 
ATOM     89  F   UNL A   1      37.820  33.859  40.022  1.00  0.00    -0.200 F 
ATOM     90  C   UNL A   1      39.243  35.495  39.084  1.00  0.00     0.200 A 
ATOM     91  F   UNL A   1      40.660  37.104  38.093  1.00  0.00    -0.200 F 
ATOM     92  F   UNL A   1      39.086  36.273  40.163  1.00  0.00    -0.200 F 
ENDBRANCH  58  82
BRANCH  70  93
ATOM     93  C   UNL A   1      43.949  28.772  35.019  1.00  0.00     0.064 A 
ATOM     94  C   UNL A   1      45.240  29.303  34.889  1.00  0.00     0.173 A 
ATOM     95  C   UNL A   1      43.777  27.663  35.861  1.00  0.00     0.173 A 
ATOM     96  F   UNL A   1      45.461  30.354  34.085  1.00  0.00    -0.203 F 
ATOM     97  C   UNL A   1      46.321  28.727  35.553  1.00  0.00     0.198 A 
ATOM     98  C   UNL A   1      44.853  27.111  36.551  1.00  0.00     0.198 A 
ATOM     99  F   UNL A   1      42.561  27.121  36.028  1.00  0.00    -0.203 F 
ATOM    100  F   UNL A   1      47.555  29.218  35.370  1.00  0.00    -0.200 F 
ATOM    101  C   UNL A   1      46.125  27.638  36.389  1.00  0.00     0.200 A 
ATOM    102  F   UNL A   1      44.658  26.070  37.372  1.00  0.00    -0.200 F 
ATOM    103  F   UNL A   1      47.165  27.091  37.034  1.00  0.00    -0.200 F 
ENDBRANCH  70  93
ENDBRANCH  44  45
ENDBRANCH  36  39
ENDBRANCH  34  35
ENDBRANCH  33  34
ENDBRANCH  32  33
ENDBRANCH   1  32
TORSDOF 17
ENDMDL
