MODEL 1
REMARK VINA RESULT:     -11.7      0.000      0.000
REMARK SMILES COCCN1C(=O)c2ccccc2[C@@H](C(=O)NCCCCCCNC(=O)c2ccc(-c3c4nc(c(-c5c(F)c(F)c(F)c(F)c5F)c5ccc([nH]5)c(-c5c(F)c(F)c(F)c(F)c5F)c5nc(c(-c6c(F)c(F)c(F)c(F)c6F)c6ccc3[nH]6)C=C5)C=C4)cc2)[C@H]1c1nccn1C
REMARK SMILES IDX 20 1 19 2 18 3 17 4 15 5 16 6 14 8 5 9 6 10 90 11 7 12 8 13
REMARK SMILES IDX 9 14 13 15 10 16 12 17 11 18 4 19 3 20 2 21 1 22 91 23 92 24
REMARK SMILES IDX 95 25 93 26 94 27 96 28 21 29 22 30 23 31 24 32 25 33 26 35
REMARK SMILES IDX 27 36 28 37 89 38 29 39 88 40 30 41 31 42 32 43 82 44 33 45
REMARK SMILES IDX 87 46 81 47 83 48 34 49 86 50 80 51 79 52 35 54 67 55 47 56
REMARK SMILES IDX 66 57 48 58 51 59 65 60 84 61 49 62 50 63 64 65 85 66 52 67
REMARK SMILES IDX 36 68 37 69 45 70 38 71 39 72 43 73 46 74 40 75 41 76 44 77
REMARK SMILES IDX 42 78 68 79 69 80 77 81 70 82 71 83 75 84 78 85 72 86 73 87
REMARK SMILES IDX 76 88 74 89 53 90 54 91 62 92 55 93 56 94 60 95 63 96 57 97
REMARK SMILES IDX 58 98 61 99 59 100
REMARK H PARENT 17 7 24 34 83 53 51 64
REMARK Flexibility Score: inf
ROOT
ATOM      1  C   UNL A   1      31.405  29.323  26.861  1.00  0.00     0.002 C 
ENDROOT
BRANCH   1   2
ATOM      2  C   UNL A   1      32.683  28.598  27.288  1.00  0.00     0.021 C 
BRANCH   2   3
ATOM      3  C   UNL A   1      32.982  27.359  26.448  1.00  0.00     0.116 C 
BRANCH   3   4
ATOM      4  N   UNL A   1      33.911  27.614  25.369  1.00  0.00    -0.355 N 
ATOM      5  C   UNL A   1      33.709  27.689  24.034  1.00  0.00     0.230 C 
ATOM      6  O   UNL A   1      34.465  28.463  23.427  1.00  0.00    -0.274 OA
ATOM      7  H   UNL A   1      34.844  27.754  25.652  1.00  0.00     0.163 HD
BRANCH   5   8
ATOM      8  C   UNL A   1      32.651  26.922  23.239  1.00  0.00     0.139 C 
ATOM      9  N   UNL A   1      31.384  25.235  24.651  1.00  0.00    -0.325 N 
ATOM     10  C   UNL A   1      30.343  26.153  24.807  1.00  0.00     0.254 C 
ATOM     11  C   UNL A   1      32.403  25.431  23.546  1.00  0.00     0.169 C 
ATOM     12  O   UNL A   1      29.528  26.138  25.722  1.00  0.00    -0.269 OA
ATOM     13  C   UNL A   1      30.247  27.295  23.865  1.00  0.00     0.044 A 
ATOM     14  C   UNL A   1      29.055  28.027  23.796  1.00  0.00     0.014 A 
ATOM     15  C   UNL A   1      31.359  27.693  23.124  1.00  0.00    -0.020 A 
ATOM     16  C   UNL A   1      28.965  29.148  22.973  1.00  0.00     0.001 A 
ATOM     17  C   UNL A   1      31.260  28.825  22.296  1.00  0.00     0.005 A 
ATOM     18  C   UNL A   1      30.067  29.544  22.221  1.00  0.00     0.000 A 
BRANCH   9  19
ATOM     19  C   UNL A   1      31.340  23.930  25.361  1.00  0.00     0.149 C 
BRANCH  19  20
ATOM     20  C   UNL A   1      32.110  23.654  26.670  1.00  0.00     0.181 C 
BRANCH  20  21
ATOM     21  O   UNL A   1      33.045  22.573  26.575  1.00  0.00    -0.383 OA
ATOM     22  C   UNL A   1      33.975  22.520  27.644  1.00  0.00     0.194 C 
ENDBRANCH  20  21
ENDBRANCH  19  20
ENDBRANCH   9  19
BRANCH  11  23
ATOM     23  C   UNL A   1      33.639  24.490  23.612  1.00  0.00     0.132 A 
ATOM     24  N   UNL A   1      34.692  24.775  24.376  1.00  0.00    -0.239 NA
ATOM     25  N   UNL A   1      33.840  23.213  23.098  1.00  0.00    -0.336 N 
ATOM     26  C   UNL A   1      35.618  23.792  24.224  1.00  0.00     0.131 A 
ATOM     27  C   UNL A   1      35.126  22.822  23.404  1.00  0.00     0.107 A 
ATOM     28  C   UNL A   1      32.964  22.286  22.422  1.00  0.00     0.151 C 
ENDBRANCH  11  23
ENDBRANCH   5   8
ENDBRANCH   3   4
ENDBRANCH   2   3
ENDBRANCH   1   2
BRANCH   1  29
ATOM     29  C   UNL A   1      31.623  30.483  25.878  1.00  0.00     0.002 C 
BRANCH  29  30
ATOM     30  C   UNL A   1      31.410  31.888  26.454  1.00  0.00     0.021 C 
BRANCH  30  31
ATOM     31  C   UNL A   1      32.605  32.458  27.217  1.00  0.00     0.116 C 
BRANCH  31  32
ATOM     32  N   UNL A   1      32.430  33.871  27.524  1.00  0.00    -0.352 N 
ATOM     33  C   UNL A   1      33.015  34.655  28.483  1.00  0.00     0.251 C 
ATOM     34  H   UNL A   1      31.786  34.341  26.946  1.00  0.00     0.163 HD
ATOM     35  O   UNL A   1      32.541  35.756  28.747  1.00  0.00    -0.269 OA
BRANCH  33  36
ATOM     36  C   UNL A   1      34.212  34.183  29.211  1.00  0.00     0.039 A 
ATOM     37  C   UNL A   1      34.041  33.506  30.423  1.00  0.00     0.014 A 
ATOM     38  C   UNL A   1      35.496  34.441  28.728  1.00  0.00     0.014 A 
ATOM     39  C   UNL A   1      35.156  33.023  31.110  1.00  0.00     0.010 A 
ATOM     40  C   UNL A   1      36.603  33.902  29.379  1.00  0.00     0.010 A 
ATOM     41  C   UNL A   1      36.444  33.180  30.571  1.00  0.00    -0.014 A 
BRANCH  41  42
ATOM     42  C   UNL A   1      37.625  32.554  31.214  1.00  0.00     0.031 A 
ATOM     43  C   UNL A   1      38.349  31.419  30.549  1.00  0.00     0.074 A 
ATOM     44  C   UNL A   1      37.998  32.968  32.441  1.00  0.00     0.049 A 
ATOM     45  N   UNL A   1      39.354  30.706  30.992  1.00  0.00    -0.248 NA
ATOM     46  C   UNL A   1      37.868  31.019  29.218  1.00  0.00     0.031 C 
ATOM     47  C   UNL A   1      37.345  34.031  33.206  1.00  0.00     0.029 A 
ATOM     48  N   UNL A   1      39.005  32.534  33.267  1.00  0.00    -0.354 N 
ATOM     49  C   UNL A   1      39.619  29.769  30.001  1.00  0.00     0.074 A 
ATOM     50  C   UNL A   1      38.640  29.974  28.954  1.00  0.00     0.031 C 
ATOM     51  C   UNL A   1      37.978  34.179  34.380  1.00  0.00     0.029 A 
ATOM     52  C   UNL A   1      39.049  33.193  34.471  1.00  0.00     0.049 A 
ATOM     53  H   UNL A   1      39.636  31.819  33.020  1.00  0.00     0.167 HD
ATOM     54  C   UNL A   1      40.602  28.838  29.963  1.00  0.00     0.037 A 
ATOM     55  C   UNL A   1      39.850  33.010  35.538  1.00  0.00     0.037 A 
ATOM     56  C   UNL A   1      41.577  28.645  31.007  1.00  0.00     0.049 A 
ATOM     57  C   UNL A   1      40.906  31.940  35.485  1.00  0.00     0.074 A 
ATOM     58  C   UNL A   1      42.653  27.775  31.033  1.00  0.00     0.029 A 
ATOM     59  N   UNL A   1      41.583  29.323  32.217  1.00  0.00    -0.354 N 
ATOM     60  N   UNL A   1      41.202  31.116  34.509  1.00  0.00    -0.248 NA
ATOM     61  C   UNL A   1      41.739  31.775  36.684  1.00  0.00     0.031 C 
ATOM     62  C   UNL A   1      43.273  27.883  32.282  1.00  0.00     0.029 A 
ATOM     63  C   UNL A   1      42.620  28.861  33.014  1.00  0.00     0.049 A 
ATOM     64  H   UNL A   1      40.946  30.028  32.473  1.00  0.00     0.167 HD
ATOM     65  C   UNL A   1      42.262  30.346  34.969  1.00  0.00     0.074 A 
ATOM     66  C   UNL A   1      42.574  30.820  36.300  1.00  0.00     0.031 C 
ATOM     67  C   UNL A   1      42.912  29.334  34.344  1.00  0.00     0.037 A 
BRANCH  54  68
ATOM     68  C   UNL A   1      40.672  27.948  28.755  1.00  0.00     0.064 A 
ATOM     69  C   UNL A   1      39.957  26.742  28.685  1.00  0.00     0.173 A 
ATOM     70  C   UNL A   1      41.431  28.322  27.635  1.00  0.00     0.173 A 
ATOM     71  F   UNL A   1      39.221  26.332  29.729  1.00  0.00    -0.203 F 
ATOM     72  C   UNL A   1      40.024  25.932  27.554  1.00  0.00     0.198 A 
ATOM     73  C   UNL A   1      41.470  27.526  26.494  1.00  0.00     0.198 A 
ATOM     74  F   UNL A   1      42.128  29.470  27.643  1.00  0.00    -0.203 F 
ATOM     75  F   UNL A   1      39.371  24.761  27.531  1.00  0.00    -0.200 F 
ATOM     76  C   UNL A   1      40.774  26.327  26.457  1.00  0.00     0.200 A 
ATOM     77  F   UNL A   1      42.183  27.918  25.428  1.00  0.00    -0.200 F 
ATOM     78  F   UNL A   1      40.831  25.551  25.366  1.00  0.00    -0.200 F 
ENDBRANCH  54  68
BRANCH  55  79
ATOM     79  C   UNL A   1      39.684  33.864  36.742  1.00  0.00     0.064 A 
ATOM     80  C   UNL A   1      38.880  33.449  37.813  1.00  0.00     0.173 A 
ATOM     81  C   UNL A   1      40.324  35.107  36.851  1.00  0.00     0.173 A 
ATOM     82  F   UNL A   1      38.229  32.279  37.747  1.00  0.00    -0.203 F 
ATOM     83  C   UNL A   1      38.710  34.252  38.939  1.00  0.00     0.198 A 
ATOM     84  C   UNL A   1      40.178  35.896  37.990  1.00  0.00     0.198 A 
ATOM     85  F   UNL A   1      41.106  35.550  35.855  1.00  0.00    -0.203 F 
ATOM     86  F   UNL A   1      37.900  33.852  39.928  1.00  0.00    -0.200 F 
ATOM     87  C   UNL A   1      39.365  35.472  39.029  1.00  0.00     0.200 A 
ATOM     88  F   UNL A   1      40.825  37.065  38.080  1.00  0.00    -0.200 F 
ATOM     89  F   UNL A   1      39.206  36.241  40.115  1.00  0.00    -0.200 F 
ENDBRANCH  55  79
BRANCH  67  90
ATOM     90  C   UNL A   1      44.033  28.673  35.095  1.00  0.00     0.064 A 
ATOM     91  C   UNL A   1      45.346  29.161  35.029  1.00  0.00     0.173 A 
ATOM     92  C   UNL A   1      43.785  27.564  35.919  1.00  0.00     0.173 A 
ATOM     93  F   UNL A   1      45.640  30.207  34.242  1.00  0.00    -0.203 F 
ATOM     94  C   UNL A   1      46.375  28.547  35.741  1.00  0.00     0.198 A 
ATOM     95  C   UNL A   1      44.809  26.975  36.653  1.00  0.00     0.198 A 
ATOM     96  F   UNL A   1      42.546  27.061  36.021  1.00  0.00    -0.203 F 
ATOM     97  F   UNL A   1      47.630  29.001  35.623  1.00  0.00    -0.200 F 
ATOM     98  C   UNL A   1      46.104  27.462  36.559  1.00  0.00     0.200 A 
ATOM     99  F   UNL A   1      44.544  25.934  37.455  1.00  0.00    -0.200 F 
ATOM    100  F   UNL A   1      47.093  26.879  37.250  1.00  0.00    -0.200 F 
ENDBRANCH  67  90
ENDBRANCH  41  42
ENDBRANCH  33  36
ENDBRANCH  31  32
ENDBRANCH  30  31
ENDBRANCH  29  30
ENDBRANCH   1  29
TORSDOF 17
ENDMDL
MODEL 2
REMARK VINA RESULT:     -11.7      2.053      4.179
REMARK SMILES COCCN1C(=O)c2ccccc2[C@@H](C(=O)NCCCCCCNC(=O)c2ccc(-c3c4nc(c(-c5c(F)c(F)c(F)c(F)c5F)c5ccc([nH]5)c(-c5c(F)c(F)c(F)c(F)c5F)c5nc(c(-c6c(F)c(F)c(F)c(F)c6F)c6ccc3[nH]6)C=C5)C=C4)cc2)[C@H]1c1nccn1C
REMARK SMILES IDX 20 1 19 2 18 3 17 4 15 5 16 6 14 8 5 9 6 10 90 11 7 12 8 13
REMARK SMILES IDX 9 14 13 15 10 16 12 17 11 18 4 19 3 20 2 21 1 22 91 23 92 24
REMARK SMILES IDX 95 25 93 26 94 27 96 28 21 29 22 30 23 31 24 32 25 33 26 35
REMARK SMILES IDX 27 36 28 37 89 38 29 39 88 40 30 41 31 42 32 43 82 44 33 45
REMARK SMILES IDX 87 46 81 47 83 48 34 49 86 50 80 51 79 52 35 54 67 55 47 56
REMARK SMILES IDX 66 57 48 58 51 59 65 60 84 61 49 62 50 63 64 65 85 66 52 67
REMARK SMILES IDX 36 68 37 69 45 70 38 71 39 72 43 73 46 74 40 75 41 76 44 77
REMARK SMILES IDX 42 78 68 79 69 80 77 81 70 82 71 83 75 84 78 85 72 86 73 87
REMARK SMILES IDX 76 88 74 89 53 90 54 91 62 92 55 93 56 94 60 95 63 96 57 97
REMARK SMILES IDX 58 98 61 99 59 100
REMARK H PARENT 17 7 24 34 83 53 51 64
REMARK Flexibility Score: inf
ROOT
ATOM      1  C   UNL A   1      30.644  26.334  25.663  1.00  0.00     0.002 C 
ENDROOT
BRANCH   1   2
ATOM      2  C   UNL A   1      29.857  25.632  24.554  1.00  0.00     0.021 C 
BRANCH   2   3
ATOM      3  C   UNL A   1      30.593  24.436  23.957  1.00  0.00     0.116 C 
BRANCH   3   4
ATOM      4  N   UNL A   1      30.857  23.391  24.921  1.00  0.00    -0.355 N 
ATOM      5  C   UNL A   1      31.935  22.588  25.075  1.00  0.00     0.230 C 
ATOM      6  O   UNL A   1      32.170  22.236  26.241  1.00  0.00    -0.274 OA
ATOM      7  H   UNL A   1      30.133  23.237  25.570  1.00  0.00     0.163 HD
BRANCH   5   8
ATOM      8  C   UNL A   1      32.861  22.100  23.960  1.00  0.00     0.139 C 
ATOM      9  N   UNL A   1      35.318  22.476  24.480  1.00  0.00    -0.325 N 
ATOM     10  C   UNL A   1      35.426  21.150  24.906  1.00  0.00     0.254 C 
ATOM     11  C   UNL A   1      34.137  22.900  23.628  1.00  0.00     0.169 C 
ATOM     12  O   UNL A   1      36.285  20.729  25.672  1.00  0.00    -0.269 OA
ATOM     13  C   UNL A   1      34.387  20.177  24.491  1.00  0.00     0.044 A 
ATOM     14  C   UNL A   1      34.640  18.805  24.626  1.00  0.00     0.014 A 
ATOM     15  C   UNL A   1      33.137  20.620  24.060  1.00  0.00    -0.020 A 
ATOM     16  C   UNL A   1      33.653  17.874  24.312  1.00  0.00     0.001 A 
ATOM     17  C   UNL A   1      32.146  19.674  23.746  1.00  0.00     0.005 A 
ATOM     18  C   UNL A   1      32.407  18.309  23.869  1.00  0.00     0.000 A 
BRANCH   9  19
ATOM     19  C   UNL A   1      36.477  23.397  24.607  1.00  0.00     0.149 C 
BRANCH  19  20
ATOM     20  C   UNL A   1      37.020  23.891  25.965  1.00  0.00     0.181 C 
BRANCH  20  21
ATOM     21  O   UNL A   1      38.444  23.801  26.086  1.00  0.00    -0.383 OA
ATOM     22  C   UNL A   1      38.933  22.473  26.169  1.00  0.00     0.194 C 
ENDBRANCH  20  21
ENDBRANCH  19  20
ENDBRANCH   9  19
BRANCH  11  23
ATOM     23  C   UNL A   1      33.995  24.433  23.412  1.00  0.00     0.132 A 
ATOM     24  N   UNL A   1      33.713  24.944  22.215  1.00  0.00    -0.239 NA
ATOM     25  N   UNL A   1      33.959  25.483  24.325  1.00  0.00    -0.336 N 
ATOM     26  C   UNL A   1      33.666  26.299  22.321  1.00  0.00     0.131 A 
ATOM     27  C   UNL A   1      33.851  26.663  23.621  1.00  0.00     0.107 A 
ATOM     28  C   UNL A   1      33.939  25.519  25.767  1.00  0.00     0.151 C 
ENDBRANCH  11  23
ENDBRANCH   5   8
ENDBRANCH   3   4
ENDBRANCH   2   3
ENDBRANCH   1   2
BRANCH   1  29
ATOM     29  C   UNL A   1      31.039  27.785  25.352  1.00  0.00     0.002 C 
BRANCH  29  30
ATOM     30  C   UNL A   1      31.809  28.513  26.458  1.00  0.00     0.021 C 
BRANCH  30  31
ATOM     31  C   UNL A   1      32.952  29.401  25.968  1.00  0.00     0.116 C 
BRANCH  31  32
ATOM     32  N   UNL A   1      32.725  30.804  26.282  1.00  0.00    -0.352 N 
ATOM     33  C   UNL A   1      33.341  31.628  27.187  1.00  0.00     0.251 C 
ATOM     34  H   UNL A   1      32.010  31.233  25.757  1.00  0.00     0.163 HD
ATOM     35  O   UNL A   1      32.829  32.704  27.484  1.00  0.00    -0.269 OA
BRANCH  33  36
ATOM     36  C   UNL A   1      34.617  31.230  27.817  1.00  0.00     0.039 A 
ATOM     37  C   UNL A   1      35.643  32.175  27.920  1.00  0.00     0.014 A 
ATOM     38  C   UNL A   1      34.821  29.923  28.266  1.00  0.00     0.014 A 
ATOM     39  C   UNL A   1      36.845  31.829  28.540  1.00  0.00     0.010 A 
ATOM     40  C   UNL A   1      35.993  29.598  28.943  1.00  0.00     0.010 A 
ATOM     41  C   UNL A   1      37.013  30.550  29.095  1.00  0.00    -0.014 A 
BRANCH  41  42
ATOM     42  C   UNL A   1      38.225  30.208  29.880  1.00  0.00     0.031 A 
ATOM     43  C   UNL A   1      39.254  29.263  29.330  1.00  0.00     0.074 A 
ATOM     44  C   UNL A   1      38.356  30.699  31.128  1.00  0.00     0.049 A 
ATOM     45  N   UNL A   1      40.337  28.796  29.899  1.00  0.00    -0.248 NA
ATOM     46  C   UNL A   1      39.027  28.761  27.966  1.00  0.00     0.031 C 
ATOM     47  C   UNL A   1      37.400  31.590  31.787  1.00  0.00     0.029 A 
ATOM     48  N   UNL A   1      39.335  30.506  32.070  1.00  0.00    -0.354 N 
ATOM     49  C   UNL A   1      40.914  27.940  28.970  1.00  0.00     0.074 A 
ATOM     50  C   UNL A   1      40.038  27.916  27.818  1.00  0.00     0.031 C 
ATOM     51  C   UNL A   1      37.848  31.881  33.018  1.00  0.00     0.029 A 
ATOM     52  C   UNL A   1      39.095  31.162  33.253  1.00  0.00     0.049 A 
ATOM     53  H   UNL A   1      40.133  29.951  31.913  1.00  0.00     0.167 HD
ATOM     54  C   UNL A   1      42.078  27.254  29.066  1.00  0.00     0.037 A 
ATOM     55  C   UNL A   1      39.792  31.167  34.405  1.00  0.00     0.037 A 
ATOM     56  C   UNL A   1      42.948  27.289  30.214  1.00  0.00     0.049 A 
ATOM     57  C   UNL A   1      41.059  30.363  34.498  1.00  0.00     0.074 A 
ATOM     58  C   UNL A   1      44.182  26.684  30.381  1.00  0.00     0.029 A 
ATOM     59  N   UNL A   1      42.666  27.955  31.398  1.00  0.00    -0.354 N 
ATOM     60  N   UNL A   1      41.640  29.624  33.583  1.00  0.00    -0.248 NA
ATOM     61  C   UNL A   1      41.768  30.393  35.784  1.00  0.00     0.031 C 
ATOM     62  C   UNL A   1      44.617  26.932  31.687  1.00  0.00     0.029 A 
ATOM     63  C   UNL A   1      43.684  27.741  32.316  1.00  0.00     0.049 A 
ATOM     64  H   UNL A   1      41.863  28.499  31.563  1.00  0.00     0.167 HD
ATOM     65  C   UNL A   1      42.786  29.114  34.177  1.00  0.00     0.074 A 
ATOM     66  C   UNL A   1      42.834  29.650  35.521  1.00  0.00     0.031 C 
ATOM     67  C   UNL A   1      43.712  28.272  33.656  1.00  0.00     0.037 A 
BRANCH  54  68
ATOM     68  C   UNL A   1      42.480  26.399  27.898  1.00  0.00     0.064 A 
ATOM     69  C   UNL A   1      42.040  25.072  27.770  1.00  0.00     0.173 A 
ATOM     70  C   UNL A   1      43.283  26.922  26.872  1.00  0.00     0.173 A 
ATOM     71  F   UNL A   1      41.277  24.518  28.724  1.00  0.00    -0.203 F 
ATOM     72  C   UNL A   1      42.414  24.294  26.676  1.00  0.00     0.198 A 
ATOM     73  C   UNL A   1      43.627  26.153  25.765  1.00  0.00     0.198 A 
ATOM     74  F   UNL A   1      43.724  28.188  26.938  1.00  0.00    -0.203 F 
ATOM     75  F   UNL A   1      42.021  23.014  26.601  1.00  0.00    -0.200 F 
ATOM     76  C   UNL A   1      43.201  24.836  25.672  1.00  0.00     0.200 A 
ATOM     77  F   UNL A   1      44.374  26.684  24.787  1.00  0.00    -0.200 F 
ATOM     78  F   UNL A   1      43.552  24.090  24.616  1.00  0.00    -0.200 F 
ENDBRANCH  54  68
BRANCH  55  79
ATOM     79  C   UNL A   1      39.305  31.966  35.560  1.00  0.00     0.064 A 
ATOM     80  C   UNL A   1      39.695  33.302  35.725  1.00  0.00     0.173 A 
ATOM     81  C   UNL A   1      38.442  31.415  36.518  1.00  0.00     0.173 A 
ATOM     82  F   UNL A   1      40.537  33.867  34.848  1.00  0.00    -0.203 F 
ATOM     83  C   UNL A   1      39.252  34.051  36.813  1.00  0.00     0.198 A 
ATOM     84  C   UNL A   1      37.976  32.174  37.589  1.00  0.00     0.198 A 
ATOM     85  F   UNL A   1      38.037  30.141  36.406  1.00  0.00    -0.203 F 
ATOM     86  F   UNL A   1      39.676  35.312  36.971  1.00  0.00    -0.200 F 
ATOM     87  C   UNL A   1      38.387  33.489  37.740  1.00  0.00     0.200 A 
ATOM     88  F   UNL A   1      37.128  31.631  38.473  1.00  0.00    -0.200 F 
ATOM     89  F   UNL A   1      37.957  34.212  38.783  1.00  0.00    -0.200 F 
ENDBRANCH  55  79
BRANCH  67  90
ATOM     90  C   UNL A   1      44.861  27.883  34.542  1.00  0.00     0.064 A 
ATOM     91  C   UNL A   1      46.031  28.654  34.605  1.00  0.00     0.173 A 
ATOM     92  C   UNL A   1      44.776  26.749  35.365  1.00  0.00     0.173 A 
ATOM     93  F   UNL A   1      46.170  29.737  33.826  1.00  0.00    -0.203 F 
ATOM     94  C   UNL A   1      47.084  28.290  35.442  1.00  0.00     0.198 A 
ATOM     95  C   UNL A   1      45.818  26.408  36.223  1.00  0.00     0.198 A 
ATOM     96  F   UNL A   1      43.678  25.980  35.347  1.00  0.00    -0.203 F 
ATOM     97  F   UNL A   1      48.212  29.014  35.449  1.00  0.00    -0.200 F 
ATOM     98  C   UNL A   1      46.972  27.174  36.256  1.00  0.00     0.200 A 
ATOM     99  F   UNL A   1      45.703  25.337  37.021  1.00  0.00    -0.200 F 
ATOM    100  F   UNL A   1      47.983  26.831  37.067  1.00  0.00    -0.200 F 
ENDBRANCH  67  90
ENDBRANCH  41  42
ENDBRANCH  33  36
ENDBRANCH  31  32
ENDBRANCH  30  31
ENDBRANCH  29  30
ENDBRANCH   1  29
TORSDOF 17
ENDMDL
MODEL 3
REMARK VINA RESULT:     -11.1      0.656      7.172
REMARK SMILES COCCN1C(=O)c2ccccc2[C@@H](C(=O)NCCCCCCNC(=O)c2ccc(-c3c4nc(c(-c5c(F)c(F)c(F)c(F)c5F)c5ccc([nH]5)c(-c5c(F)c(F)c(F)c(F)c5F)c5nc(c(-c6c(F)c(F)c(F)c(F)c6F)c6ccc3[nH]6)C=C5)C=C4)cc2)[C@H]1c1nccn1C
REMARK SMILES IDX 20 1 19 2 18 3 17 4 15 5 16 6 14 8 5 9 6 10 90 11 7 12 8 13
REMARK SMILES IDX 9 14 13 15 10 16 12 17 11 18 4 19 3 20 2 21 1 22 91 23 92 24
REMARK SMILES IDX 95 25 93 26 94 27 96 28 21 29 22 30 23 31 24 32 25 33 26 35
REMARK SMILES IDX 27 36 28 37 89 38 29 39 88 40 30 41 31 42 32 43 82 44 33 45
REMARK SMILES IDX 87 46 81 47 83 48 34 49 86 50 80 51 79 52 35 54 67 55 47 56
REMARK SMILES IDX 66 57 48 58 51 59 65 60 84 61 49 62 50 63 64 65 85 66 52 67
REMARK SMILES IDX 36 68 37 69 45 70 38 71 39 72 43 73 46 74 40 75 41 76 44 77
REMARK SMILES IDX 42 78 68 79 69 80 77 81 70 82 71 83 75 84 78 85 72 86 73 87
REMARK SMILES IDX 76 88 74 89 53 90 54 91 62 92 55 93 56 94 60 95 63 96 57 97
REMARK SMILES IDX 58 98 61 99 59 100
REMARK H PARENT 17 7 24 34 83 53 51 64
REMARK Flexibility Score: inf
ROOT
ATOM      1  C   UNL A   1      31.182  30.152  25.443  1.00  0.00     0.002 C 
ENDROOT
BRANCH   1   2
ATOM      2  C   UNL A   1      31.812  29.363  26.593  1.00  0.00     0.021 C 
BRANCH   2   3
ATOM      3  C   UNL A   1      32.214  27.944  26.201  1.00  0.00     0.116 C 
BRANCH   3   4
ATOM      4  N   UNL A   1      33.368  27.898  25.330  1.00  0.00    -0.355 N 
ATOM      5  C   UNL A   1      33.452  27.749  23.988  1.00  0.00     0.230 C 
ATOM      6  O   UNL A   1      34.416  28.315  23.452  1.00  0.00    -0.274 OA
ATOM      7  H   UNL A   1      34.234  27.990  25.789  1.00  0.00     0.163 HD
BRANCH   5   8
ATOM      8  C   UNL A   1      32.478  26.964  23.107  1.00  0.00     0.139 C 
ATOM      9  N   UNL A   1      31.221  25.165  24.382  1.00  0.00    -0.325 N 
ATOM     10  C   UNL A   1      30.128  26.026  24.512  1.00  0.00     0.254 C 
ATOM     11  C   UNL A   1      32.288  25.453  23.345  1.00  0.00     0.169 C 
ATOM     12  O   UNL A   1      29.266  25.936  25.378  1.00  0.00    -0.269 OA
ATOM     13  C   UNL A   1      30.028  27.197  23.608  1.00  0.00     0.044 A 
ATOM     14  C   UNL A   1      28.806  27.875  23.498  1.00  0.00     0.014 A 
ATOM     15  C   UNL A   1      31.158  27.677  22.947  1.00  0.00    -0.020 A 
ATOM     16  C   UNL A   1      28.707  29.021  22.713  1.00  0.00     0.001 A 
ATOM     17  C   UNL A   1      31.049  28.834  22.157  1.00  0.00     0.005 A 
ATOM     18  C   UNL A   1      29.827  29.498  22.040  1.00  0.00     0.000 A 
BRANCH   9  19
ATOM     19  C   UNL A   1      31.202  23.833  25.041  1.00  0.00     0.149 C 
BRANCH  19  20
ATOM     20  C   UNL A   1      31.596  23.614  26.518  1.00  0.00     0.181 C 
BRANCH  20  21
ATOM     21  O   UNL A   1      32.320  22.400  26.750  1.00  0.00    -0.383 OA
ATOM     22  C   UNL A   1      33.120  22.422  27.920  1.00  0.00     0.194 C 
ENDBRANCH  20  21
ENDBRANCH  19  20
ENDBRANCH   9  19
BRANCH  11  23
ATOM     23  C   UNL A   1      33.564  24.569  23.447  1.00  0.00     0.132 A 
ATOM     24  N   UNL A   1      34.049  23.922  22.389  1.00  0.00    -0.239 NA
ATOM     25  N   UNL A   1      34.480  24.408  24.482  1.00  0.00    -0.336 N 
ATOM     26  C   UNL A   1      35.150  23.223  22.774  1.00  0.00     0.131 A 
ATOM     27  C   UNL A   1      35.421  23.482  24.084  1.00  0.00     0.107 A 
ATOM     28  C   UNL A   1      34.629  25.058  25.761  1.00  0.00     0.151 C 
ENDBRANCH  11  23
ENDBRANCH   5   8
ENDBRANCH   3   4
ENDBRANCH   2   3
ENDBRANCH   1   2
BRANCH   1  29
ATOM     29  C   UNL A   1      30.931  31.637  25.745  1.00  0.00     0.002 C 
BRANCH  29  30
ATOM     30  C   UNL A   1      31.416  32.125  27.115  1.00  0.00     0.021 C 
BRANCH  30  31
ATOM     31  C   UNL A   1      32.732  32.899  27.092  1.00  0.00     0.116 C 
BRANCH  31  32
ATOM     32  N   UNL A   1      32.578  34.251  27.611  1.00  0.00    -0.352 N 
ATOM     33  C   UNL A   1      33.130  34.854  28.711  1.00  0.00     0.251 C 
ATOM     34  H   UNL A   1      31.977  34.828  27.085  1.00  0.00     0.163 HD
ATOM     35  O   UNL A   1      32.670  35.915  29.124  1.00  0.00    -0.269 OA
BRANCH  33  36
ATOM     36  C   UNL A   1      34.274  34.233  29.412  1.00  0.00     0.039 A 
ATOM     37  C   UNL A   1      34.023  33.411  30.516  1.00  0.00     0.014 A 
ATOM     38  C   UNL A   1      35.587  34.490  29.014  1.00  0.00     0.014 A 
ATOM     39  C   UNL A   1      35.086  32.789  31.172  1.00  0.00     0.010 A 
ATOM     40  C   UNL A   1      36.642  33.818  29.626  1.00  0.00     0.010 A 
ATOM     41  C   UNL A   1      36.401  32.953  30.705  1.00  0.00    -0.014 A 
BRANCH  41  42
ATOM     42  C   UNL A   1      37.527  32.192  31.300  1.00  0.00     0.031 A 
ATOM     43  C   UNL A   1      38.055  32.541  32.662  1.00  0.00     0.074 A 
ATOM     44  C   UNL A   1      38.122  31.228  30.571  1.00  0.00     0.049 A 
ATOM     45  N   UNL A   1      39.073  32.034  33.310  1.00  0.00    -0.248 NA
ATOM     46  C   UNL A   1      37.358  33.616  33.384  1.00  0.00     0.031 C 
ATOM     47  C   UNL A   1      37.726  30.829  29.219  1.00  0.00     0.029 A 
ATOM     48  N   UNL A   1      39.194  30.419  30.856  1.00  0.00    -0.354 N 
ATOM     49  C   UNL A   1      39.146  32.731  34.508  1.00  0.00     0.074 A 
ATOM     50  C   UNL A   1      38.098  33.730  34.478  1.00  0.00     0.031 C 
ATOM     51  C   UNL A   1      38.532  29.841  28.800  1.00  0.00     0.029 A 
ATOM     52  C   UNL A   1      39.527  29.569  29.831  1.00  0.00     0.049 A 
ATOM     53  H   UNL A   1      39.677  30.446  31.714  1.00  0.00     0.167 HD
ATOM     54  C   UNL A   1      39.998  32.542  35.544  1.00  0.00     0.037 A 
ATOM     55  C   UNL A   1      40.535  28.682  29.725  1.00  0.00     0.037 A 
ATOM     56  C   UNL A   1      41.034  31.541  35.568  1.00  0.00     0.049 A 
ATOM     57  C   UNL A   1      41.492  28.521  30.874  1.00  0.00     0.074 A 
ATOM     58  C   UNL A   1      41.905  31.224  36.597  1.00  0.00     0.029 A 
ATOM     59  N   UNL A   1      41.351  30.705  34.506  1.00  0.00    -0.354 N 
ATOM     60  N   UNL A   1      41.500  29.128  32.036  1.00  0.00    -0.248 NA
ATOM     61  C   UNL A   1      42.582  27.552  30.695  1.00  0.00     0.031 C 
ATOM     62  C   UNL A   1      42.786  30.240  36.137  1.00  0.00     0.029 A 
ATOM     63  C   UNL A   1      42.430  29.902  34.841  1.00  0.00     0.049 A 
ATOM     64  H   UNL A   1      40.879  30.686  33.643  1.00  0.00     0.167 HD
ATOM     65  C   UNL A   1      42.582  28.605  32.731  1.00  0.00     0.074 A 
ATOM     66  C   UNL A   1      43.190  27.612  31.871  1.00  0.00     0.031 C 
ATOM     67  C   UNL A   1      43.033  28.925  33.969  1.00  0.00     0.037 A 
BRANCH  54  68
ATOM     68  C   UNL A   1      39.852  33.439  36.740  1.00  0.00     0.064 A 
ATOM     69  C   UNL A   1      40.599  34.620  36.871  1.00  0.00     0.173 A 
ATOM     70  C   UNL A   1      38.924  33.138  37.749  1.00  0.00     0.173 A 
ATOM     71  F   UNL A   1      41.505  34.953  35.940  1.00  0.00    -0.203 F 
ATOM     72  C   UNL A   1      40.445  35.448  37.982  1.00  0.00     0.198 A 
ATOM     73  C   UNL A   1      38.750  33.983  38.841  1.00  0.00     0.198 A 
ATOM     74  F   UNL A   1      38.175  32.027  37.670  1.00  0.00    -0.203 F 
ATOM     75  F   UNL A   1      41.206  36.544  38.108  1.00  0.00    -0.200 F 
ATOM     76  C   UNL A   1      39.517  35.133  38.962  1.00  0.00     0.200 A 
ATOM     77  F   UNL A   1      37.839  33.686  39.779  1.00  0.00    -0.200 F 
ATOM     78  F   UNL A   1      39.363  35.934  40.025  1.00  0.00    -0.200 F 
ENDBRANCH  54  68
BRANCH  55  79
ATOM     79  C   UNL A   1      40.685  27.877  28.485  1.00  0.00     0.064 A 
ATOM     80  C   UNL A   1      40.084  26.616  28.369  1.00  0.00     0.173 A 
ATOM     81  C   UNL A   1      41.426  28.349  27.392  1.00  0.00     0.173 A 
ATOM     82  F   UNL A   1      39.384  26.112  29.396  1.00  0.00    -0.203 F 
ATOM     83  C   UNL A   1      40.232  25.852  27.214  1.00  0.00     0.198 A 
ATOM     84  C   UNL A   1      41.548  27.597  26.225  1.00  0.00     0.198 A 
ATOM     85  F   UNL A   1      42.020  29.550  27.450  1.00  0.00    -0.203 F 
ATOM     86  F   UNL A   1      39.685  24.630  27.147  1.00  0.00    -0.200 F 
ATOM     87  C   UNL A   1      40.958  26.346  26.140  1.00  0.00     0.200 A 
ATOM     88  F   UNL A   1      42.237  28.085  25.185  1.00  0.00    -0.200 F 
ATOM     89  F   UNL A   1      41.095  25.613  25.027  1.00  0.00    -0.200 F 
ENDBRANCH  55  79
BRANCH  67  90
ATOM     90  C   UNL A   1      44.243  28.187  34.470  1.00  0.00     0.064 A 
ATOM     91  C   UNL A   1      44.128  26.954  35.127  1.00  0.00     0.173 A 
ATOM     92  C   UNL A   1      45.531  28.701  34.256  1.00  0.00     0.173 A 
ATOM     93  F   UNL A   1      42.919  26.428  35.372  1.00  0.00    -0.203 F 
ATOM     94  C   UNL A   1      45.259  26.273  35.574  1.00  0.00     0.198 A 
ATOM     95  C   UNL A   1      46.659  28.001  34.675  1.00  0.00     0.198 A 
ATOM     96  F   UNL A   1      45.697  29.874  33.628  1.00  0.00    -0.203 F 
ATOM     97  F   UNL A   1      45.122  25.121  36.244  1.00  0.00    -0.200 F 
ATOM     98  C   UNL A   1      46.522  26.793  35.339  1.00  0.00     0.200 A 
ATOM     99  F   UNL A   1      47.881  28.497  34.435  1.00  0.00    -0.200 F 
ATOM    100  F   UNL A   1      47.609  26.131  35.762  1.00  0.00    -0.200 F 
ENDBRANCH  67  90
ENDBRANCH  41  42
ENDBRANCH  33  36
ENDBRANCH  31  32
ENDBRANCH  30  31
ENDBRANCH  29  30
ENDBRANCH   1  29
TORSDOF 17
ENDMDL
