MODEL 1
REMARK VINA RESULT:      -9.6      0.000      0.000
REMARK SMILES CC(C)C[C@@H](CNC(=O)N(C)CCC#N)C(=O)NCCCCCCNC(=O)c1ccc(-c2c3nc(c(-c4c(F)c(F)c(F)c(F)c4F)c4ccc([nH]4)c(-c4c(F)c(F)c(F)c(F)c4F)c4nc(c(-c5c(F)c(F)c(F)c(F)c5F)c5ccc2[nH]5)C=C4)C=C3)cc1
REMARK SMILES IDX 19 1 18 2 16 3 17 4 5 6 4 7 2 8 1 9 3 10 6 11 7 12 8 13 9 15
REMARK SMILES IDX 10 16 11 17 12 18 13 19 14 20 15 21 20 22 21 23 22 24 23 25
REMARK SMILES IDX 24 26 25 27 26 28 27 30 28 31 29 32 90 33 30 34 89 35 31 36
REMARK SMILES IDX 32 37 33 38 83 39 34 40 88 41 82 42 84 43 35 44 87 45 81 46
REMARK SMILES IDX 80 47 36 49 68 50 48 51 67 52 49 53 52 54 66 55 85 56 50 57
REMARK SMILES IDX 51 58 65 60 86 61 53 62 37 63 38 64 46 65 39 66 40 67 44 68
REMARK SMILES IDX 47 69 41 70 42 71 45 72 43 73 69 74 70 75 78 76 71 77 72 78
REMARK SMILES IDX 76 79 79 80 73 81 74 82 77 83 75 84 54 85 55 86 63 87 56 88
REMARK SMILES IDX 57 89 61 90 64 91 58 92 59 93 62 94 60 95
REMARK H PARENT 18 5 7 14 25 29 84 48 52 59
REMARK Flexibility Score: inf
ROOT
ATOM      1  C   UNL A   1      32.695  21.059  25.642  1.00  0.00     0.116 C 
ENDROOT
BRANCH   1   2
ATOM      2  N   UNL A   1      32.086  21.936  26.626  1.00  0.00    -0.356 N 
ATOM      3  C   UNL A   1      31.729  23.245  26.573  1.00  0.00     0.224 C 
ATOM      4  O   UNL A   1      30.939  23.639  27.441  1.00  0.00    -0.275 OA
ATOM      5  H   UNL A   1      31.900  21.503  27.490  1.00  0.00     0.163 HD
BRANCH   3   6
ATOM      6  C   UNL A   1      32.220  24.236  25.515  1.00  0.00     0.098 C 
BRANCH   6   7
ATOM      7  C   UNL A   1      31.255  24.442  24.330  1.00  0.00     0.018 C 
BRANCH   7   8
ATOM      8  C   UNL A   1      31.455  25.696  23.456  1.00  0.00    -0.017 C 
ATOM      9  C   UNL A   1      31.873  25.375  22.023  1.00  0.00     0.007 C 
ATOM     10  C   UNL A   1      30.152  26.508  23.435  1.00  0.00     0.007 C 
ENDBRANCH   7   8
ENDBRANCH   6   7
BRANCH   6  11
ATOM     11  C   UNL A   1      32.904  25.456  26.162  1.00  0.00     0.131 C 
BRANCH  11  12
ATOM     12  N   UNL A   1      32.015  26.516  26.580  1.00  0.00    -0.337 N 
ATOM     13  C   UNL A   1      32.178  27.741  27.091  1.00  0.00     0.317 C 
ATOM     14  H   UNL A   1      31.065  26.281  26.462  1.00  0.00     0.165 HD
ATOM     15  O   UNL A   1      31.381  27.973  27.998  1.00  0.00    -0.249 OA
BRANCH  13  16
ATOM     16  N   UNL A   1      33.051  28.690  26.651  1.00  0.00    -0.327 N 
ATOM     17  C   UNL A   1      33.497  29.875  27.362  1.00  0.00     0.148 C 
BRANCH  16  18
ATOM     18  C   UNL A   1      33.689  28.491  25.315  1.00  0.00     0.136 C 
BRANCH  18  19
ATOM     19  C   UNL A   1      32.947  29.081  24.078  1.00  0.00     0.141 C 
BRANCH  19  20
ATOM     20  C   UNL A   1      33.674  28.612  22.829  1.00  0.00     0.064 C 
ATOM     21  N   UNL A   1      34.276  28.222  21.792  1.00  0.00    -0.198 NA
ENDBRANCH  19  20
ENDBRANCH  18  19
ENDBRANCH  16  18
ENDBRANCH  13  16
ENDBRANCH  11  12
ENDBRANCH   6  11
ENDBRANCH   3   6
ENDBRANCH   1   2
BRANCH   1  22
ATOM     22  C   UNL A   1      34.220  21.117  25.640  1.00  0.00     0.021 C 
BRANCH  22  23
ATOM     23  C   UNL A   1      34.827  21.494  24.281  1.00  0.00     0.002 C 
BRANCH  23  24
ATOM     24  C   UNL A   1      34.882  22.994  23.960  1.00  0.00     0.002 C 
BRANCH  24  25
ATOM     25  C   UNL A   1      36.219  23.694  24.227  1.00  0.00     0.021 C 
BRANCH  25  26
ATOM     26  C   UNL A   1      36.687  23.676  25.680  1.00  0.00     0.116 C 
BRANCH  26  27
ATOM     27  N   UNL A   1      37.730  22.692  25.919  1.00  0.00    -0.352 N 
ATOM     28  C   UNL A   1      38.991  22.849  26.435  1.00  0.00     0.251 C 
ATOM     29  H   UNL A   1      37.495  21.769  25.672  1.00  0.00     0.163 HD
ATOM     30  O   UNL A   1      39.778  21.908  26.424  1.00  0.00    -0.269 OA
BRANCH  28  31
ATOM     31  C   UNL A   1      39.421  24.151  26.995  1.00  0.00     0.039 A 
ATOM     32  C   UNL A   1      40.066  25.059  26.150  1.00  0.00     0.014 A 
ATOM     33  C   UNL A   1      39.244  24.460  28.347  1.00  0.00     0.014 A 
ATOM     34  C   UNL A   1      40.493  26.292  26.647  1.00  0.00     0.010 A 
ATOM     35  C   UNL A   1      39.618  25.713  28.829  1.00  0.00     0.010 A 
ATOM     36  C   UNL A   1      40.254  26.637  27.986  1.00  0.00    -0.014 A 
BRANCH  36  37
ATOM     37  C   UNL A   1      40.684  27.953  28.524  1.00  0.00     0.031 A 
ATOM     38  C   UNL A   1      42.128  28.194  28.865  1.00  0.00     0.074 A 
ATOM     39  C   UNL A   1      39.768  28.915  28.745  1.00  0.00     0.049 A 
ATOM     40  N   UNL A   1      42.691  29.250  29.397  1.00  0.00    -0.248 NA
ATOM     41  C   UNL A   1      43.062  27.090  28.593  1.00  0.00     0.031 C 
ATOM     42  C   UNL A   1      38.333  28.788  28.496  1.00  0.00     0.029 A 
ATOM     43  N   UNL A   1      39.909  30.187  29.242  1.00  0.00    -0.354 N 
ATOM     44  C   UNL A   1      44.036  28.935  29.532  1.00  0.00     0.074 A 
ATOM     45  C   UNL A   1      44.200  27.573  29.074  1.00  0.00     0.031 C 
ATOM     46  C   UNL A   1      37.726  29.939  28.827  1.00  0.00     0.029 A 
ATOM     47  C   UNL A   1      38.724  30.873  29.338  1.00  0.00     0.049 A 
ATOM     48  H   UNL A   1      40.778  30.570  29.505  1.00  0.00     0.167 HD
ATOM     49  C   UNL A   1      45.048  29.720  29.974  1.00  0.00     0.037 A 
ATOM     50  C   UNL A   1      38.473  32.116  29.793  1.00  0.00     0.037 A 
ATOM     51  C   UNL A   1      44.888  31.081  30.412  1.00  0.00     0.049 A 
ATOM     52  C   UNL A   1      39.616  32.969  30.269  1.00  0.00     0.074 A 
ATOM     53  C   UNL A   1      45.855  31.967  30.856  1.00  0.00     0.029 A 
ATOM     54  N   UNL A   1      43.677  31.756  30.456  1.00  0.00    -0.354 N 
ATOM     55  N   UNL A   1      40.892  32.677  30.345  1.00  0.00    -0.248 NA
ATOM     56  C   UNL A   1      39.286  34.332  30.711  1.00  0.00     0.031 C 
ATOM     57  C   UNL A   1      45.224  33.170  31.194  1.00  0.00     0.029 A 
ATOM     58  C   UNL A   1      43.871  33.046  30.923  1.00  0.00     0.049 A 
ATOM     59  H   UNL A   1      42.808  31.375  30.195  1.00  0.00     0.167 HD
ATOM     60  C   UNL A   1      41.519  33.824  30.813  1.00  0.00     0.074 A 
ATOM     61  C   UNL A   1      40.486  34.823  30.989  1.00  0.00     0.031 C 
ATOM     62  C   UNL A   1      42.833  34.032  31.075  1.00  0.00     0.037 A 
BRANCH  49  63
ATOM     63  C   UNL A   1      46.425  29.123  29.993  1.00  0.00     0.064 A 
ATOM     64  C   UNL A   1      47.319  29.312  28.928  1.00  0.00     0.173 A 
ATOM     65  C   UNL A   1      46.871  28.383  31.099  1.00  0.00     0.173 A 
ATOM     66  F   UNL A   1      46.937  30.001  27.842  1.00  0.00    -0.203 F 
ATOM     67  C   UNL A   1      48.596  28.759  28.956  1.00  0.00     0.198 A 
ATOM     68  C   UNL A   1      48.158  27.857  31.137  1.00  0.00     0.198 A 
ATOM     69  F   UNL A   1      46.059  28.179  32.147  1.00  0.00    -0.203 F 
ATOM     70  F   UNL A   1      49.415  28.913  27.906  1.00  0.00    -0.200 F 
ATOM     71  C   UNL A   1      49.017  28.038  30.063  1.00  0.00     0.200 A 
ATOM     72  F   UNL A   1      48.569  27.170  32.212  1.00  0.00    -0.200 F 
ATOM     73  F   UNL A   1      50.249  27.512  30.091  1.00  0.00    -0.200 F 
ENDBRANCH  49  63
BRANCH  50  74
ATOM     74  C   UNL A   1      37.083  32.640  29.793  1.00  0.00     0.064 A 
ATOM     75  C   UNL A   1      36.246  32.458  30.904  1.00  0.00     0.173 A 
ATOM     76  C   UNL A   1      36.559  33.317  28.683  1.00  0.00     0.173 A 
ATOM     77  F   UNL A   1      36.696  31.796  31.980  1.00  0.00    -0.203 F 
ATOM     78  C   UNL A   1      34.930  32.913  30.894  1.00  0.00     0.198 A 
ATOM     79  C   UNL A   1      35.250  33.794  28.685  1.00  0.00     0.198 A 
ATOM     80  F   UNL A   1      37.320  33.517  27.597  1.00  0.00    -0.203 F 
ATOM     81  F   UNL A   1      34.136  32.681  31.948  1.00  0.00    -0.200 F 
ATOM     82  C   UNL A   1      34.434  33.584  29.786  1.00  0.00     0.200 A 
ATOM     83  F   UNL A   1      34.777  34.451  27.617  1.00  0.00    -0.200 F 
ATOM     84  F   UNL A   1      33.166  34.019  29.776  1.00  0.00    -0.200 F 
ENDBRANCH  50  74
BRANCH  62  85
ATOM     85  C   UNL A   1      43.230  35.402  31.536  1.00  0.00     0.064 A 
ATOM     86  C   UNL A   1      43.189  35.765  32.891  1.00  0.00     0.173 A 
ATOM     87  C   UNL A   1      43.686  36.355  30.613  1.00  0.00     0.173 A 
ATOM     88  F   UNL A   1      42.746  34.894  33.809  1.00  0.00    -0.203 F 
ATOM     89  C   UNL A   1      43.563  37.042  33.300  1.00  0.00     0.198 A 
ATOM     90  C   UNL A   1      44.085  37.622  31.028  1.00  0.00     0.198 A 
ATOM     91  F   UNL A   1      43.750  36.054  29.307  1.00  0.00    -0.203 F 
ATOM     92  F   UNL A   1      43.470  37.383  34.592  1.00  0.00    -0.200 F 
ATOM     93  C   UNL A   1      44.017  37.967  32.370  1.00  0.00     0.200 A 
ATOM     94  F   UNL A   1      44.533  38.511  30.131  1.00  0.00    -0.200 F 
ATOM     95  F   UNL A   1      44.379  39.194  32.766  1.00  0.00    -0.200 F 
ENDBRANCH  62  85
ENDBRANCH  36  37
ENDBRANCH  28  31
ENDBRANCH  26  27
ENDBRANCH  25  26
ENDBRANCH  24  25
ENDBRANCH  23  24
ENDBRANCH  22  23
ENDBRANCH   1  22
TORSDOF 21
ENDMDL
MODEL 2
REMARK VINA RESULT:      -9.5      2.896      4.375
REMARK SMILES CC(C)C[C@@H](CNC(=O)N(C)CCC#N)C(=O)NCCCCCCNC(=O)c1ccc(-c2c3nc(c(-c4c(F)c(F)c(F)c(F)c4F)c4ccc([nH]4)c(-c4c(F)c(F)c(F)c(F)c4F)c4nc(c(-c5c(F)c(F)c(F)c(F)c5F)c5ccc2[nH]5)C=C4)C=C3)cc1
REMARK SMILES IDX 19 1 18 2 16 3 17 4 5 6 4 7 2 8 1 9 3 10 6 11 7 12 8 13 9 15
REMARK SMILES IDX 10 16 11 17 12 18 13 19 14 20 15 21 20 22 21 23 22 24 23 25
REMARK SMILES IDX 24 26 25 27 26 28 27 30 28 31 29 32 90 33 30 34 89 35 31 36
REMARK SMILES IDX 32 37 33 38 83 39 34 40 88 41 82 42 84 43 35 44 87 45 81 46
REMARK SMILES IDX 80 47 36 49 68 50 48 51 67 52 49 53 52 54 66 55 85 56 50 57
REMARK SMILES IDX 51 58 65 60 86 61 53 62 37 63 38 64 46 65 39 66 40 67 44 68
REMARK SMILES IDX 47 69 41 70 42 71 45 72 43 73 69 74 70 75 78 76 71 77 72 78
REMARK SMILES IDX 76 79 79 80 73 81 74 82 77 83 75 84 54 85 55 86 63 87 56 88
REMARK SMILES IDX 57 89 61 90 64 91 58 92 59 93 62 94 60 95
REMARK H PARENT 18 5 7 14 25 29 84 48 52 59
REMARK Flexibility Score: inf
ROOT
ATOM      1  C   UNL A   1      33.450  21.287  24.575  1.00  0.00     0.116 C 
ENDROOT
BRANCH   1   2
ATOM      2  N   UNL A   1      32.937  21.632  25.889  1.00  0.00    -0.356 N 
ATOM      3  C   UNL A   1      33.145  22.711  26.687  1.00  0.00     0.224 C 
ATOM      4  O   UNL A   1      32.328  22.890  27.599  1.00  0.00    -0.275 OA
ATOM      5  H   UNL A   1      32.328  20.960  26.272  1.00  0.00     0.163 HD
BRANCH   3   6
ATOM      6  C   UNL A   1      34.293  23.709  26.514  1.00  0.00     0.098 C 
BRANCH   6   7
ATOM      7  C   UNL A   1      35.684  23.064  26.347  1.00  0.00     0.018 C 
BRANCH   7   8
ATOM      8  C   UNL A   1      36.763  23.876  25.603  1.00  0.00    -0.017 C 
ATOM      9  C   UNL A   1      38.143  23.787  26.251  1.00  0.00     0.007 C 
ATOM     10  C   UNL A   1      36.851  23.383  24.152  1.00  0.00     0.007 C 
ENDBRANCH   7   8
ENDBRANCH   6   7
BRANCH   6  11
ATOM     11  C   UNL A   1      33.884  24.885  25.606  1.00  0.00     0.131 C 
BRANCH  11  12
ATOM     12  N   UNL A   1      32.491  25.265  25.673  1.00  0.00    -0.337 N 
ATOM     13  C   UNL A   1      31.831  26.381  26.000  1.00  0.00     0.317 C 
ATOM     14  H   UNL A   1      31.886  24.529  25.420  1.00  0.00     0.165 HD
ATOM     15  O   UNL A   1      30.841  26.146  26.692  1.00  0.00    -0.249 OA
BRANCH  13  16
ATOM     16  N   UNL A   1      32.122  27.644  25.581  1.00  0.00    -0.327 N 
ATOM     17  C   UNL A   1      33.350  28.386  25.805  1.00  0.00     0.148 C 
BRANCH  16  18
ATOM     18  C   UNL A   1      31.112  28.354  24.740  1.00  0.00     0.136 C 
BRANCH  18  19
ATOM     19  C   UNL A   1      31.625  29.027  23.431  1.00  0.00     0.141 C 
BRANCH  19  20
ATOM     20  C   UNL A   1      30.439  29.196  22.496  1.00  0.00     0.064 C 
ATOM     21  N   UNL A   1      29.455  29.337  21.720  1.00  0.00    -0.198 NA
ENDBRANCH  19  20
ENDBRANCH  18  19
ENDBRANCH  16  18
ENDBRANCH  13  16
ENDBRANCH  11  12
ENDBRANCH   6  11
ENDBRANCH   3   6
ENDBRANCH   1   2
BRANCH   1  22
ATOM     22  C   UNL A   1      34.193  19.954  24.547  1.00  0.00     0.021 C 
BRANCH  22  23
ATOM     23  C   UNL A   1      35.497  19.950  25.357  1.00  0.00     0.002 C 
BRANCH  23  24
ATOM     24  C   UNL A   1      36.795  20.071  24.545  1.00  0.00     0.002 C 
BRANCH  24  25
ATOM     25  C   UNL A   1      37.983  19.240  25.041  1.00  0.00     0.021 C 
BRANCH  25  26
ATOM     26  C   UNL A   1      39.116  20.036  25.682  1.00  0.00     0.116 C 
BRANCH  26  27
ATOM     27  N   UNL A   1      40.244  19.200  26.060  1.00  0.00    -0.352 N 
ATOM     28  C   UNL A   1      41.513  19.550  26.440  1.00  0.00     0.251 C 
ATOM     29  H   UNL A   1      40.069  18.232  26.039  1.00  0.00     0.163 HD
ATOM     30  O   UNL A   1      42.370  18.682  26.583  1.00  0.00    -0.269 OA
BRANCH  28  31
ATOM     31  C   UNL A   1      41.870  20.969  26.669  1.00  0.00     0.039 A 
ATOM     32  C   UNL A   1      42.229  21.366  27.961  1.00  0.00     0.014 A 
ATOM     33  C   UNL A   1      41.804  21.915  25.642  1.00  0.00     0.014 A 
ATOM     34  C   UNL A   1      42.563  22.698  28.215  1.00  0.00     0.010 A 
ATOM     35  C   UNL A   1      42.193  23.232  25.882  1.00  0.00     0.010 A 
ATOM     36  C   UNL A   1      42.567  23.637  27.172  1.00  0.00    -0.014 A 
BRANCH  36  37
ATOM     37  C   UNL A   1      42.941  25.053  27.422  1.00  0.00     0.031 A 
ATOM     38  C   UNL A   1      44.318  25.543  27.073  1.00  0.00     0.074 A 
ATOM     39  C   UNL A   1      42.055  25.885  28.003  1.00  0.00     0.049 A 
ATOM     40  N   UNL A   1      44.854  26.722  27.265  1.00  0.00    -0.248 NA
ATOM     41  C   UNL A   1      45.224  24.569  26.443  1.00  0.00     0.031 C 
ATOM     42  C   UNL A   1      40.704  25.517  28.427  1.00  0.00     0.029 A 
ATOM     43  N   UNL A   1      42.163  27.208  28.347  1.00  0.00    -0.354 N 
ATOM     44  C   UNL A   1      46.155  26.629  26.792  1.00  0.00     0.074 A 
ATOM     45  C   UNL A   1      46.348  25.266  26.349  1.00  0.00     0.031 C 
ATOM     46  C   UNL A   1      40.104  26.592  28.962  1.00  0.00     0.029 A 
ATOM     47  C   UNL A   1      41.036  27.715  28.944  1.00  0.00     0.049 A 
ATOM     48  H   UNL A   1      42.974  27.744  28.181  1.00  0.00     0.167 HD
ATOM     49  C   UNL A   1      47.097  27.600  26.711  1.00  0.00     0.037 A 
ATOM     50  C   UNL A   1      40.787  28.947  29.427  1.00  0.00     0.037 A 
ATOM     51  C   UNL A   1      46.899  28.961  27.135  1.00  0.00     0.049 A 
ATOM     52  C   UNL A   1      41.847  30.009  29.315  1.00  0.00     0.074 A 
ATOM     53  C   UNL A   1      47.783  30.024  27.072  1.00  0.00     0.029 A 
ATOM     54  N   UNL A   1      45.728  29.447  27.698  1.00  0.00    -0.354 N 
ATOM     55  N   UNL A   1      43.057  29.922  28.820  1.00  0.00    -0.248 NA
ATOM     56  C   UNL A   1      41.500  31.346  29.819  1.00  0.00     0.031 C 
ATOM     57  C   UNL A   1      47.155  31.148  27.623  1.00  0.00     0.029 A 
ATOM     58  C   UNL A   1      45.867  30.794  27.991  1.00  0.00     0.049 A 
ATOM     59  H   UNL A   1      44.918  28.914  27.865  1.00  0.00     0.167 HD
ATOM     60  C   UNL A   1      43.605  31.193  28.924  1.00  0.00     0.074 A 
ATOM     61  C   UNL A   1      42.589  32.039  29.516  1.00  0.00     0.031 C 
ATOM     62  C   UNL A   1      44.839  31.623  28.563  1.00  0.00     0.037 A 
BRANCH  49  63
ATOM     63  C   UNL A   1      48.428  27.223  26.128  1.00  0.00     0.064 A 
ATOM     64  C   UNL A   1      48.680  27.330  24.752  1.00  0.00     0.173 A 
ATOM     65  C   UNL A   1      49.473  26.781  26.954  1.00  0.00     0.173 A 
ATOM     66  F   UNL A   1      47.710  27.736  23.918  1.00  0.00    -0.203 F 
ATOM     67  C   UNL A   1      49.918  26.983  24.221  1.00  0.00     0.198 A 
ATOM     68  C   UNL A   1      50.719  26.462  26.423  1.00  0.00     0.198 A 
ATOM     69  F   UNL A   1      49.286  26.666  28.277  1.00  0.00    -0.203 F 
ATOM     70  F   UNL A   1      50.121  27.049  22.897  1.00  0.00    -0.200 F 
ATOM     71  C   UNL A   1      50.939  26.556  25.056  1.00  0.00     0.200 A 
ATOM     72  F   UNL A   1      51.709  26.060  27.233  1.00  0.00    -0.200 F 
ATOM     73  F   UNL A   1      52.133  26.227  24.544  1.00  0.00    -0.200 F 
ENDBRANCH  49  63
BRANCH  50  74
ATOM     74  C   UNL A   1      39.467  29.254  30.035  1.00  0.00     0.064 A 
ATOM     75  C   UNL A   1      38.420  29.770  29.258  1.00  0.00     0.173 A 
ATOM     76  C   UNL A   1      39.229  29.052  31.402  1.00  0.00     0.173 A 
ATOM     77  F   UNL A   1      38.608  30.002  27.951  1.00  0.00    -0.203 F 
ATOM     78  C   UNL A   1      37.193  30.096  29.831  1.00  0.00     0.198 A 
ATOM     79  C   UNL A   1      37.992  29.354  31.968  1.00  0.00     0.198 A 
ATOM     80  F   UNL A   1      40.197  28.559  32.187  1.00  0.00    -0.203 F 
ATOM     81  F   UNL A   1      36.227  30.637  29.076  1.00  0.00    -0.200 F 
ATOM     82  C   UNL A   1      36.978  29.884  31.184  1.00  0.00     0.200 A 
ATOM     83  F   UNL A   1      37.784  29.138  33.274  1.00  0.00    -0.200 F 
ATOM     84  F   UNL A   1      35.799  30.201  31.735  1.00  0.00    -0.200 F 
ENDBRANCH  50  74
BRANCH  62  85
ATOM     85  C   UNL A   1      45.141  33.079  28.758  1.00  0.00     0.064 A 
ATOM     86  C   UNL A   1      45.771  33.552  29.919  1.00  0.00     0.173 A 
ATOM     87  C   UNL A   1      44.821  34.008  27.756  1.00  0.00     0.173 A 
ATOM     88  F   UNL A   1      46.082  32.706  30.911  1.00  0.00    -0.203 F 
ATOM     89  C   UNL A   1      46.043  34.908  30.080  1.00  0.00     0.198 A 
ATOM     90  C   UNL A   1      45.119  35.359  27.910  1.00  0.00     0.198 A 
ATOM     91  F   UNL A   1      44.223  33.603  26.625  1.00  0.00    -0.203 F 
ATOM     92  F   UNL A   1      46.602  35.346  31.216  1.00  0.00    -0.200 F 
ATOM     93  C   UNL A   1      45.724  35.809  29.074  1.00  0.00     0.200 A 
ATOM     94  F   UNL A   1      44.820  36.226  26.933  1.00  0.00    -0.200 F 
ATOM     95  F   UNL A   1      45.990  37.112  29.231  1.00  0.00    -0.200 F 
ENDBRANCH  62  85
ENDBRANCH  36  37
ENDBRANCH  28  31
ENDBRANCH  26  27
ENDBRANCH  25  26
ENDBRANCH  24  25
ENDBRANCH  23  24
ENDBRANCH  22  23
ENDBRANCH   1  22
TORSDOF 21
ENDMDL
MODEL 3
REMARK VINA RESULT:      -9.5      4.506     10.843
REMARK SMILES CC(C)C[C@@H](CNC(=O)N(C)CCC#N)C(=O)NCCCCCCNC(=O)c1ccc(-c2c3nc(c(-c4c(F)c(F)c(F)c(F)c4F)c4ccc([nH]4)c(-c4c(F)c(F)c(F)c(F)c4F)c4nc(c(-c5c(F)c(F)c(F)c(F)c5F)c5ccc2[nH]5)C=C4)C=C3)cc1
REMARK SMILES IDX 19 1 18 2 16 3 17 4 5 6 4 7 2 8 1 9 3 10 6 11 7 12 8 13 9 15
REMARK SMILES IDX 10 16 11 17 12 18 13 19 14 20 15 21 20 22 21 23 22 24 23 25
REMARK SMILES IDX 24 26 25 27 26 28 27 30 28 31 29 32 90 33 30 34 89 35 31 36
REMARK SMILES IDX 32 37 33 38 83 39 34 40 88 41 82 42 84 43 35 44 87 45 81 46
REMARK SMILES IDX 80 47 36 49 68 50 48 51 67 52 49 53 52 54 66 55 85 56 50 57
REMARK SMILES IDX 51 58 65 60 86 61 53 62 37 63 38 64 46 65 39 66 40 67 44 68
REMARK SMILES IDX 47 69 41 70 42 71 45 72 43 73 69 74 70 75 78 76 71 77 72 78
REMARK SMILES IDX 76 79 79 80 73 81 74 82 77 83 75 84 54 85 55 86 63 87 56 88
REMARK SMILES IDX 57 89 61 90 64 91 58 92 59 93 62 94 60 95
REMARK H PARENT 18 5 7 14 25 29 84 48 52 59
REMARK Flexibility Score: inf
ROOT
ATOM      1  C   UNL A   1      37.227  32.308  34.028  1.00  0.00     0.116 C 
ENDROOT
BRANCH   1   2
ATOM      2  N   UNL A   1      37.448  31.270  35.018  1.00  0.00    -0.356 N 
ATOM      3  C   UNL A   1      38.579  30.822  35.624  1.00  0.00     0.224 C 
ATOM      4  O   UNL A   1      38.427  30.158  36.657  1.00  0.00    -0.275 OA
ATOM      5  H   UNL A   1      36.628  30.804  35.303  1.00  0.00     0.163 HD
BRANCH   3   6
ATOM      6  C   UNL A   1      39.998  31.101  35.124  1.00  0.00     0.098 C 
BRANCH   6   7
ATOM      7  C   UNL A   1      40.703  32.283  35.819  1.00  0.00     0.018 C 
BRANCH   7   8
ATOM      8  C   UNL A   1      39.943  33.623  35.896  1.00  0.00    -0.017 C 
ATOM      9  C   UNL A   1      40.336  34.474  37.102  1.00  0.00     0.007 C 
ATOM     10  C   UNL A   1      40.196  34.419  34.608  1.00  0.00     0.007 C 
ENDBRANCH   7   8
ENDBRANCH   6   7
BRANCH   6  11
ATOM     11  C   UNL A   1      40.773  29.793  34.871  1.00  0.00     0.131 C 
BRANCH  11  12
ATOM     12  N   UNL A   1      41.015  28.981  36.043  1.00  0.00    -0.337 N 
ATOM     13  C   UNL A   1      41.632  27.817  36.274  1.00  0.00     0.317 C 
ATOM     14  H   UNL A   1      40.637  29.377  36.862  1.00  0.00     0.165 HD
ATOM     15  O   UNL A   1      40.999  27.106  37.053  1.00  0.00    -0.249 OA
BRANCH  13  16
ATOM     16  N   UNL A   1      42.852  27.441  35.800  1.00  0.00    -0.327 N 
ATOM     17  C   UNL A   1      44.139  28.047  36.096  1.00  0.00     0.148 C 
BRANCH  16  18
ATOM     18  C   UNL A   1      42.922  26.234  34.922  1.00  0.00     0.136 C 
BRANCH  18  19
ATOM     19  C   UNL A   1      42.826  24.843  35.618  1.00  0.00     0.141 C 
BRANCH  19  20
ATOM     20  C   UNL A   1      43.195  23.782  34.595  1.00  0.00     0.064 C 
ATOM     21  N   UNL A   1      43.500  22.899  33.747  1.00  0.00    -0.198 NA
ENDBRANCH  19  20
ENDBRANCH  18  19
ENDBRANCH  16  18
ENDBRANCH  13  16
ENDBRANCH  11  12
ENDBRANCH   6  11
ENDBRANCH   3   6
ENDBRANCH   1   2
BRANCH   1  22
ATOM     22  C   UNL A   1      36.763  31.767  32.678  1.00  0.00     0.021 C 
BRANCH  22  23
ATOM     23  C   UNL A   1      37.439  32.436  31.473  1.00  0.00     0.002 C 
BRANCH  23  24
ATOM     24  C   UNL A   1      36.556  33.382  30.646  1.00  0.00     0.002 C 
BRANCH  24  25
ATOM     25  C   UNL A   1      35.191  32.834  30.220  1.00  0.00     0.021 C 
BRANCH  25  26
ATOM     26  C   UNL A   1      34.960  32.752  28.713  1.00  0.00     0.116 C 
BRANCH  26  27
ATOM     27  N   UNL A   1      34.219  31.564  28.324  1.00  0.00    -0.352 N 
ATOM     28  C   UNL A   1      34.657  30.284  28.102  1.00  0.00     0.251 C 
ATOM     29  H   UNL A   1      33.252  31.699  28.199  1.00  0.00     0.163 HD
ATOM     30  O   UNL A   1      33.889  29.446  27.638  1.00  0.00    -0.269 OA
BRANCH  28  31
ATOM     31  C   UNL A   1      36.055  29.900  28.405  1.00  0.00     0.039 A 
ATOM     32  C   UNL A   1      37.021  30.057  27.406  1.00  0.00     0.014 A 
ATOM     33  C   UNL A   1      36.409  29.342  29.637  1.00  0.00     0.014 A 
ATOM     34  C   UNL A   1      38.347  29.697  27.654  1.00  0.00     0.010 A 
ATOM     35  C   UNL A   1      37.744  29.037  29.904  1.00  0.00     0.010 A 
ATOM     36  C   UNL A   1      38.722  29.203  28.913  1.00  0.00    -0.014 A 
BRANCH  36  37
ATOM     37  C   UNL A   1      40.133  28.836  29.199  1.00  0.00     0.031 A 
ATOM     38  C   UNL A   1      41.018  29.780  29.964  1.00  0.00     0.074 A 
ATOM     39  C   UNL A   1      40.628  27.673  28.732  1.00  0.00     0.049 A 
ATOM     40  N   UNL A   1      42.288  29.668  30.264  1.00  0.00    -0.248 NA
ATOM     41  C   UNL A   1      40.398  31.028  30.436  1.00  0.00     0.031 C 
ATOM     42  C   UNL A   1      39.882  26.695  27.941  1.00  0.00     0.029 A 
ATOM     43  N   UNL A   1      41.880  27.124  28.846  1.00  0.00    -0.354 N 
ATOM     44  C   UNL A   1      42.619  30.830  30.947  1.00  0.00     0.074 A 
ATOM     45  C   UNL A   1      41.433  31.657  30.976  1.00  0.00     0.031 C 
ATOM     46  C   UNL A   1      40.686  25.659  27.653  1.00  0.00     0.029 A 
ATOM     47  C   UNL A   1      42.010  25.914  28.213  1.00  0.00     0.049 A 
ATOM     48  H   UNL A   1      42.616  27.559  29.337  1.00  0.00     0.167 HD
ATOM     49  C   UNL A   1      43.800  31.165  31.521  1.00  0.00     0.037 A 
ATOM     50  C   UNL A   1      43.079  25.103  28.095  1.00  0.00     0.037 A 
ATOM     51  C   UNL A   1      44.974  30.334  31.509  1.00  0.00     0.049 A 
ATOM     52  C   UNL A   1      44.374  25.496  28.751  1.00  0.00     0.074 A 
ATOM     53  C   UNL A   1      46.210  30.575  32.083  1.00  0.00     0.029 A 
ATOM     54  N   UNL A   1      45.054  29.094  30.892  1.00  0.00    -0.354 N 
ATOM     55  N   UNL A   1      44.662  26.575  29.437  1.00  0.00    -0.248 NA
ATOM     56  C   UNL A   1      45.493  24.550  28.626  1.00  0.00     0.031 C 
ATOM     57  C   UNL A   1      47.048  29.492  31.789  1.00  0.00     0.029 A 
ATOM     58  C   UNL A   1      46.320  28.559  31.067  1.00  0.00     0.049 A 
ATOM     59  H   UNL A   1      44.320  28.659  30.401  1.00  0.00     0.167 HD
ATOM     60  C   UNL A   1      45.978  26.426  29.850  1.00  0.00     0.074 A 
ATOM     61  C   UNL A   1      46.431  25.144  29.351  1.00  0.00     0.031 C 
ATOM     62  C   UNL A   1      46.746  27.274  30.578  1.00  0.00     0.037 A 
BRANCH  49  63
ATOM     63  C   UNL A   1      43.872  32.490  32.225  1.00  0.00     0.064 A 
ATOM     64  C   UNL A   1      44.053  33.686  31.514  1.00  0.00     0.173 A 
ATOM     65  C   UNL A   1      43.728  32.570  33.618  1.00  0.00     0.173 A 
ATOM     66  F   UNL A   1      44.208  33.662  30.181  1.00  0.00    -0.203 F 
ATOM     67  C   UNL A   1      44.114  34.910  32.174  1.00  0.00     0.198 A 
ATOM     68  C   UNL A   1      43.761  33.798  34.272  1.00  0.00     0.198 A 
ATOM     69  F   UNL A   1      43.547  31.457  34.345  1.00  0.00    -0.203 F 
ATOM     70  F   UNL A   1      44.334  36.035  31.478  1.00  0.00    -0.200 F 
ATOM     71  C   UNL A   1      43.962  34.966  33.551  1.00  0.00     0.200 A 
ATOM     72  F   UNL A   1      43.602  33.853  35.601  1.00  0.00    -0.200 F 
ATOM     73  F   UNL A   1      44.014  36.146  34.184  1.00  0.00    -0.200 F 
ENDBRANCH  49  63
BRANCH  50  74
ATOM     74  C   UNL A   1      42.963  23.824  27.349  1.00  0.00     0.064 A 
ATOM     75  C   UNL A   1      42.501  22.662  27.983  1.00  0.00     0.173 A 
ATOM     76  C   UNL A   1      43.323  23.733  25.998  1.00  0.00     0.173 A 
ATOM     77  F   UNL A   1      42.167  22.695  29.282  1.00  0.00    -0.203 F 
ATOM     78  C   UNL A   1      42.427  21.451  27.299  1.00  0.00     0.198 A 
ATOM     79  C   UNL A   1      43.223  22.526  25.308  1.00  0.00     0.198 A 
ATOM     80  F   UNL A   1      43.769  24.817  25.346  1.00  0.00    -0.203 F 
ATOM     81  F   UNL A   1      42.032  20.344  27.942  1.00  0.00    -0.200 F 
ATOM     82  C   UNL A   1      42.785  21.385  25.961  1.00  0.00     0.200 A 
ATOM     83  F   UNL A   1      43.560  22.468  24.012  1.00  0.00    -0.200 F 
ATOM     84  F   UNL A   1      42.717  20.219  25.304  1.00  0.00    -0.200 F 
ENDBRANCH  50  74
BRANCH  62  85
ATOM     85  C   UNL A   1      48.136  26.823  30.913  1.00  0.00     0.064 A 
ATOM     86  C   UNL A   1      48.399  26.004  32.020  1.00  0.00     0.173 A 
ATOM     87  C   UNL A   1      49.216  27.194  30.097  1.00  0.00     0.173 A 
ATOM     88  F   UNL A   1      47.403  25.635  32.839  1.00  0.00    -0.203 F 
ATOM     89  C   UNL A   1      49.698  25.595  32.314  1.00  0.00     0.198 A 
ATOM     90  C   UNL A   1      50.508  26.762  30.378  1.00  0.00     0.198 A 
ATOM     91  F   UNL A   1      49.015  27.973  29.022  1.00  0.00    -0.203 F 
ATOM     92  F   UNL A   1      49.933  24.852  33.404  1.00  0.00    -0.200 F 
ATOM     93  C   UNL A   1      50.750  25.969  31.490  1.00  0.00     0.200 A 
ATOM     94  F   UNL A   1      51.522  27.115  29.576  1.00  0.00    -0.200 F 
ATOM     95  F   UNL A   1      51.997  25.572  31.773  1.00  0.00    -0.200 F 
ENDBRANCH  62  85
ENDBRANCH  36  37
ENDBRANCH  28  31
ENDBRANCH  26  27
ENDBRANCH  25  26
ENDBRANCH  24  25
ENDBRANCH  23  24
ENDBRANCH  22  23
ENDBRANCH   1  22
TORSDOF 21
ENDMDL
