MODEL 1
REMARK VINA RESULT:     -12.5      0.000      0.000
REMARK SMILES O=C(NCCCCCCNC(=O)c1ccc(-c2c3nc(c(-c4c(F)c(F)c(F)c(F)c4F)c4ccc([nH]4)c(-c4c(F)c(F)c(F)c(F)c4F)c4nc(c(-c5c(F)c(F)c(F)c(F)c5F)c5ccc2[nH]5)C=C4)C=C3)cc1)C1=Cc2c(ccc(Cl)c2Sc2ccccc2)O[C@H]1C(F)(F)F
REMARK SMILES IDX 6 1 5 2 4 3 3 4 1 5 2 6 76 8 77 9 93 10 78 11 92 12 79 13
REMARK SMILES IDX 84 14 80 15 82 16 81 17 83 18 94 19 95 20 96 21 97 22 85 23
REMARK SMILES IDX 86 24 87 25 91 26 88 27 90 28 89 29 7 30 8 31 9 32 10 33
REMARK SMILES IDX 11 34 12 36 13 37 14 38 75 39 15 40 74 41 16 42 17 43 18 44
REMARK SMILES IDX 68 45 19 46 73 47 67 48 69 49 20 50 72 51 66 52 65 53 21 55
REMARK SMILES IDX 53 56 33 57 52 58 34 59 37 60 51 61 70 62 35 63 36 64 50 66
REMARK SMILES IDX 71 67 38 68 22 69 23 70 31 71 24 72 25 73 29 74 32 75 26 76
REMARK SMILES IDX 27 77 30 78 28 79 54 80 55 81 63 82 56 83 57 84 61 85 64 86
REMARK SMILES IDX 58 87 59 88 62 89 60 90 39 91 40 92 48 93 41 94 42 95 46 96
REMARK SMILES IDX 49 97 43 98 44 99 47 100 45 101
REMARK H PARENT 3 7 10 35 69 54 37 65
REMARK Flexibility Score: inf
ROOT
ATOM      1  C   UNL A   1      36.704  21.628  25.360  1.00  0.00     0.002 C 
ENDROOT
BRANCH   1   2
ATOM      2  C   UNL A   1      36.999  22.602  24.216  1.00  0.00     0.021 C 
BRANCH   2   3
ATOM      3  C   UNL A   1      35.941  23.682  23.999  1.00  0.00     0.116 C 
BRANCH   3   4
ATOM      4  N   UNL A   1      35.202  24.012  25.223  1.00  0.00    -0.352 N 
ATOM      5  O   UNL A   1      33.453  24.664  26.460  1.00  0.00    -0.270 OA
ATOM      6  C   UNL A   1      33.895  24.365  25.387  1.00  0.00     0.251 C 
ATOM      7  H   UNL A   1      35.730  23.974  26.054  1.00  0.00     0.163 HD
BRANCH   6   8
ATOM      8  C   UNL A   1      33.027  24.417  24.185  1.00  0.00     0.067 C 
ATOM      9  C   UNL A   1      32.908  25.592  23.559  1.00  0.00     0.026 C 
ATOM     10  C   UNL A   1      32.019  23.326  24.011  1.00  0.00     0.314 C 
ATOM     11  C   UNL A   1      31.538  26.103  23.395  1.00  0.00     0.033 A 
ATOM     12  O   UNL A   1      30.678  23.820  23.763  1.00  0.00    -0.475 OA
ATOM     13  C   UNL A   1      30.493  25.164  23.549  1.00  0.00     0.129 A 
ATOM     14  C   UNL A   1      31.255  27.491  23.279  1.00  0.00     0.042 A 
ATOM     15  C   UNL A   1      29.168  25.579  23.585  1.00  0.00     0.049 A 
ATOM     16  C   UNL A   1      29.893  27.879  23.354  1.00  0.00     0.055 A 
ATOM     17  C   UNL A   1      28.869  26.933  23.502  1.00  0.00     0.025 A 
ATOM     18  Cl  UNL A   1      29.372  29.536  23.337  1.00  0.00    -0.083 Cl
BRANCH  10  19
ATOM     19  C   UNL A   1      32.445  22.380  22.876  1.00  0.00     0.429 C 
ATOM     20  F   UNL A   1      31.392  21.699  22.361  1.00  0.00    -0.167 F 
ATOM     21  F   UNL A   1      33.038  23.039  21.854  1.00  0.00    -0.167 F 
ATOM     22  F   UNL A   1      33.337  21.463  23.320  1.00  0.00    -0.167 F 
ENDBRANCH  10  19
BRANCH  14  23
ATOM     23  S   UNL A   1      32.498  28.820  23.226  1.00  0.00    -0.088 SA
BRANCH  23  24
ATOM     24  C   UNL A   1      32.958  29.214  24.894  1.00  0.00     0.012 A 
ATOM     25  C   UNL A   1      32.207  30.165  25.600  1.00  0.00     0.015 A 
ATOM     26  C   UNL A   1      34.027  28.577  25.533  1.00  0.00     0.015 A 
ATOM     27  C   UNL A   1      32.472  30.419  26.946  1.00  0.00     0.001 A 
ATOM     28  C   UNL A   1      34.295  28.837  26.882  1.00  0.00     0.001 A 
ATOM     29  C   UNL A   1      33.509  29.746  27.590  1.00  0.00     0.000 A 
ENDBRANCH  23  24
ENDBRANCH  14  23
ENDBRANCH   6   8
ENDBRANCH   3   4
ENDBRANCH   2   3
ENDBRANCH   1   2
BRANCH   1  30
ATOM     30  C   UNL A   1      36.570  20.143  24.997  1.00  0.00     0.002 C 
BRANCH  30  31
ATOM     31  C   UNL A   1      37.850  19.303  25.001  1.00  0.00     0.021 C 
BRANCH  31  32
ATOM     32  C   UNL A   1      39.051  19.876  25.751  1.00  0.00     0.116 C 
BRANCH  32  33
ATOM     33  N   UNL A   1      40.174  18.963  25.840  1.00  0.00    -0.352 N 
ATOM     34  C   UNL A   1      41.499  19.195  26.120  1.00  0.00     0.251 C 
ATOM     35  H   UNL A   1      39.951  18.020  25.670  1.00  0.00     0.163 HD
ATOM     36  O   UNL A   1      42.291  18.256  26.077  1.00  0.00    -0.269 OA
BRANCH  34  37
ATOM     37  C   UNL A   1      42.011  20.552  26.442  1.00  0.00     0.039 A 
ATOM     38  C   UNL A   1      42.328  21.404  25.376  1.00  0.00     0.014 A 
ATOM     39  C   UNL A   1      42.245  20.981  27.752  1.00  0.00     0.014 A 
ATOM     40  C   UNL A   1      42.817  22.692  25.617  1.00  0.00     0.010 A 
ATOM     41  C   UNL A   1      42.689  22.286  27.996  1.00  0.00     0.010 A 
ATOM     42  C   UNL A   1      42.977  23.153  26.931  1.00  0.00    -0.014 A 
BRANCH  42  43
ATOM     43  C   UNL A   1      43.442  24.539  27.202  1.00  0.00     0.031 A 
ATOM     44  C   UNL A   1      42.505  25.561  27.780  1.00  0.00     0.074 A 
ATOM     45  C   UNL A   1      44.704  24.894  26.891  1.00  0.00     0.049 A 
ATOM     46  N   UNL A   1      42.708  26.835  28.010  1.00  0.00    -0.248 NA
ATOM     47  C   UNL A   1      41.156  25.094  28.135  1.00  0.00     0.031 C 
ATOM     48  C   UNL A   1      45.713  24.008  26.311  1.00  0.00     0.029 A 
ATOM     49  N   UNL A   1      45.350  26.099  27.016  1.00  0.00    -0.354 N 
ATOM     50  C   UNL A   1      41.510  27.325  28.512  1.00  0.00     0.074 A 
ATOM     51  C   UNL A   1      40.578  26.217  28.538  1.00  0.00     0.031 C 
ATOM     52  C   UNL A   1      46.857  24.692  26.151  1.00  0.00     0.029 A 
ATOM     53  C   UNL A   1      46.654  26.071  26.588  1.00  0.00     0.049 A 
ATOM     54  H   UNL A   1      44.921  26.907  27.380  1.00  0.00     0.167 HD
ATOM     55  C   UNL A   1      41.217  28.582  28.922  1.00  0.00     0.037 A 
ATOM     56  C   UNL A   1      47.581  27.046  26.548  1.00  0.00     0.037 A 
ATOM     57  C   UNL A   1      42.145  29.681  28.936  1.00  0.00     0.049 A 
ATOM     58  C   UNL A   1      47.235  28.428  27.025  1.00  0.00     0.074 A 
ATOM     59  C   UNL A   1      41.939  30.982  29.367  1.00  0.00     0.029 A 
ATOM     60  N   UNL A   1      43.461  29.606  28.509  1.00  0.00    -0.354 N 
ATOM     61  N   UNL A   1      46.101  28.874  27.505  1.00  0.00    -0.248 NA
ATOM     62  C   UNL A   1      48.298  29.441  26.953  1.00  0.00     0.031 C 
ATOM     63  C   UNL A   1      43.128  31.697  29.185  1.00  0.00     0.029 A 
ATOM     64  C   UNL A   1      44.079  30.837  28.663  1.00  0.00     0.049 A 
ATOM     65  H   UNL A   1      43.894  28.798  28.151  1.00  0.00     0.167 HD
ATOM     66  C   UNL A   1      46.317  30.210  27.809  1.00  0.00     0.074 A 
ATOM     67  C   UNL A   1      47.693  30.504  27.466  1.00  0.00     0.031 C 
ATOM     68  C   UNL A   1      45.450  31.112  28.327  1.00  0.00     0.037 A 
BRANCH  55  69
ATOM     69  C   UNL A   1      39.819  28.842  29.394  1.00  0.00     0.064 A 
ATOM     70  C   UNL A   1      39.430  28.565  30.712  1.00  0.00     0.173 A 
ATOM     71  C   UNL A   1      38.875  29.417  28.532  1.00  0.00     0.173 A 
ATOM     72  F   UNL A   1      40.298  28.004  31.567  1.00  0.00    -0.203 F 
ATOM     73  C   UNL A   1      38.135  28.838  31.145  1.00  0.00     0.198 A 
ATOM     74  C   UNL A   1      37.587  29.706  28.974  1.00  0.00     0.198 A 
ATOM     75  F   UNL A   1      39.203  29.703  27.262  1.00  0.00    -0.203 F 
ATOM     76  F   UNL A   1      37.774  28.538  32.400  1.00  0.00    -0.200 F 
ATOM     77  C   UNL A   1      37.217  29.413  30.279  1.00  0.00     0.200 A 
ATOM     78  F   UNL A   1      36.702  30.266  28.138  1.00  0.00    -0.200 F 
ATOM     79  F   UNL A   1      35.973  29.680  30.700  1.00  0.00    -0.200 F 
ENDBRANCH  55  69
BRANCH  56  80
ATOM     80  C   UNL A   1      48.946  26.741  26.056  1.00  0.00     0.064 A 
ATOM     81  C   UNL A   1      49.294  26.987  24.721  1.00  0.00     0.173 A 
ATOM     82  C   UNL A   1      49.926  26.207  26.904  1.00  0.00     0.173 A 
ATOM     83  F   UNL A   1      48.380  27.475  23.871  1.00  0.00    -0.203 F 
ATOM     84  C   UNL A   1      50.573  26.702  24.250  1.00  0.00     0.198 A 
ATOM     85  C   UNL A   1      51.210  25.939  26.435  1.00  0.00     0.198 A 
ATOM     86  F   UNL A   1      49.636  25.957  28.189  1.00  0.00    -0.203 F 
ATOM     87  F   UNL A   1      50.874  26.919  22.962  1.00  0.00    -0.200 F 
ATOM     88  C   UNL A   1      51.531  26.183  25.108  1.00  0.00     0.200 A 
ATOM     89  F   UNL A   1      52.134  25.443  27.268  1.00  0.00    -0.200 F 
ATOM     90  F   UNL A   1      52.762  25.912  24.654  1.00  0.00    -0.200 F 
ENDBRANCH  56  80
BRANCH  68  91
ATOM     91  C   UNL A   1      45.968  32.495  28.577  1.00  0.00     0.064 A 
ATOM     92  C   UNL A   1      46.580  32.835  29.792  1.00  0.00     0.173 A 
ATOM     93  C   UNL A   1      45.887  33.476  27.578  1.00  0.00     0.173 A 
ATOM     94  F   UNL A   1      46.666  31.932  30.780  1.00  0.00    -0.203 F 
ATOM     95  C   UNL A   1      47.082  34.116  30.002  1.00  0.00     0.198 A 
ATOM     96  C   UNL A   1      46.404  34.751  27.787  1.00  0.00     0.198 A 
ATOM     97  F   UNL A   1      45.310  33.195  26.401  1.00  0.00    -0.203 F 
ATOM     98  F   UNL A   1      47.639  34.430  31.180  1.00  0.00    -0.200 F 
ATOM     99  C   UNL A   1      46.999  35.071  28.999  1.00  0.00     0.200 A 
ATOM    100  F   UNL A   1      46.325  35.672  26.817  1.00  0.00    -0.200 F 
ATOM    101  F   UNL A   1      47.486  36.302  29.203  1.00  0.00    -0.200 F 
ENDBRANCH  68  91
ENDBRANCH  42  43
ENDBRANCH  34  37
ENDBRANCH  32  33
ENDBRANCH  31  32
ENDBRANCH  30  31
ENDBRANCH   1  30
TORSDOF 16
ENDMDL
MODEL 2
REMARK VINA RESULT:     -12.4      0.481      7.020
REMARK SMILES O=C(NCCCCCCNC(=O)c1ccc(-c2c3nc(c(-c4c(F)c(F)c(F)c(F)c4F)c4ccc([nH]4)c(-c4c(F)c(F)c(F)c(F)c4F)c4nc(c(-c5c(F)c(F)c(F)c(F)c5F)c5ccc2[nH]5)C=C4)C=C3)cc1)C1=Cc2c(ccc(Cl)c2Sc2ccccc2)O[C@H]1C(F)(F)F
REMARK SMILES IDX 6 1 5 2 4 3 3 4 1 5 2 6 76 8 77 9 93 10 78 11 92 12 79 13
REMARK SMILES IDX 84 14 80 15 82 16 81 17 83 18 94 19 95 20 96 21 97 22 85 23
REMARK SMILES IDX 86 24 87 25 91 26 88 27 90 28 89 29 7 30 8 31 9 32 10 33
REMARK SMILES IDX 11 34 12 36 13 37 14 38 75 39 15 40 74 41 16 42 17 43 18 44
REMARK SMILES IDX 68 45 19 46 73 47 67 48 69 49 20 50 72 51 66 52 65 53 21 55
REMARK SMILES IDX 53 56 33 57 52 58 34 59 37 60 51 61 70 62 35 63 36 64 50 66
REMARK SMILES IDX 71 67 38 68 22 69 23 70 31 71 24 72 25 73 29 74 32 75 26 76
REMARK SMILES IDX 27 77 30 78 28 79 54 80 55 81 63 82 56 83 57 84 61 85 64 86
REMARK SMILES IDX 58 87 59 88 62 89 60 90 39 91 40 92 48 93 41 94 42 95 46 96
REMARK SMILES IDX 49 97 43 98 44 99 47 100 45 101
REMARK H PARENT 3 7 10 35 69 54 37 65
REMARK Flexibility Score: inf
ROOT
ATOM      1  C   UNL A   1      36.660  21.496  25.141  1.00  0.00     0.002 C 
ENDROOT
BRANCH   1   2
ATOM      2  C   UNL A   1      36.533  22.347  23.875  1.00  0.00     0.021 C 
BRANCH   2   3
ATOM      3  C   UNL A   1      36.192  23.815  24.116  1.00  0.00     0.116 C 
BRANCH   3   4
ATOM      4  N   UNL A   1      35.419  24.028  25.347  1.00  0.00    -0.352 N 
ATOM      5  O   UNL A   1      33.616  24.484  26.594  1.00  0.00    -0.270 OA
ATOM      6  C   UNL A   1      34.088  24.272  25.512  1.00  0.00     0.251 C 
ATOM      7  H   UNL A   1      35.942  23.990  26.180  1.00  0.00     0.163 HD
BRANCH   6   8
ATOM      8  C   UNL A   1      33.228  24.316  24.304  1.00  0.00     0.067 C 
ATOM      9  C   UNL A   1      33.100  25.491  23.679  1.00  0.00     0.026 C 
ATOM     10  C   UNL A   1      32.233  23.214  24.122  1.00  0.00     0.314 C 
ATOM     11  C   UNL A   1      31.726  25.987  23.507  1.00  0.00     0.033 A 
ATOM     12  O   UNL A   1      30.889  23.694  23.865  1.00  0.00    -0.475 OA
ATOM     13  C   UNL A   1      30.691  25.037  23.652  1.00  0.00     0.129 A 
ATOM     14  C   UNL A   1      31.429  27.372  23.390  1.00  0.00     0.042 A 
ATOM     15  C   UNL A   1      29.360  25.437  23.679  1.00  0.00     0.049 A 
ATOM     16  C   UNL A   1      30.062  27.745  23.456  1.00  0.00     0.055 A 
ATOM     17  C   UNL A   1      29.047  26.787  23.596  1.00  0.00     0.025 A 
ATOM     18  Cl  UNL A   1      29.523  29.396  23.438  1.00  0.00    -0.083 Cl
BRANCH  10  19
ATOM     19  C   UNL A   1      32.678  22.275  22.989  1.00  0.00     0.429 C 
ATOM     20  F   UNL A   1      33.375  21.211  23.457  1.00  0.00    -0.167 F 
ATOM     21  F   UNL A   1      31.631  21.791  22.282  1.00  0.00    -0.167 F 
ATOM     22  F   UNL A   1      33.478  22.923  22.109  1.00  0.00    -0.167 F 
ENDBRANCH  10  19
BRANCH  14  23
ATOM     23  S   UNL A   1      32.657  28.714  23.348  1.00  0.00    -0.088 SA
BRANCH  23  24
ATOM     24  C   UNL A   1      32.991  29.211  25.019  1.00  0.00     0.012 A 
ATOM     25  C   UNL A   1      34.042  28.595  25.714  1.00  0.00     0.015 A 
ATOM     26  C   UNL A   1      32.256  30.221  25.647  1.00  0.00     0.015 A 
ATOM     27  C   UNL A   1      34.403  29.037  26.987  1.00  0.00     0.001 A 
ATOM     28  C   UNL A   1      32.615  30.659  26.927  1.00  0.00     0.001 A 
ATOM     29  C   UNL A   1      33.696  30.076  27.589  1.00  0.00     0.000 A 
ENDBRANCH  23  24
ENDBRANCH  14  23
ENDBRANCH   6   8
ENDBRANCH   3   4
ENDBRANCH   2   3
ENDBRANCH   1   2
BRANCH   1  30
ATOM     30  C   UNL A   1      36.614  19.972  24.966  1.00  0.00     0.002 C 
BRANCH  30  31
ATOM     31  C   UNL A   1      37.954  19.230  24.937  1.00  0.00     0.021 C 
BRANCH  31  32
ATOM     32  C   UNL A   1      39.108  19.857  25.715  1.00  0.00     0.116 C 
BRANCH  32  33
ATOM     33  N   UNL A   1      40.281  19.008  25.806  1.00  0.00    -0.352 N 
ATOM     34  C   UNL A   1      41.587  19.312  26.107  1.00  0.00     0.251 C 
ATOM     35  H   UNL A   1      40.114  18.057  25.619  1.00  0.00     0.163 HD
ATOM     36  O   UNL A   1      42.432  18.420  26.060  1.00  0.00    -0.269 OA
BRANCH  34  37
ATOM     37  C   UNL A   1      42.016  20.691  26.456  1.00  0.00     0.039 A 
ATOM     38  C   UNL A   1      42.278  21.582  25.406  1.00  0.00     0.014 A 
ATOM     39  C   UNL A   1      42.227  21.106  27.773  1.00  0.00     0.014 A 
ATOM     40  C   UNL A   1      42.688  22.891  25.674  1.00  0.00     0.010 A 
ATOM     41  C   UNL A   1      42.591  22.430  28.043  1.00  0.00     0.010 A 
ATOM     42  C   UNL A   1      42.823  23.335  26.996  1.00  0.00    -0.014 A 
BRANCH  42  43
ATOM     43  C   UNL A   1      43.203  24.741  27.294  1.00  0.00     0.031 A 
ATOM     44  C   UNL A   1      44.596  25.232  27.017  1.00  0.00     0.074 A 
ATOM     45  C   UNL A   1      42.303  25.573  27.853  1.00  0.00     0.049 A 
ATOM     46  N   UNL A   1      45.132  26.398  27.284  1.00  0.00    -0.248 NA
ATOM     47  C   UNL A   1      45.513  24.283  26.369  1.00  0.00     0.031 C 
ATOM     48  C   UNL A   1      40.923  25.225  28.187  1.00  0.00     0.029 A 
ATOM     49  N   UNL A   1      42.419  26.885  28.241  1.00  0.00    -0.354 N 
ATOM     50  C   UNL A   1      46.450  26.315  26.858  1.00  0.00     0.074 A 
ATOM     51  C   UNL A   1      46.641  24.980  26.331  1.00  0.00     0.031 C 
ATOM     52  C   UNL A   1      40.313  26.301  28.711  1.00  0.00     0.029 A 
ATOM     53  C   UNL A   1      41.267  27.405  28.777  1.00  0.00     0.049 A 
ATOM     54  H   UNL A   1      43.250  27.406  28.145  1.00  0.00     0.167 HD
ATOM     55  C   UNL A   1      47.412  27.268  26.895  1.00  0.00     0.037 A 
ATOM     56  C   UNL A   1      41.008  28.631  29.268  1.00  0.00     0.037 A 
ATOM     57  C   UNL A   1      47.223  28.609  27.381  1.00  0.00     0.049 A 
ATOM     58  C   UNL A   1      42.087  29.676  29.281  1.00  0.00     0.074 A 
ATOM     59  C   UNL A   1      48.137  29.650  27.423  1.00  0.00     0.029 A 
ATOM     60  N   UNL A   1      46.036  29.099  27.899  1.00  0.00    -0.354 N 
ATOM     61  N   UNL A   1      43.327  29.586  28.867  1.00  0.00    -0.248 NA
ATOM     62  C   UNL A   1      41.732  30.992  29.831  1.00  0.00     0.031 C 
ATOM     63  C   UNL A   1      47.505  30.765  27.983  1.00  0.00     0.029 A 
ATOM     64  C   UNL A   1      46.194  30.426  28.268  1.00  0.00     0.049 A 
ATOM     65  H   UNL A   1      45.204  28.583  27.991  1.00  0.00     0.167 HD
ATOM     66  C   UNL A   1      43.893  30.833  29.088  1.00  0.00     0.074 A 
ATOM     67  C   UNL A   1      42.861  31.667  29.667  1.00  0.00     0.031 C 
ATOM     68  C   UNL A   1      45.157  31.247  28.833  1.00  0.00     0.037 A 
BRANCH  55  69
ATOM     69  C   UNL A   1      48.772  26.891  26.392  1.00  0.00     0.064 A 
ATOM     70  C   UNL A   1      49.725  26.303  27.236  1.00  0.00     0.173 A 
ATOM     71  C   UNL A   1      49.107  27.077  25.044  1.00  0.00     0.173 A 
ATOM     72  F   UNL A   1      49.451  26.118  28.537  1.00  0.00    -0.203 F 
ATOM     73  C   UNL A   1      50.975  25.931  26.750  1.00  0.00     0.198 A 
ATOM     74  C   UNL A   1      50.351  26.686  24.557  1.00  0.00     0.198 A 
ATOM     75  F   UNL A   1      48.226  27.632  24.198  1.00  0.00    -0.203 F 
ATOM     76  F   UNL A   1      51.883  25.399  27.579  1.00  0.00    -0.200 F 
ATOM     77  C   UNL A   1      51.285  26.117  25.411  1.00  0.00     0.200 A 
ATOM     78  F   UNL A   1      50.648  26.861  23.262  1.00  0.00    -0.200 F 
ATOM     79  F   UNL A   1      52.487  25.753  24.944  1.00  0.00    -0.200 F 
ENDBRANCH  55  69
BRANCH  56  80
ATOM     80  C   UNL A   1      39.649  28.949  29.769  1.00  0.00     0.064 A 
ATOM     81  C   UNL A   1      39.265  28.584  31.067  1.00  0.00     0.173 A 
ATOM     82  C   UNL A   1      38.716  29.623  28.972  1.00  0.00     0.173 A 
ATOM     83  F   UNL A   1      40.121  27.917  31.854  1.00  0.00    -0.203 F 
ATOM     84  C   UNL A   1      37.991  28.876  31.546  1.00  0.00     0.198 A 
ATOM     85  C   UNL A   1      37.447  29.930  29.459  1.00  0.00     0.198 A 
ATOM     86  F   UNL A   1      39.040  29.991  27.724  1.00  0.00    -0.203 F 
ATOM     87  F   UNL A   1      37.637  28.492  32.780  1.00  0.00    -0.200 F 
ATOM     88  C   UNL A   1      37.085  29.553  30.744  1.00  0.00     0.200 A 
ATOM     89  F   UNL A   1      36.575  30.589  28.683  1.00  0.00    -0.200 F 
ATOM     90  F   UNL A   1      35.859  29.836  31.207  1.00  0.00    -0.200 F 
ENDBRANCH  56  80
BRANCH  68  91
ATOM     91  C   UNL A   1      45.489  32.671  29.155  1.00  0.00     0.064 A 
ATOM     92  C   UNL A   1      46.047  33.028  30.390  1.00  0.00     0.173 A 
ATOM     93  C   UNL A   1      45.285  33.681  28.203  1.00  0.00     0.173 A 
ATOM     94  F   UNL A   1      46.245  32.097  31.335  1.00  0.00    -0.203 F 
ATOM     95  C   UNL A   1      46.378  34.351  30.667  1.00  0.00     0.198 A 
ATOM     96  C   UNL A   1      45.632  35.000  28.478  1.00  0.00     0.198 A 
ATOM     97  F   UNL A   1      44.755  33.385  27.008  1.00  0.00    -0.203 F 
ATOM     98  F   UNL A   1      46.884  34.677  31.864  1.00  0.00    -0.200 F 
ATOM     99  C   UNL A   1      46.175  35.335  29.710  1.00  0.00     0.200 A 
ATOM    100  F   UNL A   1      45.438  35.949  27.552  1.00  0.00    -0.200 F 
ATOM    101  F   UNL A   1      46.496  36.608  29.978  1.00  0.00    -0.200 F 
ENDBRANCH  68  91
ENDBRANCH  42  43
ENDBRANCH  34  37
ENDBRANCH  32  33
ENDBRANCH  31  32
ENDBRANCH  30  31
ENDBRANCH   1  30
TORSDOF 16
ENDMDL
MODEL 3
REMARK VINA RESULT:     -12.2      5.553     10.954
REMARK SMILES O=C(NCCCCCCNC(=O)c1ccc(-c2c3nc(c(-c4c(F)c(F)c(F)c(F)c4F)c4ccc([nH]4)c(-c4c(F)c(F)c(F)c(F)c4F)c4nc(c(-c5c(F)c(F)c(F)c(F)c5F)c5ccc2[nH]5)C=C4)C=C3)cc1)C1=Cc2c(ccc(Cl)c2Sc2ccccc2)O[C@H]1C(F)(F)F
REMARK SMILES IDX 6 1 5 2 4 3 3 4 1 5 2 6 76 8 77 9 93 10 78 11 92 12 79 13
REMARK SMILES IDX 84 14 80 15 82 16 81 17 83 18 94 19 95 20 96 21 97 22 85 23
REMARK SMILES IDX 86 24 87 25 91 26 88 27 90 28 89 29 7 30 8 31 9 32 10 33
REMARK SMILES IDX 11 34 12 36 13 37 14 38 75 39 15 40 74 41 16 42 17 43 18 44
REMARK SMILES IDX 68 45 19 46 73 47 67 48 69 49 20 50 72 51 66 52 65 53 21 55
REMARK SMILES IDX 53 56 33 57 52 58 34 59 37 60 51 61 70 62 35 63 36 64 50 66
REMARK SMILES IDX 71 67 38 68 22 69 23 70 31 71 24 72 25 73 29 74 32 75 26 76
REMARK SMILES IDX 27 77 30 78 28 79 54 80 55 81 63 82 56 83 57 84 61 85 64 86
REMARK SMILES IDX 58 87 59 88 62 89 60 90 39 91 40 92 48 93 41 94 42 95 46 96
REMARK SMILES IDX 49 97 43 98 44 99 47 100 45 101
REMARK H PARENT 3 7 10 35 69 54 37 65
REMARK Flexibility Score: inf
ROOT
ATOM      1  C   UNL A   1      31.546  29.712  27.082  1.00  0.00     0.002 C 
ENDROOT
BRANCH   1   2
ATOM      2  C   UNL A   1      32.842  28.916  27.250  1.00  0.00     0.021 C 
BRANCH   2   3
ATOM      3  C   UNL A   1      32.769  27.461  26.793  1.00  0.00     0.116 C 
BRANCH   3   4
ATOM      4  N   UNL A   1      33.653  27.174  25.656  1.00  0.00    -0.352 N 
ATOM      5  O   UNL A   1      34.407  26.066  23.862  1.00  0.00    -0.270 OA
ATOM      6  C   UNL A   1      33.561  26.207  24.700  1.00  0.00     0.251 C 
ATOM      7  H   UNL A   1      34.432  27.770  25.572  1.00  0.00     0.163 HD
BRANCH   6   8
ATOM      8  C   UNL A   1      32.398  25.286  24.744  1.00  0.00     0.067 C 
ATOM      9  C   UNL A   1      32.546  24.135  25.408  1.00  0.00     0.026 C 
ATOM     10  C   UNL A   1      31.330  25.470  23.713  1.00  0.00     0.314 C 
ATOM     11  C   UNL A   1      32.274  22.908  24.643  1.00  0.00     0.033 A 
ATOM     12  O   UNL A   1      30.994  24.245  23.013  1.00  0.00    -0.475 OA
ATOM     13  C   UNL A   1      31.531  23.059  23.452  1.00  0.00     0.129 A 
ATOM     14  C   UNL A   1      32.879  21.663  24.969  1.00  0.00     0.042 A 
ATOM     15  C   UNL A   1      31.371  21.992  22.576  1.00  0.00     0.049 A 
ATOM     16  C   UNL A   1      32.722  20.608  24.034  1.00  0.00     0.055 A 
ATOM     17  C   UNL A   1      31.976  20.775  22.859  1.00  0.00     0.025 A 
ATOM     18  Cl  UNL A   1      33.478  19.054  24.216  1.00  0.00    -0.083 Cl
BRANCH  10  19
ATOM     19  C   UNL A   1      30.068  26.069  24.352  1.00  0.00     0.429 C 
ATOM     20  F   UNL A   1      30.246  27.365  24.710  1.00  0.00    -0.167 F 
ATOM     21  F   UNL A   1      29.001  26.025  23.522  1.00  0.00    -0.167 F 
ATOM     22  F   UNL A   1      29.722  25.389  25.471  1.00  0.00    -0.167 F 
ENDBRANCH  10  19
BRANCH  14  23
ATOM     23  S   UNL A   1      33.981  21.364  26.385  1.00  0.00    -0.088 SA
BRANCH  23  24
ATOM     24  C   UNL A   1      35.611  21.913  25.943  1.00  0.00     0.012 A 
ATOM     25  C   UNL A   1      35.949  23.261  26.131  1.00  0.00     0.015 A 
ATOM     26  C   UNL A   1      36.574  21.030  25.443  1.00  0.00     0.015 A 
ATOM     27  C   UNL A   1      37.251  23.703  25.897  1.00  0.00     0.001 A 
ATOM     28  C   UNL A   1      37.879  21.477  25.204  1.00  0.00     0.001 A 
ATOM     29  C   UNL A   1      38.219  22.809  25.445  1.00  0.00     0.000 A 
ENDBRANCH  23  24
ENDBRANCH  14  23
ENDBRANCH   6   8
ENDBRANCH   3   4
ENDBRANCH   2   3
ENDBRANCH   1   2
BRANCH   1  30
ATOM     30  C   UNL A   1      31.552  30.848  26.050  1.00  0.00     0.002 C 
BRANCH  30  31
ATOM     31  C   UNL A   1      31.372  32.275  26.577  1.00  0.00     0.021 C 
BRANCH  31  32
ATOM     32  C   UNL A   1      32.626  32.992  27.071  1.00  0.00     0.116 C 
BRANCH  32  33
ATOM     33  N   UNL A   1      32.360  34.280  27.683  1.00  0.00    -0.352 N 
ATOM     34  C   UNL A   1      32.981  34.923  28.725  1.00  0.00     0.251 C 
ATOM     35  H   UNL A   1      31.608  34.775  27.285  1.00  0.00     0.163 HD
ATOM     36  O   UNL A   1      32.531  36.000  29.115  1.00  0.00    -0.269 OA
BRANCH  34  37
ATOM     37  C   UNL A   1      34.160  34.345  29.420  1.00  0.00     0.039 A 
ATOM     38  C   UNL A   1      33.936  33.609  30.591  1.00  0.00     0.014 A 
ATOM     39  C   UNL A   1      35.472  34.558  28.987  1.00  0.00     0.014 A 
ATOM     40  C   UNL A   1      35.007  33.043  31.289  1.00  0.00     0.010 A 
ATOM     41  C   UNL A   1      36.541  33.952  29.658  1.00  0.00     0.010 A 
ATOM     42  C   UNL A   1      36.318  33.188  30.813  1.00  0.00    -0.014 A 
BRANCH  42  43
ATOM     43  C   UNL A   1      37.459  32.544  31.514  1.00  0.00     0.031 A 
ATOM     44  C   UNL A   1      38.202  31.403  30.879  1.00  0.00     0.074 A 
ATOM     45  C   UNL A   1      37.810  32.962  32.747  1.00  0.00     0.049 A 
ATOM     46  N   UNL A   1      39.169  30.668  31.371  1.00  0.00    -0.248 NA
ATOM     47  C   UNL A   1      37.794  31.027  29.517  1.00  0.00     0.031 C 
ATOM     48  C   UNL A   1      37.167  34.048  33.485  1.00  0.00     0.029 A 
ATOM     49  N   UNL A   1      38.793  32.516  33.596  1.00  0.00    -0.354 N 
ATOM     50  C   UNL A   1      39.468  29.731  30.391  1.00  0.00     0.074 A 
ATOM     51  C   UNL A   1      38.570  29.977  29.282  1.00  0.00     0.031 C 
ATOM     52  C   UNL A   1      37.785  34.199  34.669  1.00  0.00     0.029 A 
ATOM     53  C   UNL A   1      38.846  33.203  34.784  1.00  0.00     0.049 A 
ATOM     54  H   UNL A   1      39.402  31.775  33.375  1.00  0.00     0.167 HD
ATOM     55  C   UNL A   1      40.413  28.760  30.410  1.00  0.00     0.037 A 
ATOM     56  C   UNL A   1      39.657  33.046  35.847  1.00  0.00     0.037 A 
ATOM     57  C   UNL A   1      41.335  28.531  31.489  1.00  0.00     0.049 A 
ATOM     58  C   UNL A   1      40.707  31.973  35.835  1.00  0.00     0.074 A 
ATOM     59  C   UNL A   1      42.347  27.587  31.577  1.00  0.00     0.029 A 
ATOM     60  N   UNL A   1      41.366  29.259  32.667  1.00  0.00    -0.354 N 
ATOM     61  N   UNL A   1      40.984  31.100  34.898  1.00  0.00    -0.248 NA
ATOM     62  C   UNL A   1      41.556  31.861  37.030  1.00  0.00     0.031 C 
ATOM     63  C   UNL A   1      42.979  27.736  32.816  1.00  0.00     0.029 A 
ATOM     64  C   UNL A   1      42.377  28.785  33.489  1.00  0.00     0.049 A 
ATOM     65  H   UNL A   1      40.762  30.003  32.888  1.00  0.00     0.167 HD
ATOM     66  C   UNL A   1      42.048  30.351  35.380  1.00  0.00     0.074 A 
ATOM     67  C   UNL A   1      42.373  30.873  36.691  1.00  0.00     0.031 C 
ATOM     68  C   UNL A   1      42.695  29.320  34.786  1.00  0.00     0.037 A 
BRANCH  55  69
ATOM     69  C   UNL A   1      40.496  27.860  29.215  1.00  0.00     0.064 A 
ATOM     70  C   UNL A   1      39.718  26.697  29.123  1.00  0.00     0.173 A 
ATOM     71  C   UNL A   1      41.326  28.188  28.136  1.00  0.00     0.173 A 
ATOM     72  F   UNL A   1      38.918  26.338  30.138  1.00  0.00    -0.203 F 
ATOM     73  C   UNL A   1      39.783  25.884  27.994  1.00  0.00     0.198 A 
ATOM     74  C   UNL A   1      41.375  27.384  27.001  1.00  0.00     0.198 A 
ATOM     75  F   UNL A   1      42.086  29.294  28.178  1.00  0.00    -0.203 F 
ATOM     76  F   UNL A   1      39.055  24.761  27.937  1.00  0.00    -0.200 F 
ATOM     77  C   UNL A   1      40.606  26.231  26.933  1.00  0.00     0.200 A 
ATOM     78  F   UNL A   1      42.167  27.721  25.973  1.00  0.00    -0.200 F 
ATOM     79  F   UNL A   1      40.663  25.449  25.845  1.00  0.00    -0.200 F 
ENDBRANCH  55  69
BRANCH  56  80
ATOM     80  C   UNL A   1      39.522  33.953  37.012  1.00  0.00     0.064 A 
ATOM     81  C   UNL A   1      40.177  35.193  37.030  1.00  0.00     0.173 A 
ATOM     82  C   UNL A   1      38.738  33.607  38.120  1.00  0.00     0.173 A 
ATOM     83  F   UNL A   1      40.955  35.552  36.000  1.00  0.00    -0.203 F 
ATOM     84  C   UNL A   1      40.057  36.050  38.120  1.00  0.00     0.198 A 
ATOM     85  C   UNL A   1      38.606  34.474  39.203  1.00  0.00     0.198 A 
ATOM     86  F   UNL A   1      38.094  32.431  38.145  1.00  0.00    -0.203 F 
ATOM     87  F   UNL A   1      40.716  37.218  38.127  1.00  0.00    -0.200 F 
ATOM     88  C   UNL A   1      39.269  35.693  39.203  1.00  0.00     0.200 A 
ATOM     89  F   UNL A   1      37.839  34.127  40.245  1.00  0.00    -0.200 F 
ATOM     90  F   UNL A   1      39.152  36.520  40.251  1.00  0.00    -0.200 F 
ENDBRANCH  56  80
BRANCH  68  91
ATOM     91  C   UNL A   1      43.836  28.705  35.536  1.00  0.00     0.064 A 
ATOM     92  C   UNL A   1      45.149  29.171  35.377  1.00  0.00     0.173 A 
ATOM     93  C   UNL A   1      43.607  27.667  36.451  1.00  0.00     0.173 A 
ATOM     94  F   UNL A   1      45.415  30.151  34.501  1.00  0.00    -0.203 F 
ATOM     95  C   UNL A   1      46.197  28.609  36.100  1.00  0.00     0.198 A 
ATOM     96  C   UNL A   1      44.656  27.119  37.184  1.00  0.00     0.198 A 
ATOM     97  F   UNL A   1      42.368  27.191  36.636  1.00  0.00    -0.203 F 
ATOM     98  F   UNL A   1      47.449  29.048  35.914  1.00  0.00    -0.200 F 
ATOM     99  C   UNL A   1      45.949  27.588  37.006  1.00  0.00     0.200 A 
ATOM    100  F   UNL A   1      44.415  26.135  38.061  1.00  0.00    -0.200 F 
ATOM    101  F   UNL A   1      46.959  27.050  37.704  1.00  0.00    -0.200 F 
ENDBRANCH  68  91
ENDBRANCH  42  43
ENDBRANCH  34  37
ENDBRANCH  32  33
ENDBRANCH  31  32
ENDBRANCH  30  31
ENDBRANCH   1  30
TORSDOF 16
ENDMDL
