MODEL 1
REMARK VINA RESULT:     -11.4      0.000      0.000
REMARK SMILES O=C(NCCCCCCNC(=O)[C@H](CCO)NC(=O)c1cccc(C(F)(F)F)c1F)c1ccc(-c2c3nc(c(-c4c(F)c(F)c(F)c(F)c4F)c4ccc([nH]4)c(-c4c(F)c(F)c(F)c(F)c4F)c4nc(c(-c5c(F)c(F)c(F)c(F)c5F)c5ccc2[nH]5)C=C4)C=C3)cc1
REMARK SMILES IDX 7 1 6 2 5 3 4 4 3 5 1 6 2 7 31 9 32 10 93 11 33 12 92 13
REMARK SMILES IDX 34 14 35 15 36 16 86 17 37 18 91 19 85 20 87 21 38 22 90 23
REMARK SMILES IDX 84 24 83 25 39 27 71 28 51 29 70 30 52 31 55 32 69 33 88 34
REMARK SMILES IDX 53 35 54 36 68 38 89 39 56 40 40 41 41 42 49 43 42 44 43 45
REMARK SMILES IDX 47 46 50 47 44 48 45 49 48 50 46 51 72 52 73 53 81 54 74 55
REMARK SMILES IDX 75 56 79 57 82 58 76 59 77 60 80 61 78 62 57 63 58 64 66 65
REMARK SMILES IDX 59 66 60 67 64 68 67 69 61 70 62 71 65 72 63 73 8 74 9 75
REMARK SMILES IDX 10 76 11 77 12 79 13 80 17 81 18 82 19 84 20 85 21 86 29 87
REMARK SMILES IDX 22 88 24 89 30 90 23 91 25 92 26 93 27 94 28 95 14 96 15 97
REMARK SMILES IDX 16 98
REMARK H PARENT 3 8 87 26 55 37 10 78 17 83 16 99
REMARK Flexibility Score: inf
ROOT
ATOM      1  C   UNL A   1      32.859  29.685  26.915  1.00  0.00     0.002 C 
ENDROOT
BRANCH   1   2
ATOM      2  C   UNL A   1      31.571  30.266  26.324  1.00  0.00     0.002 C 
BRANCH   2   3
ATOM      3  C   UNL A   1      31.389  31.770  26.524  1.00  0.00     0.021 C 
BRANCH   3   4
ATOM      4  C   UNL A   1      32.655  32.517  26.923  1.00  0.00     0.116 C 
BRANCH   4   5
ATOM      5  N   UNL A   1      32.377  33.845  27.444  1.00  0.00    -0.352 N 
ATOM      6  O   UNL A   1      32.550  35.553  28.919  1.00  0.00    -0.269 OA
ATOM      7  C   UNL A   1      33.003  34.507  28.476  1.00  0.00     0.251 C 
ATOM      8  H   UNL A   1      31.645  34.334  27.002  1.00  0.00     0.163 HD
BRANCH   7   9
ATOM      9  C   UNL A   1      34.231  33.925  29.061  1.00  0.00     0.039 A 
ATOM     10  C   UNL A   1      34.145  32.840  29.936  1.00  0.00     0.014 A 
ATOM     11  C   UNL A   1      35.477  34.473  28.738  1.00  0.00     0.014 A 
ATOM     12  C   UNL A   1      35.285  32.390  30.588  1.00  0.00     0.010 A 
ATOM     13  C   UNL A   1      36.635  33.961  29.331  1.00  0.00     0.010 A 
ATOM     14  C   UNL A   1      36.547  32.930  30.278  1.00  0.00    -0.014 A 
BRANCH  14  15
ATOM     15  C   UNL A   1      37.750  32.322  30.901  1.00  0.00     0.031 A 
ATOM     16  C   UNL A   1      38.180  32.672  32.296  1.00  0.00     0.074 A 
ATOM     17  C   UNL A   1      38.417  31.384  30.199  1.00  0.00     0.049 A 
ATOM     18  N   UNL A   1      39.155  32.158  33.005  1.00  0.00    -0.248 NA
ATOM     19  C   UNL A   1      37.430  33.730  32.988  1.00  0.00     0.031 C 
ATOM     20  C   UNL A   1      38.094  30.979  28.828  1.00  0.00     0.029 A 
ATOM     21  N   UNL A   1      39.464  30.570  30.546  1.00  0.00    -0.354 N 
ATOM     22  C   UNL A   1      39.145  32.837  34.216  1.00  0.00     0.074 A 
ATOM     23  C   UNL A   1      38.080  33.815  34.143  1.00  0.00     0.031 C 
ATOM     24  C   UNL A   1      38.870  29.943  28.481  1.00  0.00     0.029 A 
ATOM     25  C   UNL A   1      39.787  29.652  29.577  1.00  0.00     0.049 A 
ATOM     26  H   UNL A   1      39.939  30.639  31.406  1.00  0.00     0.167 HD
ATOM     27  C   UNL A   1      39.949  32.651  35.291  1.00  0.00     0.037 A 
ATOM     28  C   UNL A   1      40.718  28.681  29.569  1.00  0.00     0.037 A 
ATOM     29  C   UNL A   1      40.995  31.662  35.362  1.00  0.00     0.049 A 
ATOM     30  C   UNL A   1      41.593  28.503  30.774  1.00  0.00     0.074 A 
ATOM     31  C   UNL A   1      41.847  31.385  36.419  1.00  0.00     0.029 A 
ATOM     32  N   UNL A   1      41.328  30.784  34.342  1.00  0.00    -0.354 N 
ATOM     33  N   UNL A   1      41.562  29.143  31.918  1.00  0.00    -0.248 NA
ATOM     34  C   UNL A   1      42.641  27.478  30.685  1.00  0.00     0.031 C 
ATOM     35  C   UNL A   1      42.720  30.366  36.024  1.00  0.00     0.029 A 
ATOM     36  C   UNL A   1      42.384  29.978  34.737  1.00  0.00     0.049 A 
ATOM     37  H   UNL A   1      40.882  30.741  33.466  1.00  0.00     0.167 HD
ATOM     38  C   UNL A   1      42.582  28.601  32.684  1.00  0.00     0.074 A 
ATOM     39  C   UNL A   1      43.193  27.556  31.888  1.00  0.00     0.031 C 
ATOM     40  C   UNL A   1      42.984  28.949  33.930  1.00  0.00     0.037 A 
BRANCH  27  41
ATOM     41  C   UNL A   1      39.745  33.527  36.491  1.00  0.00     0.064 A 
ATOM     42  C   UNL A   1      38.852  33.147  37.505  1.00  0.00     0.173 A 
ATOM     43  C   UNL A   1      40.344  34.791  36.582  1.00  0.00     0.173 A 
ATOM     44  F   UNL A   1      38.247  31.951  37.458  1.00  0.00    -0.203 F 
ATOM     45  C   UNL A   1      38.549  34.011  38.553  1.00  0.00     0.198 A 
ATOM     46  C   UNL A   1      40.054  35.645  37.644  1.00  0.00     0.198 A 
ATOM     47  F   UNL A   1      41.212  35.198  35.643  1.00  0.00    -0.203 F 
ATOM     48  F   UNL A   1      37.663  33.643  39.490  1.00  0.00    -0.200 F 
ATOM     49  C   UNL A   1      39.149  35.259  38.622  1.00  0.00     0.200 A 
ATOM     50  F   UNL A   1      40.647  36.845  37.719  1.00  0.00    -0.200 F 
ATOM     51  F   UNL A   1      38.852  36.093  39.629  1.00  0.00    -0.200 F 
ENDBRANCH  27  41
BRANCH  28  52
ATOM     52  C   UNL A   1      40.852  27.800  28.381  1.00  0.00     0.064 A 
ATOM     53  C   UNL A   1      41.641  28.172  27.283  1.00  0.00     0.173 A 
ATOM     54  C   UNL A   1      40.166  26.580  28.310  1.00  0.00     0.173 A 
ATOM     55  F   UNL A   1      42.313  29.332  27.301  1.00  0.00    -0.203 F 
ATOM     56  C   UNL A   1      41.720  27.367  26.149  1.00  0.00     0.198 A 
ATOM     57  C   UNL A   1      40.270  25.762  27.187  1.00  0.00     0.198 A 
ATOM     58  F   UNL A   1      39.414  26.172  29.344  1.00  0.00    -0.203 F 
ATOM     59  F   UNL A   1      42.449  27.765  25.098  1.00  0.00    -0.200 F 
ATOM     60  C   UNL A   1      41.040  26.160  26.104  1.00  0.00     0.200 A 
ATOM     61  F   UNL A   1      39.631  24.585  27.157  1.00  0.00    -0.200 F 
ATOM     62  F   UNL A   1      41.128  25.380  25.018  1.00  0.00    -0.200 F 
ENDBRANCH  28  52
BRANCH  40  63
ATOM     63  C   UNL A   1      44.142  28.191  34.508  1.00  0.00     0.064 A 
ATOM     64  C   UNL A   1      45.455  28.650  34.331  1.00  0.00     0.173 A 
ATOM     65  C   UNL A   1      43.951  26.986  35.200  1.00  0.00     0.173 A 
ATOM     66  F   UNL A   1      45.688  29.795  33.671  1.00  0.00    -0.203 F 
ATOM     67  C   UNL A   1      46.536  27.927  34.824  1.00  0.00     0.198 A 
ATOM     68  C   UNL A   1      45.034  26.279  35.714  1.00  0.00     0.198 A 
ATOM     69  F   UNL A   1      42.711  26.516  35.407  1.00  0.00    -0.203 F 
ATOM     70  F   UNL A   1      47.785  28.372  34.626  1.00  0.00    -0.200 F 
ATOM     71  C   UNL A   1      46.325  26.746  35.520  1.00  0.00     0.200 A 
ATOM     72  F   UNL A   1      44.826  25.152  36.408  1.00  0.00    -0.200 F 
ATOM     73  F   UNL A   1      47.366  26.060  36.009  1.00  0.00    -0.200 F 
ENDBRANCH  40  63
ENDBRANCH  14  15
ENDBRANCH   7   9
ENDBRANCH   4   5
ENDBRANCH   3   4
ENDBRANCH   2   3
ENDBRANCH   1   2
BRANCH   1  74
ATOM     74  C   UNL A   1      32.790  28.200  27.303  1.00  0.00     0.021 C 
BRANCH  74  75
ATOM     75  C   UNL A   1      32.470  27.254  26.139  1.00  0.00     0.116 C 
BRANCH  75  76
ATOM     76  N   UNL A   1      33.404  26.146  26.109  1.00  0.00    -0.354 N 
ATOM     77  C   UNL A   1      33.205  24.858  25.711  1.00  0.00     0.242 C 
ATOM     78  H   UNL A   1      34.314  26.355  26.421  1.00  0.00     0.163 HD
ATOM     79  O   UNL A   1      33.984  24.000  26.141  1.00  0.00    -0.273 OA
BRANCH  77  80
ATOM     80  C   UNL A   1      32.020  24.474  24.795  1.00  0.00     0.173 C 
BRANCH  80  81
ATOM     81  N   UNL A   1      32.557  24.233  23.446  1.00  0.00    -0.340 N 
ATOM     82  C   UNL A   1      32.807  25.064  22.395  1.00  0.00     0.254 C 
ATOM     83  H   UNL A   1      32.777  23.290  23.268  1.00  0.00     0.164 HD
ATOM     84  O   UNL A   1      33.158  24.593  21.317  1.00  0.00    -0.269 OA
BRANCH  82  85
ATOM     85  C   UNL A   1      32.630  26.520  22.500  1.00  0.00     0.076 A 
ATOM     86  C   UNL A   1      33.772  27.314  22.660  1.00  0.00     0.017 A 
ATOM     87  C   UNL A   1      31.363  27.092  22.593  1.00  0.00     0.148 A 
ATOM     88  C   UNL A   1      33.638  28.684  22.874  1.00  0.00     0.002 A 
ATOM     89  C   UNL A   1      31.213  28.464  22.797  1.00  0.00     0.092 A 
ATOM     90  F   UNL A   1      30.273  26.318  22.509  1.00  0.00    -0.205 F 
ATOM     91  C   UNL A   1      32.366  29.257  22.940  1.00  0.00     0.016 A 
BRANCH  89  92
ATOM     92  C   UNL A   1      29.852  29.084  22.913  1.00  0.00     0.419 C 
ATOM     93  F   UNL A   1      29.275  29.297  21.697  1.00  0.00    -0.166 F 
ATOM     94  F   UNL A   1      28.985  28.279  23.594  1.00  0.00    -0.166 F 
ATOM     95  F   UNL A   1      29.820  30.278  23.563  1.00  0.00    -0.166 F 
ENDBRANCH  89  92
ENDBRANCH  82  85
ENDBRANCH  80  81
BRANCH  80  96
ATOM     96  C   UNL A   1      31.236  23.237  25.252  1.00  0.00     0.063 C 
BRANCH  96  97
ATOM     97  C   UNL A   1      30.602  23.332  26.640  1.00  0.00     0.158 C 
BRANCH  97  98
ATOM     98  O   UNL A   1      31.425  22.764  27.644  1.00  0.00    -0.396 OA
ATOM     99  H   UNL A   1      31.990  22.080  27.251  1.00  0.00     0.210 HD
ENDBRANCH  97  98
ENDBRANCH  96  97
ENDBRANCH  80  96
ENDBRANCH  77  80
ENDBRANCH  75  76
ENDBRANCH  74  75
ENDBRANCH   1  74
TORSDOF 19
ENDMDL
MODEL 2
REMARK VINA RESULT:     -11.2      0.430      1.616
REMARK SMILES O=C(NCCCCCCNC(=O)[C@H](CCO)NC(=O)c1cccc(C(F)(F)F)c1F)c1ccc(-c2c3nc(c(-c4c(F)c(F)c(F)c(F)c4F)c4ccc([nH]4)c(-c4c(F)c(F)c(F)c(F)c4F)c4nc(c(-c5c(F)c(F)c(F)c(F)c5F)c5ccc2[nH]5)C=C4)C=C3)cc1
REMARK SMILES IDX 7 1 6 2 5 3 4 4 3 5 1 6 2 7 31 9 32 10 93 11 33 12 92 13
REMARK SMILES IDX 34 14 35 15 36 16 86 17 37 18 91 19 85 20 87 21 38 22 90 23
REMARK SMILES IDX 84 24 83 25 39 27 71 28 51 29 70 30 52 31 55 32 69 33 88 34
REMARK SMILES IDX 53 35 54 36 68 38 89 39 56 40 40 41 41 42 49 43 42 44 43 45
REMARK SMILES IDX 47 46 50 47 44 48 45 49 48 50 46 51 72 52 73 53 81 54 74 55
REMARK SMILES IDX 75 56 79 57 82 58 76 59 77 60 80 61 78 62 57 63 58 64 66 65
REMARK SMILES IDX 59 66 60 67 64 68 67 69 61 70 62 71 65 72 63 73 8 74 9 75
REMARK SMILES IDX 10 76 11 77 12 79 13 80 17 81 18 82 19 84 20 85 21 86 29 87
REMARK SMILES IDX 22 88 24 89 30 90 23 91 25 92 26 93 27 94 28 95 14 96 15 97
REMARK SMILES IDX 16 98
REMARK H PARENT 3 8 87 26 55 37 10 78 17 83 16 99
REMARK Flexibility Score: inf
ROOT
ATOM      1  C   UNL A   1      32.520  29.612  26.764  1.00  0.00     0.002 C 
ENDROOT
BRANCH   1   2
ATOM      2  C   UNL A   1      31.489  30.457  26.010  1.00  0.00     0.002 C 
BRANCH   2   3
ATOM      3  C   UNL A   1      31.278  31.866  26.564  1.00  0.00     0.021 C 
BRANCH   3   4
ATOM      4  C   UNL A   1      32.549  32.562  27.033  1.00  0.00     0.116 C 
BRANCH   4   5
ATOM      5  N   UNL A   1      32.306  33.926  27.475  1.00  0.00    -0.352 N 
ATOM      6  O   UNL A   1      32.522  35.711  28.848  1.00  0.00    -0.269 OA
ATOM      7  C   UNL A   1      32.947  34.630  28.469  1.00  0.00     0.251 C 
ATOM      8  H   UNL A   1      31.589  34.408  27.002  1.00  0.00     0.163 HD
BRANCH   7   9
ATOM      9  C   UNL A   1      34.157  34.050  29.092  1.00  0.00     0.039 A 
ATOM     10  C   UNL A   1      34.039  33.023  30.031  1.00  0.00     0.014 A 
ATOM     11  C   UNL A   1      35.418  34.542  28.741  1.00  0.00     0.014 A 
ATOM     12  C   UNL A   1      35.164  32.581  30.713  1.00  0.00     0.010 A 
ATOM     13  C   UNL A   1      36.560  34.034  29.368  1.00  0.00     0.010 A 
ATOM     14  C   UNL A   1      36.441  33.065  30.375  1.00  0.00    -0.014 A 
BRANCH  14  15
ATOM     15  C   UNL A   1      37.626  32.463  31.038  1.00  0.00     0.031 A 
ATOM     16  C   UNL A   1      38.021  32.831  32.439  1.00  0.00     0.074 A 
ATOM     17  C   UNL A   1      38.307  31.512  30.367  1.00  0.00     0.049 A 
ATOM     18  N   UNL A   1      38.975  32.325  33.180  1.00  0.00    -0.248 NA
ATOM     19  C   UNL A   1      37.257  33.902  33.096  1.00  0.00     0.031 C 
ATOM     20  C   UNL A   1      38.018  31.088  28.995  1.00  0.00     0.029 A 
ATOM     21  N   UNL A   1      39.342  30.700  30.754  1.00  0.00    -0.354 N 
ATOM     22  C   UNL A   1      38.936  33.021  34.381  1.00  0.00     0.074 A 
ATOM     23  C   UNL A   1      37.877  34.001  34.266  1.00  0.00     0.031 C 
ATOM     24  C   UNL A   1      38.799  30.044  28.683  1.00  0.00     0.029 A 
ATOM     25  C   UNL A   1      39.686  29.766  29.806  1.00  0.00     0.049 A 
ATOM     26  H   UNL A   1      39.794  30.780  31.624  1.00  0.00     0.167 HD
ATOM     27  C   UNL A   1      39.712  32.848  35.478  1.00  0.00     0.037 A 
ATOM     28  C   UNL A   1      40.613  28.792  29.836  1.00  0.00     0.037 A 
ATOM     29  C   UNL A   1      40.752  31.857  35.591  1.00  0.00     0.049 A 
ATOM     30  C   UNL A   1      41.456  28.629  31.067  1.00  0.00     0.074 A 
ATOM     31  C   UNL A   1      41.575  31.593  36.673  1.00  0.00     0.029 A 
ATOM     32  N   UNL A   1      41.108  30.963  34.592  1.00  0.00    -0.354 N 
ATOM     33  N   UNL A   1      41.398  29.286  32.199  1.00  0.00    -0.248 NA
ATOM     34  C   UNL A   1      42.502  27.600  31.020  1.00  0.00     0.031 C 
ATOM     35  C   UNL A   1      42.453  30.565  36.316  1.00  0.00     0.029 A 
ATOM     36  C   UNL A   1      42.150  30.159  35.027  1.00  0.00     0.049 A 
ATOM     37  H   UNL A   1      40.684  30.909  33.706  1.00  0.00     0.167 HD
ATOM     38  C   UNL A   1      42.396  28.752  33.000  1.00  0.00     0.074 A 
ATOM     39  C   UNL A   1      43.023  27.694  32.236  1.00  0.00     0.031 C 
ATOM     40  C   UNL A   1      42.767  29.116  34.251  1.00  0.00     0.037 A 
BRANCH  27  41
ATOM     41  C   UNL A   1      39.480  33.743  36.659  1.00  0.00     0.064 A 
ATOM     42  C   UNL A   1      40.187  34.949  36.787  1.00  0.00     0.173 A 
ATOM     43  C   UNL A   1      38.648  33.353  37.718  1.00  0.00     0.173 A 
ATOM     44  F   UNL A   1      41.002  35.361  35.805  1.00  0.00    -0.203 F 
ATOM     45  C   UNL A   1      40.085  35.720  37.942  1.00  0.00     0.198 A 
ATOM     46  C   UNL A   1      38.533  34.137  38.864  1.00  0.00     0.198 A 
ATOM     47  F   UNL A   1      37.945  32.213  37.641  1.00  0.00    -0.203 F 
ATOM     48  F   UNL A   1      40.799  36.849  38.058  1.00  0.00    -0.200 F 
ATOM     49  C   UNL A   1      39.260  35.314  38.979  1.00  0.00     0.200 A 
ATOM     50  F   UNL A   1      37.722  33.752  39.859  1.00  0.00    -0.200 F 
ATOM     51  F   UNL A   1      39.167  36.054  40.093  1.00  0.00    -0.200 F 
ENDBRANCH  27  41
BRANCH  28  52
ATOM     52  C   UNL A   1      40.774  27.894  28.666  1.00  0.00     0.064 A 
ATOM     53  C   UNL A   1      41.623  28.229  27.601  1.00  0.00     0.173 A 
ATOM     54  C   UNL A   1      40.057  26.693  28.576  1.00  0.00     0.173 A 
ATOM     55  F   UNL A   1      42.328  29.369  27.637  1.00  0.00    -0.203 F 
ATOM     56  C   UNL A   1      41.730  27.409  26.480  1.00  0.00     0.198 A 
ATOM     57  C   UNL A   1      40.187  25.859  27.468  1.00  0.00     0.198 A 
ATOM     58  F   UNL A   1      39.247  26.320  29.579  1.00  0.00    -0.203 F 
ATOM     59  F   UNL A   1      42.517  27.773  25.459  1.00  0.00    -0.200 F 
ATOM     60  C   UNL A   1      41.016  26.221  26.417  1.00  0.00     0.200 A 
ATOM     61  F   UNL A   1      39.515  24.701  27.422  1.00  0.00    -0.200 F 
ATOM     62  F   UNL A   1      41.130  25.427  25.345  1.00  0.00    -0.200 F 
ENDBRANCH  28  52
BRANCH  40  63
ATOM     63  C   UNL A   1      43.906  28.364  34.869  1.00  0.00     0.064 A 
ATOM     64  C   UNL A   1      43.675  27.180  35.585  1.00  0.00     0.173 A 
ATOM     65  C   UNL A   1      45.223  28.841  34.789  1.00  0.00     0.173 A 
ATOM     66  F   UNL A   1      42.432  26.688  35.695  1.00  0.00    -0.203 F 
ATOM     67  C   UNL A   1      44.722  26.503  36.202  1.00  0.00     0.198 A 
ATOM     68  C   UNL A   1      46.272  28.147  35.385  1.00  0.00     0.198 A 
ATOM     69  F   UNL A   1      45.494  29.961  34.102  1.00  0.00    -0.203 F 
ATOM     70  F   UNL A   1      44.478  25.385  36.899  1.00  0.00    -0.200 F 
ATOM     71  C   UNL A   1      46.019  26.983  36.097  1.00  0.00     0.200 A 
ATOM     72  F   UNL A   1      47.527  28.598  35.261  1.00  0.00    -0.200 F 
ATOM     73  F   UNL A   1      47.030  26.321  36.676  1.00  0.00    -0.200 F 
ENDBRANCH  40  63
ENDBRANCH  14  15
ENDBRANCH   7   9
ENDBRANCH   4   5
ENDBRANCH   3   4
ENDBRANCH   2   3
ENDBRANCH   1   2
BRANCH   1  74
ATOM     74  C   UNL A   1      31.979  28.314  27.380  1.00  0.00     0.021 C 
BRANCH  74  75
ATOM     75  C   UNL A   1      31.707  27.196  26.367  1.00  0.00     0.116 C 
BRANCH  75  76
ATOM     76  N   UNL A   1      32.847  26.307  26.267  1.00  0.00    -0.354 N 
ATOM     77  C   UNL A   1      32.918  25.044  25.759  1.00  0.00     0.242 C 
ATOM     78  H   UNL A   1      33.694  26.668  26.616  1.00  0.00     0.163 HD
ATOM     79  O   UNL A   1      33.853  24.328  26.135  1.00  0.00    -0.273 OA
BRANCH  77  80
ATOM     80  C   UNL A   1      31.842  24.508  24.787  1.00  0.00     0.173 C 
BRANCH  80  81
ATOM     81  N   UNL A   1      32.495  24.255  23.492  1.00  0.00    -0.340 N 
ATOM     82  C   UNL A   1      32.812  25.072  22.449  1.00  0.00     0.254 C 
ATOM     83  H   UNL A   1      32.751  23.314  23.353  1.00  0.00     0.164 HD
ATOM     84  O   UNL A   1      33.263  24.589  21.413  1.00  0.00    -0.269 OA
BRANCH  82  85
ATOM     85  C   UNL A   1      32.593  26.524  22.507  1.00  0.00     0.076 A 
ATOM     86  C   UNL A   1      33.711  27.356  22.639  1.00  0.00     0.017 A 
ATOM     87  C   UNL A   1      31.310  27.062  22.586  1.00  0.00     0.148 A 
ATOM     88  C   UNL A   1      33.538  28.728  22.809  1.00  0.00     0.002 A 
ATOM     89  C   UNL A   1      31.120  28.436  22.747  1.00  0.00     0.092 A 
ATOM     90  F   UNL A   1      30.242  26.255  22.530  1.00  0.00    -0.205 F 
ATOM     91  C   UNL A   1      32.251  29.265  22.862  1.00  0.00     0.016 A 
BRANCH  89  92
ATOM     92  C   UNL A   1      29.742  29.018  22.847  1.00  0.00     0.419 C 
ATOM     93  F   UNL A   1      29.205  29.290  21.625  1.00  0.00    -0.166 F 
ATOM     94  F   UNL A   1      28.871  28.158  23.449  1.00  0.00    -0.166 F 
ATOM     95  F   UNL A   1      29.660  30.171  23.563  1.00  0.00    -0.166 F 
ENDBRANCH  89  92
ENDBRANCH  82  85
ENDBRANCH  80  81
BRANCH  80  96
ATOM     96  C   UNL A   1      31.141  23.226  25.256  1.00  0.00     0.063 C 
BRANCH  96  97
ATOM     97  C   UNL A   1      30.302  23.359  26.526  1.00  0.00     0.158 C 
BRANCH  97  98
ATOM     98  O   UNL A   1      29.522  22.202  26.775  1.00  0.00    -0.396 OA
ATOM     99  H   UNL A   1      29.458  21.674  25.964  1.00  0.00     0.210 HD
ENDBRANCH  97  98
ENDBRANCH  96  97
ENDBRANCH  80  96
ENDBRANCH  77  80
ENDBRANCH  75  76
ENDBRANCH  74  75
ENDBRANCH   1  74
TORSDOF 19
ENDMDL
MODEL 3
REMARK VINA RESULT:     -11.2      5.257     10.670
REMARK SMILES O=C(NCCCCCCNC(=O)[C@H](CCO)NC(=O)c1cccc(C(F)(F)F)c1F)c1ccc(-c2c3nc(c(-c4c(F)c(F)c(F)c(F)c4F)c4ccc([nH]4)c(-c4c(F)c(F)c(F)c(F)c4F)c4nc(c(-c5c(F)c(F)c(F)c(F)c5F)c5ccc2[nH]5)C=C4)C=C3)cc1
REMARK SMILES IDX 7 1 6 2 5 3 4 4 3 5 1 6 2 7 31 9 32 10 93 11 33 12 92 13
REMARK SMILES IDX 34 14 35 15 36 16 86 17 37 18 91 19 85 20 87 21 38 22 90 23
REMARK SMILES IDX 84 24 83 25 39 27 71 28 51 29 70 30 52 31 55 32 69 33 88 34
REMARK SMILES IDX 53 35 54 36 68 38 89 39 56 40 40 41 41 42 49 43 42 44 43 45
REMARK SMILES IDX 47 46 50 47 44 48 45 49 48 50 46 51 72 52 73 53 81 54 74 55
REMARK SMILES IDX 75 56 79 57 82 58 76 59 77 60 80 61 78 62 57 63 58 64 66 65
REMARK SMILES IDX 59 66 60 67 64 68 67 69 61 70 62 71 65 72 63 73 8 74 9 75
REMARK SMILES IDX 10 76 11 77 12 79 13 80 17 81 18 82 19 84 20 85 21 86 29 87
REMARK SMILES IDX 22 88 24 89 30 90 23 91 25 92 26 93 27 94 28 95 14 96 15 97
REMARK SMILES IDX 16 98
REMARK H PARENT 3 8 87 26 55 37 10 78 17 83 16 99
REMARK Flexibility Score: inf
ROOT
ATOM      1  C   UNL A   1      37.112  21.976  24.587  1.00  0.00     0.002 C 
ENDROOT
BRANCH   1   2
ATOM      2  C   UNL A   1      36.787  20.530  24.973  1.00  0.00     0.002 C 
BRANCH   2   3
ATOM      3  C   UNL A   1      37.988  19.586  25.011  1.00  0.00     0.021 C 
BRANCH   3   4
ATOM      4  C   UNL A   1      39.194  20.120  25.771  1.00  0.00     0.116 C 
BRANCH   4   5
ATOM      5  N   UNL A   1      40.271  19.148  25.862  1.00  0.00    -0.352 N 
ATOM      6  O   UNL A   1      42.430  18.471  25.937  1.00  0.00    -0.269 OA
ATOM      7  C   UNL A   1      41.615  19.375  26.055  1.00  0.00     0.251 C 
ATOM      8  H   UNL A   1      40.005  18.204  25.772  1.00  0.00     0.163 HD
BRANCH   7   9
ATOM      9  C   UNL A   1      42.070  20.743  26.391  1.00  0.00     0.039 A 
ATOM     10  C   UNL A   1      42.329  21.089  27.718  1.00  0.00     0.014 A 
ATOM     11  C   UNL A   1      42.229  21.687  25.372  1.00  0.00     0.014 A 
ATOM     12  C   UNL A   1      42.619  22.408  28.041  1.00  0.00     0.010 A 
ATOM     13  C   UNL A   1      42.605  22.996  25.691  1.00  0.00     0.010 A 
ATOM     14  C   UNL A   1      42.782  23.373  27.030  1.00  0.00    -0.014 A 
BRANCH  14  15
ATOM     15  C   UNL A   1      43.225  24.736  27.416  1.00  0.00     0.031 A 
ATOM     16  C   UNL A   1      44.612  25.230  27.121  1.00  0.00     0.074 A 
ATOM     17  C   UNL A   1      42.317  25.557  27.982  1.00  0.00     0.049 A 
ATOM     18  N   UNL A   1      45.116  26.424  27.317  1.00  0.00    -0.248 NA
ATOM     19  C   UNL A   1      45.560  24.269  26.537  1.00  0.00     0.031 C 
ATOM     20  C   UNL A   1      40.945  25.176  28.326  1.00  0.00     0.029 A 
ATOM     21  N   UNL A   1      42.388  26.883  28.323  1.00  0.00    -0.354 N 
ATOM     22  C   UNL A   1      46.436  26.355  26.896  1.00  0.00     0.074 A 
ATOM     23  C   UNL A   1      46.667  24.997  26.450  1.00  0.00     0.031 C 
ATOM     24  C   UNL A   1      40.281  26.259  28.754  1.00  0.00     0.029 A 
ATOM     25  C   UNL A   1      41.195  27.395  28.774  1.00  0.00     0.049 A 
ATOM     26  H   UNL A   1      43.213  27.416  28.254  1.00  0.00     0.167 HD
ATOM     27  C   UNL A   1      47.365  27.342  26.877  1.00  0.00     0.037 A 
ATOM     28  C   UNL A   1      40.870  28.641  29.162  1.00  0.00     0.037 A 
ATOM     29  C   UNL A   1      47.121  28.697  27.304  1.00  0.00     0.049 A 
ATOM     30  C   UNL A   1      41.922  29.710  29.131  1.00  0.00     0.074 A 
ATOM     31  C   UNL A   1      47.995  29.771  27.301  1.00  0.00     0.029 A 
ATOM     32  N   UNL A   1      45.916  29.166  27.805  1.00  0.00    -0.354 N 
ATOM     33  N   UNL A   1      43.163  29.633  28.716  1.00  0.00    -0.248 NA
ATOM     34  C   UNL A   1      41.535  31.034  29.634  1.00  0.00     0.031 C 
ATOM     35  C   UNL A   1      47.331  30.879  27.834  1.00  0.00     0.029 A 
ATOM     36  C   UNL A   1      46.029  30.508  28.130  1.00  0.00     0.049 A 
ATOM     37  H   UNL A   1      45.100  28.625  27.914  1.00  0.00     0.167 HD
ATOM     38  C   UNL A   1      43.706  30.894  28.907  1.00  0.00     0.074 A 
ATOM     39  C   UNL A   1      42.649  31.727  29.443  1.00  0.00     0.031 C 
ATOM     40  C   UNL A   1      44.970  31.320  28.670  1.00  0.00     0.037 A 
BRANCH  27  41
ATOM     41  C   UNL A   1      48.741  27.013  26.380  1.00  0.00     0.064 A 
ATOM     42  C   UNL A   1      49.042  27.098  25.012  1.00  0.00     0.173 A 
ATOM     43  C   UNL A   1      49.725  26.504  27.239  1.00  0.00     0.173 A 
ATOM     44  F   UNL A   1      48.130  27.570  24.148  1.00  0.00    -0.203 F 
ATOM     45  C   UNL A   1      50.270  26.665  24.520  1.00  0.00     0.198 A 
ATOM     46  C   UNL A   1      50.961  26.091  26.746  1.00  0.00     0.198 A 
ATOM     47  F   UNL A   1      49.490  26.410  28.556  1.00  0.00    -0.203 F 
ATOM     48  F   UNL A   1      50.521  26.720  23.203  1.00  0.00    -0.200 F 
ATOM     49  C   UNL A   1      51.227  26.161  25.386  1.00  0.00     0.200 A 
ATOM     50  F   UNL A   1      51.892  25.619  27.586  1.00  0.00    -0.200 F 
ATOM     51  F   UNL A   1      52.408  25.738  24.910  1.00  0.00    -0.200 F 
ENDBRANCH  27  41
BRANCH  28  52
ATOM     52  C   UNL A   1      39.482  28.937  29.597  1.00  0.00     0.064 A 
ATOM     53  C   UNL A   1      38.537  29.471  28.708  1.00  0.00     0.173 A 
ATOM     54  C   UNL A   1      39.081  28.719  30.922  1.00  0.00     0.173 A 
ATOM     55  F   UNL A   1      38.873  29.703  27.431  1.00  0.00    -0.203 F 
ATOM     56  C   UNL A   1      37.252  29.798  29.134  1.00  0.00     0.198 A 
ATOM     57  C   UNL A   1      37.786  29.019  31.340  1.00  0.00     0.198 A 
ATOM     58  F   UNL A   1      39.943  28.192  31.804  1.00  0.00    -0.203 F 
ATOM     59  F   UNL A   1      36.382  30.344  28.274  1.00  0.00    -0.200 F 
ATOM     60  C   UNL A   1      36.876  29.566  30.448  1.00  0.00     0.200 A 
ATOM     61  F   UNL A   1      37.418  28.770  32.604  1.00  0.00    -0.200 F 
ATOM     62  F   UNL A   1      35.635  29.868  30.854  1.00  0.00    -0.200 F 
ENDBRANCH  28  52
BRANCH  40  63
ATOM     63  C   UNL A   1      45.279  32.750  28.992  1.00  0.00     0.064 A 
ATOM     64  C   UNL A   1      45.779  33.106  30.253  1.00  0.00     0.173 A 
ATOM     65  C   UNL A   1      45.038  33.774  28.065  1.00  0.00     0.173 A 
ATOM     66  F   UNL A   1      46.020  32.163  31.176  1.00  0.00    -0.203 F 
ATOM     67  C   UNL A   1      46.023  34.437  30.575  1.00  0.00     0.198 A 
ATOM     68  C   UNL A   1      45.308  35.103  28.381  1.00  0.00     0.198 A 
ATOM     69  F   UNL A   1      44.575  33.480  26.840  1.00  0.00    -0.203 F 
ATOM     70  F   UNL A   1      46.480  34.759  31.793  1.00  0.00    -0.200 F 
ATOM     71  C   UNL A   1      45.792  35.433  29.638  1.00  0.00     0.200 A 
ATOM     72  F   UNL A   1      45.109  36.061  27.466  1.00  0.00    -0.200 F 
ATOM     73  F   UNL A   1      46.044  36.713  29.943  1.00  0.00    -0.200 F 
ENDBRANCH  40  63
ENDBRANCH  14  15
ENDBRANCH   7   9
ENDBRANCH   4   5
ENDBRANCH   3   4
ENDBRANCH   2   3
ENDBRANCH   1   2
BRANCH   1  74
ATOM     74  C   UNL A   1      36.393  23.052  25.413  1.00  0.00     0.021 C 
BRANCH  74  75
ATOM     75  C   UNL A   1      35.362  23.872  24.628  1.00  0.00     0.116 C 
BRANCH  75  76
ATOM     76  N   UNL A   1      34.970  25.051  25.373  1.00  0.00    -0.354 N 
ATOM     77  C   UNL A   1      33.930  25.905  25.157  1.00  0.00     0.242 C 
ATOM     78  H   UNL A   1      35.538  25.267  26.147  1.00  0.00     0.163 HD
ATOM     79  O   UNL A   1      34.014  27.041  25.636  1.00  0.00    -0.273 OA
BRANCH  77  80
ATOM     80  C   UNL A   1      32.712  25.487  24.303  1.00  0.00     0.173 C 
BRANCH  80  81
ATOM     81  N   UNL A   1      31.552  25.371  25.202  1.00  0.00    -0.340 N 
ATOM     82  C   UNL A   1      31.125  24.372  26.025  1.00  0.00     0.254 C 
ATOM     83  H   UNL A   1      30.974  26.168  25.211  1.00  0.00     0.164 HD
ATOM     84  O   UNL A   1      30.045  24.478  26.600  1.00  0.00    -0.269 OA
BRANCH  82  85
ATOM     85  C   UNL A   1      31.904  23.141  26.218  1.00  0.00     0.076 A 
ATOM     86  C   UNL A   1      32.727  23.050  27.347  1.00  0.00     0.017 A 
ATOM     87  C   UNL A   1      31.951  22.150  25.238  1.00  0.00     0.148 A 
ATOM     88  C   UNL A   1      33.563  21.947  27.508  1.00  0.00     0.002 A 
ATOM     89  C   UNL A   1      32.776  21.035  25.390  1.00  0.00     0.092 A 
ATOM     90  F   UNL A   1      31.214  22.275  24.127  1.00  0.00    -0.205 F 
ATOM     91  C   UNL A   1      33.587  20.945  26.536  1.00  0.00     0.016 A 
BRANCH  89  92
ATOM     92  C   UNL A   1      32.842  19.974  24.332  1.00  0.00     0.419 C 
ATOM     93  F   UNL A   1      34.074  19.398  24.253  1.00  0.00    -0.166 F 
ATOM     94  F   UNL A   1      31.974  18.952  24.585  1.00  0.00    -0.166 F 
ATOM     95  F   UNL A   1      32.540  20.399  23.076  1.00  0.00    -0.166 F 
ENDBRANCH  89  92
ENDBRANCH  82  85
ENDBRANCH  80  81
BRANCH  80  96
ATOM     96  C   UNL A   1      32.369  26.456  23.163  1.00  0.00     0.063 C 
BRANCH  96  97
ATOM     97  C   UNL A   1      32.255  25.828  21.774  1.00  0.00     0.158 C 
BRANCH  97  98
ATOM     98  O   UNL A   1      33.272  26.282  20.897  1.00  0.00    -0.396 OA
ATOM     99  H   UNL A   1      34.115  26.329  21.375  1.00  0.00     0.210 HD
ENDBRANCH  97  98
ENDBRANCH  96  97
ENDBRANCH  80  96
ENDBRANCH  77  80
ENDBRANCH  75  76
ENDBRANCH  74  75
ENDBRANCH   1  74
TORSDOF 19
ENDMDL
