MODEL 1
REMARK VINA RESULT:     -12.5      0.000      0.000
REMARK SMILES O=C(NCCCCCCNC(=O)c1cn(C2CN(C(=O)Nc3ccsc3)C2)nn1)c1ccc(-c2c3nc(c(-c4c(F)c(F)c(F)c(F)c4F)c4ccc([nH]4)c(-c4c(F)c(F)c(F)c(F)c4F)c4nc(c(-c5c(F)c(F)c(F)c(F)c5F)c5ccc2[nH]5)C=C4)C=C3)cc1
REMARK SMILES IDX 6 1 5 2 4 3 3 4 1 5 2 6 30 8 31 9 92 10 32 11 91 12 33 13
REMARK SMILES IDX 34 14 35 15 85 16 36 17 90 18 84 19 86 20 37 21 89 22 83 23
REMARK SMILES IDX 82 24 38 26 70 27 50 28 69 29 51 30 54 31 68 32 87 33 52 34
REMARK SMILES IDX 53 35 67 37 88 38 55 39 39 40 40 41 48 42 41 43 42 44 46 45
REMARK SMILES IDX 49 46 43 47 44 48 47 49 45 50 71 51 72 52 80 53 73 54 74 55
REMARK SMILES IDX 78 56 81 57 75 58 76 59 79 60 77 61 56 62 57 63 65 64 58 65
REMARK SMILES IDX 59 66 63 67 66 68 60 69 61 70 64 71 62 72 7 73 8 74 9 75
REMARK SMILES IDX 10 76 11 77 12 79 13 80 14 81 29 82 15 83 28 84 16 85 17 86
REMARK SMILES IDX 27 87 18 88 19 89 20 90 21 91 22 93 23 94 26 95 24 96 25 97
REMARK H PARENT 3 7 86 25 54 36 10 78 21 92
REMARK Flexibility Score: inf
ROOT
ATOM      1  C   UNL A   1      34.514  29.452  27.492  1.00  0.00     0.002 C 
ENDROOT
BRANCH   1   2
ATOM      2  C   UNL A   1      34.206  30.947  27.359  1.00  0.00     0.021 C 
BRANCH   2   3
ATOM      3  C   UNL A   1      35.177  31.852  28.117  1.00  0.00     0.116 C 
BRANCH   3   4
ATOM      4  N   UNL A   1      35.014  31.827  29.553  1.00  0.00    -0.352 N 
ATOM      5  O   UNL A   1      35.385  31.601  31.729  1.00  0.00    -0.269 OA
ATOM      6  C   UNL A   1      35.793  31.392  30.585  1.00  0.00     0.251 C 
ATOM      7  H   UNL A   1      34.155  32.205  29.851  1.00  0.00     0.163 HD
BRANCH   6   8
ATOM      8  C   UNL A   1      37.032  30.600  30.400  1.00  0.00     0.039 A 
ATOM      9  C   UNL A   1      37.100  29.205  30.332  1.00  0.00     0.014 A 
ATOM     10  C   UNL A   1      38.219  31.345  30.337  1.00  0.00     0.014 A 
ATOM     11  C   UNL A   1      38.324  28.558  30.373  1.00  0.00     0.010 A 
ATOM     12  C   UNL A   1      39.446  30.707  30.325  1.00  0.00     0.010 A 
ATOM     13  C   UNL A   1      39.489  29.316  30.413  1.00  0.00    -0.014 A 
BRANCH  13  14
ATOM     14  C   UNL A   1      40.770  28.622  30.435  1.00  0.00     0.031 A 
ATOM     15  C   UNL A   1      41.347  28.390  31.798  1.00  0.00     0.074 A 
ATOM     16  C   UNL A   1      41.238  28.067  29.299  1.00  0.00     0.049 A 
ATOM     17  N   UNL A   1      42.565  28.546  32.212  1.00  0.00    -0.248 NA
ATOM     18  C   UNL A   1      40.407  27.999  32.870  1.00  0.00     0.031 C 
ATOM     19  C   UNL A   1      40.589  28.030  27.983  1.00  0.00     0.029 A 
ATOM     20  N   UNL A   1      42.336  27.290  29.110  1.00  0.00    -0.354 N 
ATOM     21  C   UNL A   1      42.579  28.117  33.542  1.00  0.00     0.074 A 
ATOM     22  C   UNL A   1      41.210  27.907  33.927  1.00  0.00     0.031 C 
ATOM     23  C   UNL A   1      41.161  27.065  27.230  1.00  0.00     0.029 A 
ATOM     24  C   UNL A   1      42.284  26.510  27.963  1.00  0.00     0.049 A 
ATOM     25  H   UNL A   1      43.099  27.279  29.730  1.00  0.00     0.167 HD
ATOM     26  C   UNL A   1      43.726  27.758  34.182  1.00  0.00     0.037 A 
ATOM     27  C   UNL A   1      43.037  25.413  27.707  1.00  0.00     0.037 A 
ATOM     28  C   UNL A   1      44.883  28.356  33.582  1.00  0.00     0.049 A 
ATOM     29  C   UNL A   1      44.197  25.446  28.635  1.00  0.00     0.074 A 
ATOM     30  C   UNL A   1      45.325  29.655  33.419  1.00  0.00     0.029 A 
ATOM     31  N   UNL A   1      45.651  27.601  32.734  1.00  0.00    -0.354 N 
ATOM     32  N   UNL A   1      45.137  26.352  28.586  1.00  0.00    -0.248 NA
ATOM     33  C   UNL A   1      44.053  24.761  29.912  1.00  0.00     0.031 C 
ATOM     34  C   UNL A   1      45.944  29.671  32.134  1.00  0.00     0.029 A 
ATOM     35  C   UNL A   1      45.884  28.374  31.625  1.00  0.00     0.049 A 
ATOM     36  H   UNL A   1      45.972  26.683  32.889  1.00  0.00     0.167 HD
ATOM     37  C   UNL A   1      45.429  26.634  29.912  1.00  0.00     0.074 A 
ATOM     38  C   UNL A   1      44.771  25.582  30.683  1.00  0.00     0.031 C 
ATOM     39  C   UNL A   1      45.932  27.848  30.285  1.00  0.00     0.037 A 
BRANCH  26  40
ATOM     40  C   UNL A   1      43.820  26.593  35.136  1.00  0.00     0.064 A 
ATOM     41  C   UNL A   1      44.310  26.797  36.441  1.00  0.00     0.173 A 
ATOM     42  C   UNL A   1      43.744  25.246  34.716  1.00  0.00     0.173 A 
ATOM     43  F   UNL A   1      44.441  28.037  36.934  1.00  0.00    -0.203 F 
ATOM     44  C   UNL A   1      44.766  25.737  37.230  1.00  0.00     0.198 A 
ATOM     45  C   UNL A   1      44.152  24.188  35.526  1.00  0.00     0.198 A 
ATOM     46  F   UNL A   1      43.382  24.908  33.473  1.00  0.00    -0.203 F 
ATOM     47  F   UNL A   1      45.342  25.989  38.414  1.00  0.00    -0.200 F 
ATOM     48  C   UNL A   1      44.695  24.435  36.769  1.00  0.00     0.200 A 
ATOM     49  F   UNL A   1      44.092  22.934  35.054  1.00  0.00    -0.200 F 
ATOM     50  F   UNL A   1      45.193  23.427  37.495  1.00  0.00    -0.200 F 
ENDBRANCH  26  40
BRANCH  27  51
ATOM     51  C   UNL A   1      42.579  24.174  27.029  1.00  0.00     0.064 A 
ATOM     52  C   UNL A   1      43.375  23.526  26.072  1.00  0.00     0.173 A 
ATOM     53  C   UNL A   1      41.449  23.464  27.486  1.00  0.00     0.173 A 
ATOM     54  F   UNL A   1      44.501  24.106  25.631  1.00  0.00    -0.203 F 
ATOM     55  C   UNL A   1      43.056  22.248  25.599  1.00  0.00     0.198 A 
ATOM     56  C   UNL A   1      41.126  22.195  27.006  1.00  0.00     0.198 A 
ATOM     57  F   UNL A   1      40.684  23.949  28.475  1.00  0.00    -0.203 F 
ATOM     58  F   UNL A   1      43.864  21.638  24.719  1.00  0.00    -0.200 F 
ATOM     59  C   UNL A   1      41.934  21.582  26.068  1.00  0.00     0.200 A 
ATOM     60  F   UNL A   1      40.060  21.549  27.500  1.00  0.00    -0.200 F 
ATOM     61  F   UNL A   1      41.654  20.341  25.650  1.00  0.00    -0.200 F 
ENDBRANCH  27  51
BRANCH  39  62
ATOM     62  C   UNL A   1      46.320  28.808  29.196  1.00  0.00     0.064 A 
ATOM     63  C   UNL A   1      45.432  29.748  28.644  1.00  0.00     0.173 A 
ATOM     64  C   UNL A   1      47.666  28.903  28.825  1.00  0.00     0.173 A 
ATOM     65  F   UNL A   1      44.156  29.800  29.038  1.00  0.00    -0.203 F 
ATOM     66  C   UNL A   1      45.862  30.707  27.731  1.00  0.00     0.198 A 
ATOM     67  C   UNL A   1      48.102  29.885  27.939  1.00  0.00     0.198 A 
ATOM     68  F   UNL A   1      48.572  28.078  29.373  1.00  0.00    -0.203 F 
ATOM     69  F   UNL A   1      44.991  31.591  27.222  1.00  0.00    -0.200 F 
ATOM     70  C   UNL A   1      47.199  30.779  27.385  1.00  0.00     0.200 A 
ATOM     71  F   UNL A   1      49.406  29.988  27.649  1.00  0.00    -0.200 F 
ATOM     72  F   UNL A   1      47.626  31.734  26.545  1.00  0.00    -0.200 F 
ENDBRANCH  39  62
ENDBRANCH  13  14
ENDBRANCH   6   8
ENDBRANCH   3   4
ENDBRANCH   2   3
ENDBRANCH   1   2
BRANCH   1  73
ATOM     73  C   UNL A   1      33.820  28.555  26.462  1.00  0.00     0.002 C 
BRANCH  73  74
ATOM     74  C   UNL A   1      33.003  29.303  25.407  1.00  0.00     0.021 C 
BRANCH  74  75
ATOM     75  C   UNL A   1      33.263  28.834  23.982  1.00  0.00     0.116 C 
BRANCH  75  76
ATOM     76  N   UNL A   1      32.026  28.482  23.308  1.00  0.00    -0.351 N 
ATOM     77  C   UNL A   1      31.742  27.341  22.599  1.00  0.00     0.273 C 
ATOM     78  H   UNL A   1      31.301  29.146  23.366  1.00  0.00     0.163 HD
ATOM     79  O   UNL A   1      30.744  27.313  21.879  1.00  0.00    -0.267 OA
BRANCH  77  80
ATOM     80  C   UNL A   1      32.637  26.212  22.752  1.00  0.00     0.170 A 
ATOM     81  C   UNL A   1      32.790  25.409  23.868  1.00  0.00     0.145 A 
ATOM     82  N   UNL A   1      33.490  25.778  21.773  1.00  0.00    -0.125 NA
ATOM     83  N   UNL A   1      33.803  24.566  23.528  1.00  0.00    -0.245 N 
ATOM     84  N   UNL A   1      34.212  24.781  22.267  1.00  0.00    -0.066 NA
BRANCH  83  85
ATOM     85  C   UNL A   1      34.339  23.499  24.305  1.00  0.00     0.148 C 
ATOM     86  C   UNL A   1      34.005  23.492  25.809  1.00  0.00     0.150 C 
ATOM     87  C   UNL A   1      33.443  22.242  24.237  1.00  0.00     0.150 C 
ATOM     88  N   UNL A   1      33.822  22.051  25.618  1.00  0.00    -0.320 N 
ATOM     89  C   UNL A   1      33.716  21.092  26.568  1.00  0.00     0.322 C 
ATOM     90  O   UNL A   1      33.907  21.362  27.758  1.00  0.00    -0.248 OA
ATOM     91  N   UNL A   1      33.265  19.848  26.259  1.00  0.00    -0.307 N 
ATOM     92  H   UNL A   1      32.946  19.327  27.031  1.00  0.00     0.171 HD
BRANCH  91  93
ATOM     93  C   UNL A   1      33.176  19.187  25.047  1.00  0.00     0.053 A 
ATOM     94  C   UNL A   1      32.216  19.382  24.012  1.00  0.00     0.038 A 
ATOM     95  C   UNL A   1      34.125  18.262  24.666  1.00  0.00     0.091 A 
ATOM     96  C   UNL A   1      32.326  18.443  23.008  1.00  0.00     0.067 A 
ATOM     97  S   UNL A   1      33.700  17.449  23.221  1.00  0.00    -0.150 S 
ENDBRANCH  91  93
ENDBRANCH  83  85
ENDBRANCH  77  80
ENDBRANCH  75  76
ENDBRANCH  74  75
ENDBRANCH  73  74
ENDBRANCH   1  73
TORSDOF 15
ENDMDL
MODEL 2
REMARK VINA RESULT:     -12.3      5.031      7.821
REMARK SMILES O=C(NCCCCCCNC(=O)c1cn(C2CN(C(=O)Nc3ccsc3)C2)nn1)c1ccc(-c2c3nc(c(-c4c(F)c(F)c(F)c(F)c4F)c4ccc([nH]4)c(-c4c(F)c(F)c(F)c(F)c4F)c4nc(c(-c5c(F)c(F)c(F)c(F)c5F)c5ccc2[nH]5)C=C4)C=C3)cc1
REMARK SMILES IDX 6 1 5 2 4 3 3 4 1 5 2 6 30 8 31 9 92 10 32 11 91 12 33 13
REMARK SMILES IDX 34 14 35 15 85 16 36 17 90 18 84 19 86 20 37 21 89 22 83 23
REMARK SMILES IDX 82 24 38 26 70 27 50 28 69 29 51 30 54 31 68 32 87 33 52 34
REMARK SMILES IDX 53 35 67 37 88 38 55 39 39 40 40 41 48 42 41 43 42 44 46 45
REMARK SMILES IDX 49 46 43 47 44 48 47 49 45 50 71 51 72 52 80 53 73 54 74 55
REMARK SMILES IDX 78 56 81 57 75 58 76 59 79 60 77 61 56 62 57 63 65 64 58 65
REMARK SMILES IDX 59 66 63 67 66 68 60 69 61 70 64 71 62 72 7 73 8 74 9 75
REMARK SMILES IDX 10 76 11 77 12 79 13 80 14 81 29 82 15 83 28 84 16 85 17 86
REMARK SMILES IDX 27 87 18 88 19 89 20 90 21 91 22 93 23 94 26 95 24 96 25 97
REMARK H PARENT 3 7 86 25 54 36 10 78 21 92
REMARK Flexibility Score: inf
ROOT
ATOM      1  C   UNL A   1      35.599  34.161  29.361  1.00  0.00     0.002 C 
ENDROOT
BRANCH   1   2
ATOM      2  C   UNL A   1      36.984  33.650  28.946  1.00  0.00     0.021 C 
BRANCH   2   3
ATOM      3  C   UNL A   1      37.239  32.186  29.305  1.00  0.00     0.116 C 
BRANCH   3   4
ATOM      4  N   UNL A   1      36.622  31.239  28.405  1.00  0.00    -0.352 N 
ATOM      5  O   UNL A   1      36.183  29.422  27.209  1.00  0.00    -0.269 OA
ATOM      6  C   UNL A   1      37.001  30.027  27.904  1.00  0.00     0.251 C 
ATOM      7  H   UNL A   1      35.739  31.530  28.083  1.00  0.00     0.163 HD
BRANCH   6   8
ATOM      8  C   UNL A   1      38.363  29.463  28.064  1.00  0.00     0.039 A 
ATOM      9  C   UNL A   1      39.446  29.705  27.214  1.00  0.00     0.014 A 
ATOM     10  C   UNL A   1      38.526  28.582  29.144  1.00  0.00     0.014 A 
ATOM     11  C   UNL A   1      40.610  28.963  27.328  1.00  0.00     0.010 A 
ATOM     12  C   UNL A   1      39.704  27.874  29.297  1.00  0.00     0.010 A 
ATOM     13  C   UNL A   1      40.714  28.020  28.346  1.00  0.00    -0.014 A 
BRANCH  13  14
ATOM     14  C   UNL A   1      41.951  27.263  28.468  1.00  0.00     0.031 A 
ATOM     15  C   UNL A   1      42.653  27.396  29.785  1.00  0.00     0.074 A 
ATOM     16  C   UNL A   1      42.270  26.362  27.517  1.00  0.00     0.049 A 
ATOM     17  N   UNL A   1      43.915  27.568  30.030  1.00  0.00    -0.248 NA
ATOM     18  C   UNL A   1      41.811  27.416  30.999  1.00  0.00     0.031 C 
ATOM     19  C   UNL A   1      41.486  25.991  26.332  1.00  0.00     0.029 A 
ATOM     20  N   UNL A   1      43.299  25.477  27.479  1.00  0.00    -0.354 N 
ATOM     21  C   UNL A   1      44.045  27.549  31.421  1.00  0.00     0.074 A 
ATOM     22  C   UNL A   1      42.713  27.574  31.964  1.00  0.00     0.031 C 
ATOM     23  C   UNL A   1      41.925  24.804  25.859  1.00  0.00     0.029 A 
ATOM     24  C   UNL A   1      43.088  24.401  26.628  1.00  0.00     0.049 A 
ATOM     25  H   UNL A   1      44.121  25.587  28.008  1.00  0.00     0.167 HD
ATOM     26  C   UNL A   1      45.231  27.302  32.041  1.00  0.00     0.037 A 
ATOM     27  C   UNL A   1      43.751  23.219  26.653  1.00  0.00     0.037 A 
ATOM     28  C   UNL A   1      46.350  27.602  31.194  1.00  0.00     0.049 A 
ATOM     29  C   UNL A   1      45.002  23.430  27.427  1.00  0.00     0.074 A 
ATOM     30  C   UNL A   1      46.840  28.754  30.612  1.00  0.00     0.029 A 
ATOM     31  N   UNL A   1      46.984  26.570  30.552  1.00  0.00    -0.354 N 
ATOM     32  N   UNL A   1      45.977  24.202  27.030  1.00  0.00    -0.248 NA
ATOM     33  C   UNL A   1      44.956  23.166  28.858  1.00  0.00     0.031 C 
ATOM     34  C   UNL A   1      47.322  28.342  29.335  1.00  0.00     0.029 A 
ATOM     35  C   UNL A   1      47.141  26.962  29.247  1.00  0.00     0.049 A 
ATOM     36  H   UNL A   1      47.271  25.716  30.948  1.00  0.00     0.167 HD
ATOM     37  C   UNL A   1      46.420  24.838  28.180  1.00  0.00     0.074 A 
ATOM     38  C   UNL A   1      45.791  24.115  29.284  1.00  0.00     0.031 C 
ATOM     39  C   UNL A   1      47.022  26.062  28.128  1.00  0.00     0.037 A 
BRANCH  26  40
ATOM     40  C   UNL A   1      45.362  26.466  33.290  1.00  0.00     0.064 A 
ATOM     41  C   UNL A   1      44.883  25.141  33.296  1.00  0.00     0.173 A 
ATOM     42  C   UNL A   1      45.650  27.017  34.558  1.00  0.00     0.173 A 
ATOM     43  F   UNL A   1      44.561  24.527  32.148  1.00  0.00    -0.203 F 
ATOM     44  C   UNL A   1      44.634  24.454  34.487  1.00  0.00     0.198 A 
ATOM     45  C   UNL A   1      45.448  26.309  35.742  1.00  0.00     0.198 A 
ATOM     46  F   UNL A   1      46.027  28.292  34.711  1.00  0.00    -0.203 F 
ATOM     47  F   UNL A   1      44.059  23.244  34.449  1.00  0.00    -0.200 F 
ATOM     48  C   UNL A   1      44.908  25.041  35.709  1.00  0.00     0.200 A 
ATOM     49  F   UNL A   1      45.704  26.903  36.917  1.00  0.00    -0.200 F 
ATOM     50  F   UNL A   1      44.608  24.411  36.851  1.00  0.00    -0.200 F 
ENDBRANCH  26  40
BRANCH  27  51
ATOM     51  C   UNL A   1      43.161  21.877  26.419  1.00  0.00     0.064 A 
ATOM     52  C   UNL A   1      43.724  20.979  25.501  1.00  0.00     0.173 A 
ATOM     53  C   UNL A   1      42.168  21.354  27.275  1.00  0.00     0.173 A 
ATOM     54  F   UNL A   1      44.717  21.379  24.693  1.00  0.00    -0.203 F 
ATOM     55  C   UNL A   1      43.316  19.642  25.439  1.00  0.00     0.198 A 
ATOM     56  C   UNL A   1      41.755  20.024  27.206  1.00  0.00     0.198 A 
ATOM     57  F   UNL A   1      41.643  22.101  28.258  1.00  0.00    -0.203 F 
ATOM     58  F   UNL A   1      43.909  18.799  24.581  1.00  0.00    -0.200 F 
ATOM     59  C   UNL A   1      42.334  19.165  26.294  1.00  0.00     0.200 A 
ATOM     60  F   UNL A   1      40.833  19.570  28.067  1.00  0.00    -0.200 F 
ATOM     61  F   UNL A   1      41.977  17.874  26.267  1.00  0.00    -0.200 F 
ENDBRANCH  27  51
BRANCH  39  62
ATOM     62  C   UNL A   1      47.345  26.624  26.772  1.00  0.00     0.064 A 
ATOM     63  C   UNL A   1      48.540  26.347  26.086  1.00  0.00     0.173 A 
ATOM     64  C   UNL A   1      46.350  27.315  26.072  1.00  0.00     0.173 A 
ATOM     65  F   UNL A   1      49.491  25.590  26.643  1.00  0.00    -0.203 F 
ATOM     66  C   UNL A   1      48.747  26.780  24.779  1.00  0.00     0.198 A 
ATOM     67  C   UNL A   1      46.543  27.717  24.752  1.00  0.00     0.198 A 
ATOM     68  F   UNL A   1      45.162  27.548  26.651  1.00  0.00    -0.203 F 
ATOM     69  F   UNL A   1      49.899  26.499  24.151  1.00  0.00    -0.200 F 
ATOM     70  C   UNL A   1      47.744  27.458  24.110  1.00  0.00     0.200 A 
ATOM     71  F   UNL A   1      45.550  28.324  24.089  1.00  0.00    -0.200 F 
ATOM     72  F   UNL A   1      47.921  27.832  22.834  1.00  0.00    -0.200 F 
ENDBRANCH  39  62
ENDBRANCH  13  14
ENDBRANCH   6   8
ENDBRANCH   3   4
ENDBRANCH   2   3
ENDBRANCH   1   2
BRANCH   1  73
ATOM     73  C   UNL A   1      34.729  34.675  28.210  1.00  0.00     0.002 C 
BRANCH  73  74
ATOM     74  C   UNL A   1      34.226  36.110  28.377  1.00  0.00     0.021 C 
BRANCH  74  75
ATOM     75  C   UNL A   1      33.041  36.239  29.325  1.00  0.00     0.116 C 
BRANCH  75  76
ATOM     76  N   UNL A   1      33.250  37.302  30.291  1.00  0.00    -0.351 N 
ATOM     77  C   UNL A   1      33.386  37.196  31.653  1.00  0.00     0.273 C 
ATOM     78  H   UNL A   1      33.300  38.214  29.922  1.00  0.00     0.163 HD
ATOM     79  O   UNL A   1      33.300  38.209  32.348  1.00  0.00    -0.267 OA
BRANCH  77  80
ATOM     80  C   UNL A   1      33.643  35.880  32.204  1.00  0.00     0.170 A 
ATOM     81  C   UNL A   1      34.866  35.349  32.569  1.00  0.00     0.145 A 
ATOM     82  N   UNL A   1      32.667  34.949  32.439  1.00  0.00    -0.125 NA
ATOM     83  N   UNL A   1      34.572  34.073  32.937  1.00  0.00    -0.245 N 
ATOM     84  N   UNL A   1      33.251  33.840  32.870  1.00  0.00    -0.066 NA
BRANCH  83  85
ATOM     85  C   UNL A   1      35.469  33.088  33.443  1.00  0.00     0.148 C 
ATOM     86  C   UNL A   1      35.702  31.840  32.569  1.00  0.00     0.150 C 
ATOM     87  C   UNL A   1      36.938  33.432  33.107  1.00  0.00     0.150 C 
ATOM     88  N   UNL A   1      37.105  32.005  32.956  1.00  0.00    -0.320 N 
ATOM     89  C   UNL A   1      38.121  31.121  32.805  1.00  0.00     0.322 C 
ATOM     90  O   UNL A   1      37.899  29.971  32.416  1.00  0.00    -0.248 OA
ATOM     91  N   UNL A   1      39.415  31.512  32.943  1.00  0.00    -0.307 N 
ATOM     92  H   UNL A   1      40.071  30.901  32.536  1.00  0.00     0.171 HD
BRANCH  91  93
ATOM     93  C   UNL A   1      39.971  32.620  33.555  1.00  0.00     0.053 A 
ATOM     94  C   UNL A   1      40.015  32.922  34.947  1.00  0.00     0.038 A 
ATOM     95  C   UNL A   1      40.654  33.572  32.827  1.00  0.00     0.091 A 
ATOM     96  C   UNL A   1      40.505  34.187  35.197  1.00  0.00     0.067 A 
ATOM     97  S   UNL A   1      41.084  34.932  33.774  1.00  0.00    -0.150 S 
ENDBRANCH  91  93
ENDBRANCH  83  85
ENDBRANCH  77  80
ENDBRANCH  75  76
ENDBRANCH  74  75
ENDBRANCH  73  74
ENDBRANCH   1  73
TORSDOF 15
ENDMDL
MODEL 3
REMARK VINA RESULT:     -12.3      5.144     10.007
REMARK SMILES O=C(NCCCCCCNC(=O)c1cn(C2CN(C(=O)Nc3ccsc3)C2)nn1)c1ccc(-c2c3nc(c(-c4c(F)c(F)c(F)c(F)c4F)c4ccc([nH]4)c(-c4c(F)c(F)c(F)c(F)c4F)c4nc(c(-c5c(F)c(F)c(F)c(F)c5F)c5ccc2[nH]5)C=C4)C=C3)cc1
REMARK SMILES IDX 6 1 5 2 4 3 3 4 1 5 2 6 30 8 31 9 92 10 32 11 91 12 33 13
REMARK SMILES IDX 34 14 35 15 85 16 36 17 90 18 84 19 86 20 37 21 89 22 83 23
REMARK SMILES IDX 82 24 38 26 70 27 50 28 69 29 51 30 54 31 68 32 87 33 52 34
REMARK SMILES IDX 53 35 67 37 88 38 55 39 39 40 40 41 48 42 41 43 42 44 46 45
REMARK SMILES IDX 49 46 43 47 44 48 47 49 45 50 71 51 72 52 80 53 73 54 74 55
REMARK SMILES IDX 78 56 81 57 75 58 76 59 79 60 77 61 56 62 57 63 65 64 58 65
REMARK SMILES IDX 59 66 63 67 66 68 60 69 61 70 64 71 62 72 7 73 8 74 9 75
REMARK SMILES IDX 10 76 11 77 12 79 13 80 14 81 29 82 15 83 28 84 16 85 17 86
REMARK SMILES IDX 27 87 18 88 19 89 20 90 21 91 22 93 23 94 26 95 24 96 25 97
REMARK H PARENT 3 7 86 25 54 36 10 78 21 92
REMARK Flexibility Score: inf
ROOT
ATOM      1  C   UNL A   1      34.516  33.868  28.922  1.00  0.00     0.002 C 
ENDROOT
BRANCH   1   2
ATOM      2  C   UNL A   1      35.822  33.555  29.660  1.00  0.00     0.021 C 
BRANCH   2   3
ATOM      3  C   UNL A   1      36.657  32.454  29.007  1.00  0.00     0.116 C 
BRANCH   3   4
ATOM      4  N   UNL A   1      35.878  31.413  28.378  1.00  0.00    -0.352 N 
ATOM      5  O   UNL A   1      35.160  29.443  27.650  1.00  0.00    -0.269 OA
ATOM      6  C   UNL A   1      36.088  30.084  28.146  1.00  0.00     0.251 C 
ATOM      7  H   UNL A   1      35.008  31.729  28.044  1.00  0.00     0.163 HD
BRANCH   6   8
ATOM      8  C   UNL A   1      37.391  29.410  28.360  1.00  0.00     0.039 A 
ATOM      9  C   UNL A   1      37.736  28.650  29.482  1.00  0.00     0.014 A 
ATOM     10  C   UNL A   1      38.346  29.613  27.352  1.00  0.00     0.014 A 
ATOM     11  C   UNL A   1      39.046  28.246  29.681  1.00  0.00     0.010 A 
ATOM     12  C   UNL A   1      39.644  29.168  27.519  1.00  0.00     0.010 A 
ATOM     13  C   UNL A   1      40.001  28.546  28.716  1.00  0.00    -0.014 A 
BRANCH  13  14
ATOM     14  C   UNL A   1      41.370  28.096  28.928  1.00  0.00     0.031 A 
ATOM     15  C   UNL A   1      41.729  26.806  28.256  1.00  0.00     0.074 A 
ATOM     16  C   UNL A   1      42.255  28.930  29.511  1.00  0.00     0.049 A 
ATOM     17  N   UNL A   1      42.391  25.793  28.722  1.00  0.00    -0.248 NA
ATOM     18  C   UNL A   1      41.205  26.588  26.892  1.00  0.00     0.031 C 
ATOM     19  C   UNL A   1      42.032  30.312  29.952  1.00  0.00     0.029 A 
ATOM     20  N   UNL A   1      43.589  28.769  29.706  1.00  0.00    -0.354 N 
ATOM     21  C   UNL A   1      42.510  24.889  27.663  1.00  0.00     0.074 A 
ATOM     22  C   UNL A   1      41.664  25.372  26.606  1.00  0.00     0.031 C 
ATOM     23  C   UNL A   1      43.223  30.930  30.105  1.00  0.00     0.029 A 
ATOM     24  C   UNL A   1      44.280  29.958  29.893  1.00  0.00     0.049 A 
ATOM     25  H   UNL A   1      44.028  27.888  29.714  1.00  0.00     0.167 HD
ATOM     26  C   UNL A   1      43.457  23.912  27.640  1.00  0.00     0.037 A 
ATOM     27  C   UNL A   1      45.617  30.137  29.756  1.00  0.00     0.037 A 
ATOM     28  C   UNL A   1      43.912  23.576  28.958  1.00  0.00     0.049 A 
ATOM     29  C   UNL A   1      46.250  28.794  29.807  1.00  0.00     0.074 A 
ATOM     30  C   UNL A   1      43.313  23.035  30.079  1.00  0.00     0.029 A 
ATOM     31  N   UNL A   1      45.102  24.096  29.396  1.00  0.00    -0.354 N 
ATOM     32  N   UNL A   1      46.256  28.036  30.871  1.00  0.00    -0.248 NA
ATOM     33  C   UNL A   1      46.451  28.100  28.543  1.00  0.00     0.031 C 
ATOM     34  C   UNL A   1      43.916  23.713  31.179  1.00  0.00     0.029 A 
ATOM     35  C   UNL A   1      44.875  24.582  30.659  1.00  0.00     0.049 A 
ATOM     36  H   UNL A   1      45.954  24.118  28.902  1.00  0.00     0.167 HD
ATOM     37  C   UNL A   1      46.058  26.749  30.393  1.00  0.00     0.074 A 
ATOM     38  C   UNL A   1      46.243  26.844  28.946  1.00  0.00     0.031 C 
ATOM     39  C   UNL A   1      45.482  25.785  31.169  1.00  0.00     0.037 A 
BRANCH  26  40
ATOM     40  C   UNL A   1      44.211  23.510  26.397  1.00  0.00     0.064 A 
ATOM     41  C   UNL A   1      44.193  22.165  25.974  1.00  0.00     0.173 A 
ATOM     42  C   UNL A   1      45.193  24.325  25.794  1.00  0.00     0.173 A 
ATOM     43  F   UNL A   1      43.312  21.298  26.495  1.00  0.00    -0.203 F 
ATOM     44  C   UNL A   1      45.141  21.662  25.079  1.00  0.00     0.198 A 
ATOM     45  C   UNL A   1      46.106  23.831  24.863  1.00  0.00     0.198 A 
ATOM     46  F   UNL A   1      45.385  25.598  26.162  1.00  0.00    -0.203 F 
ATOM     47  F   UNL A   1      45.166  20.352  24.803  1.00  0.00    -0.200 F 
ATOM     48  C   UNL A   1      46.102  22.493  24.531  1.00  0.00     0.200 A 
ATOM     49  F   UNL A   1      47.040  24.649  24.357  1.00  0.00    -0.200 F 
ATOM     50  F   UNL A   1      47.052  22.000  23.727  1.00  0.00    -0.200 F 
ENDBRANCH  26  40
BRANCH  27  51
ATOM     51  C   UNL A   1      46.287  31.326  29.172  1.00  0.00     0.064 A 
ATOM     52  C   UNL A   1      46.052  31.721  27.847  1.00  0.00     0.173 A 
ATOM     53  C   UNL A   1      46.988  32.243  29.983  1.00  0.00     0.173 A 
ATOM     54  F   UNL A   1      45.339  30.934  27.027  1.00  0.00    -0.203 F 
ATOM     55  C   UNL A   1      46.497  32.956  27.361  1.00  0.00     0.198 A 
ATOM     56  C   UNL A   1      47.440  33.469  29.495  1.00  0.00     0.198 A 
ATOM     57  F   UNL A   1      47.171  32.008  31.290  1.00  0.00    -0.203 F 
ATOM     58  F   UNL A   1      46.215  33.322  26.102  1.00  0.00    -0.200 F 
ATOM     59  C   UNL A   1      47.188  33.831  28.186  1.00  0.00     0.200 A 
ATOM     60  F   UNL A   1      48.070  34.319  30.318  1.00  0.00    -0.200 F 
ATOM     61  F   UNL A   1      47.572  35.032  27.736  1.00  0.00    -0.200 F 
ENDBRANCH  27  51
BRANCH  39  62
ATOM     62  C   UNL A   1      45.224  26.111  32.613  1.00  0.00     0.064 A 
ATOM     63  C   UNL A   1      44.045  26.728  33.066  1.00  0.00     0.173 A 
ATOM     64  C   UNL A   1      46.109  25.629  33.584  1.00  0.00     0.173 A 
ATOM     65  F   UNL A   1      43.095  27.108  32.205  1.00  0.00    -0.203 F 
ATOM     66  C   UNL A   1      43.786  26.896  34.424  1.00  0.00     0.198 A 
ATOM     67  C   UNL A   1      45.833  25.765  34.942  1.00  0.00     0.198 A 
ATOM     68  F   UNL A   1      47.217  24.969  33.212  1.00  0.00    -0.203 F 
ATOM     69  F   UNL A   1      42.652  27.490  34.825  1.00  0.00    -0.200 F 
ATOM     70  C   UNL A   1      44.678  26.407  35.361  1.00  0.00     0.200 A 
ATOM     71  F   UNL A   1      46.670  25.240  35.847  1.00  0.00    -0.200 F 
ATOM     72  F   UNL A   1      44.407  26.521  36.670  1.00  0.00    -0.200 F 
ENDBRANCH  39  62
ENDBRANCH  13  14
ENDBRANCH   6   8
ENDBRANCH   3   4
ENDBRANCH   2   3
ENDBRANCH   1   2
BRANCH   1  73
ATOM     73  C   UNL A   1      34.616  34.984  27.876  1.00  0.00     0.002 C 
BRANCH  73  74
ATOM     74  C   UNL A   1      34.048  36.332  28.321  1.00  0.00     0.021 C 
BRANCH  74  75
ATOM     75  C   UNL A   1      33.059  36.231  29.475  1.00  0.00     0.116 C 
BRANCH  75  76
ATOM     76  N   UNL A   1      33.249  37.308  30.430  1.00  0.00    -0.351 N 
ATOM     77  C   UNL A   1      33.457  37.214  31.784  1.00  0.00     0.273 C 
ATOM     78  H   UNL A   1      33.226  38.220  30.060  1.00  0.00     0.163 HD
ATOM     79  O   UNL A   1      33.343  38.221  32.482  1.00  0.00    -0.267 OA
BRANCH  77  80
ATOM     80  C   UNL A   1      33.821  35.918  32.321  1.00  0.00     0.170 A 
ATOM     81  C   UNL A   1      35.073  35.503  32.736  1.00  0.00     0.145 A 
ATOM     82  N   UNL A   1      32.934  34.888  32.489  1.00  0.00    -0.125 NA
ATOM     83  N   UNL A   1      34.893  34.195  33.065  1.00  0.00    -0.245 N 
ATOM     84  N   UNL A   1      33.607  33.832  32.927  1.00  0.00    -0.066 NA
BRANCH  83  85
ATOM     85  C   UNL A   1      35.860  33.294  33.596  1.00  0.00     0.148 C 
ATOM     86  C   UNL A   1      35.959  31.906  32.933  1.00  0.00     0.150 C 
ATOM     87  C   UNL A   1      37.258  33.538  32.984  1.00  0.00     0.150 C 
ATOM     88  N   UNL A   1      37.405  32.103  33.066  1.00  0.00    -0.320 N 
ATOM     89  C   UNL A   1      38.388  31.182  32.922  1.00  0.00     0.322 C 
ATOM     90  O   UNL A   1      38.112  29.986  32.784  1.00  0.00    -0.248 OA
ATOM     91  N   UNL A   1      39.686  31.559  32.789  1.00  0.00    -0.307 N 
ATOM     92  H   UNL A   1      40.274  30.869  32.403  1.00  0.00     0.171 HD
BRANCH  91  93
ATOM     93  C   UNL A   1      40.327  32.744  33.102  1.00  0.00     0.053 A 
ATOM     94  C   UNL A   1      40.745  33.775  32.212  1.00  0.00     0.038 A 
ATOM     95  C   UNL A   1      40.569  33.101  34.413  1.00  0.00     0.091 A 
ATOM     96  C   UNL A   1      41.495  34.745  32.844  1.00  0.00     0.067 A 
ATOM     97  S   UNL A   1      41.532  34.511  34.536  1.00  0.00    -0.150 S 
ENDBRANCH  91  93
ENDBRANCH  83  85
ENDBRANCH  77  80
ENDBRANCH  75  76
ENDBRANCH  74  75
ENDBRANCH  73  74
ENDBRANCH   1  73
TORSDOF 15
ENDMDL
