MODEL 1
REMARK VINA RESULT:     -12.0      0.000      0.000
REMARK SMILES O=C(NCCCCCCNC(=O)c1cc(-c2ccoc2)n[nH]1)c1ccc(-c2c3nc(c(-c4c(F)c(F)c(F)c(F)c4F)c4ccc([nH]4)c(-c4c(F)c(F)c(F)c(F)c4F)c4nc(c(-c5c(F)c(F)c(F)c(F)c5F)c5ccc2[nH]5)C=C4)C=C3)cc1
REMARK SMILES IDX 6 1 5 2 4 3 3 4 1 5 2 6 23 8 24 9 85 10 25 11 84 12 26 13
REMARK SMILES IDX 27 14 28 15 78 16 29 17 83 18 77 19 79 20 30 21 82 22 76 23
REMARK SMILES IDX 75 24 31 26 63 27 43 28 62 29 44 30 47 31 61 32 80 33 45 34
REMARK SMILES IDX 46 35 60 37 81 38 48 39 32 40 33 41 41 42 34 43 35 44 39 45
REMARK SMILES IDX 42 46 36 47 37 48 40 49 38 50 64 51 65 52 73 53 66 54 67 55
REMARK SMILES IDX 71 56 74 57 68 58 69 59 72 60 70 61 49 62 50 63 58 64 51 65
REMARK SMILES IDX 52 66 56 67 59 68 53 69 54 70 57 71 55 72 7 73 8 74 9 75
REMARK SMILES IDX 10 76 11 77 12 79 13 80 14 81 22 82 15 83 21 84 16 86 17 87
REMARK SMILES IDX 20 88 18 89 19 90
REMARK H PARENT 3 7 79 25 47 36 10 78 22 85
REMARK Flexibility Score: inf
ROOT
ATOM      1  C   UNL A   1      31.316  30.927  25.825  1.00  0.00     0.002 C 
ENDROOT
BRANCH   1   2
ATOM      2  C   UNL A   1      31.193  32.322  26.443  1.00  0.00     0.021 C 
BRANCH   2   3
ATOM      3  C   UNL A   1      32.444  32.841  27.144  1.00  0.00     0.116 C 
BRANCH   3   4
ATOM      4  N   UNL A   1      32.306  34.217  27.585  1.00  0.00    -0.352 N 
ATOM      5  O   UNL A   1      32.618  36.011  28.911  1.00  0.00    -0.269 OA
ATOM      6  C   UNL A   1      32.974  34.885  28.581  1.00  0.00     0.251 C 
ATOM      7  H   UNL A   1      31.636  34.750  27.099  1.00  0.00     0.163 HD
BRANCH   6   8
ATOM      8  C   UNL A   1      34.114  34.246  29.278  1.00  0.00     0.039 A 
ATOM      9  C   UNL A   1      33.913  33.345  30.328  1.00  0.00     0.014 A 
ATOM     10  C   UNL A   1      35.411  34.520  28.830  1.00  0.00     0.014 A 
ATOM     11  C   UNL A   1      35.008  32.792  30.989  1.00  0.00     0.010 A 
ATOM     12  C   UNL A   1      36.507  33.922  29.458  1.00  0.00     0.010 A 
ATOM     13  C   UNL A   1      36.315  33.068  30.553  1.00  0.00    -0.014 A 
BRANCH  13  14
ATOM     14  C   UNL A   1      37.466  32.398  31.206  1.00  0.00     0.031 A 
ATOM     15  C   UNL A   1      38.218  31.299  30.514  1.00  0.00     0.074 A 
ATOM     16  C   UNL A   1      37.828  32.791  32.441  1.00  0.00     0.049 A 
ATOM     17  N   UNL A   1      39.246  30.609  30.941  1.00  0.00    -0.248 NA
ATOM     18  C   UNL A   1      37.756  30.919  29.171  1.00  0.00     0.031 C 
ATOM     19  C   UNL A   1      37.158  33.832  33.222  1.00  0.00     0.029 A 
ATOM     20  N   UNL A   1      38.847  32.367  33.255  1.00  0.00    -0.354 N 
ATOM     21  C   UNL A   1      39.543  29.705  29.931  1.00  0.00     0.074 A 
ATOM     22  C   UNL A   1      38.577  29.921  28.874  1.00  0.00     0.031 C 
ATOM     23  C   UNL A   1      37.798  33.985  34.391  1.00  0.00     0.029 A 
ATOM     24  C   UNL A   1      38.896  33.026  34.458  1.00  0.00     0.049 A 
ATOM     25  H   UNL A   1      39.481  31.658  33.002  1.00  0.00     0.167 HD
ATOM     26  C   UNL A   1      40.537  28.786  29.888  1.00  0.00     0.037 A 
ATOM     27  C   UNL A   1      39.728  32.869  35.505  1.00  0.00     0.037 A 
ATOM     28  C   UNL A   1      41.511  28.587  30.931  1.00  0.00     0.049 A 
ATOM     29  C   UNL A   1      40.814  31.836  35.433  1.00  0.00     0.074 A 
ATOM     30  C   UNL A   1      42.593  27.723  30.948  1.00  0.00     0.029 A 
ATOM     31  N   UNL A   1      41.516  29.259  32.143  1.00  0.00    -0.354 N 
ATOM     32  N   UNL A   1      41.113  31.021  34.452  1.00  0.00    -0.248 NA
ATOM     33  C   UNL A   1      41.674  31.697  36.616  1.00  0.00     0.031 C 
ATOM     34  C   UNL A   1      43.234  27.849  32.187  1.00  0.00     0.029 A 
ATOM     35  C   UNL A   1      42.568  28.812  32.928  1.00  0.00     0.049 A 
ATOM     36  H   UNL A   1      40.868  29.951  32.409  1.00  0.00     0.167 HD
ATOM     37  C   UNL A   1      42.196  30.276  34.894  1.00  0.00     0.074 A 
ATOM     38  C   UNL A   1      42.515  30.750  36.226  1.00  0.00     0.031 C 
ATOM     39  C   UNL A   1      42.863  29.286  34.254  1.00  0.00     0.037 A 
BRANCH  26  40
ATOM     40  C   UNL A   1      40.625  27.912  28.674  1.00  0.00     0.064 A 
ATOM     41  C   UNL A   1      39.959  26.678  28.611  1.00  0.00     0.173 A 
ATOM     42  C   UNL A   1      41.332  28.338  27.541  1.00  0.00     0.173 A 
ATOM     43  F   UNL A   1      39.279  26.223  29.674  1.00  0.00    -0.203 F 
ATOM     44  C   UNL A   1      40.012  25.897  27.460  1.00  0.00     0.198 A 
ATOM     45  C   UNL A   1      41.366  27.562  26.385  1.00  0.00     0.198 A 
ATOM     46  F   UNL A   1      41.980  29.512  27.552  1.00  0.00    -0.203 F 
ATOM     47  F   UNL A   1      39.393  24.709  27.430  1.00  0.00    -0.200 F 
ATOM     48  C   UNL A   1      40.709  26.342  26.347  1.00  0.00     0.200 A 
ATOM     49  F   UNL A   1      42.034  27.997  25.308  1.00  0.00    -0.200 F 
ATOM     50  F   UNL A   1      40.751  25.591  25.237  1.00  0.00    -0.200 F 
ENDBRANCH  26  40
BRANCH  27  51
ATOM     51  C   UNL A   1      39.555  33.719  36.707  1.00  0.00     0.064 A 
ATOM     52  C   UNL A   1      40.127  34.996  36.771  1.00  0.00     0.173 A 
ATOM     53  C   UNL A   1      38.792  33.285  37.799  1.00  0.00     0.173 A 
ATOM     54  F   UNL A   1      40.882  35.444  35.756  1.00  0.00    -0.203 F 
ATOM     55  C   UNL A   1      39.945  35.808  37.889  1.00  0.00     0.198 A 
ATOM     56  C   UNL A   1      38.593  34.105  38.906  1.00  0.00     0.198 A 
ATOM     57  F   UNL A   1      38.223  32.071  37.781  1.00  0.00    -0.203 F 
ATOM     58  F   UNL A   1      40.522  37.015  37.938  1.00  0.00    -0.200 F 
ATOM     59  C   UNL A   1      39.172  35.365  38.952  1.00  0.00     0.200 A 
ATOM     60  F   UNL A   1      37.835  33.679  39.927  1.00  0.00    -0.200 F 
ATOM     61  F   UNL A   1      38.988  36.150  40.022  1.00  0.00    -0.200 F 
ENDBRANCH  27  51
BRANCH  39  62
ATOM     62  C   UNL A   1      44.002  28.650  34.989  1.00  0.00     0.064 A 
ATOM     63  C   UNL A   1      45.302  29.168  34.902  1.00  0.00     0.173 A 
ATOM     64  C   UNL A   1      43.789  27.532  35.807  1.00  0.00     0.173 A 
ATOM     65  F   UNL A   1      45.556  30.226  34.118  1.00  0.00    -0.203 F 
ATOM     66  C   UNL A   1      46.353  28.579  35.598  1.00  0.00     0.198 A 
ATOM     67  C   UNL A   1      44.839  26.957  36.517  1.00  0.00     0.198 A 
ATOM     68  F   UNL A   1      42.562  27.003  35.922  1.00  0.00    -0.203 F 
ATOM     69  F   UNL A   1      47.594  29.069  35.475  1.00  0.00    -0.200 F 
ATOM     70  C   UNL A   1      46.119  27.477  36.409  1.00  0.00     0.200 A 
ATOM     71  F   UNL A   1      44.612  25.896  37.304  1.00  0.00    -0.200 F 
ATOM     72  F   UNL A   1      47.133  26.912  37.080  1.00  0.00    -0.200 F 
ENDBRANCH  39  62
ENDBRANCH  13  14
ENDBRANCH   6   8
ENDBRANCH   3   4
ENDBRANCH   2   3
ENDBRANCH   1   2
BRANCH   1  73
ATOM     73  C   UNL A   1      31.918  29.848  26.731  1.00  0.00     0.002 C 
BRANCH  73  74
ATOM     74  C   UNL A   1      31.795  28.408  26.223  1.00  0.00     0.021 C 
BRANCH  74  75
ATOM     75  C   UNL A   1      31.899  28.241  24.707  1.00  0.00     0.116 C 
BRANCH  75  76
ATOM     76  N   UNL A   1      31.360  26.965  24.268  1.00  0.00    -0.351 N 
ATOM     77  C   UNL A   1      30.118  26.686  23.766  1.00  0.00     0.269 C 
ATOM     78  H   UNL A   1      31.972  26.196  24.342  1.00  0.00     0.163 HD
ATOM     79  O   UNL A   1      29.735  25.514  23.752  1.00  0.00    -0.268 OA
BRANCH  77  80
ATOM     80  C   UNL A   1      29.291  27.763  23.313  1.00  0.00     0.123 A 
ATOM     81  C   UNL A   1      29.586  28.974  22.715  1.00  0.00     0.064 A 
ATOM     82  N   UNL A   1      27.925  27.718  23.365  1.00  0.00    -0.272 N 
ATOM     83  C   UNL A   1      28.345  29.629  22.582  1.00  0.00     0.096 A 
ATOM     84  N   UNL A   1      27.332  28.876  23.019  1.00  0.00    -0.175 NA
ATOM     85  H   UNL A   1      27.423  26.914  23.628  1.00  0.00     0.190 HD
BRANCH  83  86
ATOM     86  C   UNL A   1      28.180  30.985  22.086  1.00  0.00     0.040 A 
ATOM     87  C   UNL A   1      28.050  31.372  20.729  1.00  0.00     0.052 A 
ATOM     88  C   UNL A   1      28.123  32.142  22.828  1.00  0.00     0.205 A 
ATOM     89  C   UNL A   1      27.931  32.744  20.739  1.00  0.00     0.195 A 
ATOM     90  O   UNL A   1      27.985  33.220  22.010  1.00  0.00    -0.472 OA
ENDBRANCH  83  86
ENDBRANCH  77  80
ENDBRANCH  75  76
ENDBRANCH  74  75
ENDBRANCH  73  74
ENDBRANCH   1  73
TORSDOF 14
ENDMDL
MODEL 2
REMARK VINA RESULT:     -12.0      4.546     10.420
REMARK SMILES O=C(NCCCCCCNC(=O)c1cc(-c2ccoc2)n[nH]1)c1ccc(-c2c3nc(c(-c4c(F)c(F)c(F)c(F)c4F)c4ccc([nH]4)c(-c4c(F)c(F)c(F)c(F)c4F)c4nc(c(-c5c(F)c(F)c(F)c(F)c5F)c5ccc2[nH]5)C=C4)C=C3)cc1
REMARK SMILES IDX 6 1 5 2 4 3 3 4 1 5 2 6 23 8 24 9 85 10 25 11 84 12 26 13
REMARK SMILES IDX 27 14 28 15 78 16 29 17 83 18 77 19 79 20 30 21 82 22 76 23
REMARK SMILES IDX 75 24 31 26 63 27 43 28 62 29 44 30 47 31 61 32 80 33 45 34
REMARK SMILES IDX 46 35 60 37 81 38 48 39 32 40 33 41 41 42 34 43 35 44 39 45
REMARK SMILES IDX 42 46 36 47 37 48 40 49 38 50 64 51 65 52 73 53 66 54 67 55
REMARK SMILES IDX 71 56 74 57 68 58 69 59 72 60 70 61 49 62 50 63 58 64 51 65
REMARK SMILES IDX 52 66 56 67 59 68 53 69 54 70 57 71 55 72 7 73 8 74 9 75
REMARK SMILES IDX 10 76 11 77 12 79 13 80 14 81 22 82 15 83 21 84 16 86 17 87
REMARK SMILES IDX 20 88 18 89 19 90
REMARK H PARENT 3 7 79 25 47 36 10 78 22 85
REMARK Flexibility Score: inf
ROOT
ATOM      1  C   UNL A   1      35.046  34.717  29.407  1.00  0.00     0.002 C 
ENDROOT
BRANCH   1   2
ATOM      2  C   UNL A   1      34.704  33.228  29.311  1.00  0.00     0.021 C 
BRANCH   2   3
ATOM      3  C   UNL A   1      34.853  32.610  27.924  1.00  0.00     0.116 C 
BRANCH   3   4
ATOM      4  N   UNL A   1      34.123  31.363  27.788  1.00  0.00    -0.352 N 
ATOM      5  O   UNL A   1      33.839  29.142  27.546  1.00  0.00    -0.269 OA
ATOM      6  C   UNL A   1      34.587  30.072  27.830  1.00  0.00     0.251 C 
ATOM      7  H   UNL A   1      33.153  31.456  27.644  1.00  0.00     0.163 HD
BRANCH   6   8
ATOM      8  C   UNL A   1      35.994  29.793  28.197  1.00  0.00     0.039 A 
ATOM      9  C   UNL A   1      36.333  29.320  29.469  1.00  0.00     0.014 A 
ATOM     10  C   UNL A   1      36.985  29.960  27.225  1.00  0.00     0.014 A 
ATOM     11  C   UNL A   1      37.670  29.104  29.796  1.00  0.00     0.010 A 
ATOM     12  C   UNL A   1      38.321  29.691  27.537  1.00  0.00     0.010 A 
ATOM     13  C   UNL A   1      38.675  29.278  28.830  1.00  0.00    -0.014 A 
BRANCH  13  14
ATOM     14  C   UNL A   1      40.084  28.954  29.165  1.00  0.00     0.031 A 
ATOM     15  C   UNL A   1      40.917  29.887  29.993  1.00  0.00     0.074 A 
ATOM     16  C   UNL A   1      40.610  27.802  28.708  1.00  0.00     0.049 A 
ATOM     17  N   UNL A   1      42.163  29.757  30.378  1.00  0.00    -0.248 NA
ATOM     18  C   UNL A   1      40.275  31.130  30.446  1.00  0.00     0.031 C 
ATOM     19  C   UNL A   1      39.903  26.827  27.875  1.00  0.00     0.029 A 
ATOM     20  N   UNL A   1      41.854  27.253  28.882  1.00  0.00    -0.354 N 
ATOM     21  C   UNL A   1      42.459  30.905  31.101  1.00  0.00     0.074 A 
ATOM     22  C   UNL A   1      41.268  31.729  31.089  1.00  0.00     0.031 C 
ATOM     23  C   UNL A   1      40.715  25.788  27.631  1.00  0.00     0.029 A 
ATOM     24  C   UNL A   1      42.010  26.042  28.255  1.00  0.00     0.049 A 
ATOM     25  H   UNL A   1      42.567  27.686  29.404  1.00  0.00     0.167 HD
ATOM     26  C   UNL A   1      43.615  31.232  31.724  1.00  0.00     0.037 A 
ATOM     27  C   UNL A   1      43.081  25.229  28.182  1.00  0.00     0.037 A 
ATOM     28  C   UNL A   1      44.791  30.401  31.753  1.00  0.00     0.049 A 
ATOM     29  C   UNL A   1      44.352  25.623  28.874  1.00  0.00     0.074 A 
ATOM     30  C   UNL A   1      45.989  30.622  32.413  1.00  0.00     0.029 A 
ATOM     31  N   UNL A   1      44.918  29.191  31.089  1.00  0.00    -0.354 N 
ATOM     32  N   UNL A   1      44.603  26.689  29.594  1.00  0.00    -0.248 NA
ATOM     33  C   UNL A   1      45.491  24.706  28.738  1.00  0.00     0.031 C 
ATOM     34  C   UNL A   1      46.853  29.560  32.120  1.00  0.00     0.029 A 
ATOM     35  C   UNL A   1      46.183  28.665  31.303  1.00  0.00     0.049 A 
ATOM     36  H   UNL A   1      44.215  28.768  30.546  1.00  0.00     0.167 HD
ATOM     37  C   UNL A   1      45.923  26.570  30.002  1.00  0.00     0.074 A 
ATOM     38  C   UNL A   1      46.417  25.317  29.465  1.00  0.00     0.031 C 
ATOM     39  C   UNL A   1      46.660  27.424  30.751  1.00  0.00     0.037 A 
BRANCH  26  40
ATOM     40  C   UNL A   1      43.677  32.555  32.426  1.00  0.00     0.064 A 
ATOM     41  C   UNL A   1      44.060  33.724  31.751  1.00  0.00     0.173 A 
ATOM     42  C   UNL A   1      43.292  32.665  33.769  1.00  0.00     0.173 A 
ATOM     43  F   UNL A   1      44.448  33.666  30.468  1.00  0.00    -0.203 F 
ATOM     44  C   UNL A   1      44.069  34.954  32.403  1.00  0.00     0.198 A 
ATOM     45  C   UNL A   1      43.284  33.901  34.412  1.00  0.00     0.198 A 
ATOM     46  F   UNL A   1      42.912  31.577  34.455  1.00  0.00    -0.203 F 
ATOM     47  F   UNL A   1      44.466  36.054  31.749  1.00  0.00    -0.200 F 
ATOM     48  C   UNL A   1      43.675  35.043  33.730  1.00  0.00     0.200 A 
ATOM     49  F   UNL A   1      42.896  33.986  35.692  1.00  0.00    -0.200 F 
ATOM     50  F   UNL A   1      43.677  36.230  34.353  1.00  0.00    -0.200 F 
ENDBRANCH  26  40
BRANCH  27  51
ATOM     51  C   UNL A   1      42.982  23.961  27.420  1.00  0.00     0.064 A 
ATOM     52  C   UNL A   1      43.393  23.893  26.083  1.00  0.00     0.173 A 
ATOM     53  C   UNL A   1      42.503  22.789  28.021  1.00  0.00     0.173 A 
ATOM     54  F   UNL A   1      43.839  24.996  25.462  1.00  0.00    -0.203 F 
ATOM     55  C   UNL A   1      43.325  22.696  25.372  1.00  0.00     0.198 A 
ATOM     56  C   UNL A   1      42.456  21.589  27.317  1.00  0.00     0.198 A 
ATOM     57  F   UNL A   1      42.101  22.806  29.301  1.00  0.00    -0.203 F 
ATOM     58  F   UNL A   1      43.700  22.662  24.087  1.00  0.00    -0.200 F 
ATOM     59  C   UNL A   1      42.864  21.545  25.992  1.00  0.00     0.200 A 
ATOM     60  F   UNL A   1      42.021  20.475  27.922  1.00  0.00    -0.200 F 
ATOM     61  F   UNL A   1      42.809  20.391  25.311  1.00  0.00    -0.200 F 
ENDBRANCH  27  51
BRANCH  39  62
ATOM     62  C   UNL A   1      48.077  27.031  31.031  1.00  0.00     0.064 A 
ATOM     63  C   UNL A   1      49.131  27.498  30.232  1.00  0.00     0.173 A 
ATOM     64  C   UNL A   1      48.389  26.206  32.120  1.00  0.00     0.173 A 
ATOM     65  F   UNL A   1      48.878  28.276  29.169  1.00  0.00    -0.203 F 
ATOM     66  C   UNL A   1      50.447  27.139  30.506  1.00  0.00     0.198 A 
ATOM     67  C   UNL A   1      49.708  25.864  32.403  1.00  0.00     0.198 A 
ATOM     68  F   UNL A   1      47.414  25.737  32.913  1.00  0.00    -0.203 F 
ATOM     69  F   UNL A   1      51.437  27.567  29.710  1.00  0.00    -0.200 F 
ATOM     70  C   UNL A   1      50.735  26.327  31.594  1.00  0.00     0.200 A 
ATOM     71  F   UNL A   1      49.986  25.085  33.456  1.00  0.00    -0.200 F 
ATOM     72  F   UNL A   1      52.004  25.984  31.857  1.00  0.00    -0.200 F 
ENDBRANCH  39  62
ENDBRANCH  13  14
ENDBRANCH   6   8
ENDBRANCH   3   4
ENDBRANCH   2   3
ENDBRANCH   1   2
BRANCH   1  73
ATOM     73  C   UNL A   1      34.428  35.614  28.331  1.00  0.00     0.002 C 
BRANCH  73  74
ATOM     74  C   UNL A   1      33.516  36.734  28.841  1.00  0.00     0.021 C 
BRANCH  74  75
ATOM     75  C   UNL A   1      32.886  36.487  30.212  1.00  0.00     0.116 C 
BRANCH  75  76
ATOM     76  N   UNL A   1      33.429  37.379  31.222  1.00  0.00    -0.351 N 
ATOM     77  C   UNL A   1      33.917  37.072  32.464  1.00  0.00     0.269 C 
ATOM     78  H   UNL A   1      33.448  38.334  30.981  1.00  0.00     0.163 HD
ATOM     79  O   UNL A   1      34.033  37.976  33.294  1.00  0.00    -0.268 OA
BRANCH  77  80
ATOM     80  C   UNL A   1      34.240  35.712  32.769  1.00  0.00     0.123 A 
ATOM     81  C   UNL A   1      35.443  35.069  32.998  1.00  0.00     0.064 A 
ATOM     82  N   UNL A   1      33.285  34.749  32.952  1.00  0.00    -0.272 N 
ATOM     83  C   UNL A   1      35.106  33.711  33.166  1.00  0.00     0.096 A 
ATOM     84  N   UNL A   1      33.787  33.509  33.096  1.00  0.00    -0.175 NA
ATOM     85  H   UNL A   1      32.322  34.945  32.978  1.00  0.00     0.190 HD
BRANCH  83  86
ATOM     86  C   UNL A   1      36.073  32.639  33.336  1.00  0.00     0.040 A 
ATOM     87  C   UNL A   1      36.260  31.533  32.471  1.00  0.00     0.052 A 
ATOM     88  C   UNL A   1      36.978  32.489  34.360  1.00  0.00     0.205 A 
ATOM     89  C   UNL A   1      37.264  30.778  33.035  1.00  0.00     0.195 A 
ATOM     90  O   UNL A   1      37.699  31.348  34.189  1.00  0.00    -0.472 OA
ENDBRANCH  83  86
ENDBRANCH  77  80
ENDBRANCH  75  76
ENDBRANCH  74  75
ENDBRANCH  73  74
ENDBRANCH   1  73
TORSDOF 14
ENDMDL
MODEL 3
REMARK VINA RESULT:     -12.0      5.837     10.752
REMARK SMILES O=C(NCCCCCCNC(=O)c1cc(-c2ccoc2)n[nH]1)c1ccc(-c2c3nc(c(-c4c(F)c(F)c(F)c(F)c4F)c4ccc([nH]4)c(-c4c(F)c(F)c(F)c(F)c4F)c4nc(c(-c5c(F)c(F)c(F)c(F)c5F)c5ccc2[nH]5)C=C4)C=C3)cc1
REMARK SMILES IDX 6 1 5 2 4 3 3 4 1 5 2 6 23 8 24 9 85 10 25 11 84 12 26 13
REMARK SMILES IDX 27 14 28 15 78 16 29 17 83 18 77 19 79 20 30 21 82 22 76 23
REMARK SMILES IDX 75 24 31 26 63 27 43 28 62 29 44 30 47 31 61 32 80 33 45 34
REMARK SMILES IDX 46 35 60 37 81 38 48 39 32 40 33 41 41 42 34 43 35 44 39 45
REMARK SMILES IDX 42 46 36 47 37 48 40 49 38 50 64 51 65 52 73 53 66 54 67 55
REMARK SMILES IDX 71 56 74 57 68 58 69 59 72 60 70 61 49 62 50 63 58 64 51 65
REMARK SMILES IDX 52 66 56 67 59 68 53 69 54 70 57 71 55 72 7 73 8 74 9 75
REMARK SMILES IDX 10 76 11 77 12 79 13 80 14 81 22 82 15 83 21 84 16 86 17 87
REMARK SMILES IDX 20 88 18 89 19 90
REMARK H PARENT 3 7 79 25 47 36 10 78 22 85
REMARK Flexibility Score: inf
ROOT
ATOM      1  C   UNL A   1      42.262  20.715  26.112  1.00  0.00     0.002 C 
ENDROOT
BRANCH   1   2
ATOM      2  C   UNL A   1      41.784  21.991  26.810  1.00  0.00     0.021 C 
BRANCH   2   3
ATOM      3  C   UNL A   1      40.356  21.951  27.344  1.00  0.00     0.116 C 
BRANCH   3   4
ATOM      4  N   UNL A   1      39.381  22.390  26.362  1.00  0.00    -0.352 N 
ATOM      5  O   UNL A   1      37.884  23.771  25.400  1.00  0.00    -0.269 OA
ATOM      6  C   UNL A   1      38.804  23.625  26.198  1.00  0.00     0.251 C 
ATOM      7  H   UNL A   1      39.091  21.703  25.720  1.00  0.00     0.163 HD
BRANCH   6   8
ATOM      8  C   UNL A   1      39.271  24.783  26.995  1.00  0.00     0.039 A 
ATOM      9  C   UNL A   1      40.046  25.795  26.420  1.00  0.00     0.014 A 
ATOM     10  C   UNL A   1      38.878  24.877  28.333  1.00  0.00     0.014 A 
ATOM     11  C   UNL A   1      40.503  26.851  27.206  1.00  0.00     0.010 A 
ATOM     12  C   UNL A   1      39.291  25.965  29.107  1.00  0.00     0.010 A 
ATOM     13  C   UNL A   1      40.121  26.951  28.555  1.00  0.00    -0.014 A 
BRANCH  13  14
ATOM     14  C   UNL A   1      40.537  28.129  29.353  1.00  0.00     0.031 A 
ATOM     15  C   UNL A   1      41.925  28.233  29.915  1.00  0.00     0.074 A 
ATOM     16  C   UNL A   1      39.644  29.112  29.573  1.00  0.00     0.049 A 
ATOM     17  N   UNL A   1      42.453  29.194  30.633  1.00  0.00    -0.248 NA
ATOM     18  C   UNL A   1      42.840  27.116  29.641  1.00  0.00     0.031 C 
ATOM     19  C   UNL A   1      38.259  29.110  29.098  1.00  0.00     0.029 A 
ATOM     20  N   UNL A   1      39.764  30.301  30.246  1.00  0.00    -0.354 N 
ATOM     21  C   UNL A   1      43.752  28.790  30.911  1.00  0.00     0.074 A 
ATOM     22  C   UNL A   1      43.929  27.490  30.298  1.00  0.00     0.031 C 
ATOM     23  C   UNL A   1      37.665  30.253  29.471  1.00  0.00     0.029 A 
ATOM     24  C   UNL A   1      38.613  31.049  30.244  1.00  0.00     0.049 A 
ATOM     25  H   UNL A   1      40.595  30.589  30.687  1.00  0.00     0.167 HD
ATOM     26  C   UNL A   1      44.708  29.451  31.606  1.00  0.00     0.037 A 
ATOM     27  C   UNL A   1      38.347  32.239  30.813  1.00  0.00     0.037 A 
ATOM     28  C   UNL A   1      44.537  30.753  32.196  1.00  0.00     0.049 A 
ATOM     29  C   UNL A   1      39.424  32.943  31.586  1.00  0.00     0.074 A 
ATOM     30  C   UNL A   1      45.470  31.528  32.865  1.00  0.00     0.029 A 
ATOM     31  N   UNL A   1      43.350  31.470  32.192  1.00  0.00    -0.354 N 
ATOM     32  N   UNL A   1      40.662  32.572  31.800  1.00  0.00    -0.248 NA
ATOM     33  C   UNL A   1      39.064  34.228  32.201  1.00  0.00     0.031 C 
ATOM     34  C   UNL A   1      44.838  32.700  33.295  1.00  0.00     0.029 A 
ATOM     35  C   UNL A   1      43.520  32.668  32.868  1.00  0.00     0.049 A 
ATOM     36  H   UNL A   1      42.512  31.173  31.772  1.00  0.00     0.167 HD
ATOM     37  C   UNL A   1      41.232  33.575  32.568  1.00  0.00     0.074 A 
ATOM     38  C   UNL A   1      40.209  34.583  32.767  1.00  0.00     0.031 C 
ATOM     39  C   UNL A   1      42.489  33.653  33.066  1.00  0.00     0.037 A 
BRANCH  26  40
ATOM     40  C   UNL A   1      46.035  28.774  31.778  1.00  0.00     0.064 A 
ATOM     41  C   UNL A   1      46.293  27.938  32.874  1.00  0.00     0.173 A 
ATOM     42  C   UNL A   1      47.035  28.916  30.807  1.00  0.00     0.173 A 
ATOM     43  F   UNL A   1      45.370  27.780  33.835  1.00  0.00    -0.203 F 
ATOM     44  C   UNL A   1      47.514  27.280  32.998  1.00  0.00     0.198 A 
ATOM     45  C   UNL A   1      48.248  28.242  30.924  1.00  0.00     0.198 A 
ATOM     46  F   UNL A   1      46.833  29.701  29.738  1.00  0.00    -0.203 F 
ATOM     47  F   UNL A   1      47.751  26.508  34.068  1.00  0.00    -0.200 F 
ATOM     48  C   UNL A   1      48.487  27.427  32.021  1.00  0.00     0.200 A 
ATOM     49  F   UNL A   1      49.185  28.379  29.976  1.00  0.00    -0.200 F 
ATOM     50  F   UNL A   1      49.659  26.786  32.138  1.00  0.00    -0.200 F 
ENDBRANCH  26  40
BRANCH  27  51
ATOM     51  C   UNL A   1      36.997  32.832  30.663  1.00  0.00     0.064 A 
ATOM     52  C   UNL A   1      36.033  32.685  31.669  1.00  0.00     0.173 A 
ATOM     53  C   UNL A   1      36.654  33.580  29.529  1.00  0.00     0.173 A 
ATOM     54  F   UNL A   1      36.311  31.960  32.763  1.00  0.00    -0.203 F 
ATOM     55  C   UNL A   1      34.771  33.262  31.542  1.00  0.00     0.198 A 
ATOM     56  C   UNL A   1      35.401  34.174  29.413  1.00  0.00     0.198 A 
ATOM     57  F   UNL A   1      37.546  33.750  28.542  1.00  0.00    -0.203 F 
ATOM     58  F   UNL A   1      33.857  33.087  32.506  1.00  0.00    -0.200 F 
ATOM     59  C   UNL A   1      34.459  34.012  30.418  1.00  0.00     0.200 A 
ATOM     60  F   UNL A   1      35.106  34.909  28.331  1.00  0.00    -0.200 F 
ATOM     61  F   UNL A   1      33.249  34.577  30.302  1.00  0.00    -0.200 F 
ENDBRANCH  27  51
BRANCH  39  62
ATOM     62  C   UNL A   1      42.825  34.867  33.876  1.00  0.00     0.064 A 
ATOM     63  C   UNL A   1      42.681  34.872  35.271  1.00  0.00     0.173 A 
ATOM     64  C   UNL A   1      43.320  36.023  33.258  1.00  0.00     0.173 A 
ATOM     65  F   UNL A   1      42.194  33.794  35.903  1.00  0.00    -0.203 F 
ATOM     66  C   UNL A   1      43.007  36.000  36.017  1.00  0.00     0.198 A 
ATOM     67  C   UNL A   1      43.664  37.143  34.009  1.00  0.00     0.198 A 
ATOM     68  F   UNL A   1      43.476  36.064  31.926  1.00  0.00    -0.203 F 
ATOM     69  F   UNL A   1      42.830  35.997  37.346  1.00  0.00    -0.200 F 
ATOM     70  C   UNL A   1      43.504  37.132  35.387  1.00  0.00     0.200 A 
ATOM     71  F   UNL A   1      44.148  38.234  33.401  1.00  0.00    -0.200 F 
ATOM     72  F   UNL A   1      43.819  38.217  36.108  1.00  0.00    -0.200 F 
ENDBRANCH  39  62
ENDBRANCH  13  14
ENDBRANCH   6   8
ENDBRANCH   3   4
ENDBRANCH   2   3
ENDBRANCH   1   2
BRANCH   1  73
ATOM     73  C   UNL A   1      42.053  19.412  26.889  1.00  0.00     0.002 C 
BRANCH  73  74
ATOM     74  C   UNL A   1      43.057  18.293  26.594  1.00  0.00     0.021 C 
BRANCH  74  75
ATOM     75  C   UNL A   1      43.821  18.435  25.278  1.00  0.00     0.116 C 
BRANCH  75  76
ATOM     76  N   UNL A   1      45.257  18.496  25.493  1.00  0.00    -0.351 N 
ATOM     77  C   UNL A   1      46.135  19.484  25.140  1.00  0.00     0.269 C 
ATOM     78  H   UNL A   1      45.651  17.720  25.955  1.00  0.00     0.163 HD
ATOM     79  O   UNL A   1      47.340  19.223  25.113  1.00  0.00    -0.268 OA
BRANCH  77  80
ATOM     80  C   UNL A   1      45.627  20.771  24.776  1.00  0.00     0.123 A 
ATOM     81  C   UNL A   1      45.679  22.004  25.402  1.00  0.00     0.064 A 
ATOM     82  N   UNL A   1      44.985  21.005  23.591  1.00  0.00    -0.272 N 
ATOM     83  C   UNL A   1      44.924  22.864  24.581  1.00  0.00     0.096 A 
ATOM     84  N   UNL A   1      44.463  22.241  23.492  1.00  0.00    -0.175 NA
ATOM     85  H   UNL A   1      44.914  20.333  22.876  1.00  0.00     0.190 HD
BRANCH  83  86
ATOM     86  C   UNL A   1      44.623  24.250  24.898  1.00  0.00     0.040 A 
ATOM     87  C   UNL A   1      45.567  25.278  25.145  1.00  0.00     0.052 A 
ATOM     88  C   UNL A   1      43.380  24.825  25.025  1.00  0.00     0.205 A 
ATOM     89  C   UNL A   1      44.830  26.410  25.414  1.00  0.00     0.195 A 
ATOM     90  O   UNL A   1      43.500  26.139  25.353  1.00  0.00    -0.472 OA
ENDBRANCH  83  86
ENDBRANCH  77  80
ENDBRANCH  75  76
ENDBRANCH  74  75
ENDBRANCH  73  74
ENDBRANCH   1  73
TORSDOF 14
ENDMDL
