MODEL 1
REMARK VINA RESULT:     -13.0      0.000      0.000
REMARK SMILES Cc1cc(C(=O)NCCCCCCNC(=O)c2ccc(-c3c4nc(c(-c5c(F)c(F)c(F)c(F)c5F)c5ccc([nH]5)c(-c5c(F)c(F)c(F)c(F)c5F)c5nc(c(-c6c(F)c(F)c(F)c(F)c6F)c6ccc3[nH]6)C=C5)C=C4)cc2)cc(S(=O)(=O)NNC(=O)c2c[nH]c3ccccc23)c1C
REMARK SMILES IDX 9 1 8 2 7 3 5 4 6 5 4 7 1 8 2 9 3 10 98 11 81 12 99 13 80 14
REMARK SMILES IDX 82 15 83 16 84 17 85 18 86 20 87 21 88 23 89 24 90 25 97 26
REMARK SMILES IDX 91 27 92 28 96 29 93 31 95 32 94 33 10 34 11 35 12 36 13 37
REMARK SMILES IDX 14 38 15 39 16 41 17 42 18 43 79 44 19 45 78 46 20 47 21 48
REMARK SMILES IDX 22 49 72 50 23 51 77 52 71 53 73 54 24 55 76 56 70 57 69 58
REMARK SMILES IDX 25 60 57 61 37 62 56 63 38 64 41 65 55 66 74 67 39 68 40 69
REMARK SMILES IDX 54 71 75 72 42 73 26 74 27 75 35 76 28 77 29 78 33 79 36 80
REMARK SMILES IDX 30 81 31 82 34 83 32 84 58 85 59 86 67 87 60 88 61 89 65 90
REMARK SMILES IDX 68 91 62 92 63 93 66 94 64 95 43 96 44 97 52 98 45 99 46 100
REMARK SMILES IDX 50 101 53 102 47 103 48 104 51 105 49 106
REMARK H PARENT 7 6 85 19 86 22 91 30 14 40 73 59 41 70
REMARK Flexibility Score: inf
ROOT
ATOM      1  C   UNL A   1      33.758  29.856  27.105  1.00  0.00     0.021 C 
ENDROOT
BRANCH   1   2
ATOM      2  C   UNL A   1      34.282  28.634  26.342  1.00  0.00     0.116 C 
BRANCH   2   3
ATOM      3  N   UNL A   1      34.406  28.933  24.925  1.00  0.00    -0.352 N 
ATOM      4  C   UNL A   1      33.588  28.775  23.837  1.00  0.00     0.251 C 
ATOM      5  O   UNL A   1      34.037  29.131  22.744  1.00  0.00    -0.269 OA
ATOM      6  H   UNL A   1      35.274  29.339  24.695  1.00  0.00     0.163 HD
BRANCH   4   7
ATOM      7  C   UNL A   1      32.192  28.247  23.882  1.00  0.00     0.041 A 
ATOM      8  C   UNL A   1      28.672  29.059  22.703  1.00  0.00     0.044 C 
ATOM      9  C   UNL A   1      29.798  28.318  23.377  1.00  0.00    -0.046 A 
ATOM     10  C   UNL A   1      31.072  28.916  23.393  1.00  0.00     0.017 A 
ATOM     11  C   UNL A   1      29.613  27.060  23.988  1.00  0.00    -0.028 A 
ATOM     12  C   UNL A   1      30.724  26.447  24.618  1.00  0.00     0.088 A 
ATOM     13  C   UNL A   1      28.258  26.389  23.984  1.00  0.00     0.046 C 
ATOM     14  C   UNL A   1      32.003  27.007  24.516  1.00  0.00     0.036 A 
BRANCH  12  15
ATOM     15  S   UNL A   1      30.433  25.051  25.695  1.00  0.00     0.257 S 
ATOM     16  O   UNL A   1      29.317  25.434  26.542  1.00  0.00    -0.205 OA
ATOM     17  O   UNL A   1      30.391  23.876  24.879  1.00  0.00    -0.205 OA
BRANCH  15  18
ATOM     18  N   UNL A   1      31.796  24.843  26.700  1.00  0.00    -0.123 NA
ATOM     19  H   UNL A   1      31.559  25.257  27.601  1.00  0.00     0.167 HD
BRANCH  18  20
ATOM     20  N   UNL A   1      32.325  23.501  26.980  1.00  0.00    -0.273 N 
ATOM     21  C   UNL A   1      33.600  23.148  26.557  1.00  0.00     0.268 C 
ATOM     22  H   UNL A   1      31.774  22.849  27.471  1.00  0.00     0.186 HD
ATOM     23  O   UNL A   1      34.518  22.987  27.357  1.00  0.00    -0.268 OA
BRANCH  21  24
ATOM     24  C   UNL A   1      33.651  22.663  25.177  1.00  0.00     0.066 A 
ATOM     25  C   UNL A   1      33.692  23.452  24.039  1.00  0.00     0.097 A 
ATOM     26  C   UNL A   1      33.455  21.326  24.697  1.00  0.00     0.012 A 
ATOM     27  N   UNL A   1      33.014  22.771  23.066  1.00  0.00    -0.360 N 
ATOM     28  C   UNL A   1      32.851  21.464  23.445  1.00  0.00     0.046 A 
ATOM     29  C   UNL A   1      33.582  20.027  25.232  1.00  0.00     0.011 A 
ATOM     30  H   UNL A   1      32.693  23.160  22.221  1.00  0.00     0.166 HD
ATOM     31  C   UNL A   1      32.201  20.413  22.794  1.00  0.00     0.027 A 
ATOM     32  C   UNL A   1      33.059  18.938  24.519  1.00  0.00     0.001 A 
ATOM     33  C   UNL A   1      32.328  19.140  23.351  1.00  0.00     0.002 A 
ENDBRANCH  21  24
ENDBRANCH  18  20
ENDBRANCH  15  18
ENDBRANCH  12  15
ENDBRANCH   4   7
ENDBRANCH   2   3
ENDBRANCH   1   2
BRANCH   1  34
ATOM     34  C   UNL A   1      32.224  29.907  27.192  1.00  0.00     0.002 C 
BRANCH  34  35
ATOM     35  C   UNL A   1      31.562  31.005  26.347  1.00  0.00     0.002 C 
BRANCH  35  36
ATOM     36  C   UNL A   1      31.406  32.362  27.040  1.00  0.00     0.021 C 
BRANCH  36  37
ATOM     37  C   UNL A   1      32.687  33.189  27.119  1.00  0.00     0.116 C 
BRANCH  37  38
ATOM     38  N   UNL A   1      32.461  34.485  27.740  1.00  0.00    -0.352 N 
ATOM     39  C   UNL A   1      33.024  35.024  28.870  1.00  0.00     0.251 C 
ATOM     40  H   UNL A   1      31.807  35.061  27.282  1.00  0.00     0.163 HD
ATOM     41  O   UNL A   1      32.560  36.048  29.361  1.00  0.00    -0.269 OA
BRANCH  39  42
ATOM     42  C   UNL A   1      34.184  34.367  29.509  1.00  0.00     0.039 A 
ATOM     43  C   UNL A   1      33.986  33.650  30.693  1.00  0.00     0.014 A 
ATOM     44  C   UNL A   1      35.467  34.483  28.966  1.00  0.00     0.014 A 
ATOM     45  C   UNL A   1      35.064  33.004  31.303  1.00  0.00     0.010 A 
ATOM     46  C   UNL A   1      36.529  33.787  29.540  1.00  0.00     0.010 A 
ATOM     47  C   UNL A   1      36.338  33.043  30.715  1.00  0.00    -0.014 A 
BRANCH  47  48
ATOM     48  C   UNL A   1      37.486  32.319  31.318  1.00  0.00     0.031 A 
ATOM     49  C   UNL A   1      37.994  32.708  32.678  1.00  0.00     0.074 A 
ATOM     50  C   UNL A   1      38.110  31.356  30.612  1.00  0.00     0.049 A 
ATOM     51  N   UNL A   1      39.033  32.255  33.335  1.00  0.00    -0.248 NA
ATOM     52  C   UNL A   1      37.251  33.762  33.384  1.00  0.00     0.031 C 
ATOM     53  C   UNL A   1      37.738  30.920  29.266  1.00  0.00     0.029 A 
ATOM     54  N   UNL A   1      39.198  30.580  30.924  1.00  0.00    -0.354 N 
ATOM     55  C   UNL A   1      39.074  32.975  34.521  1.00  0.00     0.074 A 
ATOM     56  C   UNL A   1      37.987  33.930  34.474  1.00  0.00     0.031 C 
ATOM     57  C   UNL A   1      38.575  29.946  28.873  1.00  0.00     0.029 A 
ATOM     58  C   UNL A   1      39.562  29.714  29.923  1.00  0.00     0.049 A 
ATOM     59  H   UNL A   1      39.673  30.639  31.785  1.00  0.00     0.167 HD
ATOM     60  C   UNL A   1      39.927  32.837  35.564  1.00  0.00     0.037 A 
ATOM     61  C   UNL A   1      40.583  28.839  29.855  1.00  0.00     0.037 A 
ATOM     62  C   UNL A   1      40.991  31.870  35.619  1.00  0.00     0.049 A 
ATOM     63  C   UNL A   1      41.515  28.706  31.029  1.00  0.00     0.074 A 
ATOM     64  C   UNL A   1      41.878  31.621  36.652  1.00  0.00     0.029 A 
ATOM     65  N   UNL A   1      41.309  30.989  34.597  1.00  0.00    -0.354 N 
ATOM     66  N   UNL A   1      41.510  29.354  32.168  1.00  0.00    -0.248 NA
ATOM     67  C   UNL A   1      42.592  27.711  30.911  1.00  0.00     0.031 C 
ATOM     68  C   UNL A   1      42.758  30.613  36.240  1.00  0.00     0.029 A 
ATOM     69  C   UNL A   1      42.390  30.204  34.969  1.00  0.00     0.049 A 
ATOM     70  H   UNL A   1      40.838  30.930  33.735  1.00  0.00     0.167 HD
ATOM     71  C   UNL A   1      42.558  28.831  32.912  1.00  0.00     0.074 A 
ATOM     72  C   UNL A   1      43.171  27.799  32.100  1.00  0.00     0.031 C 
ATOM     73  C   UNL A   1      42.979  29.174  34.152  1.00  0.00     0.037 A 
BRANCH  60  74
ATOM     74  C   UNL A   1      39.739  33.749  36.741  1.00  0.00     0.064 A 
ATOM     75  C   UNL A   1      38.947  33.376  37.838  1.00  0.00     0.173 A 
ATOM     76  C   UNL A   1      40.393  34.989  36.796  1.00  0.00     0.173 A 
ATOM     77  F   UNL A   1      38.291  32.206  37.830  1.00  0.00    -0.203 F 
ATOM     78  C   UNL A   1      38.799  34.220  38.935  1.00  0.00     0.198 A 
ATOM     79  C   UNL A   1      40.265  35.818  37.909  1.00  0.00     0.198 A 
ATOM     80  F   UNL A   1      41.167  35.392  35.776  1.00  0.00    -0.203 F 
ATOM     81  F   UNL A   1      38.004  33.860  39.953  1.00  0.00    -0.200 F 
ATOM     82  C   UNL A   1      39.464  35.436  38.973  1.00  0.00     0.200 A 
ATOM     83  F   UNL A   1      40.919  36.987  37.949  1.00  0.00    -0.200 F 
ATOM     84  F   UNL A   1      39.329  36.243  40.035  1.00  0.00    -0.200 F 
ENDBRANCH  60  74
BRANCH  61  85
ATOM     85  C   UNL A   1      40.770  28.005  28.639  1.00  0.00     0.064 A 
ATOM     86  C   UNL A   1      41.546  28.463  27.565  1.00  0.00     0.173 A 
ATOM     87  C   UNL A   1      40.170  26.744  28.520  1.00  0.00     0.173 A 
ATOM     88  F   UNL A   1      42.124  29.672  27.624  1.00  0.00    -0.203 F 
ATOM     89  C   UNL A   1      41.693  27.702  26.408  1.00  0.00     0.198 A 
ATOM     90  C   UNL A   1      40.341  25.971  27.374  1.00  0.00     0.198 A 
ATOM     91  F   UNL A   1      39.422  26.258  29.522  1.00  0.00    -0.203 F 
ATOM     92  F   UNL A   1      42.400  28.183  25.376  1.00  0.00    -0.200 F 
ATOM     93  C   UNL A   1      41.095  26.454  26.315  1.00  0.00     0.200 A 
ATOM     94  F   UNL A   1      39.773  24.760  27.294  1.00  0.00    -0.200 F 
ATOM     95  F   UNL A   1      41.238  25.720  25.202  1.00  0.00    -0.200 F 
ENDBRANCH  61  85
BRANCH  73  96
ATOM     96  C   UNL A   1      44.133  28.405  34.725  1.00  0.00     0.064 A 
ATOM     97  C   UNL A   1      45.455  28.850  34.582  1.00  0.00     0.173 A 
ATOM     98  C   UNL A   1      43.908  27.230  35.458  1.00  0.00     0.173 A 
ATOM     99  F   UNL A   1      45.722  29.960  33.877  1.00  0.00    -0.203 F 
ATOM    100  C   UNL A   1      46.514  28.133  35.133  1.00  0.00     0.198 A 
ATOM    101  C   UNL A   1      44.967  26.531  36.031  1.00  0.00     0.198 A 
ATOM    102  F   UNL A   1      42.661  26.767  35.627  1.00  0.00    -0.203 F 
ATOM    103  F   UNL A   1      47.773  28.552  34.947  1.00  0.00    -0.200 F 
ATOM    104  C   UNL A   1      46.268  26.979  35.863  1.00  0.00     0.200 A 
ATOM    105  F   UNL A   1      44.727  25.423  36.746  1.00  0.00    -0.200 F 
ATOM    106  F   UNL A   1      47.288  26.293  36.398  1.00  0.00    -0.200 F 
ENDBRANCH  73  96
ENDBRANCH  47  48
ENDBRANCH  39  42
ENDBRANCH  37  38
ENDBRANCH  36  37
ENDBRANCH  35  36
ENDBRANCH  34  35
ENDBRANCH   1  34
TORSDOF 17
ENDMDL
MODEL 2
REMARK VINA RESULT:     -12.9      1.064      7.090
REMARK SMILES Cc1cc(C(=O)NCCCCCCNC(=O)c2ccc(-c3c4nc(c(-c5c(F)c(F)c(F)c(F)c5F)c5ccc([nH]5)c(-c5c(F)c(F)c(F)c(F)c5F)c5nc(c(-c6c(F)c(F)c(F)c(F)c6F)c6ccc3[nH]6)C=C5)C=C4)cc2)cc(S(=O)(=O)NNC(=O)c2c[nH]c3ccccc23)c1C
REMARK SMILES IDX 9 1 8 2 7 3 5 4 6 5 4 7 1 8 2 9 3 10 98 11 81 12 99 13 80 14
REMARK SMILES IDX 82 15 83 16 84 17 85 18 86 20 87 21 88 23 89 24 90 25 97 26
REMARK SMILES IDX 91 27 92 28 96 29 93 31 95 32 94 33 10 34 11 35 12 36 13 37
REMARK SMILES IDX 14 38 15 39 16 41 17 42 18 43 79 44 19 45 78 46 20 47 21 48
REMARK SMILES IDX 22 49 72 50 23 51 77 52 71 53 73 54 24 55 76 56 70 57 69 58
REMARK SMILES IDX 25 60 57 61 37 62 56 63 38 64 41 65 55 66 74 67 39 68 40 69
REMARK SMILES IDX 54 71 75 72 42 73 26 74 27 75 35 76 28 77 29 78 33 79 36 80
REMARK SMILES IDX 30 81 31 82 34 83 32 84 58 85 59 86 67 87 60 88 61 89 65 90
REMARK SMILES IDX 68 91 62 92 63 93 66 94 64 95 43 96 44 97 52 98 45 99 46 100
REMARK SMILES IDX 50 101 53 102 47 103 48 104 51 105 49 106
REMARK H PARENT 7 6 85 19 86 22 91 30 14 40 73 59 41 70
REMARK Flexibility Score: inf
ROOT
ATOM      1  C   UNL A   1      33.673  30.166  27.052  1.00  0.00     0.021 C 
ENDROOT
BRANCH   1   2
ATOM      2  C   UNL A   1      34.281  28.851  26.553  1.00  0.00     0.116 C 
BRANCH   2   3
ATOM      3  N   UNL A   1      34.558  28.925  25.129  1.00  0.00    -0.352 N 
ATOM      4  C   UNL A   1      33.845  28.627  23.996  1.00  0.00     0.251 C 
ATOM      5  O   UNL A   1      34.416  28.797  22.916  1.00  0.00    -0.269 OA
ATOM      6  H   UNL A   1      35.462  29.265  24.933  1.00  0.00     0.163 HD
BRANCH   4   7
ATOM      7  C   UNL A   1      32.430  28.152  23.974  1.00  0.00     0.041 A 
ATOM      8  C   UNL A   1      28.965  29.208  22.823  1.00  0.00     0.044 C 
ATOM      9  C   UNL A   1      30.049  28.364  23.444  1.00  0.00    -0.046 A 
ATOM     10  C   UNL A   1      31.345  28.907  23.531  1.00  0.00     0.017 A 
ATOM     11  C   UNL A   1      29.805  27.066  23.936  1.00  0.00    -0.028 A 
ATOM     12  C   UNL A   1      30.880  26.355  24.525  1.00  0.00     0.088 A 
ATOM     13  C   UNL A   1      28.425  26.453  23.852  1.00  0.00     0.046 C 
ATOM     14  C   UNL A   1      32.181  26.869  24.491  1.00  0.00     0.036 A 
BRANCH  12  15
ATOM     15  S   UNL A   1      30.515  24.882  25.467  1.00  0.00     0.257 S 
ATOM     16  O   UNL A   1      29.566  25.291  26.487  1.00  0.00    -0.205 OA
ATOM     17  O   UNL A   1      30.217  23.835  24.537  1.00  0.00    -0.205 OA
BRANCH  15  18
ATOM     18  N   UNL A   1      31.938  24.374  26.260  1.00  0.00    -0.123 NA
ATOM     19  H   UNL A   1      32.103  25.039  27.015  1.00  0.00     0.167 HD
BRANCH  18  20
ATOM     20  N   UNL A   1      32.033  23.033  26.852  1.00  0.00    -0.273 N 
ATOM     21  C   UNL A   1      33.262  22.532  27.260  1.00  0.00     0.268 C 
ATOM     22  H   UNL A   1      31.221  22.487  26.961  1.00  0.00     0.186 HD
ATOM     23  O   UNL A   1      33.530  22.385  28.450  1.00  0.00    -0.268 OA
BRANCH  21  24
ATOM     24  C   UNL A   1      34.027  21.895  26.187  1.00  0.00     0.066 A 
ATOM     25  C   UNL A   1      33.693  20.716  25.541  1.00  0.00     0.097 A 
ATOM     26  C   UNL A   1      35.350  22.209  25.732  1.00  0.00     0.012 A 
ATOM     27  N   UNL A   1      34.870  20.099  25.219  1.00  0.00    -0.360 N 
ATOM     28  C   UNL A   1      35.905  20.991  25.332  1.00  0.00     0.046 A 
ATOM     29  C   UNL A   1      36.186  23.344  25.748  1.00  0.00     0.011 A 
ATOM     30  H   UNL A   1      34.960  19.157  24.948  1.00  0.00     0.166 HD
ATOM     31  C   UNL A   1      37.276  20.807  25.136  1.00  0.00     0.027 A 
ATOM     32  C   UNL A   1      37.540  23.203  25.413  1.00  0.00     0.001 A 
ATOM     33  C   UNL A   1      38.085  21.943  25.173  1.00  0.00     0.002 A 
ENDBRANCH  21  24
ENDBRANCH  18  20
ENDBRANCH  15  18
ENDBRANCH  12  15
ENDBRANCH   4   7
ENDBRANCH   2   3
ENDBRANCH   1   2
BRANCH   1  34
ATOM     34  C   UNL A   1      32.136  30.153  27.082  1.00  0.00     0.002 C 
BRANCH  34  35
ATOM     35  C   UNL A   1      31.459  31.170  26.151  1.00  0.00     0.002 C 
BRANCH  35  36
ATOM     36  C   UNL A   1      31.333  32.590  26.713  1.00  0.00     0.021 C 
BRANCH  36  37
ATOM     37  C   UNL A   1      32.652  33.223  27.148  1.00  0.00     0.116 C 
BRANCH  37  38
ATOM     38  N   UNL A   1      32.452  34.520  27.778  1.00  0.00    -0.352 N 
ATOM     39  C   UNL A   1      33.027  35.040  28.910  1.00  0.00     0.251 C 
ATOM     40  H   UNL A   1      31.809  35.112  27.325  1.00  0.00     0.163 HD
ATOM     41  O   UNL A   1      32.584  36.070  29.408  1.00  0.00    -0.269 OA
BRANCH  39  42
ATOM     42  C   UNL A   1      34.175  34.357  29.543  1.00  0.00     0.039 A 
ATOM     43  C   UNL A   1      35.451  34.537  29.001  1.00  0.00     0.014 A 
ATOM     44  C   UNL A   1      33.994  33.515  30.644  1.00  0.00     0.014 A 
ATOM     45  C   UNL A   1      36.553  33.917  29.595  1.00  0.00     0.010 A 
ATOM     46  C   UNL A   1      35.100  32.947  31.274  1.00  0.00     0.010 A 
ATOM     47  C   UNL A   1      36.390  33.141  30.754  1.00  0.00    -0.014 A 
BRANCH  47  48
ATOM     48  C   UNL A   1      37.554  32.518  31.432  1.00  0.00     0.031 A 
ATOM     49  C   UNL A   1      38.261  31.351  30.801  1.00  0.00     0.074 A 
ATOM     50  C   UNL A   1      37.933  32.962  32.646  1.00  0.00     0.049 A 
ATOM     51  N   UNL A   1      39.239  30.620  31.274  1.00  0.00    -0.248 NA
ATOM     52  C   UNL A   1      37.790  30.935  29.471  1.00  0.00     0.031 C 
ATOM     53  C   UNL A   1      37.300  34.057  33.381  1.00  0.00     0.029 A 
ATOM     54  N   UNL A   1      38.935  32.536  33.483  1.00  0.00    -0.354 N 
ATOM     55  C   UNL A   1      39.490  29.654  30.310  1.00  0.00     0.074 A 
ATOM     56  C   UNL A   1      38.531  29.858  29.245  1.00  0.00     0.031 C 
ATOM     57  C   UNL A   1      37.934  34.225  34.552  1.00  0.00     0.029 A 
ATOM     58  C   UNL A   1      38.995  33.230  34.667  1.00  0.00     0.049 A 
ATOM     59  H   UNL A   1      39.550  31.802  33.256  1.00  0.00     0.167 HD
ATOM     60  C   UNL A   1      40.450  28.697  30.301  1.00  0.00     0.037 A 
ATOM     61  C   UNL A   1      39.808  33.072  35.728  1.00  0.00     0.037 A 
ATOM     62  C   UNL A   1      41.419  28.512  31.349  1.00  0.00     0.049 A 
ATOM     63  C   UNL A   1      40.865  32.002  35.692  1.00  0.00     0.074 A 
ATOM     64  C   UNL A   1      42.460  27.602  31.410  1.00  0.00     0.029 A 
ATOM     65  N   UNL A   1      41.467  29.255  32.518  1.00  0.00    -0.354 N 
ATOM     66  N   UNL A   1      41.129  31.131  34.750  1.00  0.00    -0.248 NA
ATOM     67  C   UNL A   1      41.744  31.899  36.866  1.00  0.00     0.031 C 
ATOM     68  C   UNL A   1      43.116  27.769  32.635  1.00  0.00     0.029 A 
ATOM     69  C   UNL A   1      42.512  28.814  33.316  1.00  0.00     0.049 A 
ATOM     70  H   UNL A   1      40.851  29.987  32.749  1.00  0.00     0.167 HD
ATOM     71  C   UNL A   1      42.217  30.397  35.200  1.00  0.00     0.074 A 
ATOM     72  C   UNL A   1      42.575  30.934  36.497  1.00  0.00     0.031 C 
ATOM     73  C   UNL A   1      42.860  29.368  34.598  1.00  0.00     0.037 A 
BRANCH  60  74
ATOM     74  C   UNL A   1      40.507  27.780  29.115  1.00  0.00     0.064 A 
ATOM     75  C   UNL A   1      39.704  26.631  29.037  1.00  0.00     0.173 A 
ATOM     76  C   UNL A   1      41.336  28.075  28.022  1.00  0.00     0.173 A 
ATOM     77  F   UNL A   1      38.901  26.299  30.059  1.00  0.00    -0.203 F 
ATOM     78  C   UNL A   1      39.747  25.801  27.920  1.00  0.00     0.198 A 
ATOM     79  C   UNL A   1      41.355  27.257  26.895  1.00  0.00     0.198 A 
ATOM     80  F   UNL A   1      42.121  29.164  28.044  1.00  0.00    -0.203 F 
ATOM     81  F   UNL A   1      39.002  24.688  27.886  1.00  0.00    -0.200 F 
ATOM     82  C   UNL A   1      40.566  26.119  26.848  1.00  0.00     0.200 A 
ATOM     83  F   UNL A   1      42.139  27.573  25.854  1.00  0.00    -0.200 F 
ATOM     84  F   UNL A   1      40.599  25.324  25.769  1.00  0.00    -0.200 F 
ENDBRANCH  60  74
BRANCH  61  85
ATOM     85  C   UNL A   1      39.668  33.962  36.911  1.00  0.00     0.064 A 
ATOM     86  C   UNL A   1      38.882  33.582  38.008  1.00  0.00     0.173 A 
ATOM     87  C   UNL A   1      40.304  35.210  36.965  1.00  0.00     0.173 A 
ATOM     88  F   UNL A   1      38.238  32.406  37.995  1.00  0.00    -0.203 F 
ATOM     89  C   UNL A   1      38.718  34.428  39.103  1.00  0.00     0.198 A 
ATOM     90  C   UNL A   1      40.162  36.043  38.072  1.00  0.00     0.198 A 
ATOM     91  F   UNL A   1      41.071  35.617  35.943  1.00  0.00    -0.203 F 
ATOM     92  F   UNL A   1      37.922  34.062  40.117  1.00  0.00    -0.200 F 
ATOM     93  C   UNL A   1      39.362  35.656  39.136  1.00  0.00     0.200 A 
ATOM     94  F   UNL A   1      40.797  37.223  38.106  1.00  0.00    -0.200 F 
ATOM     95  F   UNL A   1      39.205  36.469  40.190  1.00  0.00    -0.200 F 
ENDBRANCH  61  85
BRANCH  73  96
ATOM     96  C   UNL A   1      44.039  28.779  35.316  1.00  0.00     0.064 A 
ATOM     97  C   UNL A   1      45.344  29.236  35.083  1.00  0.00     0.173 A 
ATOM     98  C   UNL A   1      43.855  27.772  36.275  1.00  0.00     0.173 A 
ATOM     99  F   UNL A   1      45.573  30.186  34.164  1.00  0.00    -0.203 F 
ATOM    100  C   UNL A   1      46.426  28.689  35.768  1.00  0.00     0.198 A 
ATOM    101  C   UNL A   1      44.935  27.247  36.979  1.00  0.00     0.198 A 
ATOM    102  F   UNL A   1      42.625  27.305  36.537  1.00  0.00    -0.203 F 
ATOM    103  F   UNL A   1      47.669  29.110  35.498  1.00  0.00    -0.200 F 
ATOM    104  C   UNL A   1      46.219  27.701  36.720  1.00  0.00     0.200 A 
ATOM    105  F   UNL A   1      44.733  26.300  37.906  1.00  0.00    -0.200 F 
ATOM    106  F   UNL A   1      47.261  27.180  37.383  1.00  0.00    -0.200 F 
ENDBRANCH  73  96
ENDBRANCH  47  48
ENDBRANCH  39  42
ENDBRANCH  37  38
ENDBRANCH  36  37
ENDBRANCH  35  36
ENDBRANCH  34  35
ENDBRANCH   1  34
TORSDOF 17
ENDMDL
MODEL 3
REMARK VINA RESULT:     -12.9      5.010     10.546
REMARK SMILES Cc1cc(C(=O)NCCCCCCNC(=O)c2ccc(-c3c4nc(c(-c5c(F)c(F)c(F)c(F)c5F)c5ccc([nH]5)c(-c5c(F)c(F)c(F)c(F)c5F)c5nc(c(-c6c(F)c(F)c(F)c(F)c6F)c6ccc3[nH]6)C=C5)C=C4)cc2)cc(S(=O)(=O)NNC(=O)c2c[nH]c3ccccc23)c1C
REMARK SMILES IDX 9 1 8 2 7 3 5 4 6 5 4 7 1 8 2 9 3 10 98 11 81 12 99 13 80 14
REMARK SMILES IDX 82 15 83 16 84 17 85 18 86 20 87 21 88 23 89 24 90 25 97 26
REMARK SMILES IDX 91 27 92 28 96 29 93 31 95 32 94 33 10 34 11 35 12 36 13 37
REMARK SMILES IDX 14 38 15 39 16 41 17 42 18 43 79 44 19 45 78 46 20 47 21 48
REMARK SMILES IDX 22 49 72 50 23 51 77 52 71 53 73 54 24 55 76 56 70 57 69 58
REMARK SMILES IDX 25 60 57 61 37 62 56 63 38 64 41 65 55 66 74 67 39 68 40 69
REMARK SMILES IDX 54 71 75 72 42 73 26 74 27 75 35 76 28 77 29 78 33 79 36 80
REMARK SMILES IDX 30 81 31 82 34 83 32 84 58 85 59 86 67 87 60 88 61 89 65 90
REMARK SMILES IDX 68 91 62 92 63 93 66 94 64 95 43 96 44 97 52 98 45 99 46 100
REMARK SMILES IDX 50 101 53 102 47 103 48 104 51 105 49 106
REMARK H PARENT 7 6 85 19 86 22 91 30 14 40 73 59 41 70
REMARK Flexibility Score: inf
ROOT
ATOM      1  C   UNL A   1      38.299  23.571  26.278  1.00  0.00     0.021 C 
ENDROOT
BRANCH   1   2
ATOM      2  C   UNL A   1      37.096  23.729  25.343  1.00  0.00     0.116 C 
BRANCH   2   3
ATOM      3  N   UNL A   1      35.863  23.809  26.107  1.00  0.00    -0.352 N 
ATOM      4  C   UNL A   1      34.572  24.164  25.812  1.00  0.00     0.251 C 
ATOM      5  O   UNL A   1      33.758  24.135  26.738  1.00  0.00    -0.269 OA
ATOM      6  H   UNL A   1      35.981  23.550  27.051  1.00  0.00     0.163 HD
BRANCH   4   7
ATOM      7  C   UNL A   1      34.076  24.541  24.455  1.00  0.00     0.041 A 
ATOM      8  C   UNL A   1      32.836  22.994  21.212  1.00  0.00     0.044 C 
ATOM      9  C   UNL A   1      33.236  24.054  22.208  1.00  0.00    -0.046 A 
ATOM     10  C   UNL A   1      33.796  23.638  23.431  1.00  0.00     0.017 A 
ATOM     11  C   UNL A   1      33.071  25.430  21.951  1.00  0.00    -0.028 A 
ATOM     12  C   UNL A   1      33.497  26.356  22.935  1.00  0.00     0.088 A 
ATOM     13  C   UNL A   1      32.469  25.907  20.649  1.00  0.00     0.046 C 
ATOM     14  C   UNL A   1      33.939  25.914  24.188  1.00  0.00     0.036 A 
BRANCH  12  15
ATOM     15  S   UNL A   1      33.632  28.079  22.485  1.00  0.00     0.257 S 
ATOM     16  O   UNL A   1      34.767  28.163  21.583  1.00  0.00    -0.205 OA
ATOM     17  O   UNL A   1      32.330  28.530  22.102  1.00  0.00    -0.205 OA
BRANCH  15  18
ATOM     18  N   UNL A   1      34.017  28.979  23.883  1.00  0.00    -0.123 NA
ATOM     19  H   UNL A   1      34.732  29.652  23.608  1.00  0.00     0.167 HD
BRANCH  18  20
ATOM     20  N   UNL A   1      32.981  29.737  24.598  1.00  0.00    -0.273 N 
ATOM     21  C   UNL A   1      32.777  29.534  25.957  1.00  0.00     0.268 C 
ATOM     22  H   UNL A   1      32.429  30.392  24.113  1.00  0.00     0.186 HD
ATOM     23  O   UNL A   1      33.080  30.390  26.784  1.00  0.00    -0.268 OA
BRANCH  21  24
ATOM     24  C   UNL A   1      31.886  28.413  26.261  1.00  0.00     0.066 A 
ATOM     25  C   UNL A   1      31.928  27.627  27.400  1.00  0.00     0.097 A 
ATOM     26  C   UNL A   1      30.953  27.759  25.390  1.00  0.00     0.012 A 
ATOM     27  N   UNL A   1      31.542  26.371  27.024  1.00  0.00    -0.360 N 
ATOM     28  C   UNL A   1      30.944  26.421  25.791  1.00  0.00     0.046 A 
ATOM     29  C   UNL A   1      30.234  28.107  24.228  1.00  0.00     0.011 A 
ATOM     30  H   UNL A   1      31.673  25.554  27.557  1.00  0.00     0.166 HD
ATOM     31  C   UNL A   1      30.425  25.393  25.000  1.00  0.00     0.027 A 
ATOM     32  C   UNL A   1      29.583  27.102  23.498  1.00  0.00     0.001 A 
ATOM     33  C   UNL A   1      29.731  25.761  23.847  1.00  0.00     0.002 A 
ENDBRANCH  21  24
ENDBRANCH  18  20
ENDBRANCH  15  18
ENDBRANCH  12  15
ENDBRANCH   4   7
ENDBRANCH   2   3
ENDBRANCH   1   2
BRANCH   1  34
ATOM     34  C   UNL A   1      39.033  22.231  26.104  1.00  0.00     0.002 C 
BRANCH  34  35
ATOM     35  C   UNL A   1      38.308  21.203  25.223  1.00  0.00     0.002 C 
BRANCH  35  36
ATOM     36  C   UNL A   1      38.929  19.803  25.205  1.00  0.00     0.021 C 
BRANCH  36  37
ATOM     37  C   UNL A   1      39.756  19.455  26.440  1.00  0.00     0.116 C 
BRANCH  37  38
ATOM     38  N   UNL A   1      41.013  18.810  26.092  1.00  0.00    -0.352 N 
ATOM     39  C   UNL A   1      42.248  19.364  25.866  1.00  0.00     0.251 C 
ATOM     40  H   UNL A   1      40.970  17.830  26.004  1.00  0.00     0.163 HD
ATOM     41  O   UNL A   1      43.147  18.686  25.379  1.00  0.00    -0.269 OA
BRANCH  39  42
ATOM     42  C   UNL A   1      42.498  20.783  26.196  1.00  0.00     0.039 A 
ATOM     43  C   UNL A   1      42.611  21.154  27.540  1.00  0.00     0.014 A 
ATOM     44  C   UNL A   1      42.588  21.751  25.193  1.00  0.00     0.014 A 
ATOM     45  C   UNL A   1      42.869  22.486  27.874  1.00  0.00     0.010 A 
ATOM     46  C   UNL A   1      42.906  23.067  25.523  1.00  0.00     0.010 A 
ATOM     47  C   UNL A   1      43.047  23.447  26.867  1.00  0.00    -0.014 A 
BRANCH  47  48
ATOM     48  C   UNL A   1      43.375  24.857  27.198  1.00  0.00     0.031 A 
ATOM     49  C   UNL A   1      44.774  25.372  27.007  1.00  0.00     0.074 A 
ATOM     50  C   UNL A   1      42.428  25.652  27.732  1.00  0.00     0.049 A 
ATOM     51  N   UNL A   1      45.275  26.541  27.317  1.00  0.00    -0.248 NA
ATOM     52  C   UNL A   1      45.744  24.442  26.411  1.00  0.00     0.031 C 
ATOM     53  C   UNL A   1      41.046  25.255  28.006  1.00  0.00     0.029 A 
ATOM     54  N   UNL A   1      42.488  26.958  28.153  1.00  0.00    -0.354 N 
ATOM     55  C   UNL A   1      46.617  26.483  26.966  1.00  0.00     0.074 A 
ATOM     56  C   UNL A   1      46.866  25.147  26.466  1.00  0.00     0.031 C 
ATOM     57  C   UNL A   1      40.387  26.298  28.537  1.00  0.00     0.029 A 
ATOM     58  C   UNL A   1      41.305  27.423  28.673  1.00  0.00     0.049 A 
ATOM     59  H   UNL A   1      43.302  27.507  28.089  1.00  0.00     0.167 HD
ATOM     60  C   UNL A   1      47.552  27.461  27.032  1.00  0.00     0.037 A 
ATOM     61  C   UNL A   1      41.000  28.620  29.209  1.00  0.00     0.037 A 
ATOM     62  C   UNL A   1      47.297  28.795  27.506  1.00  0.00     0.049 A 
ATOM     63  C   UNL A   1      42.058  29.689  29.270  1.00  0.00     0.074 A 
ATOM     64  C   UNL A   1      48.166  29.871  27.567  1.00  0.00     0.029 A 
ATOM     65  N   UNL A   1      46.078  29.238  27.996  1.00  0.00    -0.354 N 
ATOM     66  N   UNL A   1      43.309  29.639  28.883  1.00  0.00    -0.248 NA
ATOM     67  C   UNL A   1      41.658  30.986  29.836  1.00  0.00     0.031 C 
ATOM     68  C   UNL A   1      47.483  30.955  28.131  1.00  0.00     0.029 A 
ATOM     69  C   UNL A   1      46.176  30.568  28.377  1.00  0.00     0.049 A 
ATOM     70  H   UNL A   1      45.263  28.690  28.065  1.00  0.00     0.167 HD
ATOM     71  C   UNL A   1      43.837  30.898  29.131  1.00  0.00     0.074 A 
ATOM     72  C   UNL A   1      42.766  31.698  29.689  1.00  0.00     0.031 C 
ATOM     73  C   UNL A   1      45.096  31.351  28.919  1.00  0.00     0.037 A 
BRANCH  60  74
ATOM     74  C   UNL A   1      48.941  27.128  26.572  1.00  0.00     0.064 A 
ATOM     75  C   UNL A   1      49.928  26.698  27.472  1.00  0.00     0.173 A 
ATOM     76  C   UNL A   1      49.278  27.192  25.212  1.00  0.00     0.173 A 
ATOM     77  F   UNL A   1      49.660  26.630  28.785  1.00  0.00    -0.203 F 
ATOM     78  C   UNL A   1      51.206  26.367  27.030  1.00  0.00     0.198 A 
ATOM     79  C   UNL A   1      50.549  26.833  24.770  1.00  0.00     0.198 A 
ATOM     80  F   UNL A   1      48.369  27.592  24.308  1.00  0.00    -0.203 F 
ATOM     81  F   UNL A   1      52.144  25.999  27.914  1.00  0.00    -0.200 F 
ATOM     82  C   UNL A   1      51.513  26.428  25.680  1.00  0.00     0.200 A 
ATOM     83  F   UNL A   1      50.840  26.881  23.463  1.00  0.00    -0.200 F 
ATOM     84  F   UNL A   1      52.741  26.100  25.255  1.00  0.00    -0.200 F 
ENDBRANCH  60  74
BRANCH  61  85
ATOM     85  C   UNL A   1      39.627  28.881  29.716  1.00  0.00     0.064 A 
ATOM     86  C   UNL A   1      38.645  29.433  28.882  1.00  0.00     0.173 A 
ATOM     87  C   UNL A   1      39.273  28.595  31.042  1.00  0.00     0.173 A 
ATOM     88  F   UNL A   1      38.942  29.741  27.611  1.00  0.00    -0.203 F 
ATOM     89  C   UNL A   1      37.368  29.713  29.363  1.00  0.00     0.198 A 
ATOM     90  C   UNL A   1      37.987  28.850  31.514  1.00  0.00     0.198 A 
ATOM     91  F   UNL A   1      40.175  28.062  31.879  1.00  0.00    -0.203 F 
ATOM     92  F   UNL A   1      36.462  30.285  28.558  1.00  0.00    -0.200 F 
ATOM     93  C   UNL A   1      37.038  29.416  30.677  1.00  0.00     0.200 A 
ATOM     94  F   UNL A   1      37.669  28.548  32.781  1.00  0.00    -0.200 F 
ATOM     95  F   UNL A   1      35.809  29.684  31.139  1.00  0.00    -0.200 F 
ENDBRANCH  61  85
BRANCH  73  96
ATOM     96  C   UNL A   1      45.377  32.786  29.257  1.00  0.00     0.064 A 
ATOM     97  C   UNL A   1      45.884  33.161  30.509  1.00  0.00     0.173 A 
ATOM     98  C   UNL A   1      45.170  33.792  28.301  1.00  0.00     0.173 A 
ATOM     99  F   UNL A   1      46.083  32.237  31.461  1.00  0.00    -0.203 F 
ATOM    100  C   UNL A   1      46.153  34.495  30.801  1.00  0.00     0.198 A 
ATOM    101  C   UNL A   1      45.467  35.122  28.586  1.00  0.00     0.198 A 
ATOM    102  F   UNL A   1      44.692  33.484  27.087  1.00  0.00    -0.203 F 
ATOM    103  F   UNL A   1      46.596  34.836  32.019  1.00  0.00    -0.200 F 
ATOM    104  C   UNL A   1      45.951  35.473  29.837  1.00  0.00     0.200 A 
ATOM    105  F   UNL A   1      45.282  36.064  27.651  1.00  0.00    -0.200 F 
ATOM    106  F   UNL A   1      46.217  36.756  30.118  1.00  0.00    -0.200 F 
ENDBRANCH  73  96
ENDBRANCH  47  48
ENDBRANCH  39  42
ENDBRANCH  37  38
ENDBRANCH  36  37
ENDBRANCH  35  36
ENDBRANCH  34  35
ENDBRANCH   1  34
TORSDOF 17
ENDMDL
