MODEL 1
REMARK VINA RESULT:     -11.9      0.000      0.000
REMARK SMILES Cc1cccc(CN(C)c2nc(C)c(C(=O)NCCCCCCNC(=O)c3ccc(-c4c5nc(c(-c6c(F)c(F)c(F)c(F)c6F)c6ccc([nH]6)c(-c6c(F)c(F)c(F)c(F)c6F)c6nc(c(-c7c(F)c(F)c(F)c(F)c7F)c7ccc4[nH]7)C=C6)C=C5)cc3)s2)n1
REMARK SMILES IDX 20 1 19 2 18 3 17 4 15 5 16 6 14 8 10 9 11 10 90 11 12 12
REMARK SMILES IDX 13 13 8 14 9 15 7 16 6 17 1 18 2 19 3 20 91 21 4 22 5 23
REMARK SMILES IDX 21 24 22 25 23 26 24 27 25 28 26 30 27 31 28 32 89 33 29 34
REMARK SMILES IDX 88 35 30 36 31 37 32 38 82 39 33 40 87 41 81 42 83 43 34 44
REMARK SMILES IDX 86 45 80 46 79 47 35 49 67 50 47 51 66 52 48 53 51 54 65 55
REMARK SMILES IDX 84 56 49 57 50 58 64 60 85 61 52 62 36 63 37 64 45 65 38 66
REMARK SMILES IDX 39 67 43 68 46 69 40 70 41 71 44 72 42 73 68 74 69 75 77 76
REMARK SMILES IDX 70 77 71 78 75 79 78 80 72 81 73 82 76 83 74 84 53 85 54 86
REMARK SMILES IDX 62 87 55 88 56 89 60 90 63 91 57 92 58 93 61 94 59 95
REMARK H PARENT 17 7 24 29 83 48 51 59
REMARK Flexibility Score: inf
ROOT
ATOM      1  C   UNL A   1      30.749  29.730  24.377  1.00  0.00     0.002 C 
ENDROOT
BRANCH   1   2
ATOM      2  C   UNL A   1      31.489  29.016  23.242  1.00  0.00     0.021 C 
BRANCH   2   3
ATOM      3  C   UNL A   1      30.871  27.663  22.880  1.00  0.00     0.116 C 
BRANCH   3   4
ATOM      4  N   UNL A   1      31.729  26.993  21.941  1.00  0.00    -0.351 N 
ATOM      5  C   UNL A   1      32.711  26.050  22.077  1.00  0.00     0.263 C 
ATOM      6  O   UNL A   1      33.326  25.852  21.021  1.00  0.00    -0.268 OA
ATOM      7  H   UNL A   1      31.578  27.269  21.008  1.00  0.00     0.163 HD
BRANCH   5   8
ATOM      8  C   UNL A   1      32.977  25.299  23.296  1.00  0.00     0.117 A 
ATOM      9  C   UNL A   1      33.278  23.286  24.717  1.00  0.00     0.186 A 
ATOM     10  N   UNL A   1      33.373  24.387  25.423  1.00  0.00    -0.225 NA
ATOM     11  S   UNL A   1      32.967  23.584  23.063  1.00  0.00    -0.091 S 
ATOM     12  C   UNL A   1      33.295  25.531  24.629  1.00  0.00     0.063 A 
ATOM     13  C   UNL A   1      33.608  26.780  25.368  1.00  0.00     0.068 C 
BRANCH   9  14
ATOM     14  N   UNL A   1      33.373  22.040  25.258  1.00  0.00    -0.345 N 
ATOM     15  C   UNL A   1      34.700  21.483  25.438  1.00  0.00     0.146 C 
BRANCH  14  16
ATOM     16  C   UNL A   1      32.224  21.129  25.323  1.00  0.00     0.174 C 
BRANCH  16  17
ATOM     17  C   UNL A   1      32.450  19.798  24.627  1.00  0.00     0.060 A 
ATOM     18  C   UNL A   1      32.650  16.291  25.701  1.00  0.00     0.067 C 
ATOM     19  C   UNL A   1      32.608  17.485  24.799  1.00  0.00     0.038 A 
ATOM     20  C   UNL A   1      32.525  17.338  23.418  1.00  0.00     0.023 A 
ATOM     21  N   UNL A   1      32.596  18.694  25.405  1.00  0.00    -0.256 NA
ATOM     22  C   UNL A   1      32.440  18.477  22.626  1.00  0.00     0.004 A 
ATOM     23  C   UNL A   1      32.407  19.726  23.233  1.00  0.00     0.026 A 
ENDBRANCH  16  17
ENDBRANCH  14  16
ENDBRANCH   9  14
ENDBRANCH   5   8
ENDBRANCH   3   4
ENDBRANCH   2   3
ENDBRANCH   1   2
BRANCH   1  24
ATOM     24  C   UNL A   1      31.637  30.103  25.570  1.00  0.00     0.002 C 
BRANCH  24  25
ATOM     25  C   UNL A   1      31.348  31.477  26.183  1.00  0.00     0.021 C 
BRANCH  25  26
ATOM     26  C   UNL A   1      32.502  32.052  26.998  1.00  0.00     0.116 C 
BRANCH  26  27
ATOM     27  N   UNL A   1      32.318  33.472  27.249  1.00  0.00    -0.352 N 
ATOM     28  C   UNL A   1      32.925  34.274  28.182  1.00  0.00     0.251 C 
ATOM     29  H   UNL A   1      31.664  33.922  26.665  1.00  0.00     0.163 HD
ATOM     30  O   UNL A   1      32.470  35.382  28.439  1.00  0.00    -0.269 OA
BRANCH  28  31
ATOM     31  C   UNL A   1      34.132  33.792  28.882  1.00  0.00     0.039 A 
ATOM     32  C   UNL A   1      33.995  32.845  29.900  1.00  0.00     0.014 A 
ATOM     33  C   UNL A   1      35.394  34.294  28.550  1.00  0.00     0.014 A 
ATOM     34  C   UNL A   1      35.132  32.365  30.553  1.00  0.00     0.010 A 
ATOM     35  C   UNL A   1      36.530  33.765  29.154  1.00  0.00     0.010 A 
ATOM     36  C   UNL A   1      36.409  32.802  30.167  1.00  0.00    -0.014 A 
BRANCH  36  37
ATOM     37  C   UNL A   1      37.633  32.274  30.817  1.00  0.00     0.031 A 
ATOM     38  C   UNL A   1      38.451  31.215  30.134  1.00  0.00     0.074 A 
ATOM     39  C   UNL A   1      37.966  32.698  32.052  1.00  0.00     0.049 A 
ATOM     40  N   UNL A   1      39.504  30.571  30.570  1.00  0.00    -0.248 NA
ATOM     41  C   UNL A   1      38.011  30.805  28.791  1.00  0.00     0.031 C 
ATOM     42  C   UNL A   1      37.224  33.688  32.833  1.00  0.00     0.029 A 
ATOM     43  N   UNL A   1      39.008  32.342  32.870  1.00  0.00    -0.354 N 
ATOM     44  C   UNL A   1      39.839  29.672  29.566  1.00  0.00     0.074 A 
ATOM     45  C   UNL A   1      38.849  29.815  28.521  1.00  0.00     0.031 C 
ATOM     46  C   UNL A   1      37.844  33.873  34.010  1.00  0.00     0.029 A 
ATOM     47  C   UNL A   1      39.003  32.990  34.081  1.00  0.00     0.049 A 
ATOM     48  H   UNL A   1      39.694  31.683  32.613  1.00  0.00     0.167 HD
ATOM     49  C   UNL A   1      40.891  28.820  29.513  1.00  0.00     0.037 A 
ATOM     50  C   UNL A   1      39.838  32.877  35.131  1.00  0.00     0.037 A 
ATOM     51  C   UNL A   1      41.887  28.703  30.544  1.00  0.00     0.049 A 
ATOM     52  C   UNL A   1      40.998  31.924  35.045  1.00  0.00     0.074 A 
ATOM     53  C   UNL A   1      43.025  27.915  30.560  1.00  0.00     0.029 A 
ATOM     54  N   UNL A   1      41.864  29.395  31.746  1.00  0.00    -0.354 N 
ATOM     55  N   UNL A   1      41.345  31.127  34.064  1.00  0.00    -0.248 NA
ATOM     56  C   UNL A   1      41.890  31.860  36.212  1.00  0.00     0.031 C 
ATOM     57  C   UNL A   1      43.666  28.096  31.789  1.00  0.00     0.029 A 
ATOM     58  C   UNL A   1      42.957  29.037  32.519  1.00  0.00     0.049 A 
ATOM     59  H   UNL A   1      41.174  30.045  32.011  1.00  0.00     0.167 HD
ATOM     60  C   UNL A   1      42.507  30.493  34.478  1.00  0.00     0.074 A 
ATOM     61  C   UNL A   1      42.815  31.006  35.797  1.00  0.00     0.031 C 
ATOM     62  C   UNL A   1      43.255  29.570  33.824  1.00  0.00     0.037 A 
BRANCH  49  63
ATOM     63  C   UNL A   1      41.020  27.951  28.295  1.00  0.00     0.064 A 
ATOM     64  C   UNL A   1      41.779  28.349  27.184  1.00  0.00     0.173 A 
ATOM     65  C   UNL A   1      40.408  26.689  28.252  1.00  0.00     0.173 A 
ATOM     66  F   UNL A   1      42.376  29.551  27.170  1.00  0.00    -0.203 F 
ATOM     67  C   UNL A   1      41.896  27.530  26.064  1.00  0.00     0.198 A 
ATOM     68  C   UNL A   1      40.552  25.860  27.143  1.00  0.00     0.198 A 
ATOM     69  F   UNL A   1      39.676  26.257  29.290  1.00  0.00    -0.203 F 
ATOM     70  F   UNL A   1      42.584  27.953  24.995  1.00  0.00    -0.200 F 
ATOM     71  C   UNL A   1      41.288  26.284  26.047  1.00  0.00     0.200 A 
ATOM     72  F   UNL A   1      39.976  24.650  27.134  1.00  0.00    -0.200 F 
ATOM     73  F   UNL A   1      41.408  25.493  24.971  1.00  0.00    -0.200 F 
ENDBRANCH  49  63
BRANCH  50  74
ATOM     74  C   UNL A   1      39.621  33.709  36.342  1.00  0.00     0.064 A 
ATOM     75  C   UNL A   1      38.805  33.257  37.388  1.00  0.00     0.173 A 
ATOM     76  C   UNL A   1      40.220  34.970  36.481  1.00  0.00     0.173 A 
ATOM     77  F   UNL A   1      38.194  32.066  37.294  1.00  0.00    -0.203 F 
ATOM     78  C   UNL A   1      38.580  34.042  38.518  1.00  0.00     0.198 A 
ATOM     79  C   UNL A   1      40.017  35.741  37.624  1.00  0.00     0.198 A 
ATOM     80  F   UNL A   1      41.015  35.446  35.512  1.00  0.00    -0.203 F 
ATOM     81  F   UNL A   1      37.760  33.603  39.483  1.00  0.00    -0.200 F 
ATOM     82  C   UNL A   1      39.191  35.280  38.638  1.00  0.00     0.200 A 
ATOM     83  F   UNL A   1      40.622  36.932  37.741  1.00  0.00    -0.200 F 
ATOM     84  F   UNL A   1      38.978  36.032  39.725  1.00  0.00    -0.200 F 
ENDBRANCH  50  74
BRANCH  62  85
ATOM     85  C   UNL A   1      44.502  29.084  34.505  1.00  0.00     0.064 A 
ATOM     86  C   UNL A   1      45.727  29.751  34.363  1.00  0.00     0.173 A 
ATOM     87  C   UNL A   1      44.455  27.962  35.347  1.00  0.00     0.173 A 
ATOM     88  F   UNL A   1      45.825  30.819  33.557  1.00  0.00    -0.203 F 
ATOM     89  C   UNL A   1      46.866  29.299  35.024  1.00  0.00     0.198 A 
ATOM     90  C   UNL A   1      45.589  27.532  36.028  1.00  0.00     0.198 A 
ATOM     91  F   UNL A   1      43.305  27.294  35.520  1.00  0.00    -0.203 F 
ATOM     92  F   UNL A   1      48.037  29.924  34.840  1.00  0.00    -0.200 F 
ATOM     93  C   UNL A   1      46.794  28.195  35.862  1.00  0.00     0.200 A 
ATOM     94  F   UNL A   1      45.514  26.475  36.849  1.00  0.00    -0.200 F 
ATOM     95  F   UNL A   1      47.890  27.769  36.504  1.00  0.00    -0.200 F 
ENDBRANCH  62  85
ENDBRANCH  36  37
ENDBRANCH  28  31
ENDBRANCH  26  27
ENDBRANCH  25  26
ENDBRANCH  24  25
ENDBRANCH   1  24
TORSDOF 16
ENDMDL
MODEL 2
REMARK VINA RESULT:     -11.8      5.056     10.734
REMARK SMILES Cc1cccc(CN(C)c2nc(C)c(C(=O)NCCCCCCNC(=O)c3ccc(-c4c5nc(c(-c6c(F)c(F)c(F)c(F)c6F)c6ccc([nH]6)c(-c6c(F)c(F)c(F)c(F)c6F)c6nc(c(-c7c(F)c(F)c(F)c(F)c7F)c7ccc4[nH]7)C=C6)C=C5)cc3)s2)n1
REMARK SMILES IDX 20 1 19 2 18 3 17 4 15 5 16 6 14 8 10 9 11 10 90 11 12 12
REMARK SMILES IDX 13 13 8 14 9 15 7 16 6 17 1 18 2 19 3 20 91 21 4 22 5 23
REMARK SMILES IDX 21 24 22 25 23 26 24 27 25 28 26 30 27 31 28 32 89 33 29 34
REMARK SMILES IDX 88 35 30 36 31 37 32 38 82 39 33 40 87 41 81 42 83 43 34 44
REMARK SMILES IDX 86 45 80 46 79 47 35 49 67 50 47 51 66 52 48 53 51 54 65 55
REMARK SMILES IDX 84 56 49 57 50 58 64 60 85 61 52 62 36 63 37 64 45 65 38 66
REMARK SMILES IDX 39 67 43 68 46 69 40 70 41 71 44 72 42 73 68 74 69 75 77 76
REMARK SMILES IDX 70 77 71 78 75 79 78 80 72 81 73 82 76 83 74 84 53 85 54 86
REMARK SMILES IDX 62 87 55 88 56 89 60 90 63 91 57 92 58 93 61 94 59 95
REMARK H PARENT 17 7 24 29 83 48 51 59
REMARK Flexibility Score: inf
ROOT
ATOM      1  C   UNL A   1      35.325  19.815  25.008  1.00  0.00     0.002 C 
ENDROOT
BRANCH   1   2
ATOM      2  C   UNL A   1      34.142  20.730  25.341  1.00  0.00     0.021 C 
BRANCH   2   3
ATOM      3  C   UNL A   1      32.784  20.080  25.070  1.00  0.00     0.116 C 
BRANCH   3   4
ATOM      4  N   UNL A   1      32.462  20.232  23.677  1.00  0.00    -0.351 N 
ATOM      5  C   UNL A   1      32.209  21.321  22.888  1.00  0.00     0.263 C 
ATOM      6  O   UNL A   1      31.810  21.004  21.760  1.00  0.00    -0.268 OA
ATOM      7  H   UNL A   1      32.416  19.377  23.191  1.00  0.00     0.163 HD
BRANCH   5   8
ATOM      8  C   UNL A   1      32.440  22.703  23.283  1.00  0.00     0.117 A 
ATOM      9  C   UNL A   1      31.867  24.954  24.158  1.00  0.00     0.186 A 
ATOM     10  N   UNL A   1      33.115  24.901  23.759  1.00  0.00    -0.225 NA
ATOM     11  S   UNL A   1      31.038  23.476  23.937  1.00  0.00    -0.091 S 
ATOM     12  C   UNL A   1      33.483  23.620  23.346  1.00  0.00     0.063 A 
ATOM     13  C   UNL A   1      34.938  23.483  23.090  1.00  0.00     0.068 C 
BRANCH   9  14
ATOM     14  N   UNL A   1      31.286  26.083  24.651  1.00  0.00    -0.345 N 
ATOM     15  C   UNL A   1      30.077  25.931  25.436  1.00  0.00     0.146 C 
BRANCH  14  16
ATOM     16  C   UNL A   1      31.614  27.417  24.135  1.00  0.00     0.174 C 
BRANCH  16  17
ATOM     17  C   UNL A   1      32.226  28.347  25.169  1.00  0.00     0.060 A 
ATOM     18  C   UNL A   1      31.417  31.679  26.487  1.00  0.00     0.067 C 
ATOM     19  C   UNL A   1      32.108  30.360  26.325  1.00  0.00     0.038 A 
ATOM     20  C   UNL A   1      33.070  29.938  27.237  1.00  0.00     0.023 A 
ATOM     21  N   UNL A   1      31.701  29.594  25.287  1.00  0.00    -0.256 NA
ATOM     22  C   UNL A   1      33.647  28.684  27.070  1.00  0.00     0.004 A 
ATOM     23  C   UNL A   1      33.227  27.876  26.021  1.00  0.00     0.026 A 
ENDBRANCH  16  17
ENDBRANCH  14  16
ENDBRANCH   9  14
ENDBRANCH   5   8
ENDBRANCH   3   4
ENDBRANCH   2   3
ENDBRANCH   1   2
BRANCH   1  24
ATOM     24  C   UNL A   1      36.672  20.540  24.907  1.00  0.00     0.002 C 
BRANCH  24  25
ATOM     25  C   UNL A   1      37.899  19.623  24.929  1.00  0.00     0.021 C 
BRANCH  25  26
ATOM     26  C   UNL A   1      39.069  20.167  25.743  1.00  0.00     0.116 C 
BRANCH  26  27
ATOM     27  N   UNL A   1      40.099  19.158  25.931  1.00  0.00    -0.352 N 
ATOM     28  C   UNL A   1      41.447  19.320  26.122  1.00  0.00     0.251 C 
ATOM     29  H   UNL A   1      39.782  18.225  25.919  1.00  0.00     0.163 HD
ATOM     30  O   UNL A   1      42.211  18.370  25.999  1.00  0.00    -0.269 OA
BRANCH  28  31
ATOM     31  C   UNL A   1      41.978  20.653  26.474  1.00  0.00     0.039 A 
ATOM     32  C   UNL A   1      42.209  21.583  25.457  1.00  0.00     0.014 A 
ATOM     33  C   UNL A   1      42.271  20.972  27.804  1.00  0.00     0.014 A 
ATOM     34  C   UNL A   1      42.690  22.853  25.781  1.00  0.00     0.010 A 
ATOM     35  C   UNL A   1      42.683  22.259  28.131  1.00  0.00     0.010 A 
ATOM     36  C   UNL A   1      42.905  23.210  27.122  1.00  0.00    -0.014 A 
BRANCH  36  37
ATOM     37  C   UNL A   1      43.374  24.567  27.493  1.00  0.00     0.031 A 
ATOM     38  C   UNL A   1      42.381  25.625  27.882  1.00  0.00     0.074 A 
ATOM     39  C   UNL A   1      44.685  24.864  27.410  1.00  0.00     0.049 A 
ATOM     40  N   UNL A   1      42.582  26.889  28.161  1.00  0.00    -0.248 NA
ATOM     41  C   UNL A   1      40.969  25.217  27.939  1.00  0.00     0.031 C 
ATOM     42  C   UNL A   1      45.737  23.932  27.000  1.00  0.00     0.029 A 
ATOM     43  N   UNL A   1      45.355  26.035  27.655  1.00  0.00    -0.354 N 
ATOM     44  C   UNL A   1      41.325  27.425  28.408  1.00  0.00     0.074 A 
ATOM     45  C   UNL A   1      40.363  26.367  28.196  1.00  0.00     0.031 C 
ATOM     46  C   UNL A   1      46.922  24.563  27.039  1.00  0.00     0.029 A 
ATOM     47  C   UNL A   1      46.709  25.950  27.440  1.00  0.00     0.049 A 
ATOM     48  H   UNL A   1      44.907  26.859  27.956  1.00  0.00     0.167 HD
ATOM     49  C   UNL A   1      41.007  28.683  28.798  1.00  0.00     0.037 A 
ATOM     50  C   UNL A   1      47.668  26.890  27.549  1.00  0.00     0.037 A 
ATOM     51  C   UNL A   1      41.973  29.723  29.034  1.00  0.00     0.049 A 
ATOM     52  C   UNL A   1      47.286  28.278  27.984  1.00  0.00     0.074 A 
ATOM     53  C   UNL A   1      41.759  31.013  29.490  1.00  0.00     0.029 A 
ATOM     54  N   UNL A   1      43.339  29.593  28.831  1.00  0.00    -0.354 N 
ATOM     55  N   UNL A   1      46.103  28.758  28.280  1.00  0.00    -0.248 NA
ATOM     56  C   UNL A   1      48.377  29.256  28.109  1.00  0.00     0.031 C 
ATOM     57  C   UNL A   1      42.989  31.676  29.520  1.00  0.00     0.029 A 
ATOM     58  C   UNL A   1      43.977  30.784  29.134  1.00  0.00     0.049 A 
ATOM     59  H   UNL A   1      43.788  28.774  28.519  1.00  0.00     0.167 HD
ATOM     60  C   UNL A   1      46.308  30.077  28.657  1.00  0.00     0.074 A 
ATOM     61  C   UNL A   1      47.733  30.322  28.561  1.00  0.00     0.031 C 
ATOM     62  C   UNL A   1      45.399  31.004  29.047  1.00  0.00     0.037 A 
BRANCH  49  63
ATOM     63  C   UNL A   1      39.554  29.001  29.000  1.00  0.00     0.064 A 
ATOM     64  C   UNL A   1      38.746  29.455  27.946  1.00  0.00     0.173 A 
ATOM     65  C   UNL A   1      38.951  28.815  30.254  1.00  0.00     0.173 A 
ATOM     66  F   UNL A   1      39.275  29.660  26.730  1.00  0.00    -0.203 F 
ATOM     67  C   UNL A   1      37.398  29.740  28.147  1.00  0.00     0.198 A 
ATOM     68  C   UNL A   1      37.596  29.071  30.443  1.00  0.00     0.198 A 
ATOM     69  F   UNL A   1      39.676  28.377  31.294  1.00  0.00    -0.203 F 
ATOM     70  F   UNL A   1      36.659  30.220  27.137  1.00  0.00    -0.200 F 
ATOM     71  C   UNL A   1      36.822  29.541  29.392  1.00  0.00     0.200 A 
ATOM     72  F   UNL A   1      37.038  28.866  31.644  1.00  0.00    -0.200 F 
ATOM     73  F   UNL A   1      35.523  29.809  29.581  1.00  0.00    -0.200 F 
ENDBRANCH  49  63
BRANCH  50  74
ATOM     74  C   UNL A   1      49.083  26.539  27.266  1.00  0.00     0.064 A 
ATOM     75  C   UNL A   1      49.564  26.497  25.950  1.00  0.00     0.173 A 
ATOM     76  C   UNL A   1      49.983  26.237  28.298  1.00  0.00     0.173 A 
ATOM     77  F   UNL A   1      48.737  26.759  24.927  1.00  0.00    -0.203 F 
ATOM     78  C   UNL A   1      50.885  26.149  25.676  1.00  0.00     0.198 A 
ATOM     79  C   UNL A   1      51.311  25.917  28.025  1.00  0.00     0.198 A 
ATOM     80  F   UNL A   1      49.575  26.269  29.576  1.00  0.00    -0.203 F 
ATOM     81  F   UNL A   1      51.306  26.074  24.406  1.00  0.00    -0.200 F 
ATOM     82  C   UNL A   1      51.759  25.865  26.714  1.00  0.00     0.200 A 
ATOM     83  F   UNL A   1      52.156  25.658  29.033  1.00  0.00    -0.200 F 
ATOM     84  F   UNL A   1      53.030  25.534  26.451  1.00  0.00    -0.200 F 
ENDBRANCH  50  74
BRANCH  62  85
ATOM     85  C   UNL A   1      45.918  32.356  29.442  1.00  0.00     0.064 A 
ATOM     86  C   UNL A   1      46.334  32.632  30.753  1.00  0.00     0.173 A 
ATOM     87  C   UNL A   1      46.044  33.373  28.483  1.00  0.00     0.173 A 
ATOM     88  F   UNL A   1      46.219  31.698  31.708  1.00  0.00    -0.203 F 
ATOM     89  C   UNL A   1      46.837  33.886  31.092  1.00  0.00     0.198 A 
ATOM     90  C   UNL A   1      46.574  34.613  28.820  1.00  0.00     0.198 A 
ATOM     91  F   UNL A   1      45.665  33.156  27.214  1.00  0.00    -0.203 F 
ATOM     92  F   UNL A   1      47.187  34.143  32.360  1.00  0.00    -0.200 F 
ATOM     93  C   UNL A   1      46.964  34.872  30.125  1.00  0.00     0.200 A 
ATOM     94  F   UNL A   1      46.711  35.560  27.881  1.00  0.00    -0.200 F 
ATOM     95  F   UNL A   1      47.458  36.073  30.453  1.00  0.00    -0.200 F 
ENDBRANCH  62  85
ENDBRANCH  36  37
ENDBRANCH  28  31
ENDBRANCH  26  27
ENDBRANCH  25  26
ENDBRANCH  24  25
ENDBRANCH   1  24
TORSDOF 16
ENDMDL
MODEL 3
REMARK VINA RESULT:     -11.8      1.563      2.571
REMARK SMILES Cc1cccc(CN(C)c2nc(C)c(C(=O)NCCCCCCNC(=O)c3ccc(-c4c5nc(c(-c6c(F)c(F)c(F)c(F)c6F)c6ccc([nH]6)c(-c6c(F)c(F)c(F)c(F)c6F)c6nc(c(-c7c(F)c(F)c(F)c(F)c7F)c7ccc4[nH]7)C=C6)C=C5)cc3)s2)n1
REMARK SMILES IDX 20 1 19 2 18 3 17 4 15 5 16 6 14 8 10 9 11 10 90 11 12 12
REMARK SMILES IDX 13 13 8 14 9 15 7 16 6 17 1 18 2 19 3 20 91 21 4 22 5 23
REMARK SMILES IDX 21 24 22 25 23 26 24 27 25 28 26 30 27 31 28 32 89 33 29 34
REMARK SMILES IDX 88 35 30 36 31 37 32 38 82 39 33 40 87 41 81 42 83 43 34 44
REMARK SMILES IDX 86 45 80 46 79 47 35 49 67 50 47 51 66 52 48 53 51 54 65 55
REMARK SMILES IDX 84 56 49 57 50 58 64 60 85 61 52 62 36 63 37 64 45 65 38 66
REMARK SMILES IDX 39 67 43 68 46 69 40 70 41 71 44 72 42 73 68 74 69 75 77 76
REMARK SMILES IDX 70 77 71 78 75 79 78 80 72 81 73 82 76 83 74 84 53 85 54 86
REMARK SMILES IDX 62 87 55 88 56 89 60 90 63 91 57 92 58 93 61 94 59 95
REMARK H PARENT 17 7 24 29 83 48 51 59
REMARK Flexibility Score: inf
ROOT
ATOM      1  C   UNL A   1      31.681  30.106  25.249  1.00  0.00     0.002 C 
ENDROOT
BRANCH   1   2
ATOM      2  C   UNL A   1      33.029  29.398  25.083  1.00  0.00     0.021 C 
BRANCH   2   3
ATOM      3  C   UNL A   1      33.356  29.063  23.626  1.00  0.00     0.116 C 
BRANCH   3   4
ATOM      4  N   UNL A   1      32.138  28.737  22.937  1.00  0.00    -0.351 N 
ATOM      5  C   UNL A   1      31.398  27.591  22.833  1.00  0.00     0.263 C 
ATOM      6  O   UNL A   1      30.488  27.689  22.000  1.00  0.00    -0.268 OA
ATOM      7  H   UNL A   1      31.757  29.495  22.437  1.00  0.00     0.163 HD
BRANCH   5   8
ATOM      8  C   UNL A   1      31.593  26.401  23.649  1.00  0.00     0.117 A 
ATOM      9  C   UNL A   1      32.456  24.146  24.229  1.00  0.00     0.186 A 
ATOM     10  N   UNL A   1      31.658  24.606  25.162  1.00  0.00    -0.225 NA
ATOM     11  S   UNL A   1      32.635  25.229  22.918  1.00  0.00    -0.091 S 
ATOM     12  C   UNL A   1      31.232  25.908  24.898  1.00  0.00     0.063 A 
ATOM     13  C   UNL A   1      30.501  26.527  26.032  1.00  0.00     0.068 C 
BRANCH   9  14
ATOM     14  N   UNL A   1      33.041  22.918  24.283  1.00  0.00    -0.345 N 
ATOM     15  C   UNL A   1      32.697  22.057  25.398  1.00  0.00     0.146 C 
BRANCH  14  16
ATOM     16  C   UNL A   1      34.233  22.586  23.494  1.00  0.00     0.174 C 
BRANCH  16  17
ATOM     17  C   UNL A   1      35.506  22.473  24.314  1.00  0.00     0.060 A 
ATOM     18  C   UNL A   1      37.928  19.802  25.018  1.00  0.00     0.067 C 
ATOM     19  C   UNL A   1      37.295  21.159  25.006  1.00  0.00     0.038 A 
ATOM     20  C   UNL A   1      37.972  22.271  25.496  1.00  0.00     0.023 A 
ATOM     21  N   UNL A   1      36.068  21.243  24.442  1.00  0.00    -0.256 NA
ATOM     22  C   UNL A   1      37.360  23.517  25.418  1.00  0.00     0.004 A 
ATOM     23  C   UNL A   1      36.109  23.624  24.824  1.00  0.00     0.026 A 
ENDBRANCH  16  17
ENDBRANCH  14  16
ENDBRANCH   9  14
ENDBRANCH   5   8
ENDBRANCH   3   4
ENDBRANCH   2   3
ENDBRANCH   1   2
BRANCH   1  24
ATOM     24  C   UNL A   1      31.449  30.697  26.645  1.00  0.00     0.002 C 
BRANCH  24  25
ATOM     25  C   UNL A   1      31.413  32.227  26.698  1.00  0.00     0.021 C 
BRANCH  25  26
ATOM     26  C   UNL A   1      32.711  32.865  27.185  1.00  0.00     0.116 C 
BRANCH  26  27
ATOM     27  N   UNL A   1      32.501  34.243  27.599  1.00  0.00    -0.352 N 
ATOM     28  C   UNL A   1      33.042  34.921  28.662  1.00  0.00     0.251 C 
ATOM     29  H   UNL A   1      31.882  34.764  27.036  1.00  0.00     0.163 HD
ATOM     30  O   UNL A   1      32.564  35.989  29.026  1.00  0.00    -0.269 OA
BRANCH  28  31
ATOM     31  C   UNL A   1      34.207  34.354  29.372  1.00  0.00     0.039 A 
ATOM     32  C   UNL A   1      33.995  33.590  30.522  1.00  0.00     0.014 A 
ATOM     33  C   UNL A   1      35.505  34.598  28.914  1.00  0.00     0.014 A 
ATOM     34  C   UNL A   1      35.087  33.030  31.188  1.00  0.00     0.010 A 
ATOM     35  C   UNL A   1      36.585  33.983  29.538  1.00  0.00     0.010 A 
ATOM     36  C   UNL A   1      36.388  33.200  30.686  1.00  0.00    -0.014 A 
BRANCH  36  37
ATOM     37  C   UNL A   1      37.558  32.579  31.352  1.00  0.00     0.031 A 
ATOM     38  C   UNL A   1      38.279  31.437  30.694  1.00  0.00     0.074 A 
ATOM     39  C   UNL A   1      37.925  32.997  32.579  1.00  0.00     0.049 A 
ATOM     40  N   UNL A   1      39.270  30.710  31.148  1.00  0.00    -0.248 NA
ATOM     41  C   UNL A   1      37.807  31.040  29.359  1.00  0.00     0.031 C 
ATOM     42  C   UNL A   1      37.272  34.066  33.336  1.00  0.00     0.029 A 
ATOM     43  N   UNL A   1      38.929  32.567  33.408  1.00  0.00    -0.354 N 
ATOM     44  C   UNL A   1      39.525  29.764  30.164  1.00  0.00     0.074 A 
ATOM     45  C   UNL A   1      38.554  29.973  29.112  1.00  0.00     0.031 C 
ATOM     46  C   UNL A   1      37.904  34.219  34.512  1.00  0.00     0.029 A 
ATOM     47  C   UNL A   1      38.980  33.238  34.605  1.00  0.00     0.049 A 
ATOM     48  H   UNL A   1      39.554  31.844  33.168  1.00  0.00     0.167 HD
ATOM     49  C   UNL A   1      40.496  28.820  30.132  1.00  0.00     0.037 A 
ATOM     50  C   UNL A   1      39.799  33.072  35.662  1.00  0.00     0.037 A 
ATOM     51  C   UNL A   1      41.476  28.636  31.170  1.00  0.00     0.049 A 
ATOM     52  C   UNL A   1      40.869  32.017  35.600  1.00  0.00     0.074 A 
ATOM     53  C   UNL A   1      42.538  27.750  31.207  1.00  0.00     0.029 A 
ATOM     54  N   UNL A   1      41.512  29.353  32.357  1.00  0.00    -0.354 N 
ATOM     55  N   UNL A   1      41.145  31.172  34.637  1.00  0.00    -0.248 NA
ATOM     56  C   UNL A   1      41.749  31.898  36.772  1.00  0.00     0.031 C 
ATOM     57  C   UNL A   1      43.190  27.899  32.435  1.00  0.00     0.029 A 
ATOM     58  C   UNL A   1      42.567  28.915  33.141  1.00  0.00     0.049 A 
ATOM     59  H   UNL A   1      40.882  30.068  32.606  1.00  0.00     0.167 HD
ATOM     60  C   UNL A   1      42.245  30.446  35.069  1.00  0.00     0.074 A 
ATOM     61  C   UNL A   1      42.595  30.956  36.378  1.00  0.00     0.031 C 
ATOM     62  C   UNL A   1      42.908  29.446  34.437  1.00  0.00     0.037 A 
BRANCH  49  63
ATOM     63  C   UNL A   1      40.550  27.918  28.934  1.00  0.00     0.064 A 
ATOM     64  C   UNL A   1      39.831  26.713  28.886  1.00  0.00     0.173 A 
ATOM     65  C   UNL A   1      41.300  28.278  27.804  1.00  0.00     0.173 A 
ATOM     66  F   UNL A   1      39.107  26.317  29.944  1.00  0.00    -0.203 F 
ATOM     67  C   UNL A   1      39.885  25.889  27.764  1.00  0.00     0.198 A 
ATOM     68  C   UNL A   1      41.327  27.467  26.673  1.00  0.00     0.198 A 
ATOM     69  F   UNL A   1      42.001  29.422  27.793  1.00  0.00    -0.203 F 
ATOM     70  F   UNL A   1      39.231  24.720  27.763  1.00  0.00    -0.200 F 
ATOM     71  C   UNL A   1      40.627  26.270  26.657  1.00  0.00     0.200 A 
ATOM     72  F   UNL A   1      42.034  27.843  25.597  1.00  0.00    -0.200 F 
ATOM     73  F   UNL A   1      40.672  25.479  25.576  1.00  0.00    -0.200 F 
ENDBRANCH  49  63
BRANCH  50  74
ATOM     74  C   UNL A   1      39.655  33.946  36.854  1.00  0.00     0.064 A 
ATOM     75  C   UNL A   1      38.858  33.555  37.939  1.00  0.00     0.173 A 
ATOM     76  C   UNL A   1      40.305  35.186  36.936  1.00  0.00     0.173 A 
ATOM     77  F   UNL A   1      38.200  32.387  37.899  1.00  0.00    -0.203 F 
ATOM     78  C   UNL A   1      38.701  34.379  39.052  1.00  0.00     0.198 A 
ATOM     79  C   UNL A   1      40.170  35.996  38.062  1.00  0.00     0.198 A 
ATOM     80  F   UNL A   1      41.084  35.604  35.928  1.00  0.00    -0.203 F 
ATOM     81  F   UNL A   1      37.898  34.000  40.056  1.00  0.00    -0.200 F 
ATOM     82  C   UNL A   1      39.363  35.596  39.115  1.00  0.00     0.200 A 
ATOM     83  F   UNL A   1      40.824  37.165  38.125  1.00  0.00    -0.200 F 
ATOM     84  F   UNL A   1      39.215  36.386  40.187  1.00  0.00    -0.200 F 
ENDBRANCH  50  74
BRANCH  62  85
ATOM     85  C   UNL A   1      44.105  28.865  35.132  1.00  0.00     0.064 A 
ATOM     86  C   UNL A   1      43.997  27.761  35.990  1.00  0.00     0.173 A 
ATOM     87  C   UNL A   1      45.384  29.396  34.899  1.00  0.00     0.173 A 
ATOM     88  F   UNL A   1      42.795  27.228  36.256  1.00  0.00    -0.203 F 
ATOM     89  C   UNL A   1      45.124  27.222  36.605  1.00  0.00     0.198 A 
ATOM     90  C   UNL A   1      46.510  28.836  35.493  1.00  0.00     0.198 A 
ATOM     91  F   UNL A   1      45.540  30.449  34.083  1.00  0.00    -0.203 F 
ATOM     92  F   UNL A   1      44.993  26.194  37.455  1.00  0.00    -0.200 F 
ATOM     93  C   UNL A   1      46.379  27.754  36.350  1.00  0.00     0.200 A 
ATOM     94  F   UNL A   1      47.724  29.342  35.234  1.00  0.00    -0.200 F 
ATOM     95  F   UNL A   1      47.463  27.227  36.936  1.00  0.00    -0.200 F 
ENDBRANCH  62  85
ENDBRANCH  36  37
ENDBRANCH  28  31
ENDBRANCH  26  27
ENDBRANCH  25  26
ENDBRANCH  24  25
ENDBRANCH   1  24
TORSDOF 16
ENDMDL
