MODEL 1
REMARK VINA RESULT:      -9.3      0.000      0.000
REMARK SMILES O=C(NCCCCCCNC(=O)[C@@H]1C=C[C@H](NS(=O)(=O)c2ccc(Cl)cc2)C1)c1ccc(-c2c3nc(c(-c4c(F)c(F)c(F)c(F)c4F)c4ccc([nH]4)c(-c4c(F)c(F)c(F)c(F)c4F)c4nc(c(-c5c(F)c(F)c(F)c(F)c5F)c5ccc2[nH]5)C=C4)C=C3)cc1
REMARK SMILES IDX 7 1 6 2 5 3 4 4 3 5 1 6 2 7 29 9 30 10 91 11 31 12 90 13
REMARK SMILES IDX 32 14 33 15 34 16 84 17 35 18 89 19 83 20 85 21 36 22 88 23
REMARK SMILES IDX 82 24 81 25 37 27 69 28 49 29 68 30 50 31 53 32 67 33 86 34
REMARK SMILES IDX 51 35 52 36 66 38 87 39 54 40 38 41 39 42 47 43 40 44 41 45
REMARK SMILES IDX 45 46 48 47 42 48 43 49 46 50 44 51 70 52 71 53 79 54 72 55
REMARK SMILES IDX 73 56 77 57 80 58 74 59 75 60 78 61 76 62 55 63 56 64 64 65
REMARK SMILES IDX 57 66 58 67 62 68 65 69 59 70 60 71 63 72 61 73 8 74 9 75
REMARK SMILES IDX 10 76 11 77 12 79 13 80 14 81 28 82 15 83 16 84 17 85 18 87
REMARK SMILES IDX 19 88 20 89 21 90 22 91 27 92 23 93 26 94 24 95 25 96
REMARK H PARENT 3 8 85 26 53 37 10 78 17 86
REMARK Flexibility Score: inf
ROOT
ATOM      1  C   UNL A   1      35.981  31.835  32.146  1.00  0.00     0.002 C 
ENDROOT
BRANCH   1   2
ATOM      2  C   UNL A   1      36.028  32.598  30.822  1.00  0.00     0.002 C 
BRANCH   2   3
ATOM      3  C   UNL A   1      34.716  32.762  30.061  1.00  0.00     0.021 C 
BRANCH   3   4
ATOM      4  C   UNL A   1      34.730  32.458  28.567  1.00  0.00     0.116 C 
BRANCH   4   5
ATOM      5  N   UNL A   1      34.136  31.182  28.218  1.00  0.00    -0.352 N 
ATOM      6  O   UNL A   1      34.034  28.992  27.709  1.00  0.00    -0.269 OA
ATOM      7  C   UNL A   1      34.717  29.942  28.084  1.00  0.00     0.251 C 
ATOM      8  H   UNL A   1      33.167  31.207  28.052  1.00  0.00     0.163 HD
BRANCH   7   9
ATOM      9  C   UNL A   1      36.166  29.737  28.337  1.00  0.00     0.039 A 
ATOM     10  C   UNL A   1      37.140  30.062  27.391  1.00  0.00     0.014 A 
ATOM     11  C   UNL A   1      36.560  29.230  29.582  1.00  0.00     0.014 A 
ATOM     12  C   UNL A   1      38.478  29.739  27.626  1.00  0.00     0.010 A 
ATOM     13  C   UNL A   1      37.911  28.981  29.848  1.00  0.00     0.010 A 
ATOM     14  C   UNL A   1      38.881  29.191  28.856  1.00  0.00    -0.014 A 
BRANCH  14  15
ATOM     15  C   UNL A   1      40.315  28.866  29.092  1.00  0.00     0.031 A 
ATOM     16  C   UNL A   1      41.202  29.797  29.877  1.00  0.00     0.074 A 
ATOM     17  C   UNL A   1      40.820  27.714  28.611  1.00  0.00     0.049 A 
ATOM     18  N   UNL A   1      42.462  29.652  30.213  1.00  0.00    -0.248 NA
ATOM     19  C   UNL A   1      40.604  31.058  30.337  1.00  0.00     0.031 C 
ATOM     20  C   UNL A   1      40.077  26.738  27.813  1.00  0.00     0.029 A 
ATOM     21  N   UNL A   1      42.071  27.162  28.729  1.00  0.00    -0.354 N 
ATOM     22  C   UNL A   1      42.809  30.806  30.904  1.00  0.00     0.074 A 
ATOM     23  C   UNL A   1      41.637  31.657  30.914  1.00  0.00     0.031 C 
ATOM     24  C   UNL A   1      40.872  25.689  27.551  1.00  0.00     0.029 A 
ATOM     25  C   UNL A   1      42.192  25.937  28.122  1.00  0.00     0.049 A 
ATOM     26  H   UNL A   1      42.812  27.603  29.206  1.00  0.00     0.167 HD
ATOM     27  C   UNL A   1      43.991  31.123  31.487  1.00  0.00     0.037 A 
ATOM     28  C   UNL A   1      43.245  25.104  28.031  1.00  0.00     0.037 A 
ATOM     29  C   UNL A   1      45.152  30.270  31.497  1.00  0.00     0.049 A 
ATOM     30  C   UNL A   1      44.546  25.484  28.684  1.00  0.00     0.074 A 
ATOM     31  C   UNL A   1      46.378  30.485  32.107  1.00  0.00     0.029 A 
ATOM     32  N   UNL A   1      45.236  29.040  30.861  1.00  0.00    -0.354 N 
ATOM     33  N   UNL A   1      44.840  26.550  29.387  1.00  0.00    -0.248 NA
ATOM     34  C   UNL A   1      45.660  24.537  28.535  1.00  0.00     0.031 C 
ATOM     35  C   UNL A   1      47.217  29.408  31.801  1.00  0.00     0.029 A 
ATOM     36  C   UNL A   1      46.498  28.496  31.046  1.00  0.00     0.049 A 
ATOM     37  H   UNL A   1      44.507  28.616  30.354  1.00  0.00     0.167 HD
ATOM     38  C   UNL A   1      46.158  26.388  29.790  1.00  0.00     0.074 A 
ATOM     39  C   UNL A   1      46.603  25.114  29.264  1.00  0.00     0.031 C 
ATOM     40  C   UNL A   1      46.928  27.222  30.532  1.00  0.00     0.037 A 
BRANCH  27  41
ATOM     41  C   UNL A   1      44.100  32.463  32.159  1.00  0.00     0.064 A 
ATOM     42  C   UNL A   1      44.263  33.648  31.424  1.00  0.00     0.173 A 
ATOM     43  C   UNL A   1      43.991  32.569  33.555  1.00  0.00     0.173 A 
ATOM     44  F   UNL A   1      44.381  33.603  30.089  1.00  0.00    -0.203 F 
ATOM     45  C   UNL A   1      44.339  34.883  32.064  1.00  0.00     0.198 A 
ATOM     46  C   UNL A   1      44.039  33.808  34.188  1.00  0.00     0.198 A 
ATOM     47  F   UNL A   1      43.826  31.468  34.305  1.00  0.00    -0.203 F 
ATOM     48  F   UNL A   1      44.538  35.996  31.345  1.00  0.00    -0.200 F 
ATOM     49  C   UNL A   1      44.220  34.963  33.444  1.00  0.00     0.200 A 
ATOM     50  F   UNL A   1      43.911  33.884  35.520  1.00  0.00    -0.200 F 
ATOM     51  F   UNL A   1      44.286  36.153  34.056  1.00  0.00    -0.200 F 
ENDBRANCH  27  41
BRANCH  28  52
ATOM     52  C   UNL A   1      43.106  23.811  27.313  1.00  0.00     0.064 A 
ATOM     53  C   UNL A   1      43.478  23.692  25.967  1.00  0.00     0.173 A 
ATOM     54  C   UNL A   1      42.599  22.672  27.954  1.00  0.00     0.173 A 
ATOM     55  F   UNL A   1      43.948  24.760  25.304  1.00  0.00    -0.203 F 
ATOM     56  C   UNL A   1      43.331  22.487  25.283  1.00  0.00     0.198 A 
ATOM     57  C   UNL A   1      42.479  21.460  27.278  1.00  0.00     0.198 A 
ATOM     58  F   UNL A   1      42.233  22.733  29.243  1.00  0.00    -0.203 F 
ATOM     59  F   UNL A   1      43.652  22.413  23.984  1.00  0.00    -0.200 F 
ATOM     60  C   UNL A   1      42.838  21.371  25.941  1.00  0.00     0.200 A 
ATOM     61  F   UNL A   1      42.016  20.379  27.921  1.00  0.00    -0.200 F 
ATOM     62  F   UNL A   1      42.701  20.211  25.284  1.00  0.00    -0.200 F 
ENDBRANCH  28  52
BRANCH  40  63
ATOM     63  C   UNL A   1      48.318  26.759  30.863  1.00  0.00     0.064 A 
ATOM     64  C   UNL A   1      49.423  27.109  30.072  1.00  0.00     0.173 A 
ATOM     65  C   UNL A   1      48.548  25.968  31.999  1.00  0.00     0.173 A 
ATOM     66  F   UNL A   1      49.254  27.850  28.966  1.00  0.00    -0.203 F 
ATOM     67  C   UNL A   1      50.702  26.658  30.390  1.00  0.00     0.198 A 
ATOM     68  C   UNL A   1      49.833  25.545  32.330  1.00  0.00     0.198 A 
ATOM     69  F   UNL A   1      47.527  25.610  32.791  1.00  0.00    -0.203 F 
ATOM     70  F   UNL A   1      51.735  26.958  29.590  1.00  0.00    -0.200 F 
ATOM     71  C   UNL A   1      50.907  25.881  31.521  1.00  0.00     0.200 A 
ATOM     72  F   UNL A   1      50.029  24.804  33.430  1.00  0.00    -0.200 F 
ATOM     73  F   UNL A   1      52.138  25.449  31.825  1.00  0.00    -0.200 F 
ENDBRANCH  40  63
ENDBRANCH  14  15
ENDBRANCH   7   9
ENDBRANCH   4   5
ENDBRANCH   3   4
ENDBRANCH   2   3
ENDBRANCH   1   2
BRANCH   1  74
ATOM     74  C   UNL A   1      35.794  32.633  33.440  1.00  0.00     0.021 C 
BRANCH  74  75
ATOM     75  C   UNL A   1      37.013  32.878  34.322  1.00  0.00     0.116 C 
BRANCH  75  76
ATOM     76  N   UNL A   1      37.352  31.791  35.210  1.00  0.00    -0.356 N 
ATOM     77  C   UNL A   1      38.445  30.982  35.270  1.00  0.00     0.226 C 
ATOM     78  H   UNL A   1      36.670  31.601  35.895  1.00  0.00     0.163 HD
ATOM     79  O   UNL A   1      38.486  30.227  36.250  1.00  0.00    -0.274 OA
BRANCH  77  80
ATOM     80  C   UNL A   1      39.504  30.869  34.149  1.00  0.00     0.103 C 
ATOM     81  C   UNL A   1      39.153  29.703  33.259  1.00  0.00    -0.016 C 
ATOM     82  C   UNL A   1      40.966  30.552  34.471  1.00  0.00     0.042 C 
ATOM     83  C   UNL A   1      40.065  28.725  33.302  1.00  0.00    -0.011 C 
ATOM     84  C   UNL A   1      41.231  29.079  34.154  1.00  0.00     0.093 C 
BRANCH  84  85
ATOM     85  N   UNL A   1      41.207  28.292  35.376  1.00  0.00    -0.204 NA
ATOM     86  H   UNL A   1      40.631  27.472  35.185  1.00  0.00     0.142 HD
BRANCH  85  87
ATOM     87  S   UNL A   1      42.634  27.729  36.053  1.00  0.00     0.241 S 
ATOM     88  O   UNL A   1      43.553  28.845  36.004  1.00  0.00    -0.207 OA
ATOM     89  O   UNL A   1      42.333  27.040  37.286  1.00  0.00    -0.207 OA
BRANCH  87  90
ATOM     90  C   UNL A   1      43.215  26.513  34.884  1.00  0.00     0.082 A 
ATOM     91  C   UNL A   1      43.051  25.150  35.161  1.00  0.00     0.023 A 
ATOM     92  C   UNL A   1      43.875  26.919  33.720  1.00  0.00     0.023 A 
ATOM     93  C   UNL A   1      43.447  24.196  34.219  1.00  0.00     0.022 A 
ATOM     94  C   UNL A   1      44.320  25.957  32.807  1.00  0.00     0.022 A 
ATOM     95  C   UNL A   1      44.073  24.604  33.043  1.00  0.00     0.041 A 
ATOM     96  Cl  UNL A   1      44.530  23.438  31.864  1.00  0.00    -0.084 Cl
ENDBRANCH  87  90
ENDBRANCH  85  87
ENDBRANCH  84  85
ENDBRANCH  77  80
ENDBRANCH  75  76
ENDBRANCH  74  75
ENDBRANCH   1  74
TORSDOF 16
ENDMDL
MODEL 2
REMARK VINA RESULT:      -9.3      0.888      1.956
REMARK SMILES O=C(NCCCCCCNC(=O)[C@@H]1C=C[C@H](NS(=O)(=O)c2ccc(Cl)cc2)C1)c1ccc(-c2c3nc(c(-c4c(F)c(F)c(F)c(F)c4F)c4ccc([nH]4)c(-c4c(F)c(F)c(F)c(F)c4F)c4nc(c(-c5c(F)c(F)c(F)c(F)c5F)c5ccc2[nH]5)C=C4)C=C3)cc1
REMARK SMILES IDX 7 1 6 2 5 3 4 4 3 5 1 6 2 7 29 9 30 10 91 11 31 12 90 13
REMARK SMILES IDX 32 14 33 15 34 16 84 17 35 18 89 19 83 20 85 21 36 22 88 23
REMARK SMILES IDX 82 24 81 25 37 27 69 28 49 29 68 30 50 31 53 32 67 33 86 34
REMARK SMILES IDX 51 35 52 36 66 38 87 39 54 40 38 41 39 42 47 43 40 44 41 45
REMARK SMILES IDX 45 46 48 47 42 48 43 49 46 50 44 51 70 52 71 53 79 54 72 55
REMARK SMILES IDX 73 56 77 57 80 58 74 59 75 60 78 61 76 62 55 63 56 64 64 65
REMARK SMILES IDX 57 66 58 67 62 68 65 69 59 70 60 71 63 72 61 73 8 74 9 75
REMARK SMILES IDX 10 76 11 77 12 79 13 80 14 81 28 82 15 83 16 84 17 85 18 87
REMARK SMILES IDX 19 88 20 89 21 90 22 91 27 92 23 93 26 94 24 95 25 96
REMARK H PARENT 3 8 85 26 53 37 10 78 17 86
REMARK Flexibility Score: inf
ROOT
ATOM      1  C   UNL A   1      37.007  32.330  31.463  1.00  0.00     0.002 C 
ENDROOT
BRANCH   1   2
ATOM      2  C   UNL A   1      35.487  32.248  31.596  1.00  0.00     0.002 C 
BRANCH   2   3
ATOM      3  C   UNL A   1      34.651  32.965  30.541  1.00  0.00     0.021 C 
BRANCH   3   4
ATOM      4  C   UNL A   1      35.002  32.713  29.078  1.00  0.00     0.116 C 
BRANCH   4   5
ATOM      5  N   UNL A   1      34.272  31.615  28.476  1.00  0.00    -0.352 N 
ATOM      6  O   UNL A   1      33.926  29.600  27.534  1.00  0.00    -0.269 OA
ATOM      7  C   UNL A   1      34.705  30.365  28.097  1.00  0.00     0.251 C 
ATOM      8  H   UNL A   1      33.318  31.791  28.312  1.00  0.00     0.163 HD
BRANCH   7   9
ATOM      9  C   UNL A   1      36.112  29.939  28.312  1.00  0.00     0.039 A 
ATOM     10  C   UNL A   1      36.532  29.332  29.497  1.00  0.00     0.014 A 
ATOM     11  C   UNL A   1      37.031  30.127  27.273  1.00  0.00     0.014 A 
ATOM     12  C   UNL A   1      37.887  29.061  29.701  1.00  0.00     0.010 A 
ATOM     13  C   UNL A   1      38.376  29.780  27.448  1.00  0.00     0.010 A 
ATOM     14  C   UNL A   1      38.827  29.284  28.680  1.00  0.00    -0.014 A 
BRANCH  14  15
ATOM     15  C   UNL A   1      40.265  28.975  28.913  1.00  0.00     0.031 A 
ATOM     16  C   UNL A   1      41.153  29.934  29.662  1.00  0.00     0.074 A 
ATOM     17  C   UNL A   1      40.773  27.812  28.462  1.00  0.00     0.049 A 
ATOM     18  N   UNL A   1      42.417  29.806  29.991  1.00  0.00    -0.248 NA
ATOM     19  C   UNL A   1      40.551  31.205  30.090  1.00  0.00     0.031 C 
ATOM     20  C   UNL A   1      40.030  26.808  27.700  1.00  0.00     0.029 A 
ATOM     21  N   UNL A   1      42.029  27.272  28.585  1.00  0.00    -0.354 N 
ATOM     22  C   UNL A   1      42.762  30.983  30.645  1.00  0.00     0.074 A 
ATOM     23  C   UNL A   1      41.585  31.826  30.639  1.00  0.00     0.031 C 
ATOM     24  C   UNL A   1      40.828  25.757  27.462  1.00  0.00     0.029 A 
ATOM     25  C   UNL A   1      42.152  26.029  28.013  1.00  0.00     0.049 A 
ATOM     26  H   UNL A   1      42.771  27.731  29.042  1.00  0.00     0.167 HD
ATOM     27  C   UNL A   1      43.948  31.325  31.207  1.00  0.00     0.037 A 
ATOM     28  C   UNL A   1      43.210  25.201  27.938  1.00  0.00     0.037 A 
ATOM     29  C   UNL A   1      45.114  30.479  31.231  1.00  0.00     0.049 A 
ATOM     30  C   UNL A   1      44.513  25.608  28.568  1.00  0.00     0.074 A 
ATOM     31  C   UNL A   1      46.344  30.720  31.824  1.00  0.00     0.029 A 
ATOM     32  N   UNL A   1      45.201  29.231  30.632  1.00  0.00    -0.354 N 
ATOM     33  N   UNL A   1      44.807  26.695  29.236  1.00  0.00    -0.248 NA
ATOM     34  C   UNL A   1      45.632  24.663  28.437  1.00  0.00     0.031 C 
ATOM     35  C   UNL A   1      47.187  29.639  31.543  1.00  0.00     0.029 A 
ATOM     36  C   UNL A   1      46.467  28.700  30.822  1.00  0.00     0.049 A 
ATOM     37  H   UNL A   1      44.469  28.788  30.144  1.00  0.00     0.167 HD
ATOM     38  C   UNL A   1      46.129  26.554  29.633  1.00  0.00     0.074 A 
ATOM     39  C   UNL A   1      46.578  25.268  29.141  1.00  0.00     0.031 C 
ATOM     40  C   UNL A   1      46.901  27.414  30.342  1.00  0.00     0.037 A 
BRANCH  27  41
ATOM     41  C   UNL A   1      44.054  32.685  31.838  1.00  0.00     0.064 A 
ATOM     42  C   UNL A   1      43.741  32.898  33.190  1.00  0.00     0.173 A 
ATOM     43  C   UNL A   1      44.521  33.779  31.093  1.00  0.00     0.173 A 
ATOM     44  F   UNL A   1      43.283  31.889  33.944  1.00  0.00    -0.203 F 
ATOM     45  C   UNL A   1      43.868  34.162  33.763  1.00  0.00     0.198 A 
ATOM     46  C   UNL A   1      44.672  35.034  31.677  1.00  0.00     0.198 A 
ATOM     47  F   UNL A   1      44.842  33.628  29.799  1.00  0.00    -0.203 F 
ATOM     48  F   UNL A   1      43.522  34.351  35.044  1.00  0.00    -0.200 F 
ATOM     49  C   UNL A   1      44.339  35.226  33.009  1.00  0.00     0.200 A 
ATOM     50  F   UNL A   1      45.141  36.058  30.950  1.00  0.00    -0.200 F 
ATOM     51  F   UNL A   1      44.467  36.439  33.565  1.00  0.00    -0.200 F 
ENDBRANCH  27  41
BRANCH  28  52
ATOM     52  C   UNL A   1      43.072  23.886  27.260  1.00  0.00     0.064 A 
ATOM     53  C   UNL A   1      43.479  23.717  25.929  1.00  0.00     0.173 A 
ATOM     54  C   UNL A   1      42.533  22.775  27.925  1.00  0.00     0.173 A 
ATOM     55  F   UNL A   1      43.980  24.756  25.245  1.00  0.00    -0.203 F 
ATOM     56  C   UNL A   1      43.333  22.492  25.282  1.00  0.00     0.198 A 
ATOM     57  C   UNL A   1      42.415  21.543  27.286  1.00  0.00     0.198 A 
ATOM     58  F   UNL A   1      42.133  22.885  29.200  1.00  0.00    -0.203 F 
ATOM     59  F   UNL A   1      43.688  22.370  23.996  1.00  0.00    -0.200 F 
ATOM     60  C   UNL A   1      42.808  21.405  25.964  1.00  0.00     0.200 A 
ATOM     61  F   UNL A   1      41.920  20.490  27.952  1.00  0.00    -0.200 F 
ATOM     62  F   UNL A   1      42.673  20.225  25.343  1.00  0.00    -0.200 F 
ENDBRANCH  28  52
BRANCH  40  63
ATOM     63  C   UNL A   1      48.297  26.969  30.674  1.00  0.00     0.064 A 
ATOM     64  C   UNL A   1      48.581  26.224  31.828  1.00  0.00     0.173 A 
ATOM     65  C   UNL A   1      49.361  27.279  29.813  1.00  0.00     0.173 A 
ATOM     66  F   UNL A   1      47.601  25.916  32.692  1.00  0.00    -0.203 F 
ATOM     67  C   UNL A   1      49.884  25.832  32.124  1.00  0.00     0.198 A 
ATOM     68  C   UNL A   1      50.658  26.859  30.097  1.00  0.00     0.198 A 
ATOM     69  F   UNL A   1      49.142  27.984  28.694  1.00  0.00    -0.203 F 
ATOM     70  F   UNL A   1      50.142  25.169  33.260  1.00  0.00    -0.200 F 
ATOM     71  C   UNL A   1      50.920  26.145  31.256  1.00  0.00     0.200 A 
ATOM     72  F   UNL A   1      51.655  27.153  29.251  1.00  0.00    -0.200 F 
ATOM     73  F   UNL A   1      52.173  25.767  31.542  1.00  0.00    -0.200 F 
ENDBRANCH  40  63
ENDBRANCH  14  15
ENDBRANCH   7   9
ENDBRANCH   4   5
ENDBRANCH   3   4
ENDBRANCH   2   3
ENDBRANCH   1   2
BRANCH   1  74
ATOM     74  C   UNL A   1      37.848  32.406  32.741  1.00  0.00     0.021 C 
BRANCH  74  75
ATOM     75  C   UNL A   1      37.485  31.485  33.901  1.00  0.00     0.116 C 
BRANCH  75  76
ATOM     76  N   UNL A   1      37.396  30.084  33.563  1.00  0.00    -0.356 N 
ATOM     77  C   UNL A   1      38.357  29.146  33.341  1.00  0.00     0.226 C 
ATOM     78  H   UNL A   1      36.474  29.747  33.479  1.00  0.00     0.163 HD
ATOM     79  O   UNL A   1      37.940  27.989  33.204  1.00  0.00    -0.274 OA
BRANCH  77  80
ATOM     80  C   UNL A   1      39.852  29.471  33.117  1.00  0.00     0.103 C 
ATOM     81  C   UNL A   1      40.512  28.298  32.438  1.00  0.00    -0.016 C 
ATOM     82  C   UNL A   1      40.800  29.687  34.298  1.00  0.00     0.042 C 
ATOM     83  C   UNL A   1      41.442  27.712  33.202  1.00  0.00    -0.011 C 
ATOM     84  C   UNL A   1      41.641  28.424  34.492  1.00  0.00     0.093 C 
BRANCH  84  85
ATOM     85  N   UNL A   1      41.103  27.629  35.584  1.00  0.00    -0.204 NA
ATOM     86  H   UNL A   1      40.592  26.854  35.158  1.00  0.00     0.142 HD
BRANCH  85  87
ATOM     87  S   UNL A   1      42.126  26.956  36.730  1.00  0.00     0.241 S 
ATOM     88  O   UNL A   1      43.088  27.989  37.045  1.00  0.00    -0.207 OA
ATOM     89  O   UNL A   1      41.334  26.313  37.751  1.00  0.00    -0.207 OA
BRANCH  87  90
ATOM     90  C   UNL A   1      42.994  25.678  35.836  1.00  0.00     0.082 A 
ATOM     91  C   UNL A   1      44.304  25.905  35.398  1.00  0.00     0.023 A 
ATOM     92  C   UNL A   1      42.349  24.475  35.530  1.00  0.00     0.023 A 
ATOM     93  C   UNL A   1      45.009  24.884  34.753  1.00  0.00     0.022 A 
ATOM     94  C   UNL A   1      43.041  23.478  34.835  1.00  0.00     0.022 A 
ATOM     95  C   UNL A   1      44.376  23.673  34.481  1.00  0.00     0.041 A 
ATOM     96  Cl  UNL A   1      45.249  22.400  33.721  1.00  0.00    -0.084 Cl
ENDBRANCH  87  90
ENDBRANCH  85  87
ENDBRANCH  84  85
ENDBRANCH  77  80
ENDBRANCH  75  76
ENDBRANCH  74  75
ENDBRANCH   1  74
TORSDOF 16
ENDMDL
MODEL 3
REMARK VINA RESULT:      -9.1      5.032      8.818
REMARK SMILES O=C(NCCCCCCNC(=O)[C@@H]1C=C[C@H](NS(=O)(=O)c2ccc(Cl)cc2)C1)c1ccc(-c2c3nc(c(-c4c(F)c(F)c(F)c(F)c4F)c4ccc([nH]4)c(-c4c(F)c(F)c(F)c(F)c4F)c4nc(c(-c5c(F)c(F)c(F)c(F)c5F)c5ccc2[nH]5)C=C4)C=C3)cc1
REMARK SMILES IDX 7 1 6 2 5 3 4 4 3 5 1 6 2 7 29 9 30 10 91 11 31 12 90 13
REMARK SMILES IDX 32 14 33 15 34 16 84 17 35 18 89 19 83 20 85 21 36 22 88 23
REMARK SMILES IDX 82 24 81 25 37 27 69 28 49 29 68 30 50 31 53 32 67 33 86 34
REMARK SMILES IDX 51 35 52 36 66 38 87 39 54 40 38 41 39 42 47 43 40 44 41 45
REMARK SMILES IDX 45 46 48 47 42 48 43 49 46 50 44 51 70 52 71 53 79 54 72 55
REMARK SMILES IDX 73 56 77 57 80 58 74 59 75 60 78 61 76 62 55 63 56 64 64 65
REMARK SMILES IDX 57 66 58 67 62 68 65 69 59 70 60 71 63 72 61 73 8 74 9 75
REMARK SMILES IDX 10 76 11 77 12 79 13 80 14 81 28 82 15 83 16 84 17 85 18 87
REMARK SMILES IDX 19 88 20 89 21 90 22 91 27 92 23 93 26 94 24 95 25 96
REMARK H PARENT 3 8 85 26 53 37 10 78 17 86
REMARK Flexibility Score: inf
ROOT
ATOM      1  C   UNL A   1      31.034  26.847  27.080  1.00  0.00     0.002 C 
ENDROOT
BRANCH   1   2
ATOM      2  C   UNL A   1      31.708  28.215  27.185  1.00  0.00     0.002 C 
BRANCH   2   3
ATOM      3  C   UNL A   1      31.743  29.077  25.927  1.00  0.00     0.021 C 
BRANCH   3   4
ATOM      4  C   UNL A   1      32.902  30.057  25.781  1.00  0.00     0.116 C 
BRANCH   4   5
ATOM      5  N   UNL A   1      32.629  31.378  26.313  1.00  0.00    -0.352 N 
ATOM      6  O   UNL A   1      32.857  33.195  27.623  1.00  0.00    -0.269 OA
ATOM      7  C   UNL A   1      33.304  32.108  27.265  1.00  0.00     0.251 C 
ATOM      8  H   UNL A   1      31.837  31.823  25.934  1.00  0.00     0.163 HD
BRANCH   7   9
ATOM      9  C   UNL A   1      34.539  31.585  27.904  1.00  0.00     0.039 A 
ATOM     10  C   UNL A   1      34.674  30.248  28.279  1.00  0.00     0.014 A 
ATOM     11  C   UNL A   1      35.609  32.466  28.104  1.00  0.00     0.014 A 
ATOM     12  C   UNL A   1      35.803  29.830  28.986  1.00  0.00     0.010 A 
ATOM     13  C   UNL A   1      36.775  32.027  28.742  1.00  0.00     0.010 A 
ATOM     14  C   UNL A   1      36.868  30.716  29.230  1.00  0.00    -0.014 A 
BRANCH  14  15
ATOM     15  C   UNL A   1      38.070  30.247  29.974  1.00  0.00     0.031 A 
ATOM     16  C   UNL A   1      38.313  30.670  31.399  1.00  0.00     0.074 A 
ATOM     17  C   UNL A   1      38.942  29.419  29.368  1.00  0.00     0.049 A 
ATOM     18  N   UNL A   1      39.284  30.324  32.211  1.00  0.00    -0.248 NA
ATOM     19  C   UNL A   1      37.349  31.610  31.990  1.00  0.00     0.031 C 
ATOM     20  C   UNL A   1      38.839  28.954  27.984  1.00  0.00     0.029 A 
ATOM     21  N   UNL A   1      40.080  28.812  29.838  1.00  0.00    -0.354 N 
ATOM     22  C   UNL A   1      39.058  31.016  33.394  1.00  0.00     0.074 A 
ATOM     23  C   UNL A   1      37.876  31.826  33.187  1.00  0.00     0.031 C 
ATOM     24  C   UNL A   1      39.844  28.102  27.731  1.00  0.00     0.029 A 
ATOM     25  C   UNL A   1      40.688  27.995  28.916  1.00  0.00     0.049 A 
ATOM     26  H   UNL A   1      40.427  28.948  30.749  1.00  0.00     0.167 HD
ATOM     27  C   UNL A   1      39.764  30.972  34.551  1.00  0.00     0.037 A 
ATOM     28  C   UNL A   1      41.801  27.245  29.011  1.00  0.00     0.037 A 
ATOM     29  C   UNL A   1      40.929  30.152  34.766  1.00  0.00     0.049 A 
ATOM     30  C   UNL A   1      42.566  27.218  30.306  1.00  0.00     0.074 A 
ATOM     31  C   UNL A   1      41.679  30.002  35.922  1.00  0.00     0.029 A 
ATOM     32  N   UNL A   1      41.519  29.346  33.804  1.00  0.00    -0.354 N 
ATOM     33  N   UNL A   1      42.305  27.828  31.435  1.00  0.00    -0.248 NA
ATOM     34  C   UNL A   1      43.780  26.389  30.337  1.00  0.00     0.031 C 
ATOM     35  C   UNL A   1      42.748  29.143  35.645  1.00  0.00     0.029 A 
ATOM     36  C   UNL A   1      42.635  28.715  34.333  1.00  0.00     0.049 A 
ATOM     37  H   UNL A   1      41.193  29.238  32.881  1.00  0.00     0.167 HD
ATOM     38  C   UNL A   1      43.300  27.434  32.320  1.00  0.00     0.074 A 
ATOM     39  C   UNL A   1      44.163  26.521  31.599  1.00  0.00     0.031 C 
ATOM     40  C   UNL A   1      43.479  27.797  33.614  1.00  0.00     0.037 A 
BRANCH  27  41
ATOM     41  C   UNL A   1      39.305  31.849  35.682  1.00  0.00     0.064 A 
ATOM     42  C   UNL A   1      38.361  31.408  36.623  1.00  0.00     0.173 A 
ATOM     43  C   UNL A   1      39.852  33.130  35.855  1.00  0.00     0.173 A 
ATOM     44  F   UNL A   1      37.801  30.196  36.499  1.00  0.00    -0.203 F 
ATOM     45  C   UNL A   1      37.965  32.227  37.678  1.00  0.00     0.198 A 
ATOM     46  C   UNL A   1      39.474  33.935  36.927  1.00  0.00     0.198 A 
ATOM     47  F   UNL A   1      40.765  33.598  34.989  1.00  0.00    -0.203 F 
ATOM     48  F   UNL A   1      37.030  31.801  38.538  1.00  0.00    -0.200 F 
ATOM     49  C   UNL A   1      38.526  33.486  37.833  1.00  0.00     0.200 A 
ATOM     50  F   UNL A   1      40.028  35.146  37.082  1.00  0.00    -0.200 F 
ATOM     51  F   UNL A   1      38.148  34.269  38.852  1.00  0.00    -0.200 F 
ENDBRANCH  27  41
BRANCH  28  52
ATOM     52  C   UNL A   1      42.246  26.431  27.850  1.00  0.00     0.064 A 
ATOM     53  C   UNL A   1      41.711  25.156  27.619  1.00  0.00     0.173 A 
ATOM     54  C   UNL A   1      43.211  26.908  26.951  1.00  0.00     0.173 A 
ATOM     55  F   UNL A   1      40.801  24.647  28.463  1.00  0.00    -0.203 F 
ATOM     56  C   UNL A   1      42.139  24.380  26.544  1.00  0.00     0.198 A 
ATOM     57  C   UNL A   1      43.616  26.144  25.860  1.00  0.00     0.198 A 
ATOM     58  F   UNL A   1      43.748  28.124  27.127  1.00  0.00    -0.203 F 
ATOM     59  F   UNL A   1      41.645  23.147  26.372  1.00  0.00    -0.200 F 
ATOM     60  C   UNL A   1      43.086  24.878  25.661  1.00  0.00     0.200 A 
ATOM     61  F   UNL A   1      44.521  26.634  25.001  1.00  0.00    -0.200 F 
ATOM     62  F   UNL A   1      43.494  24.134  24.624  1.00  0.00    -0.200 F 
ENDBRANCH  28  52
BRANCH  40  63
ATOM     63  C   UNL A   1      44.625  27.164  34.351  1.00  0.00     0.064 A 
ATOM     64  C   UNL A   1      45.890  27.769  34.411  1.00  0.00     0.173 A 
ATOM     65  C   UNL A   1      44.447  25.944  35.021  1.00  0.00     0.173 A 
ATOM     66  F   UNL A   1      46.116  28.928  33.774  1.00  0.00    -0.203 F 
ATOM     67  C   UNL A   1      46.942  27.159  35.090  1.00  0.00     0.198 A 
ATOM     68  C   UNL A   1      45.494  25.353  35.724  1.00  0.00     0.198 A 
ATOM     69  F   UNL A   1      43.256  25.328  34.999  1.00  0.00    -0.203 F 
ATOM     70  F   UNL A   1      48.156  27.726  35.089  1.00  0.00    -0.200 F 
ATOM     71  C   UNL A   1      46.742  25.955  35.749  1.00  0.00     0.200 A 
ATOM     72  F   UNL A   1      45.294  24.196  36.370  1.00  0.00    -0.200 F 
ATOM     73  F   UNL A   1      47.756  25.370  36.402  1.00  0.00    -0.200 F 
ENDBRANCH  40  63
ENDBRANCH  14  15
ENDBRANCH   7   9
ENDBRANCH   4   5
ENDBRANCH   3   4
ENDBRANCH   2   3
ENDBRANCH   1   2
BRANCH   1  74
ATOM     74  C   UNL A   1      31.800  25.708  26.401  1.00  0.00     0.021 C 
BRANCH  74  75
ATOM     75  C   UNL A   1      31.233  24.295  26.498  1.00  0.00     0.116 C 
BRANCH  75  76
ATOM     76  N   UNL A   1      32.191  23.277  26.858  1.00  0.00    -0.356 N 
ATOM     77  C   UNL A   1      32.938  22.432  26.096  1.00  0.00     0.226 C 
ATOM     78  H   UNL A   1      32.328  23.175  27.828  1.00  0.00     0.163 HD
ATOM     79  O   UNL A   1      33.773  21.764  26.719  1.00  0.00    -0.274 OA
BRANCH  77  80
ATOM     80  C   UNL A   1      32.699  22.178  24.591  1.00  0.00     0.103 C 
ATOM     81  C   UNL A   1      34.026  22.186  23.874  1.00  0.00    -0.016 C 
ATOM     82  C   UNL A   1      31.909  23.172  23.736  1.00  0.00     0.042 C 
ATOM     83  C   UNL A   1      34.140  23.195  23.003  1.00  0.00    -0.011 C 
ATOM     84  C   UNL A   1      32.893  23.999  22.907  1.00  0.00     0.093 C 
BRANCH  84  85
ATOM     85  N   UNL A   1      33.095  25.301  23.523  1.00  0.00    -0.204 NA
ATOM     86  H   UNL A   1      33.995  25.260  24.004  1.00  0.00     0.142 HD
BRANCH  85  87
ATOM     87  S   UNL A   1      33.114  26.691  22.586  1.00  0.00     0.241 S 
ATOM     88  O   UNL A   1      34.028  27.594  23.250  1.00  0.00    -0.207 OA
ATOM     89  O   UNL A   1      33.275  26.324  21.199  1.00  0.00    -0.207 OA
BRANCH  87  90
ATOM     90  C   UNL A   1      31.471  27.363  22.779  1.00  0.00     0.082 A 
ATOM     91  C   UNL A   1      31.211  28.682  22.390  1.00  0.00     0.023 A 
ATOM     92  C   UNL A   1      30.462  26.590  23.362  1.00  0.00     0.023 A 
ATOM     93  C   UNL A   1      29.912  29.191  22.481  1.00  0.00     0.022 A 
ATOM     94  C   UNL A   1      29.178  27.123  23.502  1.00  0.00     0.022 A 
ATOM     95  C   UNL A   1      28.900  28.406  23.029  1.00  0.00     0.041 A 
ATOM     96  Cl  UNL A   1      27.292  29.013  23.110  1.00  0.00    -0.084 Cl
ENDBRANCH  87  90
ENDBRANCH  85  87
ENDBRANCH  84  85
ENDBRANCH  77  80
ENDBRANCH  75  76
ENDBRANCH  74  75
ENDBRANCH   1  74
TORSDOF 16
ENDMDL
