MODEL 1
REMARK VINA RESULT:     -10.8      0.000      0.000
REMARK SMILES O=C(CCCNC(=O)N1CSC[C@@H]1C(=O)NCCCCCCNC(=O)c1ccc(-c2c3nc(c(-c4c(F)c(F)c(F)c(F)c4F)c4ccc([nH]4)c(-c4c(F)c(F)c(F)c(F)c4F)c4nc(c(-c5c(F)c(F)c(F)c(F)c5F)c5ccc2[nH]5)C=C4)C=C3)cc1)NC1CC1
REMARK SMILES IDX 17 1 16 2 14 3 15 4 13 6 9 7 10 8 11 9 12 10 7 11 6 12 8 14
REMARK SMILES IDX 5 15 4 16 3 17 2 18 1 19 89 20 90 22 91 23 92 24 18 25 19 26
REMARK SMILES IDX 20 27 21 28 22 29 23 30 24 31 25 33 26 34 27 35 88 36 28 37
REMARK SMILES IDX 87 38 29 39 30 40 31 41 81 42 32 43 86 44 80 45 82 46 33 47
REMARK SMILES IDX 85 48 79 49 78 50 34 52 66 53 46 54 65 55 47 56 50 57 64 58
REMARK SMILES IDX 83 59 48 60 49 61 63 63 84 64 51 65 35 66 36 67 44 68 37 69
REMARK SMILES IDX 38 70 42 71 45 72 39 73 40 74 43 75 41 76 67 77 68 78 76 79
REMARK SMILES IDX 69 80 70 81 74 82 77 83 71 84 72 85 75 86 73 87 52 88 53 89
REMARK SMILES IDX 61 90 54 91 55 92 59 93 62 94 56 95 57 96 60 97 58 98
REMARK H PARENT 16 5 6 13 89 21 23 32 82 51 50 62
REMARK Flexibility Score: inf
ROOT
ATOM      1  C   UNL A   1      33.000  27.534  26.263  1.00  0.00     0.116 C 
ENDROOT
BRANCH   1   2
ATOM      2  N   UNL A   1      34.052  26.591  25.973  1.00  0.00    -0.354 N 
ATOM      3  C   UNL A   1      34.000  25.467  25.197  1.00  0.00     0.243 C 
ATOM      4  O   UNL A   1      35.052  24.829  25.073  1.00  0.00    -0.273 OA
ATOM      5  H   UNL A   1      34.923  26.782  26.390  1.00  0.00     0.163 HD
BRANCH   3   6
ATOM      6  C   UNL A   1      32.663  24.854  24.720  1.00  0.00     0.187 C 
ATOM      7  N   UNL A   1      32.161  23.656  25.410  1.00  0.00    -0.303 N 
ATOM      8  C   UNL A   1      31.319  22.853  24.553  1.00  0.00     0.192 C 
ATOM      9  S   UNL A   1      32.075  22.913  22.926  1.00  0.00    -0.138 SA
ATOM     10  C   UNL A   1      32.848  24.527  23.228  1.00  0.00     0.106 C 
BRANCH   7  11
ATOM     11  C   UNL A   1      31.938  23.715  26.756  1.00  0.00     0.318 C 
ATOM     12  N   UNL A   1      32.733  22.994  27.590  1.00  0.00    -0.338 N 
ATOM     13  H   UNL A   1      32.373  22.866  28.497  1.00  0.00     0.165 HD
ATOM     14  O   UNL A   1      31.095  24.453  27.260  1.00  0.00    -0.249 OA
BRANCH  12  15
ATOM     15  C   UNL A   1      34.033  22.384  27.354  1.00  0.00     0.118 C 
BRANCH  15  16
ATOM     16  C   UNL A   1      33.935  20.981  26.752  1.00  0.00     0.031 C 
BRANCH  16  17
ATOM     17  C   UNL A   1      34.441  20.785  25.328  1.00  0.00     0.102 C 
BRANCH  17  18
ATOM     18  C   UNL A   1      33.848  19.540  24.721  1.00  0.00     0.220 C 
ATOM     19  O   UNL A   1      32.703  19.507  24.284  1.00  0.00    -0.275 OA
ATOM     20  N   UNL A   1      34.698  18.459  24.790  1.00  0.00    -0.353 N 
ATOM     21  H   UNL A   1      35.629  18.611  25.072  1.00  0.00     0.163 HD
BRANCH  20  22
ATOM     22  C   UNL A   1      34.293  17.134  24.469  1.00  0.00     0.082 C 
ATOM     23  C   UNL A   1      34.957  15.970  25.152  1.00  0.00     0.027 C 
ATOM     24  C   UNL A   1      33.532  16.311  25.473  1.00  0.00     0.027 C 
ENDBRANCH  20  22
ENDBRANCH  17  18
ENDBRANCH  16  17
ENDBRANCH  15  16
ENDBRANCH  12  15
ENDBRANCH   7  11
ENDBRANCH   3   6
ENDBRANCH   1   2
BRANCH   1  25
ATOM     25  C   UNL A   1      33.385  28.610  27.269  1.00  0.00     0.021 C 
BRANCH  25  26
ATOM     26  C   UNL A   1      33.306  30.046  26.747  1.00  0.00     0.002 C 
BRANCH  26  27
ATOM     27  C   UNL A   1      33.856  31.128  27.684  1.00  0.00     0.002 C 
BRANCH  27  28
ATOM     28  C   UNL A   1      33.603  32.573  27.254  1.00  0.00     0.021 C 
BRANCH  28  29
ATOM     29  C   UNL A   1      32.255  33.156  27.637  1.00  0.00     0.116 C 
BRANCH  29  30
ATOM     30  N   UNL A   1      32.316  34.580  27.903  1.00  0.00    -0.352 N 
ATOM     31  C   UNL A   1      33.148  35.273  28.748  1.00  0.00     0.251 C 
ATOM     32  H   UNL A   1      31.669  35.130  27.406  1.00  0.00     0.163 HD
ATOM     33  O   UNL A   1      32.941  36.464  28.973  1.00  0.00    -0.269 OA
BRANCH  31  34
ATOM     34  C   UNL A   1      34.278  34.587  29.413  1.00  0.00     0.039 A 
ATOM     35  C   UNL A   1      34.040  33.883  30.597  1.00  0.00     0.014 A 
ATOM     36  C   UNL A   1      35.571  34.642  28.884  1.00  0.00     0.014 A 
ATOM     37  C   UNL A   1      35.083  33.188  31.216  1.00  0.00     0.010 A 
ATOM     38  C   UNL A   1      36.587  33.875  29.450  1.00  0.00     0.010 A 
ATOM     39  C   UNL A   1      36.359  33.151  30.630  1.00  0.00    -0.014 A 
BRANCH  39  40
ATOM     40  C   UNL A   1      37.477  32.395  31.254  1.00  0.00     0.031 A 
ATOM     41  C   UNL A   1      37.971  32.784  32.623  1.00  0.00     0.074 A 
ATOM     42  C   UNL A   1      38.077  31.394  30.580  1.00  0.00     0.049 A 
ATOM     43  N   UNL A   1      38.990  32.318  33.301  1.00  0.00    -0.248 NA
ATOM     44  C   UNL A   1      37.238  33.859  33.311  1.00  0.00     0.031 C 
ATOM     45  C   UNL A   1      37.716  30.941  29.236  1.00  0.00     0.029 A 
ATOM     46  N   UNL A   1      39.129  30.582  30.930  1.00  0.00    -0.354 N 
ATOM     47  C   UNL A   1      39.019  33.044  34.486  1.00  0.00     0.074 A 
ATOM     48  C   UNL A   1      37.961  34.027  34.407  1.00  0.00     0.031 C 
ATOM     49  C   UNL A   1      38.516  29.920  28.885  1.00  0.00     0.029 A 
ATOM     50  C   UNL A   1      39.476  29.675  29.956  1.00  0.00     0.049 A 
ATOM     51  H   UNL A   1      39.591  30.644  31.797  1.00  0.00     0.167 HD
ATOM     52  C   UNL A   1      39.831  32.884  35.558  1.00  0.00     0.037 A 
ATOM     53  C   UNL A   1      40.467  28.763  29.928  1.00  0.00     0.037 A 
ATOM     54  C   UNL A   1      40.870  31.892  35.644  1.00  0.00     0.049 A 
ATOM     55  C   UNL A   1      41.384  28.640  31.119  1.00  0.00     0.074 A 
ATOM     56  C   UNL A   1      41.736  31.641  36.693  1.00  0.00     0.029 A 
ATOM     57  N   UNL A   1      41.179  30.984  34.643  1.00  0.00    -0.354 N 
ATOM     58  N   UNL A   1      41.369  29.302  32.250  1.00  0.00    -0.248 NA
ATOM     59  C   UNL A   1      42.453  27.636  31.029  1.00  0.00     0.031 C 
ATOM     60  C   UNL A   1      42.597  30.608  36.312  1.00  0.00     0.029 A 
ATOM     61  C   UNL A   1      42.229  30.178  35.047  1.00  0.00     0.049 A 
ATOM     62  H   UNL A   1      40.720  30.922  33.774  1.00  0.00     0.167 HD
ATOM     63  C   UNL A   1      42.393  28.763  33.020  1.00  0.00     0.074 A 
ATOM     64  C   UNL A   1      43.000  27.712  32.233  1.00  0.00     0.031 C 
ATOM     65  C   UNL A   1      42.797  29.109  34.267  1.00  0.00     0.037 A 
BRANCH  52  66
ATOM     66  C   UNL A   1      39.616  33.785  36.739  1.00  0.00     0.064 A 
ATOM     67  C   UNL A   1      38.809  33.392  37.819  1.00  0.00     0.173 A 
ATOM     68  C   UNL A   1      40.270  35.022  36.826  1.00  0.00     0.173 A 
ATOM     69  F   UNL A   1      38.151  32.223  37.780  1.00  0.00    -0.203 F 
ATOM     70  C   UNL A   1      38.654  34.211  38.933  1.00  0.00     0.198 A 
ATOM     71  C   UNL A   1      40.137  35.826  37.956  1.00  0.00     0.198 A 
ATOM     72  F   UNL A   1      41.057  35.444  35.824  1.00  0.00    -0.203 F 
ATOM     73  F   UNL A   1      37.848  33.832  39.934  1.00  0.00    -0.200 F 
ATOM     74  C   UNL A   1      39.326  35.422  39.005  1.00  0.00     0.200 A 
ATOM     75  F   UNL A   1      40.800  36.988  38.032  1.00  0.00    -0.200 F 
ATOM     76  F   UNL A   1      39.188  36.202  40.087  1.00  0.00    -0.200 F 
ENDBRANCH  52  66
BRANCH  53  77
ATOM     77  C   UNL A   1      40.656  27.883  28.741  1.00  0.00     0.064 A 
ATOM     78  C   UNL A   1      41.486  28.274  27.680  1.00  0.00     0.173 A 
ATOM     79  C   UNL A   1      39.964  26.670  28.613  1.00  0.00     0.173 A 
ATOM     80  F   UNL A   1      42.151  29.437  27.743  1.00  0.00    -0.203 F 
ATOM     81  C   UNL A   1      41.579  27.510  26.518  1.00  0.00     0.198 A 
ATOM     82  C   UNL A   1      40.088  25.888  27.465  1.00  0.00     0.198 A 
ATOM     83  F   UNL A   1      39.155  26.250  29.596  1.00  0.00    -0.203 F 
ATOM     84  F   UNL A   1      42.314  27.950  25.488  1.00  0.00    -0.200 F 
ATOM     85  C   UNL A   1      40.881  26.317  26.413  1.00  0.00     0.200 A 
ATOM     86  F   UNL A   1      39.418  24.730  27.371  1.00  0.00    -0.200 F 
ATOM     87  F   UNL A   1      40.958  25.590  25.290  1.00  0.00    -0.200 F 
ENDBRANCH  53  77
BRANCH  65  88
ATOM     88  C   UNL A   1      43.899  28.302  34.890  1.00  0.00     0.064 A 
ATOM     89  C   UNL A   1      43.641  27.128  35.613  1.00  0.00     0.173 A 
ATOM     90  C   UNL A   1      45.237  28.688  34.721  1.00  0.00     0.173 A 
ATOM     91  F   UNL A   1      42.379  26.722  35.815  1.00  0.00    -0.203 F 
ATOM     92  C   UNL A   1      44.682  26.385  36.165  1.00  0.00     0.198 A 
ATOM     93  C   UNL A   1      46.277  27.924  35.244  1.00  0.00     0.198 A 
ATOM     94  F   UNL A   1      45.540  29.799  34.030  1.00  0.00    -0.203 F 
ATOM     95  F   UNL A   1      44.409  25.295  36.895  1.00  0.00    -0.200 F 
ATOM     96  C   UNL A   1      45.997  26.779  35.973  1.00  0.00     0.200 A 
ATOM     97  F   UNL A   1      47.548  28.298  35.042  1.00  0.00    -0.200 F 
ATOM     98  F   UNL A   1      46.998  26.057  36.497  1.00  0.00    -0.200 F 
ENDBRANCH  65  88
ENDBRANCH  39  40
ENDBRANCH  31  34
ENDBRANCH  29  30
ENDBRANCH  28  29
ENDBRANCH  27  28
ENDBRANCH  26  27
ENDBRANCH  25  26
ENDBRANCH   1  25
TORSDOF 19
ENDMDL
MODEL 2
REMARK VINA RESULT:     -10.7      5.587     12.850
REMARK SMILES O=C(CCCNC(=O)N1CSC[C@@H]1C(=O)NCCCCCCNC(=O)c1ccc(-c2c3nc(c(-c4c(F)c(F)c(F)c(F)c4F)c4ccc([nH]4)c(-c4c(F)c(F)c(F)c(F)c4F)c4nc(c(-c5c(F)c(F)c(F)c(F)c5F)c5ccc2[nH]5)C=C4)C=C3)cc1)NC1CC1
REMARK SMILES IDX 17 1 16 2 14 3 15 4 13 6 9 7 10 8 11 9 12 10 7 11 6 12 8 14
REMARK SMILES IDX 5 15 4 16 3 17 2 18 1 19 89 20 90 22 91 23 92 24 18 25 19 26
REMARK SMILES IDX 20 27 21 28 22 29 23 30 24 31 25 33 26 34 27 35 88 36 28 37
REMARK SMILES IDX 87 38 29 39 30 40 31 41 81 42 32 43 86 44 80 45 82 46 33 47
REMARK SMILES IDX 85 48 79 49 78 50 34 52 66 53 46 54 65 55 47 56 50 57 64 58
REMARK SMILES IDX 83 59 48 60 49 61 63 63 84 64 51 65 35 66 36 67 44 68 37 69
REMARK SMILES IDX 38 70 42 71 45 72 39 73 40 74 43 75 41 76 67 77 68 78 76 79
REMARK SMILES IDX 69 80 70 81 74 82 77 83 71 84 72 85 75 86 73 87 52 88 53 89
REMARK SMILES IDX 61 90 54 91 55 92 59 93 62 94 56 95 57 96 60 97 58 98
REMARK H PARENT 16 5 6 13 89 21 23 32 82 51 50 62
REMARK Flexibility Score: inf
ROOT
ATOM      1  C   UNL A   1      49.298  26.922  30.149  1.00  0.00     0.116 C 
ENDROOT
BRANCH   1   2
ATOM      2  N   UNL A   1      49.480  25.636  29.523  1.00  0.00    -0.354 N 
ATOM      3  C   UNL A   1      49.484  25.328  28.190  1.00  0.00     0.243 C 
ATOM      4  O   UNL A   1      49.693  24.147  27.894  1.00  0.00    -0.273 OA
ATOM      5  H   UNL A   1      49.621  24.879  30.136  1.00  0.00     0.163 HD
BRANCH   3   6
ATOM      6  C   UNL A   1      48.983  26.319  27.114  1.00  0.00     0.187 C 
ATOM      7  N   UNL A   1      47.879  25.896  26.237  1.00  0.00    -0.303 N 
ATOM      8  C   UNL A   1      47.915  26.571  24.961  1.00  0.00     0.192 C 
ATOM      9  S   UNL A   1      49.649  26.689  24.515  1.00  0.00    -0.138 SA
ATOM     10  C   UNL A   1      50.205  26.660  26.243  1.00  0.00     0.106 C 
BRANCH   7  11
ATOM     11  C   UNL A   1      46.692  25.528  26.804  1.00  0.00     0.318 C 
ATOM     12  N   UNL A   1      46.037  24.441  26.317  1.00  0.00    -0.338 N 
ATOM     13  H   UNL A   1      45.088  24.380  26.574  1.00  0.00     0.165 HD
ATOM     14  O   UNL A   1      46.221  26.090  27.789  1.00  0.00    -0.249 OA
BRANCH  12  15
ATOM     15  C   UNL A   1      46.516  23.352  25.478  1.00  0.00     0.118 C 
BRANCH  15  16
ATOM     16  C   UNL A   1      45.625  22.110  25.545  1.00  0.00     0.031 C 
BRANCH  16  17
ATOM     17  C   UNL A   1      46.065  20.881  24.759  1.00  0.00     0.102 C 
BRANCH  17  18
ATOM     18  C   UNL A   1      45.052  19.773  24.894  1.00  0.00     0.220 C 
ATOM     19  O   UNL A   1      45.097  18.759  24.208  1.00  0.00    -0.275 OA
ATOM     20  N   UNL A   1      44.058  20.071  25.800  1.00  0.00    -0.353 N 
ATOM     21  H   UNL A   1      44.164  20.869  26.368  1.00  0.00     0.163 HD
BRANCH  20  22
ATOM     22  C   UNL A   1      42.888  19.278  25.952  1.00  0.00     0.082 C 
ATOM     23  C   UNL A   1      42.158  19.279  27.268  1.00  0.00     0.027 C 
ATOM     24  C   UNL A   1      41.539  19.934  26.068  1.00  0.00     0.027 C 
ENDBRANCH  20  22
ENDBRANCH  17  18
ENDBRANCH  16  17
ENDBRANCH  15  16
ENDBRANCH  12  15
ENDBRANCH   7  11
ENDBRANCH   3   6
ENDBRANCH   1   2
BRANCH   1  25
ATOM     25  C   UNL A   1      48.062  27.017  31.033  1.00  0.00     0.021 C 
BRANCH  25  26
ATOM     26  C   UNL A   1      47.160  25.781  31.026  1.00  0.00     0.002 C 
BRANCH  26  27
ATOM     27  C   UNL A   1      46.861  25.165  32.398  1.00  0.00     0.002 C 
BRANCH  27  28
ATOM     28  C   UNL A   1      48.079  24.856  33.268  1.00  0.00     0.021 C 
BRANCH  28  29
ATOM     29  C   UNL A   1      47.837  23.932  34.449  1.00  0.00     0.116 C 
BRANCH  29  30
ATOM     30  N   UNL A   1      48.121  24.566  35.722  1.00  0.00    -0.352 N 
ATOM     31  C   UNL A   1      47.571  25.696  36.274  1.00  0.00     0.251 C 
ATOM     32  H   UNL A   1      48.807  24.121  36.271  1.00  0.00     0.163 HD
ATOM     33  O   UNL A   1      48.059  26.182  37.293  1.00  0.00    -0.269 OA
BRANCH  31  34
ATOM     34  C   UNL A   1      46.408  26.351  35.634  1.00  0.00     0.039 A 
ATOM     35  C   UNL A   1      46.590  27.583  35.001  1.00  0.00     0.014 A 
ATOM     36  C   UNL A   1      45.140  25.764  35.663  1.00  0.00     0.014 A 
ATOM     37  C   UNL A   1      45.517  28.197  34.349  1.00  0.00     0.010 A 
ATOM     38  C   UNL A   1      44.095  26.330  34.937  1.00  0.00     0.010 A 
ATOM     39  C   UNL A   1      44.267  27.559  34.283  1.00  0.00    -0.014 A 
BRANCH  39  40
ATOM     40  C   UNL A   1      43.118  28.178  33.570  1.00  0.00     0.031 A 
ATOM     41  C   UNL A   1      42.885  27.869  32.114  1.00  0.00     0.074 A 
ATOM     42  C   UNL A   1      42.313  29.048  34.212  1.00  0.00     0.049 A 
ATOM     43  N   UNL A   1      42.003  28.374  31.289  1.00  0.00    -0.248 NA
ATOM     44  C   UNL A   1      43.782  26.878  31.495  1.00  0.00     0.031 C 
ATOM     45  C   UNL A   1      42.450  29.457  35.610  1.00  0.00     0.029 A 
ATOM     46  N   UNL A   1      41.223  29.757  33.766  1.00  0.00    -0.354 N 
ATOM     47  C   UNL A   1      42.242  27.768  30.062  1.00  0.00     0.074 A 
ATOM     48  C   UNL A   1      43.394  26.909  30.230  1.00  0.00     0.031 C 
ATOM     49  C   UNL A   1      41.470  30.325  35.914  1.00  0.00     0.029 A 
ATOM     50  C   UNL A   1      40.664  30.571  34.723  1.00  0.00     0.049 A 
ATOM     51  H   UNL A   1      40.876  29.688  32.847  1.00  0.00     0.167 HD
ATOM     52  C   UNL A   1      41.545  27.887  28.907  1.00  0.00     0.037 A 
ATOM     53  C   UNL A   1      39.629  31.429  34.639  1.00  0.00     0.037 A 
ATOM     54  C   UNL A   1      40.387  28.726  28.745  1.00  0.00     0.049 A 
ATOM     55  C   UNL A   1      38.900  31.575  33.327  1.00  0.00     0.074 A 
ATOM     56  C   UNL A   1      39.602  28.904  27.619  1.00  0.00     0.029 A 
ATOM     57  N   UNL A   1      39.844  29.523  29.742  1.00  0.00    -0.354 N 
ATOM     58  N   UNL A   1      39.109  30.960  32.189  1.00  0.00    -0.248 NA
ATOM     59  C   UNL A   1      37.786  32.532  33.292  1.00  0.00     0.031 C 
ATOM     60  C   UNL A   1      38.609  29.840  27.922  1.00  0.00     0.029 A 
ATOM     61  C   UNL A   1      38.740  30.201  29.253  1.00  0.00     0.049 A 
ATOM     62  H   UNL A   1      40.191  29.595  30.660  1.00  0.00     0.167 HD
ATOM     63  C   UNL A   1      38.128  31.420  31.320  1.00  0.00     0.074 A 
ATOM     64  C   UNL A   1      37.315  32.357  32.067  1.00  0.00     0.031 C 
ATOM     65  C   UNL A   1      37.918  31.100  30.020  1.00  0.00     0.037 A 
BRANCH  52  66
ATOM     66  C   UNL A   1      41.998  27.075  27.729  1.00  0.00     0.064 A 
ATOM     67  C   UNL A   1      42.981  27.552  26.848  1.00  0.00     0.173 A 
ATOM     68  C   UNL A   1      41.495  25.784  27.513  1.00  0.00     0.173 A 
ATOM     69  F   UNL A   1      43.486  28.786  27.004  1.00  0.00    -0.203 F 
ATOM     70  C   UNL A   1      43.432  26.774  25.786  1.00  0.00     0.198 A 
ATOM     71  C   UNL A   1      41.971  24.995  26.467  1.00  0.00     0.198 A 
ATOM     72  F   UNL A   1      40.557  25.277  28.327  1.00  0.00    -0.203 F 
ATOM     73  F   UNL A   1      44.343  27.266  24.936  1.00  0.00    -0.200 F 
ATOM     74  C   UNL A   1      42.934  25.493  25.603  1.00  0.00     0.200 A 
ATOM     75  F   UNL A   1      41.501  23.751  26.301  1.00  0.00    -0.200 F 
ATOM     76  F   UNL A   1      43.382  24.738  24.590  1.00  0.00    -0.200 F 
ENDBRANCH  52  66
BRANCH  53  77
ATOM     77  C   UNL A   1      39.203  32.223  35.826  1.00  0.00     0.064 A 
ATOM     78  C   UNL A   1      38.307  31.690  36.765  1.00  0.00     0.173 A 
ATOM     79  C   UNL A   1      39.628  33.547  36.011  1.00  0.00     0.173 A 
ATOM     80  F   UNL A   1      37.852  30.437  36.620  1.00  0.00    -0.203 F 
ATOM     81  C   UNL A   1      37.816  32.465  37.814  1.00  0.00     0.198 A 
ATOM     82  C   UNL A   1      39.165  34.308  37.083  1.00  0.00     0.198 A 
ATOM     83  F   UNL A   1      40.481  34.107  35.142  1.00  0.00    -0.203 F 
ATOM     84  F   UNL A   1      36.898  31.956  38.647  1.00  0.00    -0.200 F 
ATOM     85  C   UNL A   1      38.248  33.773  37.973  1.00  0.00     0.200 A 
ATOM     86  F   UNL A   1      39.591  35.570  37.238  1.00  0.00    -0.200 F 
ATOM     87  F   UNL A   1      37.764  34.523  38.972  1.00  0.00    -0.200 F 
ENDBRANCH  53  77
BRANCH  65  88
ATOM     88  C   UNL A   1      36.726  31.706  29.338  1.00  0.00     0.064 A 
ATOM     89  C   UNL A   1      35.599  30.944  28.998  1.00  0.00     0.173 A 
ATOM     90  C   UNL A   1      36.696  33.082  29.062  1.00  0.00     0.173 A 
ATOM     91  F   UNL A   1      35.582  29.623  29.228  1.00  0.00    -0.203 F 
ATOM     92  C   UNL A   1      34.496  31.533  28.383  1.00  0.00     0.198 A 
ATOM     93  C   UNL A   1      35.579  33.673  28.480  1.00  0.00     0.198 A 
ATOM     94  F   UNL A   1      37.745  33.858  29.376  1.00  0.00    -0.203 F 
ATOM     95  F   UNL A   1      33.452  30.776  28.020  1.00  0.00    -0.200 F 
ATOM     96  C   UNL A   1      34.484  32.897  28.133  1.00  0.00     0.200 A 
ATOM     97  F   UNL A   1      35.562  34.995  28.256  1.00  0.00    -0.200 F 
ATOM     98  F   UNL A   1      33.418  33.463  27.550  1.00  0.00    -0.200 F 
ENDBRANCH  65  88
ENDBRANCH  39  40
ENDBRANCH  31  34
ENDBRANCH  29  30
ENDBRANCH  28  29
ENDBRANCH  27  28
ENDBRANCH  26  27
ENDBRANCH  25  26
ENDBRANCH   1  25
TORSDOF 19
ENDMDL
MODEL 3
REMARK VINA RESULT:     -10.4      8.811     14.284
REMARK SMILES O=C(CCCNC(=O)N1CSC[C@@H]1C(=O)NCCCCCCNC(=O)c1ccc(-c2c3nc(c(-c4c(F)c(F)c(F)c(F)c4F)c4ccc([nH]4)c(-c4c(F)c(F)c(F)c(F)c4F)c4nc(c(-c5c(F)c(F)c(F)c(F)c5F)c5ccc2[nH]5)C=C4)C=C3)cc1)NC1CC1
REMARK SMILES IDX 17 1 16 2 14 3 15 4 13 6 9 7 10 8 11 9 12 10 7 11 6 12 8 14
REMARK SMILES IDX 5 15 4 16 3 17 2 18 1 19 89 20 90 22 91 23 92 24 18 25 19 26
REMARK SMILES IDX 20 27 21 28 22 29 23 30 24 31 25 33 26 34 27 35 88 36 28 37
REMARK SMILES IDX 87 38 29 39 30 40 31 41 81 42 32 43 86 44 80 45 82 46 33 47
REMARK SMILES IDX 85 48 79 49 78 50 34 52 66 53 46 54 65 55 47 56 50 57 64 58
REMARK SMILES IDX 83 59 48 60 49 61 63 63 84 64 51 65 35 66 36 67 44 68 37 69
REMARK SMILES IDX 38 70 42 71 45 72 39 73 40 74 43 75 41 76 67 77 68 78 76 79
REMARK SMILES IDX 69 80 70 81 74 82 77 83 71 84 72 85 75 86 73 87 52 88 53 89
REMARK SMILES IDX 61 90 54 91 55 92 59 93 62 94 56 95 57 96 60 97 58 98
REMARK H PARENT 16 5 6 13 89 21 23 32 82 51 50 62
REMARK Flexibility Score: inf
ROOT
ATOM      1  C   UNL A   1      43.615  41.376  25.691  1.00  0.00     0.116 C 
ENDROOT
BRANCH   1   2
ATOM      2  N   UNL A   1      44.097  42.430  26.549  1.00  0.00    -0.354 N 
ATOM      3  C   UNL A   1      44.941  43.461  26.243  1.00  0.00     0.243 C 
ATOM      4  O   UNL A   1      45.186  44.265  27.149  1.00  0.00    -0.273 OA
ATOM      5  H   UNL A   1      43.776  42.403  27.479  1.00  0.00     0.163 HD
BRANCH   3   6
ATOM      6  C   UNL A   1      45.771  43.488  24.939  1.00  0.00     0.187 C 
ATOM      7  N   UNL A   1      45.051  43.497  23.655  1.00  0.00    -0.303 N 
ATOM      8  C   UNL A   1      45.839  42.919  22.592  1.00  0.00     0.192 C 
ATOM      9  S   UNL A   1      46.706  41.528  23.321  1.00  0.00    -0.138 SA
ATOM     10  C   UNL A   1      46.686  42.252  24.985  1.00  0.00     0.106 C 
BRANCH   7  11
ATOM     11  C   UNL A   1      44.165  44.506  23.403  1.00  0.00     0.318 C 
ATOM     12  N   UNL A   1      42.909  44.193  22.987  1.00  0.00    -0.338 N 
ATOM     13  H   UNL A   1      42.412  44.937  22.576  1.00  0.00     0.165 HD
ATOM     14  O   UNL A   1      44.425  45.689  23.610  1.00  0.00    -0.249 OA
BRANCH  12  15
ATOM     15  C   UNL A   1      42.183  42.933  23.054  1.00  0.00     0.118 C 
BRANCH  15  16
ATOM     16  C   UNL A   1      41.624  42.493  21.700  1.00  0.00     0.031 C 
BRANCH  16  17
ATOM     17  C   UNL A   1      42.371  42.935  20.448  1.00  0.00     0.102 C 
BRANCH  17  18
ATOM     18  C   UNL A   1      41.477  43.758  19.558  1.00  0.00     0.220 C 
ATOM     19  O   UNL A   1      40.286  43.505  19.413  1.00  0.00    -0.275 OA
ATOM     20  N   UNL A   1      42.160  44.749  18.889  1.00  0.00    -0.353 N 
ATOM     21  H   UNL A   1      43.093  44.931  19.145  1.00  0.00     0.163 HD
BRANCH  20  22
ATOM     22  C   UNL A   1      41.578  45.521  17.846  1.00  0.00     0.082 C 
ATOM     23  C   UNL A   1      42.155  46.869  17.513  1.00  0.00     0.027 C 
ATOM     24  C   UNL A   1      42.319  45.728  16.553  1.00  0.00     0.027 C 
ENDBRANCH  20  22
ENDBRANCH  17  18
ENDBRANCH  16  17
ENDBRANCH  15  16
ENDBRANCH  12  15
ENDBRANCH   7  11
ENDBRANCH   3   6
ENDBRANCH   1   2
BRANCH   1  25
ATOM     25  C   UNL A   1      42.420  40.614  26.247  1.00  0.00     0.021 C 
BRANCH  25  26
ATOM     26  C   UNL A   1      42.741  39.637  27.379  1.00  0.00     0.002 C 
BRANCH  26  27
ATOM     27  C   UNL A   1      42.172  40.000  28.756  1.00  0.00     0.002 C 
BRANCH  27  28
ATOM     28  C   UNL A   1      43.179  40.035  29.905  1.00  0.00     0.021 C 
BRANCH  28  29
ATOM     29  C   UNL A   1      43.889  38.727  30.208  1.00  0.00     0.116 C 
BRANCH  29  30
ATOM     30  N   UNL A   1      45.287  38.747  29.824  1.00  0.00    -0.352 N 
ATOM     31  C   UNL A   1      46.112  37.702  29.488  1.00  0.00     0.251 C 
ATOM     32  H   UNL A   1      45.705  39.637  29.800  1.00  0.00     0.163 HD
ATOM     33  O   UNL A   1      47.320  37.893  29.355  1.00  0.00    -0.269 OA
BRANCH  31  34
ATOM     34  C   UNL A   1      45.560  36.340  29.311  1.00  0.00     0.039 A 
ATOM     35  C   UNL A   1      44.919  36.021  28.112  1.00  0.00     0.014 A 
ATOM     36  C   UNL A   1      45.662  35.381  30.323  1.00  0.00     0.014 A 
ATOM     37  C   UNL A   1      44.433  34.727  27.905  1.00  0.00     0.010 A 
ATOM     38  C   UNL A   1      45.260  34.070  30.080  1.00  0.00     0.010 A 
ATOM     39  C   UNL A   1      44.629  33.730  28.874  1.00  0.00    -0.014 A 
BRANCH  39  40
ATOM     40  C   UNL A   1      44.147  32.339  28.665  1.00  0.00     0.031 A 
ATOM     41  C   UNL A   1      42.820  31.913  29.237  1.00  0.00     0.074 A 
ATOM     42  C   UNL A   1      44.913  31.449  28.004  1.00  0.00     0.049 A 
ATOM     43  N   UNL A   1      42.264  30.728  29.250  1.00  0.00    -0.248 NA
ATOM     44  C   UNL A   1      42.023  32.953  29.910  1.00  0.00     0.031 C 
ATOM     45  C   UNL A   1      46.230  31.727  27.429  1.00  0.00     0.029 A 
ATOM     46  N   UNL A   1      44.699  30.124  27.713  1.00  0.00    -0.354 N 
ATOM     47  C   UNL A   1      41.062  30.881  29.931  1.00  0.00     0.074 A 
ATOM     48  C   UNL A   1      41.000  32.255  30.376  1.00  0.00     0.031 C 
ATOM     49  C   UNL A   1      46.696  30.614  26.837  1.00  0.00     0.029 A 
ATOM     50  C   UNL A   1      45.735  29.533  27.028  1.00  0.00     0.049 A 
ATOM     51  H   UNL A   1      43.880  29.641  27.971  1.00  0.00     0.167 HD
ATOM     52  C   UNL A   1      40.083  29.969  30.136  1.00  0.00     0.037 A 
ATOM     53  C   UNL A   1      45.894  28.260  26.618  1.00  0.00     0.037 A 
ATOM     54  C   UNL A   1      40.136  28.607  29.675  1.00  0.00     0.049 A 
ATOM     55  C   UNL A   1      44.806  27.256  26.902  1.00  0.00     0.074 A 
ATOM     56  C   UNL A   1      39.188  27.610  29.821  1.00  0.00     0.029 A 
ATOM     57  N   UNL A   1      41.195  28.052  28.973  1.00  0.00    -0.354 N 
ATOM     58  N   UNL A   1      43.655  27.427  27.506  1.00  0.00    -0.248 NA
ATOM     59  C   UNL A   1      45.038  25.880  26.441  1.00  0.00     0.031 C 
ATOM     60  C   UNL A   1      39.691  26.440  29.243  1.00  0.00     0.029 A 
ATOM     61  C   UNL A   1      40.927  26.725  28.687  1.00  0.00     0.049 A 
ATOM     62  H   UNL A   1      42.016  28.532  28.716  1.00  0.00     0.167 HD
ATOM     63  C   UNL A   1      43.011  26.197  27.455  1.00  0.00     0.074 A 
ATOM     64  C   UNL A   1      43.893  25.292  26.751  1.00  0.00     0.031 C 
ATOM     65  C   UNL A   1      41.799  25.847  27.950  1.00  0.00     0.037 A 
BRANCH  52  66
ATOM     66  C   UNL A   1      38.854  30.416  30.873  1.00  0.00     0.064 A 
ATOM     67  C   UNL A   1      38.799  30.404  32.276  1.00  0.00     0.173 A 
ATOM     68  C   UNL A   1      37.746  30.923  30.179  1.00  0.00     0.173 A 
ATOM     69  F   UNL A   1      39.828  29.917  32.987  1.00  0.00    -0.203 F 
ATOM     70  C   UNL A   1      37.675  30.865  32.954  1.00  0.00     0.198 A 
ATOM     71  C   UNL A   1      36.635  31.414  30.861  1.00  0.00     0.198 A 
ATOM     72  F   UNL A   1      37.748  30.962  28.838  1.00  0.00    -0.203 F 
ATOM     73  F   UNL A   1      37.631  30.807  34.292  1.00  0.00    -0.200 F 
ATOM     74  C   UNL A   1      36.599  31.379  32.247  1.00  0.00     0.200 A 
ATOM     75  F   UNL A   1      35.603  31.925  30.177  1.00  0.00    -0.200 F 
ATOM     76  F   UNL A   1      35.524  31.840  32.902  1.00  0.00    -0.200 F 
ENDBRANCH  52  66
BRANCH  53  77
ATOM     77  C   UNL A   1      47.126  27.845  25.889  1.00  0.00     0.064 A 
ATOM     78  C   UNL A   1      47.158  27.817  24.488  1.00  0.00     0.173 A 
ATOM     79  C   UNL A   1      48.268  27.407  26.575  1.00  0.00     0.173 A 
ATOM     80  F   UNL A   1      46.083  28.202  23.785  1.00  0.00    -0.203 F 
ATOM     81  C   UNL A   1      48.266  27.323  23.801  1.00  0.00     0.198 A 
ATOM     82  C   UNL A   1      49.390  26.949  25.886  1.00  0.00     0.198 A 
ATOM     83  F   UNL A   1      48.291  27.410  27.915  1.00  0.00    -0.203 F 
ATOM     84  F   UNL A   1      48.235  27.230  22.465  1.00  0.00    -0.200 F 
ATOM     85  C   UNL A   1      49.382  26.891  24.502  1.00  0.00     0.200 A 
ATOM     86  F   UNL A   1      50.471  26.541  26.567  1.00  0.00    -0.200 F 
ATOM     87  F   UNL A   1      50.440  26.401  23.842  1.00  0.00    -0.200 F 
ENDBRANCH  53  77
BRANCH  65  88
ATOM     88  C   UNL A   1      41.318  24.449  27.687  1.00  0.00     0.064 A 
ATOM     89  C   UNL A   1      40.267  24.181  26.798  1.00  0.00     0.173 A 
ATOM     90  C   UNL A   1      41.952  23.359  28.302  1.00  0.00     0.173 A 
ATOM     91  F   UNL A   1      39.619  25.188  26.194  1.00  0.00    -0.203 F 
ATOM     92  C   UNL A   1      39.851  22.874  26.555  1.00  0.00     0.198 A 
ATOM     93  C   UNL A   1      41.557  22.052  28.030  1.00  0.00     0.198 A 
ATOM     94  F   UNL A   1      42.969  23.559  29.155  1.00  0.00    -0.203 F 
ATOM     95  F   UNL A   1      38.812  22.644  25.741  1.00  0.00    -0.200 F 
ATOM     96  C   UNL A   1      40.502  21.811  27.164  1.00  0.00     0.200 A 
ATOM     97  F   UNL A   1      42.199  21.026  28.607  1.00  0.00    -0.200 F 
ATOM     98  F   UNL A   1      40.107  20.554  26.921  1.00  0.00    -0.200 F 
ENDBRANCH  65  88
ENDBRANCH  39  40
ENDBRANCH  31  34
ENDBRANCH  29  30
ENDBRANCH  28  29
ENDBRANCH  27  28
ENDBRANCH  26  27
ENDBRANCH  25  26
ENDBRANCH   1  25
TORSDOF 19
ENDMDL
