MODEL 1
REMARK VINA RESULT:     -12.5      0.000      0.000
REMARK SMILES Cc1cc2c(c(C)c1Br)C=C(C(=O)NCCCCCCNC(=O)c1ccc(-c3c4nc(c(-c5c(F)c(F)c(F)c(F)c5F)c5ccc([nH]5)c(-c5c(F)c(F)c(F)c(F)c5F)c5nc(c(-c6c(F)c(F)c(F)c(F)c6F)c6ccc3[nH]6)C=C5)C=C4)cc1)[C@@H](C(F)(F)F)O2
REMARK SMILES IDX 18 1 17 2 16 3 15 4 14 5 12 6 13 7 11 9 1 10 2 11 3 12 8 13
REMARK SMILES IDX 4 14 6 15 9 16 5 17 92 18 7 19 10 20 87 21 88 22 89 23 90 24
REMARK SMILES IDX 91 25 19 26 20 27 21 28 22 29 23 31 24 32 25 33 86 34 26 35
REMARK SMILES IDX 85 36 27 37 28 38 29 39 79 40 30 41 84 42 78 43 80 44 31 45
REMARK SMILES IDX 83 46 77 47 76 48 32 50 64 51 44 52 63 53 45 54 48 55 62 56
REMARK SMILES IDX 81 57 46 58 47 59 61 61 82 62 49 63 33 64 34 65 42 66 35 67
REMARK SMILES IDX 36 68 40 69 43 70 37 71 38 72 41 73 39 74 65 75 66 76 74 77
REMARK SMILES IDX 67 78 68 79 72 80 75 81 69 82 70 83 73 84 71 85 50 86 51 87
REMARK SMILES IDX 59 88 52 89 53 90 57 91 60 92 54 93 55 94 58 95 56 96
REMARK H PARENT 14 8 21 30 80 49 48 60
REMARK Flexibility Score: inf
ROOT
ATOM      1  C   UNL A   1      36.924  20.401  24.890  1.00  0.00     0.002 C 
ENDROOT
BRANCH   1   2
ATOM      2  C   UNL A   1      37.300  21.883  24.767  1.00  0.00     0.002 C 
BRANCH   2   3
ATOM      3  C   UNL A   1      36.843  22.559  23.471  1.00  0.00     0.021 C 
BRANCH   3   4
ATOM      4  C   UNL A   1      35.697  23.542  23.674  1.00  0.00     0.116 C 
BRANCH   4   5
ATOM      5  N   UNL A   1      35.136  23.444  25.008  1.00  0.00    -0.352 N 
ATOM      6  C   UNL A   1      34.130  24.020  25.706  1.00  0.00     0.251 C 
ATOM      7  O   UNL A   1      33.986  23.606  26.860  1.00  0.00    -0.270 OA
ATOM      8  H   UNL A   1      35.618  22.780  25.554  1.00  0.00     0.163 HD
BRANCH   6   9
ATOM      9  C   UNL A   1      33.218  25.081  25.180  1.00  0.00     0.067 C 
ATOM     10  C   UNL A   1      29.816  30.409  23.690  1.00  0.00     0.046 C 
ATOM     11  C   UNL A   1      30.767  29.427  24.320  1.00  0.00    -0.033 A 
ATOM     12  C   UNL A   1      30.862  28.185  23.685  1.00  0.00     0.051 A 
ATOM     13  C   UNL A   1      31.534  29.651  25.484  1.00  0.00     0.024 A 
ATOM     14  C   UNL A   1      31.685  27.187  24.188  1.00  0.00     0.128 A 
ATOM     15  C   UNL A   1      32.392  28.641  26.000  1.00  0.00    -0.026 A 
ATOM     16  Br  UNL A   1      31.405  31.348  26.359  1.00  0.00    -0.050 Br
ATOM     17  C   UNL A   1      32.460  27.393  25.330  1.00  0.00     0.021 A 
ATOM     18  O   UNL A   1      31.696  26.038  23.456  1.00  0.00    -0.475 OA
ATOM     19  C   UNL A   1      33.235  28.845  27.240  1.00  0.00     0.046 C 
ATOM     20  C   UNL A   1      33.334  26.292  25.755  1.00  0.00     0.026 C 
ATOM     21  C   UNL A   1      32.200  24.851  24.108  1.00  0.00     0.314 C 
BRANCH  21  22
ATOM     22  C   UNL A   1      31.014  23.991  24.576  1.00  0.00     0.429 C 
ATOM     23  F   UNL A   1      30.181  23.729  23.537  1.00  0.00    -0.167 F 
ATOM     24  F   UNL A   1      31.397  22.787  25.064  1.00  0.00    -0.167 F 
ATOM     25  F   UNL A   1      30.283  24.592  25.540  1.00  0.00    -0.167 F 
ENDBRANCH  21  22
ENDBRANCH   6   9
ENDBRANCH   4   5
ENDBRANCH   3   4
ENDBRANCH   2   3
ENDBRANCH   1   2
BRANCH   1  26
ATOM     26  C   UNL A   1      38.109  19.437  24.994  1.00  0.00     0.021 C 
BRANCH  26  27
ATOM     27  C   UNL A   1      39.306  20.000  25.750  1.00  0.00     0.116 C 
BRANCH  27  28
ATOM     28  N   UNL A   1      40.359  19.010  25.905  1.00  0.00    -0.352 N 
ATOM     29  C   UNL A   1      41.699  19.199  26.110  1.00  0.00     0.251 C 
ATOM     30  H   UNL A   1      40.067  18.072  25.856  1.00  0.00     0.163 HD
ATOM     31  O   UNL A   1      42.486  18.264  25.991  1.00  0.00    -0.269 OA
BRANCH  29  32
ATOM     32  C   UNL A   1      42.196  20.541  26.466  1.00  0.00     0.039 A 
ATOM     33  C   UNL A   1      42.622  21.397  25.449  1.00  0.00     0.014 A 
ATOM     34  C   UNL A   1      42.242  20.948  27.804  1.00  0.00     0.014 A 
ATOM     35  C   UNL A   1      43.054  22.683  25.773  1.00  0.00     0.010 A 
ATOM     36  C   UNL A   1      42.598  22.255  28.116  1.00  0.00     0.010 A 
ATOM     37  C   UNL A   1      43.020  23.130  27.104  1.00  0.00    -0.014 A 
BRANCH  37  38
ATOM     38  C   UNL A   1      43.455  24.502  27.459  1.00  0.00     0.031 A 
ATOM     39  C   UNL A   1      42.428  25.543  27.809  1.00  0.00     0.074 A 
ATOM     40  C   UNL A   1      44.764  24.813  27.440  1.00  0.00     0.049 A 
ATOM     41  N   UNL A   1      42.602  26.804  28.114  1.00  0.00    -0.248 NA
ATOM     42  C   UNL A   1      41.020  25.116  27.798  1.00  0.00     0.031 C 
ATOM     43  C   UNL A   1      45.846  23.891  27.092  1.00  0.00     0.029 A 
ATOM     44  N   UNL A   1      45.409  25.990  27.723  1.00  0.00    -0.354 N 
ATOM     45  C   UNL A   1      41.330  27.315  28.334  1.00  0.00     0.074 A 
ATOM     46  C   UNL A   1      40.389  26.251  28.061  1.00  0.00     0.031 C 
ATOM     47  C   UNL A   1      47.022  24.526  27.219  1.00  0.00     0.029 A 
ATOM     48  C   UNL A   1      46.777  25.909  27.618  1.00  0.00     0.049 A 
ATOM     49  H   UNL A   1      44.937  26.816  27.979  1.00  0.00     0.167 HD
ATOM     50  C   UNL A   1      40.982  28.549  28.762  1.00  0.00     0.037 A 
ATOM     51  C   UNL A   1      47.722  26.847  27.820  1.00  0.00     0.037 A 
ATOM     52  C   UNL A   1      41.923  29.598  29.049  1.00  0.00     0.049 A 
ATOM     53  C   UNL A   1      47.302  28.230  28.243  1.00  0.00     0.074 A 
ATOM     54  C   UNL A   1      41.673  30.878  29.511  1.00  0.00     0.029 A 
ATOM     55  N   UNL A   1      43.299  29.486  28.904  1.00  0.00    -0.354 N 
ATOM     56  N   UNL A   1      46.099  28.689  28.493  1.00  0.00    -0.248 NA
ATOM     57  C   UNL A   1      48.369  29.224  28.413  1.00  0.00     0.031 C 
ATOM     58  C   UNL A   1      42.891  31.556  29.600  1.00  0.00     0.029 A 
ATOM     59  C   UNL A   1      43.907  30.682  29.246  1.00  0.00     0.049 A 
ATOM     60  H   UNL A   1      43.772  28.677  28.603  1.00  0.00     0.167 HD
ATOM     61  C   UNL A   1      46.267  30.013  28.876  1.00  0.00     0.074 A 
ATOM     62  C   UNL A   1      47.690  30.279  28.842  1.00  0.00     0.031 C 
ATOM     63  C   UNL A   1      45.327  30.926  29.219  1.00  0.00     0.037 A 
BRANCH  50  64
ATOM     64  C   UNL A   1      39.523  28.833  28.972  1.00  0.00     0.064 A 
ATOM     65  C   UNL A   1      38.927  28.689  30.235  1.00  0.00     0.173 A 
ATOM     66  C   UNL A   1      38.730  29.323  27.924  1.00  0.00     0.173 A 
ATOM     67  F   UNL A   1      39.639  28.211  31.266  1.00  0.00    -0.203 F 
ATOM     68  C   UNL A   1      37.588  29.012  30.436  1.00  0.00     0.198 A 
ATOM     69  C   UNL A   1      37.399  29.674  28.137  1.00  0.00     0.198 A 
ATOM     70  F   UNL A   1      39.252  29.483  26.699  1.00  0.00    -0.203 F 
ATOM     71  F   UNL A   1      37.032  28.831  31.642  1.00  0.00    -0.200 F 
ATOM     72  C   UNL A   1      36.828  29.515  29.391  1.00  0.00     0.200 A 
ATOM     73  F   UNL A   1      36.671  30.175  27.130  1.00  0.00    -0.200 F 
ATOM     74  F   UNL A   1      35.546  29.845  29.592  1.00  0.00    -0.200 F 
ENDBRANCH  50  64
BRANCH  51  75
ATOM     75  C   UNL A   1      49.159  26.499  27.663  1.00  0.00     0.064 A 
ATOM     76  C   UNL A   1      49.965  26.261  28.785  1.00  0.00     0.173 A 
ATOM     77  C   UNL A   1      49.756  26.393  26.398  1.00  0.00     0.173 A 
ATOM     78  F   UNL A   1      49.446  26.370  30.017  1.00  0.00    -0.203 F 
ATOM     79  C   UNL A   1      51.315  25.945  28.649  1.00  0.00     0.198 A 
ATOM     80  C   UNL A   1      51.099  26.047  26.262  1.00  0.00     0.198 A 
ATOM     81  F   UNL A   1      49.029  26.608  25.291  1.00  0.00    -0.203 F 
ATOM     82  F   UNL A   1      52.071  25.764  29.740  1.00  0.00    -0.200 F 
ATOM     83  C   UNL A   1      51.880  25.831  27.387  1.00  0.00     0.200 A 
ATOM     84  F   UNL A   1      51.636  25.923  25.040  1.00  0.00    -0.200 F 
ATOM     85  F   UNL A   1      53.176  25.519  27.257  1.00  0.00    -0.200 F 
ENDBRANCH  51  75
BRANCH  63  86
ATOM     86  C   UNL A   1      45.797  32.297  29.610  1.00  0.00     0.064 A 
ATOM     87  C   UNL A   1      46.174  32.595  30.926  1.00  0.00     0.173 A 
ATOM     88  C   UNL A   1      45.948  33.299  28.638  1.00  0.00     0.173 A 
ATOM     89  F   UNL A   1      46.036  31.675  31.894  1.00  0.00    -0.203 F 
ATOM     90  C   UNL A   1      46.675  33.851  31.260  1.00  0.00     0.198 A 
ATOM     91  C   UNL A   1      46.480  34.542  28.969  1.00  0.00     0.198 A 
ATOM     92  F   UNL A   1      45.611  33.062  27.362  1.00  0.00    -0.203 F 
ATOM     93  F   UNL A   1      46.996  34.125  32.532  1.00  0.00    -0.200 F 
ATOM     94  C   UNL A   1      46.839  34.819  30.279  1.00  0.00     0.200 A 
ATOM     95  F   UNL A   1      46.657  35.469  28.017  1.00  0.00    -0.200 F 
ATOM     96  F   UNL A   1      47.342  36.019  30.599  1.00  0.00    -0.200 F 
ENDBRANCH  63  86
ENDBRANCH  37  38
ENDBRANCH  29  32
ENDBRANCH  27  28
ENDBRANCH  26  27
ENDBRANCH   1  26
TORSDOF 14
ENDMDL
MODEL 2
REMARK VINA RESULT:     -12.5      0.302      7.213
REMARK SMILES Cc1cc2c(c(C)c1Br)C=C(C(=O)NCCCCCCNC(=O)c1ccc(-c3c4nc(c(-c5c(F)c(F)c(F)c(F)c5F)c5ccc([nH]5)c(-c5c(F)c(F)c(F)c(F)c5F)c5nc(c(-c6c(F)c(F)c(F)c(F)c6F)c6ccc3[nH]6)C=C5)C=C4)cc1)[C@@H](C(F)(F)F)O2
REMARK SMILES IDX 18 1 17 2 16 3 15 4 14 5 12 6 13 7 11 9 1 10 2 11 3 12 8 13
REMARK SMILES IDX 4 14 6 15 9 16 5 17 92 18 7 19 10 20 87 21 88 22 89 23 90 24
REMARK SMILES IDX 91 25 19 26 20 27 21 28 22 29 23 31 24 32 25 33 86 34 26 35
REMARK SMILES IDX 85 36 27 37 28 38 29 39 79 40 30 41 84 42 78 43 80 44 31 45
REMARK SMILES IDX 83 46 77 47 76 48 32 50 64 51 44 52 63 53 45 54 48 55 62 56
REMARK SMILES IDX 81 57 46 58 47 59 61 61 82 62 49 63 33 64 34 65 42 66 35 67
REMARK SMILES IDX 36 68 40 69 43 70 37 71 38 72 41 73 39 74 65 75 66 76 74 77
REMARK SMILES IDX 67 78 68 79 72 80 75 81 69 82 70 83 73 84 71 85 50 86 51 87
REMARK SMILES IDX 59 88 52 89 53 90 57 91 60 92 54 93 55 94 58 95 56 96
REMARK H PARENT 14 8 21 30 80 49 48 60
REMARK Flexibility Score: inf
ROOT
ATOM      1  C   UNL A   1      36.957  20.244  24.795  1.00  0.00     0.002 C 
ENDROOT
BRANCH   1   2
ATOM      2  C   UNL A   1      37.346  21.727  24.803  1.00  0.00     0.002 C 
BRANCH   2   3
ATOM      3  C   UNL A   1      36.964  22.501  23.539  1.00  0.00     0.021 C 
BRANCH   3   4
ATOM      4  C   UNL A   1      35.622  23.215  23.648  1.00  0.00     0.116 C 
BRANCH   4   5
ATOM      5  N   UNL A   1      35.121  23.206  25.010  1.00  0.00    -0.352 N 
ATOM      6  C   UNL A   1      34.175  23.861  25.722  1.00  0.00     0.251 C 
ATOM      7  O   UNL A   1      34.066  23.510  26.901  1.00  0.00    -0.270 OA
ATOM      8  H   UNL A   1      35.597  22.547  25.566  1.00  0.00     0.163 HD
BRANCH   6   9
ATOM      9  C   UNL A   1      33.289  24.939  25.186  1.00  0.00     0.067 C 
ATOM     10  C   UNL A   1      29.970  30.317  23.686  1.00  0.00     0.046 C 
ATOM     11  C   UNL A   1      30.892  29.316  24.330  1.00  0.00    -0.033 A 
ATOM     12  C   UNL A   1      31.005  28.088  23.671  1.00  0.00     0.051 A 
ATOM     13  C   UNL A   1      31.616  29.511  25.526  1.00  0.00     0.024 A 
ATOM     14  C   UNL A   1      31.804  27.074  24.183  1.00  0.00     0.128 A 
ATOM     15  C   UNL A   1      32.449  28.484  26.052  1.00  0.00    -0.026 A 
ATOM     16  Br  UNL A   1      31.463  31.189  26.432  1.00  0.00    -0.050 Br
ATOM     17  C   UNL A   1      32.536  27.251  25.357  1.00  0.00     0.021 A 
ATOM     18  O   UNL A   1      31.837  25.941  23.427  1.00  0.00    -0.475 OA
ATOM     19  C   UNL A   1      33.246  28.657  27.326  1.00  0.00     0.046 C 
ATOM     20  C   UNL A   1      33.389  26.137  25.791  1.00  0.00     0.026 C 
ATOM     21  C   UNL A   1      32.310  24.738  24.071  1.00  0.00     0.314 C 
BRANCH  21  22
ATOM     22  C   UNL A   1      31.104  23.874  24.476  1.00  0.00     0.429 C 
ATOM     23  F   UNL A   1      31.492  22.591  24.688  1.00  0.00    -0.167 F 
ATOM     24  F   UNL A   1      30.523  24.287  25.626  1.00  0.00    -0.167 F 
ATOM     25  F   UNL A   1      30.138  23.854  23.531  1.00  0.00    -0.167 F 
ENDBRANCH  21  22
ENDBRANCH   6   9
ENDBRANCH   4   5
ENDBRANCH   3   4
ENDBRANCH   2   3
ENDBRANCH   1   2
BRANCH   1  26
ATOM     26  C   UNL A   1      38.106  19.269  25.069  1.00  0.00     0.021 C 
BRANCH  26  27
ATOM     27  C   UNL A   1      39.308  19.901  25.761  1.00  0.00     0.116 C 
BRANCH  27  28
ATOM     28  N   UNL A   1      40.416  18.968  25.873  1.00  0.00    -0.352 N 
ATOM     29  C   UNL A   1      41.746  19.225  26.069  1.00  0.00     0.251 C 
ATOM     30  H   UNL A   1      40.177  18.016  25.799  1.00  0.00     0.163 HD
ATOM     31  O   UNL A   1      42.583  18.340  25.912  1.00  0.00    -0.269 OA
BRANCH  29  32
ATOM     32  C   UNL A   1      42.172  20.582  26.460  1.00  0.00     0.039 A 
ATOM     33  C   UNL A   1      42.484  21.508  25.463  1.00  0.00     0.014 A 
ATOM     34  C   UNL A   1      42.264  20.934  27.811  1.00  0.00     0.014 A 
ATOM     35  C   UNL A   1      42.847  22.805  25.823  1.00  0.00     0.010 A 
ATOM     36  C   UNL A   1      42.550  22.247  28.164  1.00  0.00     0.010 A 
ATOM     37  C   UNL A   1      42.857  23.191  27.173  1.00  0.00    -0.014 A 
BRANCH  37  38
ATOM     38  C   UNL A   1      43.218  24.574  27.568  1.00  0.00     0.031 A 
ATOM     39  C   UNL A   1      44.664  24.979  27.630  1.00  0.00     0.074 A 
ATOM     40  C   UNL A   1      42.249  25.449  27.893  1.00  0.00     0.049 A 
ATOM     41  N   UNL A   1      45.186  26.126  27.985  1.00  0.00    -0.248 NA
ATOM     42  C   UNL A   1      45.657  23.955  27.265  1.00  0.00     0.031 C 
ATOM     43  C   UNL A   1      40.814  25.160  27.892  1.00  0.00     0.029 A 
ATOM     44  N   UNL A   1      42.323  26.763  28.284  1.00  0.00    -0.354 N 
ATOM     45  C   UNL A   1      46.560  25.961  27.879  1.00  0.00     0.074 A 
ATOM     46  C   UNL A   1      46.799  24.587  27.497  1.00  0.00     0.031 C 
ATOM     47  C   UNL A   1      40.141  26.273  28.227  1.00  0.00     0.029 A 
ATOM     48  C   UNL A   1      41.097  27.341  28.506  1.00  0.00     0.049 A 
ATOM     49  H   UNL A   1      43.174  27.245  28.395  1.00  0.00     0.167 HD
ATOM     50  C   UNL A   1      47.534  26.884  28.049  1.00  0.00     0.037 A 
ATOM     51  C   UNL A   1      40.783  28.593  28.891  1.00  0.00     0.037 A 
ATOM     52  C   UNL A   1      47.291  28.254  28.412  1.00  0.00     0.049 A 
ATOM     53  C   UNL A   1      41.890  29.586  29.126  1.00  0.00     0.074 A 
ATOM     54  C   UNL A   1      48.208  29.275  28.586  1.00  0.00     0.029 A 
ATOM     55  N   UNL A   1      46.037  28.797  28.654  1.00  0.00    -0.354 N 
ATOM     56  N   UNL A   1      43.184  29.432  28.978  1.00  0.00    -0.248 NA
ATOM     57  C   UNL A   1      41.495  30.925  29.581  1.00  0.00     0.031 C 
ATOM     58  C   UNL A   1      47.515  30.422  28.980  1.00  0.00     0.029 A 
ATOM     59  C   UNL A   1      46.159  30.132  28.998  1.00  0.00     0.049 A 
ATOM     60  H   UNL A   1      45.186  28.305  28.590  1.00  0.00     0.167 HD
ATOM     61  C   UNL A   1      43.753  30.658  29.293  1.00  0.00     0.074 A 
ATOM     62  C   UNL A   1      42.663  31.552  29.624  1.00  0.00     0.031 C 
ATOM     63  C   UNL A   1      45.061  31.011  29.312  1.00  0.00     0.037 A 
BRANCH  50  64
ATOM     64  C   UNL A   1      48.954  26.455  27.821  1.00  0.00     0.064 A 
ATOM     65  C   UNL A   1      49.490  26.367  26.527  1.00  0.00     0.173 A 
ATOM     66  C   UNL A   1      49.809  26.202  28.904  1.00  0.00     0.173 A 
ATOM     67  F   UNL A   1      48.710  26.585  25.457  1.00  0.00    -0.203 F 
ATOM     68  C   UNL A   1      50.825  26.027  26.325  1.00  0.00     0.198 A 
ATOM     69  C   UNL A   1      51.151  25.893  28.700  1.00  0.00     0.198 A 
ATOM     70  F   UNL A   1      49.349  26.278  30.161  1.00  0.00    -0.203 F 
ATOM     71  F   UNL A   1      51.304  25.913  25.079  1.00  0.00    -0.200 F 
ATOM     72  C   UNL A   1      51.658  25.802  27.411  1.00  0.00     0.200 A 
ATOM     73  F   UNL A   1      51.958  25.692  29.750  1.00  0.00    -0.200 F 
ATOM     74  F   UNL A   1      52.947  25.496  27.216  1.00  0.00    -0.200 F 
ENDBRANCH  50  64
BRANCH  51  75
ATOM     75  C   UNL A   1      39.357  28.989  29.039  1.00  0.00     0.064 A 
ATOM     76  C   UNL A   1      38.725  28.938  30.289  1.00  0.00     0.173 A 
ATOM     77  C   UNL A   1      38.599  29.429  27.943  1.00  0.00     0.173 A 
ATOM     78  F   UNL A   1      39.401  28.505  31.363  1.00  0.00    -0.203 F 
ATOM     79  C   UNL A   1      37.387  29.297  30.435  1.00  0.00     0.198 A 
ATOM     80  C   UNL A   1      37.269  29.817  28.096  1.00  0.00     0.198 A 
ATOM     81  F   UNL A   1      39.156  29.500  26.725  1.00  0.00    -0.203 F 
ATOM     82  F   UNL A   1      36.797  29.198  31.634  1.00  0.00    -0.200 F 
ATOM     83  C   UNL A   1      36.661  29.744  29.341  1.00  0.00     0.200 A 
ATOM     84  F   UNL A   1      36.578  30.262  27.038  1.00  0.00    -0.200 F 
ATOM     85  F   UNL A   1      35.377  30.097  29.484  1.00  0.00    -0.200 F 
ENDBRANCH  51  75
BRANCH  63  86
ATOM     86  C   UNL A   1      45.397  32.427  29.679  1.00  0.00     0.064 A 
ATOM     87  C   UNL A   1      45.724  32.785  30.994  1.00  0.00     0.173 A 
ATOM     88  C   UNL A   1      45.473  33.419  28.689  1.00  0.00     0.173 A 
ATOM     89  F   UNL A   1      45.656  31.875  31.979  1.00  0.00    -0.203 F 
ATOM     90  C   UNL A   1      46.104  34.087  31.308  1.00  0.00     0.198 A 
ATOM     91  C   UNL A   1      45.884  34.711  29.001  1.00  0.00     0.198 A 
ATOM     92  F   UNL A   1      45.179  33.126  27.413  1.00  0.00    -0.203 F 
ATOM     93  F   UNL A   1      46.378  34.415  32.578  1.00  0.00    -0.200 F 
ATOM     94  C   UNL A   1      46.195  35.046  30.310  1.00  0.00     0.200 A 
ATOM     95  F   UNL A   1      45.991  35.631  28.032  1.00  0.00    -0.200 F 
ATOM     96  F   UNL A   1      46.581  36.293  30.611  1.00  0.00    -0.200 F 
ENDBRANCH  63  86
ENDBRANCH  37  38
ENDBRANCH  29  32
ENDBRANCH  27  28
ENDBRANCH  26  27
ENDBRANCH   1  26
TORSDOF 14
ENDMDL
MODEL 3
REMARK VINA RESULT:     -12.4      5.432     10.641
REMARK SMILES Cc1cc2c(c(C)c1Br)C=C(C(=O)NCCCCCCNC(=O)c1ccc(-c3c4nc(c(-c5c(F)c(F)c(F)c(F)c5F)c5ccc([nH]5)c(-c5c(F)c(F)c(F)c(F)c5F)c5nc(c(-c6c(F)c(F)c(F)c(F)c6F)c6ccc3[nH]6)C=C5)C=C4)cc1)[C@@H](C(F)(F)F)O2
REMARK SMILES IDX 18 1 17 2 16 3 15 4 14 5 12 6 13 7 11 9 1 10 2 11 3 12 8 13
REMARK SMILES IDX 4 14 6 15 9 16 5 17 92 18 7 19 10 20 87 21 88 22 89 23 90 24
REMARK SMILES IDX 91 25 19 26 20 27 21 28 22 29 23 31 24 32 25 33 86 34 26 35
REMARK SMILES IDX 85 36 27 37 28 38 29 39 79 40 30 41 84 42 78 43 80 44 31 45
REMARK SMILES IDX 83 46 77 47 76 48 32 50 64 51 44 52 63 53 45 54 48 55 62 56
REMARK SMILES IDX 81 57 46 58 47 59 61 61 82 62 49 63 33 64 34 65 42 66 35 67
REMARK SMILES IDX 36 68 40 69 43 70 37 71 38 72 41 73 39 74 65 75 66 76 74 77
REMARK SMILES IDX 67 78 68 79 72 80 75 81 69 82 70 83 73 84 71 85 50 86 51 87
REMARK SMILES IDX 59 88 52 89 53 90 57 91 60 92 54 93 55 94 58 95 56 96
REMARK H PARENT 14 8 21 30 80 49 48 60
REMARK Flexibility Score: inf
ROOT
ATOM      1  C   UNL A   1      31.514  30.847  26.149  1.00  0.00     0.002 C 
ENDROOT
BRANCH   1   2
ATOM      2  C   UNL A   1      32.165  29.971  27.226  1.00  0.00     0.002 C 
BRANCH   2   3
ATOM      3  C   UNL A   1      33.590  29.511  26.909  1.00  0.00     0.021 C 
BRANCH   3   4
ATOM      4  C   UNL A   1      33.666  28.069  26.421  1.00  0.00     0.116 C 
BRANCH   4   5
ATOM      5  N   UNL A   1      33.746  27.997  24.975  1.00  0.00    -0.352 N 
ATOM      6  C   UNL A   1      33.610  27.047  24.020  1.00  0.00     0.251 C 
ATOM      7  O   UNL A   1      33.748  27.444  22.859  1.00  0.00    -0.270 OA
ATOM      8  H   UNL A   1      33.957  28.875  24.581  1.00  0.00     0.163 HD
BRANCH   6   9
ATOM      9  C   UNL A   1      33.310  25.606  24.279  1.00  0.00     0.067 C 
ATOM     10  C   UNL A   1      33.207  19.216  25.434  1.00  0.00     0.046 C 
ATOM     11  C   UNL A   1      33.640  20.630  25.153  1.00  0.00    -0.033 A 
ATOM     12  C   UNL A   1      32.623  21.590  25.186  1.00  0.00     0.051 A 
ATOM     13  C   UNL A   1      34.953  21.046  24.849  1.00  0.00     0.024 A 
ATOM     14  C   UNL A   1      32.893  22.925  24.916  1.00  0.00     0.128 A 
ATOM     15  C   UNL A   1      35.244  22.414  24.585  1.00  0.00    -0.026 A 
ATOM     16  Br  UNL A   1      36.347  19.736  24.800  1.00  0.00    -0.050 Br
ATOM     17  C   UNL A   1      34.187  23.358  24.624  1.00  0.00     0.021 A 
ATOM     18  O   UNL A   1      31.814  23.751  25.005  1.00  0.00    -0.475 OA
ATOM     19  C   UNL A   1      36.639  22.900  24.261  1.00  0.00     0.046 C 
ATOM     20  C   UNL A   1      34.378  24.797  24.400  1.00  0.00     0.026 C 
ATOM     21  C   UNL A   1      31.925  25.044  24.371  1.00  0.00     0.314 C 
BRANCH  21  22
ATOM     22  C   UNL A   1      31.198  25.006  23.016  1.00  0.00     0.429 C 
ATOM     23  F   UNL A   1      30.593  26.196  22.771  1.00  0.00    -0.167 F 
ATOM     24  F   UNL A   1      32.036  24.790  21.975  1.00  0.00    -0.167 F 
ATOM     25  F   UNL A   1      30.248  24.048  22.962  1.00  0.00    -0.167 F 
ENDBRANCH  21  22
ENDBRANCH   6   9
ENDBRANCH   4   5
ENDBRANCH   3   4
ENDBRANCH   2   3
ENDBRANCH   1   2
BRANCH   1  26
ATOM     26  C   UNL A   1      31.407  32.335  26.498  1.00  0.00     0.021 C 
BRANCH  26  27
ATOM     27  C   UNL A   1      32.648  32.907  27.171  1.00  0.00     0.116 C 
BRANCH  27  28
ATOM     28  N   UNL A   1      32.440  34.278  27.608  1.00  0.00    -0.352 N 
ATOM     29  C   UNL A   1      32.999  34.943  28.666  1.00  0.00     0.251 C 
ATOM     30  H   UNL A   1      31.807  34.802  27.067  1.00  0.00     0.163 HD
ATOM     31  O   UNL A   1      32.546  36.022  29.035  1.00  0.00    -0.269 OA
BRANCH  29  32
ATOM     32  C   UNL A   1      34.149  34.345  29.370  1.00  0.00     0.039 A 
ATOM     33  C   UNL A   1      33.920  33.584  30.517  1.00  0.00     0.014 A 
ATOM     34  C   UNL A   1      35.451  34.542  28.897  1.00  0.00     0.014 A 
ATOM     35  C   UNL A   1      34.997  32.980  31.166  1.00  0.00     0.010 A 
ATOM     36  C   UNL A   1      36.512  33.878  29.498  1.00  0.00     0.010 A 
ATOM     37  C   UNL A   1      36.296  33.101  30.647  1.00  0.00    -0.014 A 
BRANCH  37  38
ATOM     38  C   UNL A   1      37.448  32.446  31.313  1.00  0.00     0.031 A 
ATOM     39  C   UNL A   1      38.174  31.329  30.619  1.00  0.00     0.074 A 
ATOM     40  C   UNL A   1      37.817  32.840  32.546  1.00  0.00     0.049 A 
ATOM     41  N   UNL A   1      39.180  30.607  31.046  1.00  0.00    -0.248 NA
ATOM     42  C   UNL A   1      37.698  30.959  29.277  1.00  0.00     0.031 C 
ATOM     43  C   UNL A   1      37.169  33.897  33.324  1.00  0.00     0.029 A 
ATOM     44  N   UNL A   1      38.830  32.401  33.360  1.00  0.00    -0.354 N 
ATOM     45  C   UNL A   1      39.456  29.708  30.026  1.00  0.00     0.074 A 
ATOM     46  C   UNL A   1      38.472  29.923  28.988  1.00  0.00     0.031 C 
ATOM     47  C   UNL A   1      37.824  34.051  34.487  1.00  0.00     0.029 A 
ATOM     48  C   UNL A   1      38.910  33.077  34.554  1.00  0.00     0.049 A 
ATOM     49  H   UNL A   1      39.442  31.670  33.113  1.00  0.00     0.167 HD
ATOM     50  C   UNL A   1      40.464  28.809  29.946  1.00  0.00     0.037 A 
ATOM     51  C   UNL A   1      39.765  32.926  35.583  1.00  0.00     0.037 A 
ATOM     52  C   UNL A   1      41.450  28.611  30.974  1.00  0.00     0.049 A 
ATOM     53  C   UNL A   1      40.844  31.879  35.491  1.00  0.00     0.074 A 
ATOM     54  C   UNL A   1      42.526  27.742  30.979  1.00  0.00     0.029 A 
ATOM     55  N   UNL A   1      41.483  29.297  32.179  1.00  0.00    -0.354 N 
ATOM     56  N   UNL A   1      41.125  31.066  34.501  1.00  0.00    -0.248 NA
ATOM     57  C   UNL A   1      41.725  31.731  36.656  1.00  0.00     0.031 C 
ATOM     58  C   UNL A   1      43.181  27.866  32.206  1.00  0.00     0.029 A 
ATOM     59  C   UNL A   1      42.548  28.853  32.945  1.00  0.00     0.049 A 
ATOM     60  H   UNL A   1      40.844  29.996  32.451  1.00  0.00     0.167 HD
ATOM     61  C   UNL A   1      42.228  30.330  34.912  1.00  0.00     0.074 A 
ATOM     62  C   UNL A   1      42.578  30.806  36.234  1.00  0.00     0.031 C 
ATOM     63  C   UNL A   1      42.889  29.347  34.255  1.00  0.00     0.037 A 
BRANCH  50  64
ATOM     64  C   UNL A   1      40.570  27.985  28.697  1.00  0.00     0.064 A 
ATOM     65  C   UNL A   1      41.360  28.401  27.614  1.00  0.00     0.173 A 
ATOM     66  C   UNL A   1      39.939  26.735  28.607  1.00  0.00     0.173 A 
ATOM     67  F   UNL A   1      41.972  29.594  27.645  1.00  0.00    -0.203 F 
ATOM     68  C   UNL A   1      41.503  27.603  26.482  1.00  0.00     0.198 A 
ATOM     69  C   UNL A   1      40.109  25.926  27.486  1.00  0.00     0.198 A 
ATOM     70  F   UNL A   1      39.176  26.288  29.615  1.00  0.00    -0.203 F 
ATOM     71  F   UNL A   1      42.233  28.038  25.446  1.00  0.00    -0.200 F 
ATOM     72  C   UNL A   1      40.888  26.361  26.424  1.00  0.00     0.200 A 
ATOM     73  F   UNL A   1      39.527  24.720  27.438  1.00  0.00    -0.200 F 
ATOM     74  F   UNL A   1      41.044  25.585  25.343  1.00  0.00    -0.200 F 
ENDBRANCH  50  64
BRANCH  51  75
ATOM     75  C   UNL A   1      39.661  33.812  36.772  1.00  0.00     0.064 A 
ATOM     76  C   UNL A   1      40.330  35.044  36.810  1.00  0.00     0.173 A 
ATOM     77  C   UNL A   1      38.891  33.455  37.890  1.00  0.00     0.173 A 
ATOM     78  F   UNL A   1      41.094  35.421  35.775  1.00  0.00    -0.203 F 
ATOM     79  C   UNL A   1      40.247  35.876  37.923  1.00  0.00     0.198 A 
ATOM     80  C   UNL A   1      38.784  34.303  38.992  1.00  0.00     0.198 A 
ATOM     81  F   UNL A   1      38.228  32.290  37.905  1.00  0.00    -0.203 F 
ATOM     82  F   UNL A   1      40.931  37.028  37.949  1.00  0.00    -0.200 F 
ATOM     83  C   UNL A   1      39.468  35.509  39.011  1.00  0.00     0.200 A 
ATOM     84  F   UNL A   1      38.018  33.950  40.033  1.00  0.00    -0.200 F 
ATOM     85  F   UNL A   1      39.382  36.314  40.079  1.00  0.00    -0.200 F 
ENDBRANCH  51  75
BRANCH  63  86
ATOM     86  C   UNL A   1      44.073  28.726  34.937  1.00  0.00     0.064 A 
ATOM     87  C   UNL A   1      43.944  27.575  35.726  1.00  0.00     0.173 A 
ATOM     88  C   UNL A   1      45.363  29.241  34.730  1.00  0.00     0.173 A 
ATOM     89  F   UNL A   1      42.731  27.051  35.964  1.00  0.00    -0.203 F 
ATOM     90  C   UNL A   1      45.061  26.968  36.294  1.00  0.00     0.198 A 
ATOM     91  C   UNL A   1      46.480  28.613  35.272  1.00  0.00     0.198 A 
ATOM     92  F   UNL A   1      45.542  30.335  33.974  1.00  0.00    -0.203 F 
ATOM     93  F   UNL A   1      44.910  25.889  37.075  1.00  0.00    -0.200 F 
ATOM     94  C   UNL A   1      46.328  27.480  36.057  1.00  0.00     0.200 A 
ATOM     95  F   UNL A   1      47.705  29.097  35.025  1.00  0.00    -0.200 F 
ATOM     96  F   UNL A   1      47.404  26.881  36.587  1.00  0.00    -0.200 F 
ENDBRANCH  63  86
ENDBRANCH  37  38
ENDBRANCH  29  32
ENDBRANCH  27  28
ENDBRANCH  26  27
ENDBRANCH   1  26
TORSDOF 14
ENDMDL
