MODEL 1
REMARK VINA RESULT:     -11.6      0.000      0.000
REMARK SMILES O=C(NCCCCCCNC(=O)c1ccc(-c2c3nc(c(-c4c(F)c(F)c(F)c(F)c4F)c4ccc([nH]4)c(-c4c(F)c(F)c(F)c(F)c4F)c4nc(c(-c5c(F)c(F)c(F)c(F)c5F)c5ccc2[nH]5)C=C4)C=C3)cc1)c1ccc(-c2ccsc2)cc1
REMARK SMILES IDX 7 1 6 2 5 3 4 4 3 5 1 6 2 7 76 9 77 10 86 11 78 12 85 13
REMARK SMILES IDX 79 14 80 15 81 16 84 17 82 18 83 19 8 20 9 21 10 22 11 23
REMARK SMILES IDX 12 25 13 26 14 27 75 28 15 29 74 30 16 31 17 32 18 33 68 34
REMARK SMILES IDX 19 35 73 36 67 37 69 38 20 39 72 40 66 41 65 42 21 44 53 45
REMARK SMILES IDX 33 46 52 47 34 48 37 49 51 50 70 51 35 52 36 53 50 55 71 56
REMARK SMILES IDX 38 57 22 58 23 59 31 60 24 61 25 62 29 63 32 64 26 65 27 66
REMARK SMILES IDX 30 67 28 68 54 69 55 70 63 71 56 72 57 73 61 74 64 75 58 76
REMARK SMILES IDX 59 77 62 78 60 79 39 80 40 81 48 82 41 83 42 84 46 85 49 86
REMARK SMILES IDX 43 87 44 88 47 89 45 90
REMARK H PARENT 3 8 10 24 69 43 37 54
REMARK Flexibility Score: inf
ROOT
ATOM      1  C   UNL A   1      32.277  27.171  26.311  1.00  0.00     0.002 C 
ENDROOT
BRANCH   1   2
ATOM      2  C   UNL A   1      33.656  26.890  25.707  1.00  0.00     0.002 C 
BRANCH   2   3
ATOM      3  C   UNL A   1      34.083  25.420  25.685  1.00  0.00     0.021 C 
BRANCH   3   4
ATOM      4  C   UNL A   1      32.948  24.411  25.842  1.00  0.00     0.116 C 
BRANCH   4   5
ATOM      5  N   UNL A   1      32.825  23.532  24.692  1.00  0.00    -0.352 N 
ATOM      6  O   UNL A   1      31.920  22.755  22.771  1.00  0.00    -0.269 OA
ATOM      7  C   UNL A   1      32.026  23.668  23.583  1.00  0.00     0.251 C 
ATOM      8  H   UNL A   1      33.391  22.727  24.711  1.00  0.00     0.163 HD
BRANCH   7   9
ATOM      9  C   UNL A   1      31.266  24.919  23.388  1.00  0.00     0.039 A 
ATOM     10  C   UNL A   1      31.759  25.930  22.559  1.00  0.00     0.014 A 
ATOM     11  C   UNL A   1      30.056  25.085  24.064  1.00  0.00     0.014 A 
ATOM     12  C   UNL A   1      31.086  27.149  22.479  1.00  0.00     0.009 A 
ATOM     13  C   UNL A   1      29.378  26.304  23.974  1.00  0.00     0.009 A 
ATOM     14  C   UNL A   1      29.899  27.351  23.200  1.00  0.00    -0.018 A 
BRANCH  14  15
ATOM     15  C   UNL A   1      29.238  28.651  23.187  1.00  0.00    -0.008 A 
ATOM     16  C   UNL A   1      27.869  28.915  22.855  1.00  0.00     0.020 A 
ATOM     17  C   UNL A   1      29.900  29.815  23.526  1.00  0.00     0.073 A 
ATOM     18  C   UNL A   1      27.547  30.250  22.971  1.00  0.00     0.065 A 
ATOM     19  S   UNL A   1      28.885  31.192  23.462  1.00  0.00    -0.152 S 
ENDBRANCH  14  15
ENDBRANCH   7   9
ENDBRANCH   4   5
ENDBRANCH   3   4
ENDBRANCH   2   3
ENDBRANCH   1   2
BRANCH   1  20
ATOM     20  C   UNL A   1      31.803  28.623  26.227  1.00  0.00     0.021 C 
BRANCH  20  21
ATOM     21  C   UNL A   1      32.860  29.629  25.784  1.00  0.00     0.116 C 
BRANCH  21  22
ATOM     22  N   UNL A   1      32.528  30.993  26.162  1.00  0.00    -0.352 N 
ATOM     23  C   UNL A   1      33.123  31.813  27.087  1.00  0.00     0.251 C 
ATOM     24  H   UNL A   1      31.763  31.387  25.683  1.00  0.00     0.163 HD
ATOM     25  O   UNL A   1      32.604  32.887  27.383  1.00  0.00    -0.269 OA
BRANCH  23  26
ATOM     26  C   UNL A   1      34.377  31.397  27.753  1.00  0.00     0.039 A 
ATOM     27  C   UNL A   1      35.385  32.348  27.942  1.00  0.00     0.014 A 
ATOM     28  C   UNL A   1      34.568  30.079  28.176  1.00  0.00     0.014 A 
ATOM     29  C   UNL A   1      36.557  31.992  28.613  1.00  0.00     0.010 A 
ATOM     30  C   UNL A   1      35.706  29.745  28.908  1.00  0.00     0.010 A 
ATOM     31  C   UNL A   1      36.713  30.696  29.131  1.00  0.00    -0.014 A 
BRANCH  31  32
ATOM     32  C   UNL A   1      37.919  30.321  29.913  1.00  0.00     0.031 A 
ATOM     33  C   UNL A   1      38.934  29.376  29.333  1.00  0.00     0.074 A 
ATOM     34  C   UNL A   1      38.068  30.780  31.170  1.00  0.00     0.049 A 
ATOM     35  N   UNL A   1      40.016  28.881  29.881  1.00  0.00    -0.248 NA
ATOM     36  C   UNL A   1      38.688  28.902  27.962  1.00  0.00     0.031 C 
ATOM     37  C   UNL A   1      37.134  31.670  31.861  1.00  0.00     0.029 A 
ATOM     38  N   UNL A   1      39.059  30.557  32.094  1.00  0.00    -0.354 N 
ATOM     39  C   UNL A   1      40.565  28.026  28.934  1.00  0.00     0.074 A 
ATOM     40  C   UNL A   1      39.673  28.032  27.794  1.00  0.00     0.031 C 
ATOM     41  C   UNL A   1      37.607  31.937  33.088  1.00  0.00     0.029 A 
ATOM     42  C   UNL A   1      38.856  31.208  33.287  1.00  0.00     0.049 A 
ATOM     43  H   UNL A   1      39.839  29.984  31.920  1.00  0.00     0.167 HD
ATOM     44  C   UNL A   1      41.718  27.319  29.001  1.00  0.00     0.037 A 
ATOM     45  C   UNL A   1      39.592  31.212  34.414  1.00  0.00     0.037 A 
ATOM     46  C   UNL A   1      42.618  27.341  30.125  1.00  0.00     0.049 A 
ATOM     47  C   UNL A   1      40.863  30.407  34.465  1.00  0.00     0.074 A 
ATOM     48  C   UNL A   1      43.847  26.719  30.258  1.00  0.00     0.029 A 
ATOM     49  N   UNL A   1      42.382  28.017  31.313  1.00  0.00    -0.354 N 
ATOM     50  N   UNL A   1      41.411  29.664  33.535  1.00  0.00    -0.248 NA
ATOM     51  C   UNL A   1      41.619  30.446  35.726  1.00  0.00     0.031 C 
ATOM     52  C   UNL A   1      44.330  26.975  31.546  1.00  0.00     0.029 A 
ATOM     53  C   UNL A   1      43.428  27.802  32.196  1.00  0.00     0.049 A 
ATOM     54  H   UNL A   1      41.587  28.568  31.501  1.00  0.00     0.167 HD
ATOM     55  C   UNL A   1      42.590  29.176  34.083  1.00  0.00     0.074 A 
ATOM     56  C   UNL A   1      42.683  29.715  35.423  1.00  0.00     0.031 C 
ATOM     57  C   UNL A   1      43.512  28.354  33.524  1.00  0.00     0.037 A 
BRANCH  44  58
ATOM     58  C   UNL A   1      42.072  26.454  27.826  1.00  0.00     0.064 A 
ATOM     59  C   UNL A   1      42.976  26.879  26.841  1.00  0.00     0.173 A 
ATOM     60  C   UNL A   1      41.527  25.166  27.702  1.00  0.00     0.173 A 
ATOM     61  F   UNL A   1      43.518  28.104  26.905  1.00  0.00    -0.203 F 
ATOM     62  C   UNL A   1      43.296  26.061  25.759  1.00  0.00     0.198 A 
ATOM     63  C   UNL A   1      41.874  24.338  26.637  1.00  0.00     0.198 A 
ATOM     64  F   UNL A   1      40.663  24.706  28.620  1.00  0.00    -0.203 F 
ATOM     65  F   UNL A   1      44.121  26.510  24.802  1.00  0.00    -0.200 F 
ATOM     66  C   UNL A   1      42.751  24.790  25.662  1.00  0.00     0.200 A 
ATOM     67  F   UNL A   1      41.357  23.105  26.553  1.00  0.00    -0.200 F 
ATOM     68  F   UNL A   1      43.064  24.001  24.625  1.00  0.00    -0.200 F 
ENDBRANCH  44  58
BRANCH  45  69
ATOM     69  C   UNL A   1      39.163  32.028  35.581  1.00  0.00     0.064 A 
ATOM     70  C   UNL A   1      39.569  33.364  35.706  1.00  0.00     0.173 A 
ATOM     71  C   UNL A   1      38.350  31.495  36.591  1.00  0.00     0.173 A 
ATOM     72  F   UNL A   1      40.364  33.913  34.776  1.00  0.00    -0.203 F 
ATOM     73  C   UNL A   1      39.197  34.129  36.810  1.00  0.00     0.198 A 
ATOM     74  C   UNL A   1      37.955  32.270  37.679  1.00  0.00     0.198 A 
ATOM     75  F   UNL A   1      37.931  30.224  36.516  1.00  0.00    -0.203 F 
ATOM     76  F   UNL A   1      39.638  35.389  36.928  1.00  0.00    -0.200 F 
ATOM     77  C   UNL A   1      38.385  33.583  37.792  1.00  0.00     0.200 A 
ATOM     78  F   UNL A   1      37.158  31.743  38.620  1.00  0.00    -0.200 F 
ATOM     79  F   UNL A   1      38.024  34.320  38.852  1.00  0.00    -0.200 F 
ENDBRANCH  45  69
BRANCH  57  80
ATOM     80  C   UNL A   1      44.725  28.020  34.345  1.00  0.00     0.064 A 
ATOM     81  C   UNL A   1      44.773  26.882  35.163  1.00  0.00     0.173 A 
ATOM     82  C   UNL A   1      45.869  28.832  34.281  1.00  0.00     0.173 A 
ATOM     83  F   UNL A   1      43.700  26.083  35.270  1.00  0.00    -0.203 F 
ATOM     84  C   UNL A   1      45.911  26.583  35.907  1.00  0.00     0.198 A 
ATOM     85  C   UNL A   1      47.016  28.512  35.003  1.00  0.00     0.198 A 
ATOM     86  F   UNL A   1      45.878  29.929  33.510  1.00  0.00    -0.203 F 
ATOM     87  F   UNL A   1      45.915  25.517  36.720  1.00  0.00    -0.200 F 
ATOM     88  C   UNL A   1      47.032  27.393  35.820  1.00  0.00     0.200 A 
ATOM     89  F   UNL A   1      48.104  29.287  34.905  1.00  0.00    -0.200 F 
ATOM     90  F   UNL A   1      48.131  27.097  36.531  1.00  0.00    -0.200 F 
ENDBRANCH  57  80
ENDBRANCH  31  32
ENDBRANCH  23  26
ENDBRANCH  21  22
ENDBRANCH  20  21
ENDBRANCH   1  20
TORSDOF 14
ENDMDL
MODEL 2
REMARK VINA RESULT:     -11.5      0.470      7.362
REMARK SMILES O=C(NCCCCCCNC(=O)c1ccc(-c2c3nc(c(-c4c(F)c(F)c(F)c(F)c4F)c4ccc([nH]4)c(-c4c(F)c(F)c(F)c(F)c4F)c4nc(c(-c5c(F)c(F)c(F)c(F)c5F)c5ccc2[nH]5)C=C4)C=C3)cc1)c1ccc(-c2ccsc2)cc1
REMARK SMILES IDX 7 1 6 2 5 3 4 4 3 5 1 6 2 7 76 9 77 10 86 11 78 12 85 13
REMARK SMILES IDX 79 14 80 15 81 16 84 17 82 18 83 19 8 20 9 21 10 22 11 23
REMARK SMILES IDX 12 25 13 26 14 27 75 28 15 29 74 30 16 31 17 32 18 33 68 34
REMARK SMILES IDX 19 35 73 36 67 37 69 38 20 39 72 40 66 41 65 42 21 44 53 45
REMARK SMILES IDX 33 46 52 47 34 48 37 49 51 50 70 51 35 52 36 53 50 55 71 56
REMARK SMILES IDX 38 57 22 58 23 59 31 60 24 61 25 62 29 63 32 64 26 65 27 66
REMARK SMILES IDX 30 67 28 68 54 69 55 70 63 71 56 72 57 73 61 74 64 75 58 76
REMARK SMILES IDX 59 77 62 78 60 79 39 80 40 81 48 82 41 83 42 84 46 85 49 86
REMARK SMILES IDX 43 87 44 88 47 89 45 90
REMARK H PARENT 3 8 10 24 69 43 37 54
REMARK Flexibility Score: inf
ROOT
ATOM      1  C   UNL A   1      32.194  27.279  26.456  1.00  0.00     0.002 C 
ENDROOT
BRANCH   1   2
ATOM      2  C   UNL A   1      33.642  26.940  26.092  1.00  0.00     0.002 C 
BRANCH   2   3
ATOM      3  C   UNL A   1      33.915  25.473  25.750  1.00  0.00     0.021 C 
BRANCH   3   4
ATOM      4  C   UNL A   1      34.235  25.198  24.283  1.00  0.00     0.116 C 
BRANCH   4   5
ATOM      5  N   UNL A   1      33.545  24.022  23.777  1.00  0.00    -0.352 N 
ATOM      6  O   UNL A   1      31.768  22.801  23.096  1.00  0.00    -0.269 OA
ATOM      7  C   UNL A   1      32.247  23.903  23.346  1.00  0.00     0.251 C 
ATOM      8  H   UNL A   1      34.083  23.198  23.739  1.00  0.00     0.163 HD
BRANCH   7   9
ATOM      9  C   UNL A   1      31.415  25.115  23.212  1.00  0.00     0.039 A 
ATOM     10  C   UNL A   1      31.763  26.123  22.308  1.00  0.00     0.014 A 
ATOM     11  C   UNL A   1      30.284  25.249  24.020  1.00  0.00     0.014 A 
ATOM     12  C   UNL A   1      31.031  27.310  22.279  1.00  0.00     0.009 A 
ATOM     13  C   UNL A   1      29.546  26.435  23.981  1.00  0.00     0.009 A 
ATOM     14  C   UNL A   1      29.927  27.481  23.128  1.00  0.00    -0.018 A 
BRANCH  14  15
ATOM     15  C   UNL A   1      29.212  28.752  23.162  1.00  0.00    -0.008 A 
ATOM     16  C   UNL A   1      27.810  28.954  22.942  1.00  0.00     0.020 A 
ATOM     17  C   UNL A   1      29.847  29.947  23.439  1.00  0.00     0.073 A 
ATOM     18  C   UNL A   1      27.440  30.274  23.077  1.00  0.00     0.065 A 
ATOM     19  S   UNL A   1      28.772  31.278  23.450  1.00  0.00    -0.152 S 
ENDBRANCH  14  15
ENDBRANCH   7   9
ENDBRANCH   4   5
ENDBRANCH   3   4
ENDBRANCH   2   3
ENDBRANCH   1   2
BRANCH   1  20
ATOM     20  C   UNL A   1      31.774  28.731  26.216  1.00  0.00     0.021 C 
BRANCH  20  21
ATOM     21  C   UNL A   1      32.907  29.684  25.850  1.00  0.00     0.116 C 
BRANCH  21  22
ATOM     22  N   UNL A   1      32.654  31.047  26.285  1.00  0.00    -0.352 N 
ATOM     23  C   UNL A   1      33.298  31.795  27.239  1.00  0.00     0.251 C 
ATOM     24  H   UNL A   1      31.910  31.503  25.827  1.00  0.00     0.163 HD
ATOM     25  O   UNL A   1      32.842  32.883  27.581  1.00  0.00    -0.269 OA
BRANCH  23  26
ATOM     26  C   UNL A   1      34.529  31.283  27.880  1.00  0.00     0.039 A 
ATOM     27  C   UNL A   1      35.610  32.153  28.049  1.00  0.00     0.014 A 
ATOM     28  C   UNL A   1      34.627  29.953  28.299  1.00  0.00     0.014 A 
ATOM     29  C   UNL A   1      36.765  31.707  28.696  1.00  0.00     0.010 A 
ATOM     30  C   UNL A   1      35.750  29.531  29.007  1.00  0.00     0.010 A 
ATOM     31  C   UNL A   1      36.831  30.402  29.211  1.00  0.00    -0.014 A 
BRANCH  31  32
ATOM     32  C   UNL A   1      38.020  29.934  29.968  1.00  0.00     0.031 A 
ATOM     33  C   UNL A   1      38.267  30.421  31.368  1.00  0.00     0.074 A 
ATOM     34  C   UNL A   1      38.912  29.120  29.371  1.00  0.00     0.049 A 
ATOM     35  N   UNL A   1      39.278  30.177  32.166  1.00  0.00    -0.248 NA
ATOM     36  C   UNL A   1      37.258  31.324  31.941  1.00  0.00     0.031 C 
ATOM     37  C   UNL A   1      38.808  28.610  28.003  1.00  0.00     0.029 A 
ATOM     38  N   UNL A   1      40.088  28.583  29.836  1.00  0.00    -0.354 N 
ATOM     39  C   UNL A   1      39.035  30.910  33.320  1.00  0.00     0.074 A 
ATOM     40  C   UNL A   1      37.807  31.645  33.103  1.00  0.00     0.031 C 
ATOM     41  C   UNL A   1      39.859  27.816  27.748  1.00  0.00     0.029 A 
ATOM     42  C   UNL A   1      40.733  27.791  28.918  1.00  0.00     0.049 A 
ATOM     43  H   UNL A   1      40.436  28.751  30.741  1.00  0.00     0.167 HD
ATOM     44  C   UNL A   1      39.759  30.948  34.464  1.00  0.00     0.037 A 
ATOM     45  C   UNL A   1      41.899  27.124  29.008  1.00  0.00     0.037 A 
ATOM     46  C   UNL A   1      40.964  30.192  34.687  1.00  0.00     0.049 A 
ATOM     47  C   UNL A   1      42.689  27.194  30.287  1.00  0.00     0.074 A 
ATOM     48  C   UNL A   1      41.727  30.104  35.838  1.00  0.00     0.029 A 
ATOM     49  N   UNL A   1      41.583  29.395  33.736  1.00  0.00    -0.354 N 
ATOM     50  N   UNL A   1      42.410  27.829  31.399  1.00  0.00    -0.248 NA
ATOM     51  C   UNL A   1      43.957  26.451  30.322  1.00  0.00     0.031 C 
ATOM     52  C   UNL A   1      42.838  29.298  35.567  1.00  0.00     0.029 A 
ATOM     53  C   UNL A   1      42.737  28.837  34.264  1.00  0.00     0.049 A 
ATOM     54  H   UNL A   1      41.252  29.247  32.820  1.00  0.00     0.167 HD
ATOM     55  C   UNL A   1      43.446  27.535  32.276  1.00  0.00     0.074 A 
ATOM     56  C   UNL A   1      44.355  26.657  31.570  1.00  0.00     0.031 C 
ATOM     57  C   UNL A   1      43.627  27.955  33.552  1.00  0.00     0.037 A 
BRANCH  44  58
ATOM     58  C   UNL A   1      39.271  31.846  35.566  1.00  0.00     0.064 A 
ATOM     59  C   UNL A   1      39.651  33.194  35.643  1.00  0.00     0.173 A 
ATOM     60  C   UNL A   1      38.383  31.358  36.537  1.00  0.00     0.173 A 
ATOM     61  F   UNL A   1      40.506  33.708  34.746  1.00  0.00    -0.203 F 
ATOM     62  C   UNL A   1      39.186  34.012  36.670  1.00  0.00     0.198 A 
ATOM     63  C   UNL A   1      37.894  32.188  37.544  1.00  0.00     0.198 A 
ATOM     64  F   UNL A   1      37.981  30.079  36.506  1.00  0.00    -0.203 F 
ATOM     65  F   UNL A   1      39.604  35.283  36.754  1.00  0.00    -0.200 F 
ATOM     66  C   UNL A   1      38.302  33.511  37.615  1.00  0.00     0.200 A 
ATOM     67  F   UNL A   1      37.030  31.705  38.447  1.00  0.00    -0.200 F 
ATOM     68  F   UNL A   1      37.850  34.301  38.598  1.00  0.00    -0.200 F 
ENDBRANCH  44  58
BRANCH  45  69
ATOM     69  C   UNL A   1      42.379  26.305  27.863  1.00  0.00     0.064 A 
ATOM     70  C   UNL A   1      43.321  26.820  26.962  1.00  0.00     0.173 A 
ATOM     71  C   UNL A   1      41.905  25.004  27.641  1.00  0.00     0.173 A 
ATOM     72  F   UNL A   1      43.788  28.067  27.119  1.00  0.00    -0.203 F 
ATOM     73  C   UNL A   1      43.755  26.072  25.869  1.00  0.00     0.198 A 
ATOM     74  C   UNL A   1      42.361  24.247  26.565  1.00  0.00     0.198 A 
ATOM     75  F   UNL A   1      41.006  24.465  28.477  1.00  0.00    -0.203 F 
ATOM     76  F   UNL A   1      44.620  26.606  24.996  1.00  0.00    -0.200 F 
ATOM     77  C   UNL A   1      43.279  24.784  25.675  1.00  0.00     0.200 A 
ATOM     78  F   UNL A   1      41.910  22.997  26.388  1.00  0.00    -0.200 F 
ATOM     79  F   UNL A   1      43.699  24.064  24.625  1.00  0.00    -0.200 F 
ENDBRANCH  45  69
BRANCH  57  80
ATOM     80  C   UNL A   1      44.833  27.438  34.283  1.00  0.00     0.064 A 
ATOM     81  C   UNL A   1      44.802  26.231  34.995  1.00  0.00     0.173 A 
ATOM     82  C   UNL A   1      46.046  28.144  34.238  1.00  0.00     0.173 A 
ATOM     83  F   UNL A   1      43.663  25.527  35.083  1.00  0.00    -0.203 F 
ATOM     84  C   UNL A   1      45.934  25.762  35.658  1.00  0.00     0.198 A 
ATOM     85  C   UNL A   1      47.184  27.656  34.874  1.00  0.00     0.198 A 
ATOM     86  F   UNL A   1      46.130  29.302  33.565  1.00  0.00    -0.203 F 
ATOM     87  F   UNL A   1      45.867  24.630  36.374  1.00  0.00    -0.200 F 
ATOM     88  C   UNL A   1      47.124  26.470  35.590  1.00  0.00     0.200 A 
ATOM     89  F   UNL A   1      48.337  28.334  34.795  1.00  0.00    -0.200 F 
ATOM     90  F   UNL A   1      48.215  26.012  36.221  1.00  0.00    -0.200 F 
ENDBRANCH  57  80
ENDBRANCH  31  32
ENDBRANCH  23  26
ENDBRANCH  21  22
ENDBRANCH  20  21
ENDBRANCH   1  20
TORSDOF 14
ENDMDL
MODEL 3
REMARK VINA RESULT:     -11.5      0.533      7.635
REMARK SMILES O=C(NCCCCCCNC(=O)c1ccc(-c2c3nc(c(-c4c(F)c(F)c(F)c(F)c4F)c4ccc([nH]4)c(-c4c(F)c(F)c(F)c(F)c4F)c4nc(c(-c5c(F)c(F)c(F)c(F)c5F)c5ccc2[nH]5)C=C4)C=C3)cc1)c1ccc(-c2ccsc2)cc1
REMARK SMILES IDX 7 1 6 2 5 3 4 4 3 5 1 6 2 7 76 9 77 10 86 11 78 12 85 13
REMARK SMILES IDX 79 14 80 15 81 16 84 17 82 18 83 19 8 20 9 21 10 22 11 23
REMARK SMILES IDX 12 25 13 26 14 27 75 28 15 29 74 30 16 31 17 32 18 33 68 34
REMARK SMILES IDX 19 35 73 36 67 37 69 38 20 39 72 40 66 41 65 42 21 44 53 45
REMARK SMILES IDX 33 46 52 47 34 48 37 49 51 50 70 51 35 52 36 53 50 55 71 56
REMARK SMILES IDX 38 57 22 58 23 59 31 60 24 61 25 62 29 63 32 64 26 65 27 66
REMARK SMILES IDX 30 67 28 68 54 69 55 70 63 71 56 72 57 73 61 74 64 75 58 76
REMARK SMILES IDX 59 77 62 78 60 79 39 80 40 81 48 82 41 83 42 84 46 85 49 86
REMARK SMILES IDX 43 87 44 88 47 89 45 90
REMARK H PARENT 3 8 10 24 69 43 37 54
REMARK Flexibility Score: inf
ROOT
ATOM      1  C   UNL A   1      32.378  26.970  26.323  1.00  0.00     0.002 C 
ENDROOT
BRANCH   1   2
ATOM      2  C   UNL A   1      33.755  26.695  25.713  1.00  0.00     0.002 C 
BRANCH   2   3
ATOM      3  C   UNL A   1      34.214  25.235  25.741  1.00  0.00     0.021 C 
BRANCH   3   4
ATOM      4  C   UNL A   1      33.091  24.204  25.821  1.00  0.00     0.116 C 
BRANCH   4   5
ATOM      5  N   UNL A   1      33.019  23.370  24.632  1.00  0.00    -0.352 N 
ATOM      6  O   UNL A   1      32.194  22.666  22.648  1.00  0.00    -0.269 OA
ATOM      7  C   UNL A   1      32.261  23.546  23.500  1.00  0.00     0.251 C 
ATOM      8  H   UNL A   1      33.592  22.570  24.639  1.00  0.00     0.163 HD
BRANCH   7   9
ATOM      9  C   UNL A   1      31.498  24.798  23.327  1.00  0.00     0.039 A 
ATOM     10  C   UNL A   1      31.997  25.833  22.531  1.00  0.00     0.014 A 
ATOM     11  C   UNL A   1      30.278  24.941  23.991  1.00  0.00     0.014 A 
ATOM     12  C   UNL A   1      31.319  27.050  22.473  1.00  0.00     0.009 A 
ATOM     13  C   UNL A   1      29.595  26.159  23.923  1.00  0.00     0.009 A 
ATOM     14  C   UNL A   1      30.122  27.228  23.184  1.00  0.00    -0.018 A 
BRANCH  14  15
ATOM     15  C   UNL A   1      29.455  28.525  23.195  1.00  0.00    -0.008 A 
ATOM     16  C   UNL A   1      30.026  29.781  23.581  1.00  0.00     0.020 A 
ATOM     17  C   UNL A   1      28.141  28.679  22.797  1.00  0.00     0.073 A 
ATOM     18  C   UNL A   1      29.139  30.827  23.446  1.00  0.00     0.065 A 
ATOM     19  S   UNL A   1      27.616  30.306  22.873  1.00  0.00    -0.152 S 
ENDBRANCH  14  15
ENDBRANCH   7   9
ENDBRANCH   4   5
ENDBRANCH   3   4
ENDBRANCH   2   3
ENDBRANCH   1   2
BRANCH   1  20
ATOM     20  C   UNL A   1      31.927  28.432  26.307  1.00  0.00     0.021 C 
BRANCH  20  21
ATOM     21  C   UNL A   1      32.964  29.428  25.799  1.00  0.00     0.116 C 
BRANCH  21  22
ATOM     22  N   UNL A   1      32.682  30.791  26.215  1.00  0.00    -0.352 N 
ATOM     23  C   UNL A   1      33.321  31.572  27.145  1.00  0.00     0.251 C 
ATOM     24  H   UNL A   1      31.919  31.219  25.762  1.00  0.00     0.163 HD
ATOM     25  O   UNL A   1      32.842  32.654  27.476  1.00  0.00    -0.269 OA
BRANCH  23  26
ATOM     26  C   UNL A   1      34.575  31.104  27.774  1.00  0.00     0.039 A 
ATOM     27  C   UNL A   1      35.616  32.019  27.962  1.00  0.00     0.014 A 
ATOM     28  C   UNL A   1      34.735  29.771  28.164  1.00  0.00     0.014 A 
ATOM     29  C   UNL A   1      36.791  31.613  28.599  1.00  0.00     0.010 A 
ATOM     30  C   UNL A   1      35.878  29.386  28.863  1.00  0.00     0.010 A 
ATOM     31  C   UNL A   1      36.918  30.302  29.085  1.00  0.00    -0.014 A 
BRANCH  31  32
ATOM     32  C   UNL A   1      38.129  29.873  29.831  1.00  0.00     0.031 A 
ATOM     33  C   UNL A   1      38.387  30.390  31.218  1.00  0.00     0.074 A 
ATOM     34  C   UNL A   1      39.028  29.068  29.234  1.00  0.00     0.049 A 
ATOM     35  N   UNL A   1      39.414  30.182  32.004  1.00  0.00    -0.248 NA
ATOM     36  C   UNL A   1      37.367  31.282  31.791  1.00  0.00     0.031 C 
ATOM     37  C   UNL A   1      38.914  28.531  27.877  1.00  0.00     0.029 A 
ATOM     38  N   UNL A   1      40.223  28.565  29.690  1.00  0.00    -0.354 N 
ATOM     39  C   UNL A   1      39.174  30.930  33.149  1.00  0.00     0.074 A 
ATOM     40  C   UNL A   1      37.927  31.635  32.939  1.00  0.00     0.031 C 
ATOM     41  C   UNL A   1      39.978  27.755  27.620  1.00  0.00     0.029 A 
ATOM     42  C   UNL A   1      40.870  27.770  28.776  1.00  0.00     0.049 A 
ATOM     43  H   UNL A   1      40.581  28.756  30.586  1.00  0.00     0.167 HD
ATOM     44  C   UNL A   1      39.915  31.005  34.280  1.00  0.00     0.037 A 
ATOM     45  C   UNL A   1      42.052  27.130  28.859  1.00  0.00     0.037 A 
ATOM     46  C   UNL A   1      41.139  30.278  34.497  1.00  0.00     0.049 A 
ATOM     47  C   UNL A   1      42.860  27.240  30.124  1.00  0.00     0.074 A 
ATOM     48  C   UNL A   1      41.922  30.228  35.637  1.00  0.00     0.029 A 
ATOM     49  N   UNL A   1      41.761  29.478  33.550  1.00  0.00    -0.354 N 
ATOM     50  N   UNL A   1      42.585  27.888  31.229  1.00  0.00    -0.248 NA
ATOM     51  C   UNL A   1      44.144  26.525  30.151  1.00  0.00     0.031 C 
ATOM     52  C   UNL A   1      43.045  29.441  35.362  1.00  0.00     0.029 A 
ATOM     53  C   UNL A   1      42.934  28.955  34.070  1.00  0.00     0.049 A 
ATOM     54  H   UNL A   1      41.418  29.307  32.642  1.00  0.00     0.167 HD
ATOM     55  C   UNL A   1      43.640  27.632  32.094  1.00  0.00     0.074 A 
ATOM     56  C   UNL A   1      44.557  26.761  31.390  1.00  0.00     0.031 C 
ATOM     57  C   UNL A   1      43.832  28.080  33.359  1.00  0.00     0.037 A 
BRANCH  44  58
ATOM     58  C   UNL A   1      39.425  31.911  35.373  1.00  0.00     0.064 A 
ATOM     59  C   UNL A   1      38.569  31.452  36.386  1.00  0.00     0.173 A 
ATOM     60  C   UNL A   1      39.847  33.249  35.429  1.00  0.00     0.173 A 
ATOM     61  F   UNL A   1      38.128  30.186  36.374  1.00  0.00    -0.203 F 
ATOM     62  C   UNL A   1      38.128  32.306  37.394  1.00  0.00     0.198 A 
ATOM     63  C   UNL A   1      39.430  34.091  36.457  1.00  0.00     0.198 A 
ATOM     64  F   UNL A   1      40.671  33.738  34.491  1.00  0.00    -0.203 F 
ATOM     65  F   UNL A   1      37.268  31.859  38.320  1.00  0.00    -0.200 F 
ATOM     66  C   UNL A   1      38.564  33.622  37.433  1.00  0.00     0.200 A 
ATOM     67  F   UNL A   1      39.864  35.359  36.501  1.00  0.00    -0.200 F 
ATOM     68  F   UNL A   1      38.144  34.441  38.407  1.00  0.00    -0.200 F 
ENDBRANCH  44  58
BRANCH  45  69
ATOM     69  C   UNL A   1      42.531  26.301  27.721  1.00  0.00     0.064 A 
ATOM     70  C   UNL A   1      42.081  24.983  27.557  1.00  0.00     0.173 A 
ATOM     71  C   UNL A   1      43.447  26.799  26.784  1.00  0.00     0.173 A 
ATOM     72  F   UNL A   1      41.222  24.454  28.440  1.00  0.00    -0.203 F 
ATOM     73  C   UNL A   1      42.547  24.188  26.512  1.00  0.00     0.198 A 
ATOM     74  C   UNL A   1      43.889  26.014  25.722  1.00  0.00     0.198 A 
ATOM     75  F   UNL A   1      43.904  28.055  26.894  1.00  0.00    -0.203 F 
ATOM     76  F   UNL A   1      42.137  22.917  26.406  1.00  0.00    -0.200 F 
ATOM     77  C   UNL A   1      43.446  24.707  25.592  1.00  0.00     0.200 A 
ATOM     78  F   UNL A   1      44.747  26.522  24.827  1.00  0.00    -0.200 F 
ATOM     79  F   UNL A   1      43.890  23.943  24.584  1.00  0.00    -0.200 F 
ENDBRANCH  45  69
BRANCH  57  80
ATOM     80  C   UNL A   1      45.060  27.602  34.080  1.00  0.00     0.064 A 
ATOM     81  C   UNL A   1      46.261  28.324  34.051  1.00  0.00     0.173 A 
ATOM     82  C   UNL A   1      45.020  26.423  34.843  1.00  0.00     0.173 A 
ATOM     83  F   UNL A   1      46.356  29.448  33.324  1.00  0.00    -0.203 F 
ATOM     84  C   UNL A   1      47.386  27.870  34.736  1.00  0.00     0.198 A 
ATOM     85  C   UNL A   1      46.136  25.990  35.552  1.00  0.00     0.198 A 
ATOM     86  F   UNL A   1      43.893  25.698  34.909  1.00  0.00    -0.203 F 
ATOM     87  F   UNL A   1      48.538  28.551  34.653  1.00  0.00    -0.200 F 
ATOM     88  C   UNL A   1      47.320  26.709  35.492  1.00  0.00     0.200 A 
ATOM     89  F   UNL A   1      46.066  24.876  36.294  1.00  0.00    -0.200 F 
ATOM     90  F   UNL A   1      48.401  26.280  36.158  1.00  0.00    -0.200 F 
ENDBRANCH  57  80
ENDBRANCH  31  32
ENDBRANCH  23  26
ENDBRANCH  21  22
ENDBRANCH  20  21
ENDBRANCH   1  20
TORSDOF 14
ENDMDL
