MODEL 1
REMARK VINA RESULT:     -12.1      0.000      0.000
REMARK SMILES C[C@@H]1CN(C(=O)Nc2ccc(O)c(C(=O)NCCCCCCNC(=O)c3ccc(-c4c5nc(c(-c6c(F)c(F)c(F)c(F)c6F)c6ccc([nH]6)c(-c6c(F)c(F)c(F)c(F)c6F)c6nc(c(-c7c(F)c(F)c(F)c(F)c7F)c7ccc4[nH]7)C=C6)C=C5)cc3)c2)C[C@@H]1C
REMARK SMILES IDX 19 1 18 2 17 3 16 4 14 5 15 6 13 8 8 9 9 10 89 11 10 12
REMARK SMILES IDX 11 13 7 14 5 15 6 16 4 18 1 19 2 20 3 21 91 22 90 23 92 24
REMARK SMILES IDX 12 25 20 27 21 28 22 29 23 30 24 31 25 33 26 34 27 35 88 36
REMARK SMILES IDX 28 37 87 38 29 39 30 40 31 41 81 42 32 43 86 44 80 45 82 46
REMARK SMILES IDX 33 47 85 48 79 49 78 50 34 52 66 53 46 54 65 55 47 56 50 57
REMARK SMILES IDX 64 58 83 59 48 60 49 61 63 63 84 64 51 65 35 66 36 67 44 68
REMARK SMILES IDX 37 69 38 70 42 71 45 72 39 73 40 74 43 75 41 76 67 77 68 78
REMARK SMILES IDX 76 79 69 80 70 81 74 82 77 83 71 84 72 85 75 86 73 87 52 88
REMARK SMILES IDX 53 89 61 90 54 91 55 92 59 93 62 94 56 95 57 96 60 97 58 98
REMARK H PARENT 16 7 7 17 12 26 23 32 82 51 50 62
REMARK Flexibility Score: inf
ROOT
ATOM      1  C   UNL A   1      34.771  29.919  27.229  1.00  0.00     0.002 C 
ENDROOT
BRANCH   1   2
ATOM      2  C   UNL A   1      33.780  28.913  26.636  1.00  0.00     0.021 C 
BRANCH   2   3
ATOM      3  C   UNL A   1      33.586  29.039  25.121  1.00  0.00     0.116 C 
BRANCH   3   4
ATOM      4  N   UNL A   1      32.292  29.614  24.832  1.00  0.00    -0.352 N 
ATOM      5  C   UNL A   1      31.150  29.086  24.295  1.00  0.00     0.255 C 
ATOM      6  O   UNL A   1      30.213  29.869  24.116  1.00  0.00    -0.269 OA
ATOM      7  H   UNL A   1      32.218  30.568  25.066  1.00  0.00     0.163 HD
BRANCH   5   8
ATOM      8  C   UNL A   1      30.918  27.639  24.007  1.00  0.00     0.083 A 
ATOM      9  C   UNL A   1      30.300  25.520  25.057  1.00  0.00     0.043 A 
ATOM     10  C   UNL A   1      30.302  24.894  23.818  1.00  0.00     0.030 A 
ATOM     11  C   UNL A   1      30.534  26.892  25.139  1.00  0.00     0.044 A 
ATOM     12  C   UNL A   1      30.665  25.611  22.682  1.00  0.00     0.049 A 
ATOM     13  C   UNL A   1      30.991  26.970  22.778  1.00  0.00     0.128 A 
BRANCH   9  14
ATOM     14  N   UNL A   1      30.048  24.823  26.240  1.00  0.00    -0.308 N 
ATOM     15  C   UNL A   1      30.538  23.641  26.708  1.00  0.00     0.321 C 
ATOM     16  O   UNL A   1      29.852  23.022  27.524  1.00  0.00    -0.248 OA
ATOM     17  H   UNL A   1      29.403  25.262  26.842  1.00  0.00     0.171 HD
BRANCH  15  18
ATOM     18  N   UNL A   1      31.819  23.252  26.396  1.00  0.00    -0.324 N 
ATOM     19  C   UNL A   1      34.412  22.384  23.889  1.00  0.00     0.010 C 
ATOM     20  C   UNL A   1      33.809  22.584  25.269  1.00  0.00     0.010 C 
ATOM     21  C   UNL A   1      32.285  22.462  25.260  1.00  0.00     0.125 C 
ATOM     22  C   UNL A   1      34.045  23.940  25.947  1.00  0.00     0.010 C 
ATOM     23  C   UNL A   1      32.946  23.938  27.019  1.00  0.00     0.125 C 
ATOM     24  C   UNL A   1      33.907  25.139  25.007  1.00  0.00     0.010 C 
ENDBRANCH  15  18
ENDBRANCH   9  14
BRANCH  13  25
ATOM     25  O   UNL A   1      31.335  27.595  21.618  1.00  0.00    -0.507 OA
ATOM     26  H   UNL A   1      32.053  27.275  21.109  1.00  0.00     0.293 HD
ENDBRANCH  13  25
ENDBRANCH   5   8
ENDBRANCH   3   4
ENDBRANCH   2   3
ENDBRANCH   1   2
BRANCH   1  27
ATOM     27  C   UNL A   1      34.135  31.047  28.045  1.00  0.00     0.002 C 
BRANCH  27  28
ATOM     28  C   UNL A   1      33.708  32.276  27.238  1.00  0.00     0.021 C 
BRANCH  28  29
ATOM     29  C   UNL A   1      32.312  32.799  27.566  1.00  0.00     0.116 C 
BRANCH  29  30
ATOM     30  N   UNL A   1      32.305  34.242  27.748  1.00  0.00    -0.352 N 
ATOM     31  C   UNL A   1      33.034  35.014  28.617  1.00  0.00     0.251 C 
ATOM     32  H   UNL A   1      31.686  34.737  27.163  1.00  0.00     0.163 HD
ATOM     33  O   UNL A   1      32.738  36.190  28.800  1.00  0.00    -0.269 OA
BRANCH  31  34
ATOM     34  C   UNL A   1      34.179  34.425  29.343  1.00  0.00     0.039 A 
ATOM     35  C   UNL A   1      33.944  33.743  30.540  1.00  0.00     0.014 A 
ATOM     36  C   UNL A   1      35.483  34.571  28.860  1.00  0.00     0.014 A 
ATOM     37  C   UNL A   1      35.012  33.165  31.228  1.00  0.00     0.010 A 
ATOM     38  C   UNL A   1      36.537  33.938  29.510  1.00  0.00     0.010 A 
ATOM     39  C   UNL A   1      36.313  33.236  30.705  1.00  0.00    -0.014 A 
BRANCH  39  40
ATOM     40  C   UNL A   1      37.458  32.593  31.397  1.00  0.00     0.031 A 
ATOM     41  C   UNL A   1      38.184  31.450  30.749  1.00  0.00     0.074 A 
ATOM     42  C   UNL A   1      37.797  32.994  32.636  1.00  0.00     0.049 A 
ATOM     43  N   UNL A   1      39.165  30.719  31.215  1.00  0.00    -0.248 NA
ATOM     44  C   UNL A   1      37.728  31.056  29.408  1.00  0.00     0.031 C 
ATOM     45  C   UNL A   1      37.140  34.066  33.385  1.00  0.00     0.029 A 
ATOM     46  N   UNL A   1      38.775  32.543  33.486  1.00  0.00    -0.354 N 
ATOM     47  C   UNL A   1      39.427  29.769  30.237  1.00  0.00     0.074 A 
ATOM     48  C   UNL A   1      38.469  29.983  29.174  1.00  0.00     0.031 C 
ATOM     49  C   UNL A   1      37.754  34.210  34.571  1.00  0.00     0.029 A 
ATOM     50  C   UNL A   1      38.821  33.220  34.679  1.00  0.00     0.049 A 
ATOM     51  H   UNL A   1      39.386  31.804  33.261  1.00  0.00     0.167 HD
ATOM     52  C   UNL A   1      40.392  28.818  30.218  1.00  0.00     0.037 A 
ATOM     53  C   UNL A   1      39.635  33.059  35.740  1.00  0.00     0.037 A 
ATOM     54  C   UNL A   1      41.361  28.630  31.266  1.00  0.00     0.049 A 
ATOM     55  C   UNL A   1      40.692  31.992  35.699  1.00  0.00     0.074 A 
ATOM     56  C   UNL A   1      42.428  27.750  31.308  1.00  0.00     0.029 A 
ATOM     57  N   UNL A   1      41.375  29.334  32.462  1.00  0.00    -0.354 N 
ATOM     58  N   UNL A   1      40.979  31.146  34.739  1.00  0.00    -0.248 NA
ATOM     59  C   UNL A   1      41.541  31.859  36.891  1.00  0.00     0.031 C 
ATOM     60  C   UNL A   1      43.059  27.888  32.550  1.00  0.00     0.029 A 
ATOM     61  C   UNL A   1      42.416  28.888  33.262  1.00  0.00     0.049 A 
ATOM     62  H   UNL A   1      40.741  30.046  32.705  1.00  0.00     0.167 HD
ATOM     63  C   UNL A   1      42.058  30.401  35.196  1.00  0.00     0.074 A 
ATOM     64  C   UNL A   1      42.379  30.901  36.517  1.00  0.00     0.031 C 
ATOM     65  C   UNL A   1      42.723  29.397  34.575  1.00  0.00     0.037 A 
BRANCH  52  66
ATOM     66  C   UNL A   1      40.435  27.904  29.027  1.00  0.00     0.064 A 
ATOM     67  C   UNL A   1      41.223  28.193  27.902  1.00  0.00     0.173 A 
ATOM     68  C   UNL A   1      39.680  26.721  29.011  1.00  0.00     0.173 A 
ATOM     69  F   UNL A   1      41.955  29.316  27.860  1.00  0.00    -0.203 F 
ATOM     70  C   UNL A   1      41.219  27.354  26.789  1.00  0.00     0.198 A 
ATOM     71  C   UNL A   1      39.704  25.869  27.911  1.00  0.00     0.198 A 
ATOM     72  F   UNL A   1      38.914  26.393  30.063  1.00  0.00    -0.203 F 
ATOM     73  F   UNL A   1      41.928  27.684  25.701  1.00  0.00    -0.200 F 
ATOM     74  C   UNL A   1      40.463  26.192  26.796  1.00  0.00     0.200 A 
ATOM     75  F   UNL A   1      38.982  24.740  27.924  1.00  0.00    -0.200 F 
ATOM     76  F   UNL A   1      40.457  25.389  25.724  1.00  0.00    -0.200 F 
ENDBRANCH  52  66
BRANCH  53  77
ATOM     77  C   UNL A   1      39.508  33.968  36.907  1.00  0.00     0.064 A 
ATOM     78  C   UNL A   1      38.749  33.590  38.023  1.00  0.00     0.173 A 
ATOM     79  C   UNL A   1      40.154  35.212  36.945  1.00  0.00     0.173 A 
ATOM     80  F   UNL A   1      38.098  32.417  38.022  1.00  0.00    -0.203 F 
ATOM     81  C   UNL A   1      38.633  34.426  39.131  1.00  0.00     0.198 A 
ATOM     82  C   UNL A   1      40.057  36.037  38.064  1.00  0.00     0.198 A 
ATOM     83  F   UNL A   1      40.896  35.616  35.903  1.00  0.00    -0.203 F 
ATOM     84  F   UNL A   1      37.877  34.053  40.172  1.00  0.00    -0.200 F 
ATOM     85  C   UNL A   1      39.293  35.645  39.154  1.00  0.00     0.200 A 
ATOM     86  F   UNL A   1      40.708  37.208  38.088  1.00  0.00    -0.200 F 
ATOM     87  F   UNL A   1      39.192  36.444  40.224  1.00  0.00    -0.200 F 
ENDBRANCH  53  77
BRANCH  65  88
ATOM     88  C   UNL A   1      43.886  28.791  35.305  1.00  0.00     0.064 A 
ATOM     89  C   UNL A   1      45.192  29.270  35.133  1.00  0.00     0.173 A 
ATOM     90  C   UNL A   1      43.684  27.743  36.216  1.00  0.00     0.173 A 
ATOM     91  F   UNL A   1      45.440  30.259  34.261  1.00  0.00    -0.203 F 
ATOM     92  C   UNL A   1      46.258  28.706  35.830  1.00  0.00     0.198 A 
ATOM     93  C   UNL A   1      44.746  27.201  36.932  1.00  0.00     0.198 A 
ATOM     94  F   UNL A   1      42.452  27.253  36.419  1.00  0.00    -0.203 F 
ATOM     95  F   UNL A   1      47.505  29.148  35.617  1.00  0.00    -0.200 F 
ATOM     96  C   UNL A   1      46.033  27.678  36.734  1.00  0.00     0.200 A 
ATOM     97  F   UNL A   1      44.525  26.216  37.813  1.00  0.00    -0.200 F 
ATOM     98  F   UNL A   1      47.059  27.141  37.408  1.00  0.00    -0.200 F 
ENDBRANCH  65  88
ENDBRANCH  39  40
ENDBRANCH  31  34
ENDBRANCH  29  30
ENDBRANCH  28  29
ENDBRANCH  27  28
ENDBRANCH   1  27
TORSDOF 16
ENDMDL
MODEL 2
REMARK VINA RESULT:     -12.1      1.070      1.782
REMARK SMILES C[C@@H]1CN(C(=O)Nc2ccc(O)c(C(=O)NCCCCCCNC(=O)c3ccc(-c4c5nc(c(-c6c(F)c(F)c(F)c(F)c6F)c6ccc([nH]6)c(-c6c(F)c(F)c(F)c(F)c6F)c6nc(c(-c7c(F)c(F)c(F)c(F)c7F)c7ccc4[nH]7)C=C6)C=C5)cc3)c2)C[C@@H]1C
REMARK SMILES IDX 19 1 18 2 17 3 16 4 14 5 15 6 13 8 8 9 9 10 89 11 10 12
REMARK SMILES IDX 11 13 7 14 5 15 6 16 4 18 1 19 2 20 3 21 91 22 90 23 92 24
REMARK SMILES IDX 12 25 20 27 21 28 22 29 23 30 24 31 25 33 26 34 27 35 88 36
REMARK SMILES IDX 28 37 87 38 29 39 30 40 31 41 81 42 32 43 86 44 80 45 82 46
REMARK SMILES IDX 33 47 85 48 79 49 78 50 34 52 66 53 46 54 65 55 47 56 50 57
REMARK SMILES IDX 64 58 83 59 48 60 49 61 63 63 84 64 51 65 35 66 36 67 44 68
REMARK SMILES IDX 37 69 38 70 42 71 45 72 39 73 40 74 43 75 41 76 67 77 68 78
REMARK SMILES IDX 76 79 69 80 70 81 74 82 77 83 71 84 72 85 75 86 73 87 52 88
REMARK SMILES IDX 53 89 61 90 54 91 55 92 59 93 62 94 56 95 57 96 60 97 58 98
REMARK H PARENT 16 7 7 17 12 26 23 32 82 51 50 62
REMARK Flexibility Score: inf
ROOT
ATOM      1  C   UNL A   1      32.385  29.959  26.333  1.00  0.00     0.002 C 
ENDROOT
BRANCH   1   2
ATOM      2  C   UNL A   1      31.789  28.558  26.507  1.00  0.00     0.021 C 
BRANCH   2   3
ATOM      3  C   UNL A   1      32.168  27.572  25.396  1.00  0.00     0.116 C 
BRANCH   3   4
ATOM      4  N   UNL A   1      31.330  27.783  24.239  1.00  0.00    -0.352 N 
ATOM      5  C   UNL A   1      31.222  27.118  23.048  1.00  0.00     0.255 C 
ATOM      6  O   UNL A   1      30.437  27.593  22.221  1.00  0.00    -0.269 OA
ATOM      7  H   UNL A   1      30.720  28.552  24.322  1.00  0.00     0.163 HD
BRANCH   5   8
ATOM      8  C   UNL A   1      31.892  25.826  22.714  1.00  0.00     0.083 A 
ATOM      9  C   UNL A   1      31.988  23.464  23.337  1.00  0.00     0.043 A 
ATOM     10  C   UNL A   1      32.870  23.215  22.294  1.00  0.00     0.030 A 
ATOM     11  C   UNL A   1      31.450  24.741  23.497  1.00  0.00     0.044 A 
ATOM     12  C   UNL A   1      33.313  24.266  21.497  1.00  0.00     0.049 A 
ATOM     13  C   UNL A   1      32.843  25.567  21.718  1.00  0.00     0.128 A 
BRANCH   9  14
ATOM     14  N   UNL A   1      31.595  22.467  24.231  1.00  0.00    -0.308 N 
ATOM     15  C   UNL A   1      32.324  21.577  24.961  1.00  0.00     0.321 C 
ATOM     16  O   UNL A   1      31.769  20.533  25.307  1.00  0.00    -0.248 OA
ATOM     17  H   UNL A   1      30.621  22.393  24.357  1.00  0.00     0.171 HD
BRANCH  15  18
ATOM     18  N   UNL A   1      33.573  21.921  25.421  1.00  0.00    -0.324 N 
ATOM     19  C   UNL A   1      37.096  22.892  24.786  1.00  0.00     0.010 C 
ATOM     20  C   UNL A   1      35.872  22.518  25.604  1.00  0.00     0.010 C 
ATOM     21  C   UNL A   1      34.875  21.679  24.805  1.00  0.00     0.125 C 
ATOM     22  C   UNL A   1      35.009  23.667  26.140  1.00  0.00     0.010 C 
ATOM     23  C   UNL A   1      33.697  22.937  26.461  1.00  0.00     0.125 C 
ATOM     24  C   UNL A   1      34.787  24.801  25.137  1.00  0.00     0.010 C 
ENDBRANCH  15  18
ENDBRANCH   9  14
BRANCH  13  25
ATOM     25  O   UNL A   1      33.328  26.535  20.892  1.00  0.00    -0.507 OA
ATOM     26  H   UNL A   1      32.778  26.908  20.233  1.00  0.00     0.293 HD
ENDBRANCH  13  25
ENDBRANCH   5   8
ENDBRANCH   3   4
ENDBRANCH   2   3
ENDBRANCH   1   2
BRANCH   1  27
ATOM     27  C   UNL A   1      31.417  31.007  25.780  1.00  0.00     0.002 C 
BRANCH  27  28
ATOM     28  C   UNL A   1      31.224  32.246  26.659  1.00  0.00     0.021 C 
BRANCH  28  29
ATOM     29  C   UNL A   1      32.512  32.821  27.240  1.00  0.00     0.116 C 
BRANCH  29  30
ATOM     30  N   UNL A   1      32.364  34.222  27.602  1.00  0.00    -0.352 N 
ATOM     31  C   UNL A   1      32.975  34.933  28.603  1.00  0.00     0.251 C 
ATOM     32  H   UNL A   1      31.731  34.735  27.049  1.00  0.00     0.163 HD
ATOM     33  O   UNL A   1      32.564  36.045  28.916  1.00  0.00    -0.269 OA
BRANCH  31  34
ATOM     34  C   UNL A   1      34.134  34.353  29.317  1.00  0.00     0.039 A 
ATOM     35  C   UNL A   1      33.924  33.711  30.541  1.00  0.00     0.014 A 
ATOM     36  C   UNL A   1      35.425  34.468  28.795  1.00  0.00     0.014 A 
ATOM     37  C   UNL A   1      35.004  33.142  31.218  1.00  0.00     0.010 A 
ATOM     38  C   UNL A   1      36.489  33.843  29.436  1.00  0.00     0.010 A 
ATOM     39  C   UNL A   1      36.291  33.182  30.657  1.00  0.00    -0.014 A 
BRANCH  39  40
ATOM     40  C   UNL A   1      37.446  32.547  31.338  1.00  0.00     0.031 A 
ATOM     41  C   UNL A   1      38.174  31.408  30.683  1.00  0.00     0.074 A 
ATOM     42  C   UNL A   1      37.796  32.951  32.574  1.00  0.00     0.049 A 
ATOM     43  N   UNL A   1      39.165  30.684  31.140  1.00  0.00    -0.248 NA
ATOM     44  C   UNL A   1      37.707  31.010  29.347  1.00  0.00     0.031 C 
ATOM     45  C   UNL A   1      37.139  34.019  33.329  1.00  0.00     0.029 A 
ATOM     46  N   UNL A   1      38.785  32.508  33.414  1.00  0.00    -0.354 N 
ATOM     47  C   UNL A   1      39.424  29.736  30.160  1.00  0.00     0.074 A 
ATOM     48  C   UNL A   1      38.453  29.942  29.107  1.00  0.00     0.031 C 
ATOM     49  C   UNL A   1      37.764  34.168  34.508  1.00  0.00     0.029 A 
ATOM     50  C   UNL A   1      38.839  33.185  34.606  1.00  0.00     0.049 A 
ATOM     51  H   UNL A   1      39.399  31.772  33.183  1.00  0.00     0.167 HD
ATOM     52  C   UNL A   1      40.394  28.791  30.132  1.00  0.00     0.037 A 
ATOM     53  C   UNL A   1      39.664  33.031  35.658  1.00  0.00     0.037 A 
ATOM     54  C   UNL A   1      41.375  28.611  31.170  1.00  0.00     0.049 A 
ATOM     55  C   UNL A   1      40.729  31.971  35.608  1.00  0.00     0.074 A 
ATOM     56  C   UNL A   1      42.449  27.738  31.202  1.00  0.00     0.029 A 
ATOM     57  N   UNL A   1      41.397  29.315  32.365  1.00  0.00    -0.354 N 
ATOM     58  N   UNL A   1      41.011  31.126  34.646  1.00  0.00    -0.248 NA
ATOM     59  C   UNL A   1      41.590  31.844  36.791  1.00  0.00     0.031 C 
ATOM     60  C   UNL A   1      43.091  27.881  32.437  1.00  0.00     0.029 A 
ATOM     61  C   UNL A   1      42.449  28.877  33.155  1.00  0.00     0.049 A 
ATOM     62  H   UNL A   1      40.760  30.023  32.615  1.00  0.00     0.167 HD
ATOM     63  C   UNL A   1      42.100  30.389  35.092  1.00  0.00     0.074 A 
ATOM     64  C   UNL A   1      42.431  30.892  36.409  1.00  0.00     0.031 C 
ATOM     65  C   UNL A   1      42.765  29.389  34.464  1.00  0.00     0.037 A 
BRANCH  52  66
ATOM     66  C   UNL A   1      40.431  27.877  28.941  1.00  0.00     0.064 A 
ATOM     67  C   UNL A   1      41.200  28.173  27.805  1.00  0.00     0.173 A 
ATOM     68  C   UNL A   1      39.690  26.685  28.937  1.00  0.00     0.173 A 
ATOM     69  F   UNL A   1      41.918  29.305  27.752  1.00  0.00    -0.203 F 
ATOM     70  C   UNL A   1      41.191  27.334  26.693  1.00  0.00     0.198 A 
ATOM     71  C   UNL A   1      39.709  25.832  27.836  1.00  0.00     0.198 A 
ATOM     72  F   UNL A   1      38.943  26.349  29.999  1.00  0.00    -0.203 F 
ATOM     73  F   UNL A   1      41.881  27.672  25.595  1.00  0.00    -0.200 F 
ATOM     74  C   UNL A   1      40.449  26.163  26.711  1.00  0.00     0.200 A 
ATOM     75  F   UNL A   1      39.001  24.694  27.860  1.00  0.00    -0.200 F 
ATOM     76  F   UNL A   1      40.438  25.359  25.639  1.00  0.00    -0.200 F 
ENDBRANCH  52  66
BRANCH  53  77
ATOM     77  C   UNL A   1      39.543  33.939  36.827  1.00  0.00     0.064 A 
ATOM     78  C   UNL A   1      38.803  33.555  37.952  1.00  0.00     0.173 A 
ATOM     79  C   UNL A   1      40.176  35.190  36.855  1.00  0.00     0.173 A 
ATOM     80  F   UNL A   1      38.164  32.375  37.962  1.00  0.00    -0.203 F 
ATOM     81  C   UNL A   1      38.693  34.390  39.061  1.00  0.00     0.198 A 
ATOM     82  C   UNL A   1      40.085  36.015  37.974  1.00  0.00     0.198 A 
ATOM     83  F   UNL A   1      40.900  35.601  35.803  1.00  0.00    -0.203 F 
ATOM     84  F   UNL A   1      37.955  34.011  40.113  1.00  0.00    -0.200 F 
ATOM     85  C   UNL A   1      39.340  35.617  39.075  1.00  0.00     0.200 A 
ATOM     86  F   UNL A   1      40.724  37.193  37.988  1.00  0.00    -0.200 F 
ATOM     87  F   UNL A   1      39.244  36.415  40.145  1.00  0.00    -0.200 F 
ENDBRANCH  53  77
BRANCH  65  88
ATOM     88  C   UNL A   1      43.940  28.791  35.183  1.00  0.00     0.064 A 
ATOM     89  C   UNL A   1      43.796  27.686  36.034  1.00  0.00     0.173 A 
ATOM     90  C   UNL A   1      45.229  29.307  34.987  1.00  0.00     0.173 A 
ATOM     91  F   UNL A   1      42.581  27.167  36.268  1.00  0.00    -0.203 F 
ATOM     92  C   UNL A   1      44.898  27.135  36.682  1.00  0.00     0.198 A 
ATOM     93  C   UNL A   1      46.333  28.736  35.613  1.00  0.00     0.198 A 
ATOM     94  F   UNL A   1      45.420  30.360  34.178  1.00  0.00    -0.203 F 
ATOM     95  F   UNL A   1      44.733  26.108  37.528  1.00  0.00    -0.200 F 
ATOM     96  C   UNL A   1      46.166  27.655  36.465  1.00  0.00     0.200 A 
ATOM     97  F   UNL A   1      47.558  29.232  35.392  1.00  0.00    -0.200 F 
ATOM     98  F   UNL A   1      47.227  27.119  37.084  1.00  0.00    -0.200 F 
ENDBRANCH  65  88
ENDBRANCH  39  40
ENDBRANCH  31  34
ENDBRANCH  29  30
ENDBRANCH  28  29
ENDBRANCH  27  28
ENDBRANCH   1  27
TORSDOF 16
ENDMDL
MODEL 3
REMARK VINA RESULT:     -11.9      1.339      7.410
REMARK SMILES C[C@@H]1CN(C(=O)Nc2ccc(O)c(C(=O)NCCCCCCNC(=O)c3ccc(-c4c5nc(c(-c6c(F)c(F)c(F)c(F)c6F)c6ccc([nH]6)c(-c6c(F)c(F)c(F)c(F)c6F)c6nc(c(-c7c(F)c(F)c(F)c(F)c7F)c7ccc4[nH]7)C=C6)C=C5)cc3)c2)C[C@@H]1C
REMARK SMILES IDX 19 1 18 2 17 3 16 4 14 5 15 6 13 8 8 9 9 10 89 11 10 12
REMARK SMILES IDX 11 13 7 14 5 15 6 16 4 18 1 19 2 20 3 21 91 22 90 23 92 24
REMARK SMILES IDX 12 25 20 27 21 28 22 29 23 30 24 31 25 33 26 34 27 35 88 36
REMARK SMILES IDX 28 37 87 38 29 39 30 40 31 41 81 42 32 43 86 44 80 45 82 46
REMARK SMILES IDX 33 47 85 48 79 49 78 50 34 52 66 53 46 54 65 55 47 56 50 57
REMARK SMILES IDX 64 58 83 59 48 60 49 61 63 63 84 64 51 65 35 66 36 67 44 68
REMARK SMILES IDX 37 69 38 70 42 71 45 72 39 73 40 74 43 75 41 76 67 77 68 78
REMARK SMILES IDX 76 79 69 80 70 81 74 82 77 83 71 84 72 85 75 86 73 87 52 88
REMARK SMILES IDX 53 89 61 90 54 91 55 92 59 93 62 94 56 95 57 96 60 97 58 98
REMARK H PARENT 16 7 7 17 12 26 23 32 82 51 50 62
REMARK Flexibility Score: inf
ROOT
ATOM      1  C   UNL A   1      32.640  29.884  27.035  1.00  0.00     0.002 C 
ENDROOT
BRANCH   1   2
ATOM      2  C   UNL A   1      32.141  28.541  27.578  1.00  0.00     0.021 C 
BRANCH   2   3
ATOM      3  C   UNL A   1      31.894  27.480  26.501  1.00  0.00     0.116 C 
BRANCH   3   4
ATOM      4  N   UNL A   1      30.700  26.727  26.811  1.00  0.00    -0.352 N 
ATOM      5  C   UNL A   1      30.160  25.593  26.268  1.00  0.00     0.255 C 
ATOM      6  O   UNL A   1      29.074  25.227  26.726  1.00  0.00    -0.269 OA
ATOM      7  H   UNL A   1      30.174  27.102  27.554  1.00  0.00     0.163 HD
BRANCH   5   8
ATOM      8  C   UNL A   1      30.821  24.720  25.253  1.00  0.00     0.083 A 
ATOM      9  C   UNL A   1      31.585  22.432  24.852  1.00  0.00     0.043 A 
ATOM     10  C   UNL A   1      31.940  22.768  23.552  1.00  0.00     0.030 A 
ATOM     11  C   UNL A   1      30.965  23.381  25.666  1.00  0.00     0.044 A 
ATOM     12  C   UNL A   1      31.796  24.081  23.114  1.00  0.00     0.049 A 
ATOM     13  C   UNL A   1      31.259  25.056  23.965  1.00  0.00     0.128 A 
BRANCH   9  14
ATOM     14  N   UNL A   1      31.807  21.158  25.377  1.00  0.00    -0.308 N 
ATOM     15  C   UNL A   1      32.947  20.423  25.497  1.00  0.00     0.321 C 
ATOM     16  O   UNL A   1      32.832  19.198  25.560  1.00  0.00    -0.248 OA
ATOM     17  H   UNL A   1      30.998  20.713  25.720  1.00  0.00     0.171 HD
BRANCH  15  18
ATOM     18  N   UNL A   1      34.154  21.048  25.702  1.00  0.00    -0.324 N 
ATOM     19  C   UNL A   1      36.928  23.195  24.493  1.00  0.00     0.010 C 
ATOM     20  C   UNL A   1      36.168  22.297  25.455  1.00  0.00     0.010 C 
ATOM     21  C   UNL A   1      35.201  21.359  24.733  1.00  0.00     0.125 C 
ATOM     22  C   UNL A   1      35.274  22.983  26.497  1.00  0.00     0.010 C 
ATOM     23  C   UNL A   1      34.358  21.825  26.920  1.00  0.00     0.125 C 
ATOM     24  C   UNL A   1      34.468  24.161  25.946  1.00  0.00     0.010 C 
ENDBRANCH  15  18
ENDBRANCH   9  14
BRANCH  13  25
ATOM     25  O   UNL A   1      31.154  26.314  23.455  1.00  0.00    -0.507 OA
ATOM     26  H   UNL A   1      30.564  26.929  23.842  1.00  0.00     0.293 HD
ENDBRANCH  13  25
ENDBRANCH   5   8
ENDBRANCH   3   4
ENDBRANCH   2   3
ENDBRANCH   1   2
BRANCH   1  27
ATOM     27  C   UNL A   1      31.574  30.733  26.338  1.00  0.00     0.002 C 
BRANCH  27  28
ATOM     28  C   UNL A   1      31.424  32.160  26.871  1.00  0.00     0.021 C 
BRANCH  28  29
ATOM     29  C   UNL A   1      32.735  32.928  27.011  1.00  0.00     0.116 C 
BRANCH  29  30
ATOM     30  N   UNL A   1      32.535  34.232  27.624  1.00  0.00    -0.352 N 
ATOM     31  C   UNL A   1      33.093  34.755  28.762  1.00  0.00     0.251 C 
ATOM     32  H   UNL A   1      31.905  34.826  27.154  1.00  0.00     0.163 HD
ATOM     33  O   UNL A   1      32.640  35.779  29.262  1.00  0.00    -0.269 OA
BRANCH  31  34
ATOM     34  C   UNL A   1      34.245  34.077  29.396  1.00  0.00     0.039 A 
ATOM     35  C   UNL A   1      34.007  33.124  30.389  1.00  0.00     0.014 A 
ATOM     36  C   UNL A   1      35.555  34.404  29.033  1.00  0.00     0.014 A 
ATOM     37  C   UNL A   1      35.082  32.462  30.985  1.00  0.00     0.010 A 
ATOM     38  C   UNL A   1      36.621  33.697  29.578  1.00  0.00     0.010 A 
ATOM     39  C   UNL A   1      36.396  32.725  30.565  1.00  0.00    -0.014 A 
BRANCH  39  40
ATOM     40  C   UNL A   1      37.551  32.003  31.153  1.00  0.00     0.031 A 
ATOM     41  C   UNL A   1      38.036  32.353  32.531  1.00  0.00     0.074 A 
ATOM     42  C   UNL A   1      38.204  31.081  30.421  1.00  0.00     0.049 A 
ATOM     43  N   UNL A   1      39.062  31.882  33.194  1.00  0.00    -0.248 NA
ATOM     44  C   UNL A   1      37.284  33.393  33.249  1.00  0.00     0.031 C 
ATOM     45  C   UNL A   1      37.852  30.685  29.057  1.00  0.00     0.029 A 
ATOM     46  N   UNL A   1      39.302  30.316  30.719  1.00  0.00    -0.354 N 
ATOM     47  C   UNL A   1      39.090  32.581  34.393  1.00  0.00     0.074 A 
ATOM     48  C   UNL A   1      38.011  33.544  34.346  1.00  0.00     0.031 C 
ATOM     49  C   UNL A   1      38.700  29.728  28.648  1.00  0.00     0.029 A 
ATOM     50  C   UNL A   1      39.673  29.470  29.705  1.00  0.00     0.049 A 
ATOM     51  H   UNL A   1      39.779  30.369  31.579  1.00  0.00     0.167 HD
ATOM     52  C   UNL A   1      39.927  32.421  35.446  1.00  0.00     0.037 A 
ATOM     53  C   UNL A   1      40.685  28.583  29.637  1.00  0.00     0.037 A 
ATOM     54  C   UNL A   1      40.980  31.441  35.499  1.00  0.00     0.049 A 
ATOM     55  C   UNL A   1      41.606  28.429  30.815  1.00  0.00     0.074 A 
ATOM     56  C   UNL A   1      41.832  31.142  36.548  1.00  0.00     0.029 A 
ATOM     57  N   UNL A   1      41.328  30.601  34.450  1.00  0.00    -0.354 N 
ATOM     58  N   UNL A   1      41.581  29.044  31.972  1.00  0.00    -0.248 NA
ATOM     59  C   UNL A   1      42.697  27.455  30.675  1.00  0.00     0.031 C 
ATOM     60  C   UNL A   1      42.726  30.156  36.118  1.00  0.00     0.029 A 
ATOM     61  C   UNL A   1      42.402  29.804  34.818  1.00  0.00     0.049 A 
ATOM     62  H   UNL A   1      40.879  30.574  33.575  1.00  0.00     0.167 HD
ATOM     63  C   UNL A   1      42.629  28.512  32.711  1.00  0.00     0.074 A 
ATOM     64  C   UNL A   1      43.267  27.519  31.871  1.00  0.00     0.031 C 
ATOM     65  C   UNL A   1      43.024  28.818  33.971  1.00  0.00     0.037 A 
BRANCH  52  66
ATOM     66  C   UNL A   1      39.739  33.337  36.621  1.00  0.00     0.064 A 
ATOM     67  C   UNL A   1      38.857  33.025  37.668  1.00  0.00     0.173 A 
ATOM     68  C   UNL A   1      40.452  34.543  36.704  1.00  0.00     0.173 A 
ATOM     69  F   UNL A   1      38.142  31.891  37.634  1.00  0.00    -0.203 F 
ATOM     70  C   UNL A   1      38.665  33.906  38.730  1.00  0.00     0.198 A 
ATOM     71  C   UNL A   1      40.281  35.405  37.784  1.00  0.00     0.198 A 
ATOM     72  F   UNL A   1      41.313  34.888  35.735  1.00  0.00    -0.203 F 
ATOM     73  F   UNL A   1      37.770  33.616  39.684  1.00  0.00    -0.200 F 
ATOM     74  C   UNL A   1      39.379  35.093  38.789  1.00  0.00     0.200 A 
ATOM     75  F   UNL A   1      40.982  36.546  37.845  1.00  0.00    -0.200 F 
ATOM     76  F   UNL A   1      39.190  35.940  39.809  1.00  0.00    -0.200 F 
ENDBRANCH  52  66
BRANCH  53  77
ATOM     77  C   UNL A   1      40.844  27.740  28.425  1.00  0.00     0.064 A 
ATOM     78  C   UNL A   1      40.163  26.521  28.313  1.00  0.00     0.173 A 
ATOM     79  C   UNL A   1      41.652  28.140  27.352  1.00  0.00     0.173 A 
ATOM     80  F   UNL A   1      39.393  26.089  29.324  1.00  0.00    -0.203 F 
ATOM     81  C   UNL A   1      40.290  25.727  27.176  1.00  0.00     0.198 A 
ATOM     82  C   UNL A   1      41.761  27.356  26.205  1.00  0.00     0.198 A 
ATOM     83  F   UNL A   1      42.321  29.301  27.409  1.00  0.00    -0.203 F 
ATOM     84  F   UNL A   1      39.651  24.551  27.107  1.00  0.00    -0.200 F 
ATOM     85  C   UNL A   1      41.083  26.148  26.119  1.00  0.00     0.200 A 
ATOM     86  F   UNL A   1      42.517  27.774  25.180  1.00  0.00    -0.200 F 
ATOM     87  F   UNL A   1      41.196  25.391  25.021  1.00  0.00    -0.200 F 
ENDBRANCH  53  77
BRANCH  65  88
ATOM     88  C   UNL A   1      44.184  28.048  34.531  1.00  0.00     0.064 A 
ATOM     89  C   UNL A   1      45.499  28.525  34.436  1.00  0.00     0.173 A 
ATOM     90  C   UNL A   1      43.971  26.836  35.204  1.00  0.00     0.173 A 
ATOM     91  F   UNL A   1      45.756  29.671  33.787  1.00  0.00    -0.203 F 
ATOM     92  C   UNL A   1      46.562  27.805  34.975  1.00  0.00     0.198 A 
ATOM     93  C   UNL A   1      45.032  26.132  35.767  1.00  0.00     0.198 A 
ATOM     94  F   UNL A   1      42.731  26.338  35.326  1.00  0.00    -0.203 F 
ATOM     95  F   UNL A   1      47.816  28.256  34.833  1.00  0.00    -0.200 F 
ATOM     96  C   UNL A   1      46.327  26.614  35.646  1.00  0.00     0.200 A 
ATOM     97  F   UNL A   1      44.802  24.987  36.424  1.00  0.00    -0.200 F 
ATOM     98  F   UNL A   1      47.350  25.924  36.169  1.00  0.00    -0.200 F 
ENDBRANCH  65  88
ENDBRANCH  39  40
ENDBRANCH  31  34
ENDBRANCH  29  30
ENDBRANCH  28  29
ENDBRANCH  27  28
ENDBRANCH   1  27
TORSDOF 16
ENDMDL
