MODEL 1
REMARK VINA RESULT:     -13.2      0.000      0.000
REMARK SMILES CC(C)Cc1ccc(-c2cc(Cl)cc3c2O[C@H](C(F)(F)F)C(C(=O)NCCCCCCNC(=O)c2ccc(-c4c5nc(c(-c6c(F)c(F)c(F)c(F)c6F)c6ccc([nH]6)c(-c6c(F)c(F)c(F)c(F)c6F)c6nc(c(-c7c(F)c(F)c(F)c(F)c7F)c7ccc4[nH]7)C=C6)C=C5)cc2)=C3)cc1
REMARK SMILES IDX 28 1 27 2 26 3 25 4 23 5 24 6 22 8 9 9 10 10 15 11 11 12
REMARK SMILES IDX 14 13 16 14 12 15 13 16 98 17 17 18 8 19 5 20 6 21 100 22
REMARK SMILES IDX 7 23 99 24 4 25 2 26 1 27 3 28 18 29 19 30 20 31 21 32 29 33
REMARK SMILES IDX 30 34 31 35 32 36 33 37 34 39 35 40 36 41 97 42 37 43 96 44
REMARK SMILES IDX 38 45 39 46 40 47 90 48 41 49 95 50 89 51 91 52 42 53 94 54
REMARK SMILES IDX 88 55 87 56 43 58 75 59 55 60 74 61 56 62 59 63 73 64 92 65
REMARK SMILES IDX 57 66 58 67 72 69 93 70 60 71 44 72 45 73 53 74 46 75 47 76
REMARK SMILES IDX 51 77 54 78 48 79 49 80 52 81 50 82 76 83 77 84 85 85 78 86
REMARK SMILES IDX 79 87 83 88 86 89 80 90 81 91 84 92 82 93 61 94 62 95 70 96
REMARK SMILES IDX 63 97 64 98 68 99 71 100 65 101 66 102 69 103 67 104
REMARK H PARENT 25 7 32 38 91 57 59 68
REMARK Flexibility Score: inf
ROOT
ATOM      1  C   UNL A   1      35.482  20.560  25.228  1.00  0.00     0.002 C 
ENDROOT
BRANCH   1   2
ATOM      2  C   UNL A   1      34.603  19.454  24.620  1.00  0.00     0.021 C 
BRANCH   2   3
ATOM      3  C   UNL A   1      33.116  19.816  24.491  1.00  0.00     0.116 C 
BRANCH   3   4
ATOM      4  N   UNL A   1      32.941  20.816  23.459  1.00  0.00    -0.352 N 
ATOM      5  C   UNL A   1      32.192  21.939  23.599  1.00  0.00     0.251 C 
ATOM      6  O   UNL A   1      31.324  22.210  22.779  1.00  0.00    -0.270 OA
ATOM      7  H   UNL A   1      33.394  20.671  22.597  1.00  0.00     0.163 HD
BRANCH   5   8
ATOM      8  C   UNL A   1      32.611  22.868  24.688  1.00  0.00     0.067 C 
ATOM      9  C   UNL A   1      31.046  26.288  23.179  1.00  0.00     0.026 A 
ATOM     10  C   UNL A   1      31.388  26.298  21.798  1.00  0.00     0.033 A 
ATOM     11  C   UNL A   1      31.730  25.354  23.978  1.00  0.00     0.135 A 
ATOM     12  C   UNL A   1      32.452  25.569  21.277  1.00  0.00     0.042 A 
ATOM     13  C   UNL A   1      32.887  24.720  23.454  1.00  0.00     0.019 A 
ATOM     14  O   UNL A   1      31.299  24.953  25.238  1.00  0.00    -0.475 OA
ATOM     15  Cl  UNL A   1      32.768  25.605  19.588  1.00  0.00    -0.084 Cl
ATOM     16  C   UNL A   1      33.262  24.837  22.119  1.00  0.00     0.032 A 
ATOM     17  C   UNL A   1      33.575  23.727  24.305  1.00  0.00     0.025 C 
ATOM     18  C   UNL A   1      31.472  23.485  25.484  1.00  0.00     0.314 C 
BRANCH   9  19
ATOM     19  C   UNL A   1      30.169  27.415  23.599  1.00  0.00    -0.015 A 
ATOM     20  C   UNL A   1      28.602  29.786  23.245  1.00  0.00    -0.048 A 
ATOM     21  C   UNL A   1      28.025  28.518  23.134  1.00  0.00     0.004 A 
ATOM     22  C   UNL A   1      29.951  29.858  23.618  1.00  0.00     0.004 A 
ATOM     23  C   UNL A   1      28.782  27.358  23.353  1.00  0.00     0.009 A 
ATOM     24  C   UNL A   1      30.721  28.692  23.802  1.00  0.00     0.009 A 
BRANCH  20  25
ATOM     25  C   UNL A   1      27.827  31.047  22.894  1.00  0.00     0.038 C 
BRANCH  25  26
ATOM     26  C   UNL A   1      28.612  32.119  22.103  1.00  0.00    -0.013 C 
ATOM     27  C   UNL A   1      27.971  32.399  20.741  1.00  0.00     0.008 C 
ATOM     28  C   UNL A   1      28.710  33.428  22.895  1.00  0.00     0.008 C 
ENDBRANCH  25  26
ENDBRANCH  20  25
ENDBRANCH   9  19
BRANCH  18  29
ATOM     29  C   UNL A   1      31.718  23.151  26.974  1.00  0.00     0.429 C 
ATOM     30  F   UNL A   1      32.571  22.119  27.149  1.00  0.00    -0.167 F 
ATOM     31  F   UNL A   1      32.218  24.219  27.641  1.00  0.00    -0.167 F 
ATOM     32  F   UNL A   1      30.570  22.814  27.625  1.00  0.00    -0.167 F 
ENDBRANCH  18  29
ENDBRANCH   5   8
ENDBRANCH   3   4
ENDBRANCH   2   3
ENDBRANCH   1   2
BRANCH   1  33
ATOM     33  C   UNL A   1      36.847  20.736  24.560  1.00  0.00     0.002 C 
BRANCH  33  34
ATOM     34  C   UNL A   1      37.868  19.656  24.916  1.00  0.00     0.021 C 
BRANCH  34  35
ATOM     35  C   UNL A   1      38.993  20.130  25.828  1.00  0.00     0.116 C 
BRANCH  35  36
ATOM     36  N   UNL A   1      40.079  19.168  25.915  1.00  0.00    -0.352 N 
ATOM     37  C   UNL A   1      41.416  19.390  26.115  1.00  0.00     0.251 C 
ATOM     38  H   UNL A   1      39.818  18.223  25.816  1.00  0.00     0.163 HD
ATOM     39  O   UNL A   1      42.224  18.471  25.987  1.00  0.00    -0.269 OA
BRANCH  37  40
ATOM     40  C   UNL A   1      41.891  20.745  26.463  1.00  0.00     0.039 A 
ATOM     41  C   UNL A   1      41.980  21.705  25.454  1.00  0.00     0.014 A 
ATOM     42  C   UNL A   1      42.251  21.066  27.774  1.00  0.00     0.014 A 
ATOM     43  C   UNL A   1      42.388  23.001  25.770  1.00  0.00     0.010 A 
ATOM     44  C   UNL A   1      42.575  22.379  28.103  1.00  0.00     0.010 A 
ATOM     45  C   UNL A   1      42.661  23.357  27.101  1.00  0.00    -0.014 A 
BRANCH  45  46
ATOM     46  C   UNL A   1      43.056  24.745  27.449  1.00  0.00     0.031 A 
ATOM     47  C   UNL A   1      44.467  25.213  27.222  1.00  0.00     0.074 A 
ATOM     48  C   UNL A   1      42.149  25.575  28.000  1.00  0.00     0.049 A 
ATOM     49  N   UNL A   1      45.001  26.384  27.466  1.00  0.00    -0.248 NA
ATOM     50  C   UNL A   1      45.412  24.228  26.673  1.00  0.00     0.031 C 
ATOM     51  C   UNL A   1      40.765  25.221  28.319  1.00  0.00     0.029 A 
ATOM     52  N   UNL A   1      42.255  26.887  28.389  1.00  0.00    -0.354 N 
ATOM     53  C   UNL A   1      46.338  26.272  27.108  1.00  0.00     0.074 A 
ATOM     54  C   UNL A   1      46.551  24.903  26.693  1.00  0.00     0.031 C 
ATOM     55  C   UNL A   1      40.141  26.298  28.822  1.00  0.00     0.029 A 
ATOM     56  C   UNL A   1      41.089  27.405  28.897  1.00  0.00     0.049 A 
ATOM     57  H   UNL A   1      43.087  27.407  28.311  1.00  0.00     0.167 HD
ATOM     58  C   UNL A   1      47.294  27.231  27.099  1.00  0.00     0.037 A 
ATOM     59  C   UNL A   1      40.816  28.637  29.369  1.00  0.00     0.037 A 
ATOM     60  C   UNL A   1      47.073  28.597  27.498  1.00  0.00     0.049 A 
ATOM     61  C   UNL A   1      41.900  29.681  29.353  1.00  0.00     0.074 A 
ATOM     62  C   UNL A   1      47.960  29.658  27.473  1.00  0.00     0.029 A 
ATOM     63  N   UNL A   1      45.877  29.088  28.000  1.00  0.00    -0.354 N 
ATOM     64  N   UNL A   1      43.140  29.586  28.939  1.00  0.00    -0.248 NA
ATOM     65  C   UNL A   1      41.539  31.012  29.862  1.00  0.00     0.031 C 
ATOM     66  C   UNL A   1      47.319  30.777  28.015  1.00  0.00     0.029 A 
ATOM     67  C   UNL A   1      46.011  30.431  28.315  1.00  0.00     0.049 A 
ATOM     68  H   UNL A   1      45.053  28.561  28.116  1.00  0.00     0.167 HD
ATOM     69  C   UNL A   1      43.698  30.846  29.107  1.00  0.00     0.074 A 
ATOM     70  C   UNL A   1      42.652  31.695  29.640  1.00  0.00     0.031 C 
ATOM     71  C   UNL A   1      44.961  31.265  28.845  1.00  0.00     0.037 A 
BRANCH  58  72
ATOM     72  C   UNL A   1      48.672  26.836  26.642  1.00  0.00     0.064 A 
ATOM     73  C   UNL A   1      49.627  26.322  27.534  1.00  0.00     0.173 A 
ATOM     74  C   UNL A   1      49.030  26.939  25.289  1.00  0.00     0.173 A 
ATOM     75  F   UNL A   1      49.341  26.211  28.840  1.00  0.00    -0.203 F 
ATOM     76  C   UNL A   1      50.897  25.958  27.094  1.00  0.00     0.198 A 
ATOM     77  C   UNL A   1      50.289  26.542  24.847  1.00  0.00     0.198 A 
ATOM     78  F   UNL A   1      48.155  27.420  24.393  1.00  0.00    -0.203 F 
ATOM     79  F   UNL A   1      51.809  25.523  27.974  1.00  0.00    -0.200 F 
ATOM     80  C   UNL A   1      51.225  26.061  25.751  1.00  0.00     0.200 A 
ATOM     81  F   UNL A   1      50.599  26.628  23.546  1.00  0.00    -0.200 F 
ATOM     82  F   UNL A   1      52.445  25.702  25.327  1.00  0.00    -0.200 F 
ENDBRANCH  58  72
BRANCH  59  83
ATOM     83  C   UNL A   1      39.454  28.957  29.874  1.00  0.00     0.064 A 
ATOM     84  C   UNL A   1      38.462  29.451  29.013  1.00  0.00     0.173 A 
ATOM     85  C   UNL A   1      39.119  28.790  31.224  1.00  0.00     0.173 A 
ATOM     86  F   UNL A   1      38.740  29.645  27.715  1.00  0.00    -0.203 F 
ATOM     87  C   UNL A   1      37.199  29.792  29.490  1.00  0.00     0.198 A 
ATOM     88  C   UNL A   1      37.844  29.101  31.695  1.00  0.00     0.198 A 
ATOM     89  F   UNL A   1      40.028  28.315  32.089  1.00  0.00    -0.203 F 
ATOM     90  F   UNL A   1      36.289  30.315  28.656  1.00  0.00    -0.200 F 
ATOM     91  C   UNL A   1      36.889  29.612  30.830  1.00  0.00     0.200 A 
ATOM     92  F   UNL A   1      37.544  28.908  32.986  1.00  0.00    -0.200 F 
ATOM     93  F   UNL A   1      35.673  29.939  31.288  1.00  0.00    -0.200 F 
ENDBRANCH  59  83
BRANCH  71  94
ATOM     94  C   UNL A   1      45.270  32.713  29.099  1.00  0.00     0.064 A 
ATOM     95  C   UNL A   1      45.687  33.173  30.357  1.00  0.00     0.173 A 
ATOM     96  C   UNL A   1      45.161  33.653  28.061  1.00  0.00     0.173 A 
ATOM     97  F   UNL A   1      45.795  32.319  31.386  1.00  0.00    -0.203 F 
ATOM     98  C   UNL A   1      45.942  34.524  30.577  1.00  0.00     0.198 A 
ATOM     99  C   UNL A   1      45.454  34.996  28.275  1.00  0.00     0.198 A 
ATOM    100  F   UNL A   1      44.776  33.267  26.836  1.00  0.00    -0.203 F 
ATOM    101  F   UNL A   1      46.273  34.949  31.805  1.00  0.00    -0.200 F 
ATOM    102  C   UNL A   1      45.831  35.433  29.536  1.00  0.00     0.200 A 
ATOM    103  F   UNL A   1      45.363  35.871  27.264  1.00  0.00    -0.200 F 
ATOM    104  F   UNL A   1      46.078  36.733  29.750  1.00  0.00    -0.200 F 
ENDBRANCH  71  94
ENDBRANCH  45  46
ENDBRANCH  37  40
ENDBRANCH  35  36
ENDBRANCH  34  35
ENDBRANCH  33  34
ENDBRANCH   1  33
TORSDOF 17
ENDMDL
MODEL 2
REMARK VINA RESULT:     -12.9      0.620      7.106
REMARK SMILES CC(C)Cc1ccc(-c2cc(Cl)cc3c2O[C@H](C(F)(F)F)C(C(=O)NCCCCCCNC(=O)c2ccc(-c4c5nc(c(-c6c(F)c(F)c(F)c(F)c6F)c6ccc([nH]6)c(-c6c(F)c(F)c(F)c(F)c6F)c6nc(c(-c7c(F)c(F)c(F)c(F)c7F)c7ccc4[nH]7)C=C6)C=C5)cc2)=C3)cc1
REMARK SMILES IDX 28 1 27 2 26 3 25 4 23 5 24 6 22 8 9 9 10 10 15 11 11 12
REMARK SMILES IDX 14 13 16 14 12 15 13 16 98 17 17 18 8 19 5 20 6 21 100 22
REMARK SMILES IDX 7 23 99 24 4 25 2 26 1 27 3 28 18 29 19 30 20 31 21 32 29 33
REMARK SMILES IDX 30 34 31 35 32 36 33 37 34 39 35 40 36 41 97 42 37 43 96 44
REMARK SMILES IDX 38 45 39 46 40 47 90 48 41 49 95 50 89 51 91 52 42 53 94 54
REMARK SMILES IDX 88 55 87 56 43 58 75 59 55 60 74 61 56 62 59 63 73 64 92 65
REMARK SMILES IDX 57 66 58 67 72 69 93 70 60 71 44 72 45 73 53 74 46 75 47 76
REMARK SMILES IDX 51 77 54 78 48 79 49 80 52 81 50 82 76 83 77 84 85 85 78 86
REMARK SMILES IDX 79 87 83 88 86 89 80 90 81 91 84 92 82 93 61 94 62 95 70 96
REMARK SMILES IDX 63 97 64 98 68 99 71 100 65 101 66 102 69 103 67 104
REMARK H PARENT 25 7 32 38 91 57 59 68
REMARK Flexibility Score: inf
ROOT
ATOM      1  C   UNL A   1      35.445  20.519  25.210  1.00  0.00     0.002 C 
ENDROOT
BRANCH   1   2
ATOM      2  C   UNL A   1      34.551  19.421  24.607  1.00  0.00     0.021 C 
BRANCH   2   3
ATOM      3  C   UNL A   1      33.068  19.797  24.487  1.00  0.00     0.116 C 
BRANCH   3   4
ATOM      4  N   UNL A   1      32.896  20.797  23.454  1.00  0.00    -0.352 N 
ATOM      5  C   UNL A   1      32.155  21.926  23.595  1.00  0.00     0.251 C 
ATOM      6  O   UNL A   1      31.287  22.201  22.777  1.00  0.00    -0.270 OA
ATOM      7  H   UNL A   1      33.345  20.648  22.591  1.00  0.00     0.163 HD
BRANCH   5   8
ATOM      8  C   UNL A   1      32.584  22.852  24.683  1.00  0.00     0.067 C 
ATOM      9  C   UNL A   1      31.026  26.279  23.182  1.00  0.00     0.026 A 
ATOM     10  C   UNL A   1      31.361  26.288  21.799  1.00  0.00     0.033 A 
ATOM     11  C   UNL A   1      31.710  25.342  23.977  1.00  0.00     0.135 A 
ATOM     12  C   UNL A   1      32.419  25.554  21.273  1.00  0.00     0.042 A 
ATOM     13  C   UNL A   1      32.861  24.703  23.447  1.00  0.00     0.019 A 
ATOM     14  O   UNL A   1      31.283  24.943  25.240  1.00  0.00    -0.475 OA
ATOM     15  Cl  UNL A   1      32.726  25.590  19.582  1.00  0.00    -0.084 Cl
ATOM     16  C   UNL A   1      33.230  24.819  22.110  1.00  0.00     0.032 A 
ATOM     17  C   UNL A   1      33.550  23.707  24.294  1.00  0.00     0.025 C 
ATOM     18  C   UNL A   1      31.451  23.474  25.484  1.00  0.00     0.314 C 
BRANCH   9  19
ATOM     19  C   UNL A   1      30.156  27.410  23.607  1.00  0.00    -0.015 A 
ATOM     20  C   UNL A   1      28.609  29.796  23.263  1.00  0.00    -0.048 A 
ATOM     21  C   UNL A   1      28.023  28.534  23.139  1.00  0.00     0.004 A 
ATOM     22  C   UNL A   1      29.957  29.854  23.643  1.00  0.00     0.004 A 
ATOM     23  C   UNL A   1      28.770  27.366  23.353  1.00  0.00     0.009 A 
ATOM     24  C   UNL A   1      30.717  28.680  23.822  1.00  0.00     0.009 A 
BRANCH  20  25
ATOM     25  C   UNL A   1      27.847  31.066  22.918  1.00  0.00     0.038 C 
BRANCH  25  26
ATOM     26  C   UNL A   1      28.640  32.133  22.129  1.00  0.00    -0.013 C 
ATOM     27  C   UNL A   1      27.999  32.423  20.770  1.00  0.00     0.008 C 
ATOM     28  C   UNL A   1      28.753  33.438  22.925  1.00  0.00     0.008 C 
ENDBRANCH  25  26
ENDBRANCH  20  25
ENDBRANCH   9  19
BRANCH  18  29
ATOM     29  C   UNL A   1      31.704  23.139  26.973  1.00  0.00     0.429 C 
ATOM     30  F   UNL A   1      32.549  22.099  27.143  1.00  0.00    -0.167 F 
ATOM     31  F   UNL A   1      32.217  24.203  27.636  1.00  0.00    -0.167 F 
ATOM     32  F   UNL A   1      30.557  22.812  27.631  1.00  0.00    -0.167 F 
ENDBRANCH  18  29
ENDBRANCH   5   8
ENDBRANCH   3   4
ENDBRANCH   2   3
ENDBRANCH   1   2
BRANCH   1  33
ATOM     33  C   UNL A   1      36.814  20.671  24.545  1.00  0.00     0.002 C 
BRANCH  33  34
ATOM     34  C   UNL A   1      37.828  19.595  24.931  1.00  0.00     0.021 C 
BRANCH  34  35
ATOM     35  C   UNL A   1      38.932  20.078  25.864  1.00  0.00     0.116 C 
BRANCH  35  36
ATOM     36  N   UNL A   1      40.059  19.161  25.909  1.00  0.00    -0.352 N 
ATOM     37  C   UNL A   1      41.392  19.439  26.063  1.00  0.00     0.251 C 
ATOM     38  H   UNL A   1      39.834  18.207  25.817  1.00  0.00     0.163 HD
ATOM     39  O   UNL A   1      42.232  18.554  25.903  1.00  0.00    -0.269 OA
BRANCH  37  40
ATOM     40  C   UNL A   1      41.823  20.811  26.399  1.00  0.00     0.039 A 
ATOM     41  C   UNL A   1      42.083  21.125  27.733  1.00  0.00     0.014 A 
ATOM     42  C   UNL A   1      41.966  21.783  25.405  1.00  0.00     0.014 A 
ATOM     43  C   UNL A   1      42.530  22.404  28.065  1.00  0.00     0.010 A 
ATOM     44  C   UNL A   1      42.494  23.030  25.726  1.00  0.00     0.010 A 
ATOM     45  C   UNL A   1      42.766  23.359  27.062  1.00  0.00    -0.014 A 
BRANCH  45  46
ATOM     46  C   UNL A   1      43.281  24.708  27.405  1.00  0.00     0.031 A 
ATOM     47  C   UNL A   1      42.374  25.730  28.033  1.00  0.00     0.074 A 
ATOM     48  C   UNL A   1      44.560  25.024  27.119  1.00  0.00     0.049 A 
ATOM     49  N   UNL A   1      42.640  26.960  28.399  1.00  0.00    -0.248 NA
ATOM     50  C   UNL A   1      40.977  25.329  28.256  1.00  0.00     0.031 C 
ATOM     51  C   UNL A   1      45.522  24.137  26.462  1.00  0.00     0.029 A 
ATOM     52  N   UNL A   1      45.271  26.175  27.348  1.00  0.00    -0.354 N 
ATOM     53  C   UNL A   1      41.446  27.475  28.887  1.00  0.00     0.074 A 
ATOM     54  C   UNL A   1      40.440  26.451  28.709  1.00  0.00     0.031 C 
ATOM     55  C   UNL A   1      46.705  24.764  26.371  1.00  0.00     0.029 A 
ATOM     56  C   UNL A   1      46.577  26.107  26.927  1.00  0.00     0.049 A 
ATOM     57  H   UNL A   1      44.883  26.973  27.772  1.00  0.00     0.167 HD
ATOM     58  C   UNL A   1      41.216  28.682  29.456  1.00  0.00     0.037 A 
ATOM     59  C   UNL A   1      47.560  27.026  26.985  1.00  0.00     0.037 A 
ATOM     60  C   UNL A   1      42.224  29.692  29.645  1.00  0.00     0.049 A 
ATOM     61  C   UNL A   1      47.274  28.361  27.618  1.00  0.00     0.074 A 
ATOM     62  C   UNL A   1      42.107  30.926  30.261  1.00  0.00     0.029 A 
ATOM     63  N   UNL A   1      43.538  29.585  29.213  1.00  0.00    -0.354 N 
ATOM     64  N   UNL A   1      46.161  28.809  28.146  1.00  0.00    -0.248 NA
ATOM     65  C   UNL A   1      48.390  29.317  27.671  1.00  0.00     0.031 C 
ATOM     66  C   UNL A   1      43.333  31.589  30.150  1.00  0.00     0.029 A 
ATOM     67  C   UNL A   1      44.235  30.743  29.525  1.00  0.00     0.049 A 
ATOM     68  H   UNL A   1      43.921  28.803  28.753  1.00  0.00     0.167 HD
ATOM     69  C   UNL A   1      46.448  30.082  28.622  1.00  0.00     0.074 A 
ATOM     70  C   UNL A   1      47.849  30.325  28.338  1.00  0.00     0.031 C 
ATOM     71  C   UNL A   1      45.629  30.971  29.236  1.00  0.00     0.037 A 
BRANCH  58  72
ATOM     72  C   UNL A   1      39.815  28.978  29.917  1.00  0.00     0.064 A 
ATOM     73  C   UNL A   1      38.865  29.563  29.066  1.00  0.00     0.173 A 
ATOM     74  C   UNL A   1      39.407  28.639  31.216  1.00  0.00     0.173 A 
ATOM     75  F   UNL A   1      39.204  29.917  27.817  1.00  0.00    -0.203 F 
ATOM     76  C   UNL A   1      37.571  29.828  29.508  1.00  0.00     0.198 A 
ATOM     77  C   UNL A   1      38.103  28.874  31.644  1.00  0.00     0.198 A 
ATOM     78  F   UNL A   1      40.272  28.074  32.071  1.00  0.00    -0.203 F 
ATOM     79  F   UNL A   1      36.699  30.439  28.694  1.00  0.00    -0.200 F 
ATOM     80  C   UNL A   1      37.189  29.477  30.793  1.00  0.00     0.200 A 
ATOM     81  F   UNL A   1      37.731  28.519  32.882  1.00  0.00    -0.200 F 
ATOM     82  F   UNL A   1      35.941  29.724  31.214  1.00  0.00    -0.200 F 
ENDBRANCH  58  72
BRANCH  59  83
ATOM     83  C   UNL A   1      48.911  26.706  26.452  1.00  0.00     0.064 A 
ATOM     84  C   UNL A   1      49.889  26.118  27.268  1.00  0.00     0.173 A 
ATOM     85  C   UNL A   1      49.258  26.994  25.125  1.00  0.00     0.173 A 
ATOM     86  F   UNL A   1      49.612  25.841  28.550  1.00  0.00    -0.203 F 
ATOM     87  C   UNL A   1      51.169  25.857  26.784  1.00  0.00     0.198 A 
ATOM     88  C   UNL A   1      50.529  26.702  24.632  1.00  0.00     0.198 A 
ATOM     89  F   UNL A   1      48.359  27.551  24.300  1.00  0.00    -0.203 F 
ATOM     90  F   UNL A   1      52.101  25.347  27.601  1.00  0.00    -0.200 F 
ATOM     91  C   UNL A   1      51.487  26.145  25.465  1.00  0.00     0.200 A 
ATOM     92  F   UNL A   1      50.825  26.965  23.352  1.00  0.00    -0.200 F 
ATOM     93  F   UNL A   1      52.717  25.892  24.999  1.00  0.00    -0.200 F 
ENDBRANCH  59  83
BRANCH  71  94
ATOM     94  C   UNL A   1      46.236  32.274  29.675  1.00  0.00     0.064 A 
ATOM     95  C   UNL A   1      46.344  33.371  28.808  1.00  0.00     0.173 A 
ATOM     96  C   UNL A   1      46.703  32.429  30.990  1.00  0.00     0.173 A 
ATOM     97  F   UNL A   1      45.925  33.271  27.537  1.00  0.00    -0.203 F 
ATOM     98  C   UNL A   1      46.936  34.560  29.227  1.00  0.00     0.198 A 
ATOM     99  C   UNL A   1      47.259  33.632  31.417  1.00  0.00     0.198 A 
ATOM    100  F   UNL A   1      46.616  31.417  31.865  1.00  0.00    -0.203 F 
ATOM    101  F   UNL A   1      47.089  35.570  28.360  1.00  0.00    -0.200 F 
ATOM    102  C   UNL A   1      47.386  34.692  30.532  1.00  0.00     0.200 A 
ATOM    103  F   UNL A   1      47.677  33.764  32.683  1.00  0.00    -0.200 F 
ATOM    104  F   UNL A   1      47.953  35.838  30.933  1.00  0.00    -0.200 F 
ENDBRANCH  71  94
ENDBRANCH  45  46
ENDBRANCH  37  40
ENDBRANCH  35  36
ENDBRANCH  34  35
ENDBRANCH  33  34
ENDBRANCH   1  33
TORSDOF 17
ENDMDL
MODEL 3
REMARK VINA RESULT:     -12.3      1.121      2.207
REMARK SMILES CC(C)Cc1ccc(-c2cc(Cl)cc3c2O[C@H](C(F)(F)F)C(C(=O)NCCCCCCNC(=O)c2ccc(-c4c5nc(c(-c6c(F)c(F)c(F)c(F)c6F)c6ccc([nH]6)c(-c6c(F)c(F)c(F)c(F)c6F)c6nc(c(-c7c(F)c(F)c(F)c(F)c7F)c7ccc4[nH]7)C=C6)C=C5)cc2)=C3)cc1
REMARK SMILES IDX 28 1 27 2 26 3 25 4 23 5 24 6 22 8 9 9 10 10 15 11 11 12
REMARK SMILES IDX 14 13 16 14 12 15 13 16 98 17 17 18 8 19 5 20 6 21 100 22
REMARK SMILES IDX 7 23 99 24 4 25 2 26 1 27 3 28 18 29 19 30 20 31 21 32 29 33
REMARK SMILES IDX 30 34 31 35 32 36 33 37 34 39 35 40 36 41 97 42 37 43 96 44
REMARK SMILES IDX 38 45 39 46 40 47 90 48 41 49 95 50 89 51 91 52 42 53 94 54
REMARK SMILES IDX 88 55 87 56 43 58 75 59 55 60 74 61 56 62 59 63 73 64 92 65
REMARK SMILES IDX 57 66 58 67 72 69 93 70 60 71 44 72 45 73 53 74 46 75 47 76
REMARK SMILES IDX 51 77 54 78 48 79 49 80 52 81 50 82 76 83 77 84 85 85 78 86
REMARK SMILES IDX 79 87 83 88 86 89 80 90 81 91 84 92 82 93 61 94 62 95 70 96
REMARK SMILES IDX 63 97 64 98 68 99 71 100 65 101 66 102 69 103 67 104
REMARK H PARENT 25 7 32 38 91 57 59 68
REMARK Flexibility Score: inf
ROOT
ATOM      1  C   UNL A   1      37.560  21.572  24.642  1.00  0.00     0.002 C 
ENDROOT
BRANCH   1   2
ATOM      2  C   UNL A   1      36.446  22.630  24.714  1.00  0.00     0.021 C 
BRANCH   2   3
ATOM      3  C   UNL A   1      35.021  22.060  24.728  1.00  0.00     0.116 C 
BRANCH   3   4
ATOM      4  N   UNL A   1      34.167  22.848  23.864  1.00  0.00    -0.352 N 
ATOM      5  C   UNL A   1      32.824  22.969  24.018  1.00  0.00     0.251 C 
ATOM      6  O   UNL A   1      32.071  22.737  23.080  1.00  0.00    -0.270 OA
ATOM      7  H   UNL A   1      34.588  23.327  23.115  1.00  0.00     0.163 HD
BRANCH   5   8
ATOM      8  C   UNL A   1      32.367  23.552  25.312  1.00  0.00     0.067 C 
ATOM      9  C   UNL A   1      31.299  27.220  23.962  1.00  0.00     0.026 A 
ATOM     10  C   UNL A   1      32.350  27.640  23.100  1.00  0.00     0.033 A 
ATOM     11  C   UNL A   1      31.580  26.113  24.783  1.00  0.00     0.135 A 
ATOM     12  C   UNL A   1      33.639  27.122  23.170  1.00  0.00     0.042 A 
ATOM     13  C   UNL A   1      32.927  25.689  24.927  1.00  0.00     0.019 A 
ATOM     14  O   UNL A   1      30.600  25.352  25.413  1.00  0.00    -0.475 OA
ATOM     15  Cl  UNL A   1      34.837  27.656  22.060  1.00  0.00    -0.084 Cl
ATOM     16  C   UNL A   1      33.957  26.199  24.143  1.00  0.00     0.032 A 
ATOM     17  C   UNL A   1      33.192  24.510  25.777  1.00  0.00     0.025 C 
ATOM     18  C   UNL A   1      30.885  23.881  25.385  1.00  0.00     0.314 C 
BRANCH   9  19
ATOM     19  C   UNL A   1      30.141  28.153  24.013  1.00  0.00    -0.015 A 
ATOM     20  C   UNL A   1      28.375  30.191  23.044  1.00  0.00    -0.048 A 
ATOM     21  C   UNL A   1      28.114  28.839  22.806  1.00  0.00     0.004 A 
ATOM     22  C   UNL A   1      29.482  30.510  23.843  1.00  0.00     0.004 A 
ATOM     23  C   UNL A   1      28.953  27.839  23.320  1.00  0.00     0.009 A 
ATOM     24  C   UNL A   1      30.346  29.507  24.328  1.00  0.00     0.009 A 
BRANCH  20  25
ATOM     25  C   UNL A   1      27.546  31.289  22.397  1.00  0.00     0.038 C 
BRANCH  25  26
ATOM     26  C   UNL A   1      28.345  32.460  21.781  1.00  0.00    -0.013 C 
ATOM     27  C   UNL A   1      27.603  33.093  20.601  1.00  0.00     0.008 C 
ATOM     28  C   UNL A   1      28.642  33.538  22.829  1.00  0.00     0.008 C 
ENDBRANCH  25  26
ENDBRANCH  20  25
ENDBRANCH   9  19
BRANCH  18  29
ATOM     29  C   UNL A   1      30.308  23.135  26.612  1.00  0.00     0.429 C 
ATOM     30  F   UNL A   1      29.797  21.924  26.300  1.00  0.00    -0.167 F 
ATOM     31  F   UNL A   1      31.253  22.953  27.565  1.00  0.00    -0.167 F 
ATOM     32  F   UNL A   1      29.304  23.831  27.214  1.00  0.00    -0.167 F 
ENDBRANCH  18  29
ENDBRANCH   5   8
ENDBRANCH   3   4
ENDBRANCH   2   3
ENDBRANCH   1   2
BRANCH   1  33
ATOM     33  C   UNL A   1      37.111  20.143  24.953  1.00  0.00     0.002 C 
BRANCH  33  34
ATOM     34  C   UNL A   1      38.256  19.159  25.189  1.00  0.00     0.021 C 
BRANCH  34  35
ATOM     35  C   UNL A   1      39.503  19.782  25.803  1.00  0.00     0.116 C 
BRANCH  35  36
ATOM     36  N   UNL A   1      40.621  18.853  25.851  1.00  0.00    -0.352 N 
ATOM     37  C   UNL A   1      41.951  19.112  26.056  1.00  0.00     0.251 C 
ATOM     38  H   UNL A   1      40.390  17.905  25.719  1.00  0.00     0.163 HD
ATOM     39  O   UNL A   1      42.787  18.225  25.891  1.00  0.00    -0.269 OA
BRANCH  37  40
ATOM     40  C   UNL A   1      42.383  20.467  26.452  1.00  0.00     0.039 A 
ATOM     41  C   UNL A   1      42.856  21.336  25.467  1.00  0.00     0.014 A 
ATOM     42  C   UNL A   1      42.327  20.880  27.786  1.00  0.00     0.014 A 
ATOM     43  C   UNL A   1      43.231  22.634  25.815  1.00  0.00     0.010 A 
ATOM     44  C   UNL A   1      42.619  22.199  28.117  1.00  0.00     0.010 A 
ATOM     45  C   UNL A   1      43.089  23.086  27.137  1.00  0.00    -0.014 A 
BRANCH  45  46
ATOM     46  C   UNL A   1      43.447  24.478  27.505  1.00  0.00     0.031 A 
ATOM     47  C   UNL A   1      44.886  24.917  27.507  1.00  0.00     0.074 A 
ATOM     48  C   UNL A   1      42.477  25.340  27.870  1.00  0.00     0.049 A 
ATOM     49  N   UNL A   1      45.394  26.088  27.803  1.00  0.00    -0.248 NA
ATOM     50  C   UNL A   1      45.890  23.901  27.156  1.00  0.00     0.031 C 
ATOM     51  C   UNL A   1      41.052  25.017  27.960  1.00  0.00     0.029 A 
ATOM     52  N   UNL A   1      42.542  26.662  28.231  1.00  0.00    -0.354 N 
ATOM     53  C   UNL A   1      46.770  25.944  27.680  1.00  0.00     0.074 A 
ATOM     54  C   UNL A   1      47.023  24.559  27.348  1.00  0.00     0.031 C 
ATOM     55  C   UNL A   1      40.375  26.120  28.317  1.00  0.00     0.029 A 
ATOM     56  C   UNL A   1      41.318  27.215  28.518  1.00  0.00     0.049 A 
ATOM     57  H   UNL A   1      43.386  27.167  28.280  1.00  0.00     0.167 HD
ATOM     58  C   UNL A   1      47.734  26.888  27.805  1.00  0.00     0.037 A 
ATOM     59  C   UNL A   1      40.994  28.465  28.900  1.00  0.00     0.037 A 
ATOM     60  C   UNL A   1      47.476  28.269  28.119  1.00  0.00     0.049 A 
ATOM     61  C   UNL A   1      42.087  29.492  29.037  1.00  0.00     0.074 A 
ATOM     62  C   UNL A   1      48.376  29.316  28.213  1.00  0.00     0.029 A 
ATOM     63  N   UNL A   1      46.222  28.794  28.396  1.00  0.00    -0.354 N 
ATOM     64  N   UNL A   1      43.377  29.364  28.842  1.00  0.00    -0.248 NA
ATOM     65  C   UNL A   1      41.672  30.844  29.437  1.00  0.00     0.031 C 
ATOM     66  C   UNL A   1      47.676  30.461  28.605  1.00  0.00     0.029 A 
ATOM     67  C   UNL A   1      46.329  30.145  28.689  1.00  0.00     0.049 A 
ATOM     68  H   UNL A   1      45.380  28.284  28.387  1.00  0.00     0.167 HD
ATOM     69  C   UNL A   1      43.924  30.621  29.064  1.00  0.00     0.074 A 
ATOM     70  C   UNL A   1      42.820  31.503  29.387  1.00  0.00     0.031 C 
ATOM     71  C   UNL A   1      45.221  31.011  29.008  1.00  0.00     0.037 A 
BRANCH  58  72
ATOM     72  C   UNL A   1      49.160  26.457  27.600  1.00  0.00     0.064 A 
ATOM     73  C   UNL A   1      49.693  26.252  26.318  1.00  0.00     0.173 A 
ATOM     74  C   UNL A   1      50.015  26.280  28.699  1.00  0.00     0.173 A 
ATOM     75  F   UNL A   1      48.917  26.397  25.233  1.00  0.00    -0.203 F 
ATOM     76  C   UNL A   1      51.017  25.855  26.146  1.00  0.00     0.198 A 
ATOM     77  C   UNL A   1      51.347  25.916  28.522  1.00  0.00     0.198 A 
ATOM     78  F   UNL A   1      49.560  26.466  29.947  1.00  0.00    -0.203 F 
ATOM     79  F   UNL A   1      51.487  25.612  24.914  1.00  0.00    -0.200 F 
ATOM     80  C   UNL A   1      51.845  25.695  27.246  1.00  0.00     0.200 A 
ATOM     81  F   UNL A   1      52.150  25.778  29.586  1.00  0.00    -0.200 F 
ATOM     82  F   UNL A   1      53.121  25.322  27.079  1.00  0.00    -0.200 F 
ENDBRANCH  58  72
BRANCH  59  83
ATOM     83  C   UNL A   1      39.574  28.822  29.157  1.00  0.00     0.064 A 
ATOM     84  C   UNL A   1      39.016  28.690  30.437  1.00  0.00     0.173 A 
ATOM     85  C   UNL A   1      38.741  29.286  28.129  1.00  0.00     0.173 A 
ATOM     86  F   UNL A   1      39.767  28.233  31.450  1.00  0.00    -0.203 F 
ATOM     87  C   UNL A   1      37.674  28.983  30.672  1.00  0.00     0.198 A 
ATOM     88  C   UNL A   1      37.407  29.610  28.372  1.00  0.00     0.198 A 
ATOM     89  F   UNL A   1      39.226  29.436  26.887  1.00  0.00    -0.203 F 
ATOM     90  F   UNL A   1      37.154  28.795  31.893  1.00  0.00    -0.200 F 
ATOM     91  C   UNL A   1      36.872  29.447  29.640  1.00  0.00     0.200 A 
ATOM     92  F   UNL A   1      36.642  30.075  27.376  1.00  0.00    -0.200 F 
ATOM     93  F   UNL A   1      35.582  29.729  29.867  1.00  0.00    -0.200 F 
ENDBRANCH  59  83
BRANCH  71  94
ATOM     94  C   UNL A   1      45.513  32.463  29.267  1.00  0.00     0.064 A 
ATOM     95  C   UNL A   1      45.479  33.420  28.242  1.00  0.00     0.173 A 
ATOM     96  C   UNL A   1      45.817  32.903  30.565  1.00  0.00     0.173 A 
ATOM     97  F   UNL A   1      45.207  33.051  26.981  1.00  0.00    -0.203 F 
ATOM     98  C   UNL A   1      45.779  34.756  28.499  1.00  0.00     0.198 A 
ATOM     99  C   UNL A   1      46.078  34.245  30.825  1.00  0.00     0.198 A 
ATOM    100  F   UNL A   1      45.853  32.033  31.584  1.00  0.00    -0.203 F 
ATOM    101  F   UNL A   1      45.807  35.639  27.491  1.00  0.00    -0.200 F 
ATOM    102  C   UNL A   1      46.072  35.168  29.790  1.00  0.00     0.200 A 
ATOM    103  F   UNL A   1      46.344  34.645  32.076  1.00  0.00    -0.200 F 
ATOM    104  F   UNL A   1      46.360  36.454  30.035  1.00  0.00    -0.200 F 
ENDBRANCH  71  94
ENDBRANCH  45  46
ENDBRANCH  37  40
ENDBRANCH  35  36
ENDBRANCH  34  35
ENDBRANCH  33  34
ENDBRANCH   1  33
TORSDOF 17
ENDMDL
