MODEL 1
REMARK VINA RESULT:     -10.7      0.000      0.000
REMARK SMILES CCN(CC(=O)NC(C)C)C(=O)N[C@H]1C=C[C@H](C(=O)NCCCCCCNC(=O)c2ccc(-c3c4nc(c(-c5c(F)c(F)c(F)c(F)c5F)c5ccc([nH]5)c(-c5c(F)c(F)c(F)c(F)c5F)c5nc(c(-c6c(F)c(F)c(F)c(F)c6F)c6ccc3[nH]6)C=C5)C=C4)cc2)C1
REMARK SMILES IDX 22 1 21 2 20 3 18 4 19 5 17 7 14 8 15 9 93 10 16 11 13 12
REMARK SMILES IDX 11 13 12 14 3 16 2 17 1 18 4 19 5 20 6 21 7 22 8 24 9 25
REMARK SMILES IDX 10 26 23 27 24 28 25 29 26 30 27 31 28 32 29 34 30 35 31 36
REMARK SMILES IDX 92 37 32 38 91 39 33 40 34 41 35 42 85 43 36 44 90 45 84 46
REMARK SMILES IDX 86 47 37 48 89 49 83 50 82 51 38 53 70 54 50 55 69 56 51 57
REMARK SMILES IDX 54 58 68 59 87 60 52 61 53 62 67 64 88 65 55 66 39 67 40 68
REMARK SMILES IDX 48 69 41 70 42 71 46 72 49 73 43 74 44 75 47 76 45 77 71 78
REMARK SMILES IDX 72 79 80 80 73 81 74 82 78 83 81 84 75 85 76 86 79 87 77 88
REMARK SMILES IDX 56 89 57 90 65 91 58 92 59 93 63 94 66 95 60 96 61 97 64 98
REMARK SMILES IDX 62 99
REMARK H PARENT 20 6 13 15 7 23 27 33 86 52 54 63
REMARK Flexibility Score: inf
ROOT
ATOM      1  C   UNL A   1      38.887  21.713  26.013  1.00  0.00     0.021 C 
ENDROOT
BRANCH   1   2
ATOM      2  C   UNL A   1      37.979  22.910  25.735  1.00  0.00     0.116 C 
BRANCH   2   3
ATOM      3  N   UNL A   1      36.732  22.807  26.464  1.00  0.00    -0.356 N 
ATOM      4  C   UNL A   1      35.501  22.427  26.016  1.00  0.00     0.227 C 
ATOM      5  O   UNL A   1      34.594  22.343  26.845  1.00  0.00    -0.274 OA
ATOM      6  H   UNL A   1      36.781  23.043  27.418  1.00  0.00     0.163 HD
BRANCH   4   7
ATOM      7  C   UNL A   1      35.325  22.101  24.526  1.00  0.00     0.103 C 
ATOM      8  C   UNL A   1      34.013  23.876  23.526  1.00  0.00     0.107 C 
ATOM      9  C   UNL A   1      33.211  22.621  23.637  1.00  0.00    -0.006 C 
ATOM     10  C   UNL A   1      35.445  23.350  23.638  1.00  0.00     0.047 C 
ATOM     11  C   UNL A   1      33.929  21.644  24.205  1.00  0.00    -0.016 C 
BRANCH   8  12
ATOM     12  N   UNL A   1      33.734  24.511  22.263  1.00  0.00    -0.332 N 
ATOM     13  C   UNL A   1      32.930  25.479  21.797  1.00  0.00     0.318 C 
ATOM     14  O   UNL A   1      33.033  25.687  20.583  1.00  0.00    -0.249 OA
ATOM     15  H   UNL A   1      34.288  24.130  21.544  1.00  0.00     0.165 HD
BRANCH  13  16
ATOM     16  N   UNL A   1      32.060  26.203  22.567  1.00  0.00    -0.316 N 
BRANCH  16  17
ATOM     17  C   UNL A   1      30.856  25.498  23.029  1.00  0.00     0.118 C 
ATOM     18  C   UNL A   1      30.042  26.281  24.052  1.00  0.00     0.027 C 
ENDBRANCH  16  17
BRANCH  16  19
ATOM     19  C   UNL A   1      32.149  27.627  22.914  1.00  0.00     0.221 C 
BRANCH  19  20
ATOM     20  C   UNL A   1      33.559  28.150  23.250  1.00  0.00     0.239 C 
ATOM     21  O   UNL A   1      34.170  28.874  22.460  1.00  0.00    -0.273 OA
ATOM     22  N   UNL A   1      34.129  27.942  24.470  1.00  0.00    -0.352 N 
ATOM     23  H   UNL A   1      35.110  27.851  24.488  1.00  0.00     0.163 HD
BRANCH  22  24
ATOM     24  C   UNL A   1      33.445  27.837  25.746  1.00  0.00     0.075 C 
ATOM     25  C   UNL A   1      33.254  26.384  26.153  1.00  0.00     0.030 C 
ATOM     26  C   UNL A   1      34.243  28.613  26.791  1.00  0.00     0.030 C 
ENDBRANCH  22  24
ENDBRANCH  19  20
ENDBRANCH  16  19
ENDBRANCH  13  16
ENDBRANCH   8  12
ENDBRANCH   4   7
ENDBRANCH   2   3
ENDBRANCH   1   2
BRANCH   1  27
ATOM     27  C   UNL A   1      40.183  22.060  26.756  1.00  0.00     0.002 C 
BRANCH  27  28
ATOM     28  C   UNL A   1      41.461  21.483  26.140  1.00  0.00     0.002 C 
BRANCH  28  29
ATOM     29  C   UNL A   1      41.453  19.967  25.929  1.00  0.00     0.021 C 
BRANCH  29  30
ATOM     30  C   UNL A   1      42.712  19.250  26.406  1.00  0.00     0.116 C 
BRANCH  30  31
ATOM     31  N   UNL A   1      43.540  18.796  25.301  1.00  0.00    -0.352 N 
ATOM     32  C   UNL A   1      44.401  19.508  24.504  1.00  0.00     0.251 C 
ATOM     33  H   UNL A   1      43.473  17.836  25.093  1.00  0.00     0.163 HD
ATOM     34  O   UNL A   1      44.875  18.996  23.493  1.00  0.00    -0.269 OA
BRANCH  32  35
ATOM     35  C   UNL A   1      44.740  20.905  24.846  1.00  0.00     0.039 A 
ATOM     36  C   UNL A   1      44.419  21.919  23.940  1.00  0.00     0.014 A 
ATOM     37  C   UNL A   1      45.370  21.218  26.054  1.00  0.00     0.014 A 
ATOM     38  C   UNL A   1      44.660  23.253  24.278  1.00  0.00     0.010 A 
ATOM     39  C   UNL A   1      45.546  22.551  26.419  1.00  0.00     0.010 A 
ATOM     40  C   UNL A   1      45.185  23.582  25.539  1.00  0.00    -0.014 A 
BRANCH  40  41
ATOM     41  C   UNL A   1      45.329  24.997  25.968  1.00  0.00     0.031 A 
ATOM     42  C   UNL A   1      46.676  25.666  25.943  1.00  0.00     0.074 A 
ATOM     43  C   UNL A   1      44.256  25.656  26.450  1.00  0.00     0.049 A 
ATOM     44  N   UNL A   1      47.015  26.856  26.367  1.00  0.00    -0.248 NA
ATOM     45  C   UNL A   1      47.794  24.886  25.388  1.00  0.00     0.031 C 
ATOM     46  C   UNL A   1      42.904  25.105  26.560  1.00  0.00     0.029 A 
ATOM     47  N   UNL A   1      44.136  26.927  26.955  1.00  0.00    -0.354 N 
ATOM     48  C   UNL A   1      48.382  26.964  26.143  1.00  0.00     0.074 A 
ATOM     49  C   UNL A   1      48.819  25.702  25.584  1.00  0.00     0.031 C 
ATOM     50  C   UNL A   1      42.090  26.034  27.084  1.00  0.00     0.029 A 
ATOM     51  C   UNL A   1      42.868  27.228  27.395  1.00  0.00     0.049 A 
ATOM     52  H   UNL A   1      44.886  27.563  26.998  1.00  0.00     0.167 HD
ATOM     53  C   UNL A   1      49.192  28.024  26.369  1.00  0.00     0.037 A 
ATOM     54  C   UNL A   1      42.393  28.333  28.002  1.00  0.00     0.037 A 
ATOM     55  C   UNL A   1      48.749  29.287  26.903  1.00  0.00     0.049 A 
ATOM     56  C   UNL A   1      43.329  29.484  28.266  1.00  0.00     0.074 A 
ATOM     57  C   UNL A   1      49.484  30.441  27.105  1.00  0.00     0.029 A 
ATOM     58  N   UNL A   1      47.456  29.557  27.329  1.00  0.00    -0.354 N 
ATOM     59  N   UNL A   1      44.602  29.600  27.980  1.00  0.00    -0.248 NA
ATOM     60  C   UNL A   1      42.758  30.661  28.936  1.00  0.00     0.031 C 
ATOM     61  C   UNL A   1      48.653  31.390  27.709  1.00  0.00     0.029 A 
ATOM     62  C   UNL A   1      47.384  30.849  27.824  1.00  0.00     0.049 A 
ATOM     63  H   UNL A   1      46.703  28.924  27.285  1.00  0.00     0.167 HD
ATOM     64  C   UNL A   1      44.975  30.869  28.403  1.00  0.00     0.074 A 
ATOM     65  C   UNL A   1      43.788  31.493  28.946  1.00  0.00     0.031 C 
ATOM     66  C   UNL A   1      46.193  31.463  28.350  1.00  0.00     0.037 A 
BRANCH  53  67
ATOM     67  C   UNL A   1      50.651  27.881  26.044  1.00  0.00     0.064 A 
ATOM     68  C   UNL A   1      51.600  27.578  27.032  1.00  0.00     0.173 A 
ATOM     69  C   UNL A   1      51.093  27.964  24.714  1.00  0.00     0.173 A 
ATOM     70  F   UNL A   1      51.232  27.498  28.320  1.00  0.00    -0.203 F 
ATOM     71  C   UNL A   1      52.938  27.375  26.702  1.00  0.00     0.198 A 
ATOM     72  C   UNL A   1      52.425  27.729  24.385  1.00  0.00     0.198 A 
ATOM     73  F   UNL A   1      50.225  28.245  23.731  1.00  0.00    -0.203 F 
ATOM     74  F   UNL A   1      53.833  27.117  27.667  1.00  0.00    -0.200 F 
ATOM     75  C   UNL A   1      53.347  27.439  25.378  1.00  0.00     0.200 A 
ATOM     76  F   UNL A   1      52.814  27.776  23.103  1.00  0.00    -0.200 F 
ATOM     77  F   UNL A   1      54.630  27.221  25.061  1.00  0.00    -0.200 F 
ENDBRANCH  53  67
BRANCH  54  78
ATOM     78  C   UNL A   1      40.966  28.411  28.417  1.00  0.00     0.064 A 
ATOM     79  C   UNL A   1      39.987  28.914  27.548  1.00  0.00     0.173 A 
ATOM     80  C   UNL A   1      40.559  28.033  29.705  1.00  0.00     0.173 A 
ATOM     81  F   UNL A   1      40.328  29.309  26.312  1.00  0.00    -0.203 F 
ATOM     82  C   UNL A   1      38.666  29.072  27.963  1.00  0.00     0.198 A 
ATOM     83  C   UNL A   1      39.230  28.157  30.107  1.00  0.00     0.198 A 
ATOM     84  F   UNL A   1      41.452  27.541  30.576  1.00  0.00    -0.203 F 
ATOM     85  F   UNL A   1      37.768  29.622  27.135  1.00  0.00    -0.200 F 
ATOM     86  C   UNL A   1      38.288  28.690  29.241  1.00  0.00     0.200 A 
ATOM     87  F   UNL A   1      38.866  27.771  31.337  1.00  0.00    -0.200 F 
ATOM     88  F   UNL A   1      37.020  28.850  29.642  1.00  0.00    -0.200 F 
ENDBRANCH  54  78
BRANCH  66  89
ATOM     89  C   UNL A   1      46.294  32.874  28.855  1.00  0.00     0.064 A 
ATOM     90  C   UNL A   1      46.072  33.978  28.017  1.00  0.00     0.173 A 
ATOM     91  C   UNL A   1      46.584  33.125  30.206  1.00  0.00     0.173 A 
ATOM     92  F   UNL A   1      45.808  33.794  26.715  1.00  0.00    -0.203 F 
ATOM     93  C   UNL A   1      46.169  35.278  28.505  1.00  0.00     0.198 A 
ATOM     94  C   UNL A   1      46.643  34.425  30.697  1.00  0.00     0.198 A 
ATOM     95  F   UNL A   1      46.795  32.106  31.052  1.00  0.00    -0.203 F 
ATOM     96  F   UNL A   1      46.010  36.317  27.673  1.00  0.00    -0.200 F 
ATOM     97  C   UNL A   1      46.446  35.501  29.845  1.00  0.00     0.200 A 
ATOM     98  F   UNL A   1      46.892  34.637  31.997  1.00  0.00    -0.200 F 
ATOM     99  F   UNL A   1      46.530  36.754  30.315  1.00  0.00    -0.200 F 
ENDBRANCH  66  89
ENDBRANCH  40  41
ENDBRANCH  32  35
ENDBRANCH  30  31
ENDBRANCH  29  30
ENDBRANCH  28  29
ENDBRANCH  27  28
ENDBRANCH   1  27
TORSDOF 19
ENDMDL
MODEL 2
REMARK VINA RESULT:     -10.6      1.285      2.325
REMARK SMILES CCN(CC(=O)NC(C)C)C(=O)N[C@H]1C=C[C@H](C(=O)NCCCCCCNC(=O)c2ccc(-c3c4nc(c(-c5c(F)c(F)c(F)c(F)c5F)c5ccc([nH]5)c(-c5c(F)c(F)c(F)c(F)c5F)c5nc(c(-c6c(F)c(F)c(F)c(F)c6F)c6ccc3[nH]6)C=C5)C=C4)cc2)C1
REMARK SMILES IDX 22 1 21 2 20 3 18 4 19 5 17 7 14 8 15 9 93 10 16 11 13 12
REMARK SMILES IDX 11 13 12 14 3 16 2 17 1 18 4 19 5 20 6 21 7 22 8 24 9 25
REMARK SMILES IDX 10 26 23 27 24 28 25 29 26 30 27 31 28 32 29 34 30 35 31 36
REMARK SMILES IDX 92 37 32 38 91 39 33 40 34 41 35 42 85 43 36 44 90 45 84 46
REMARK SMILES IDX 86 47 37 48 89 49 83 50 82 51 38 53 70 54 50 55 69 56 51 57
REMARK SMILES IDX 54 58 68 59 87 60 52 61 53 62 67 64 88 65 55 66 39 67 40 68
REMARK SMILES IDX 48 69 41 70 42 71 46 72 49 73 43 74 44 75 47 76 45 77 71 78
REMARK SMILES IDX 72 79 80 80 73 81 74 82 78 83 81 84 75 85 76 86 79 87 77 88
REMARK SMILES IDX 56 89 57 90 65 91 58 92 59 93 63 94 66 95 60 96 61 97 64 98
REMARK SMILES IDX 62 99
REMARK H PARENT 20 6 13 15 7 23 27 33 86 52 54 63
REMARK Flexibility Score: inf
ROOT
ATOM      1  C   UNL A   1      41.236  21.841  26.122  1.00  0.00     0.021 C 
ENDROOT
BRANCH   1   2
ATOM      2  C   UNL A   1      39.814  22.224  26.526  1.00  0.00     0.116 C 
BRANCH   2   3
ATOM      3  N   UNL A   1      38.847  21.271  26.023  1.00  0.00    -0.356 N 
ATOM      4  C   UNL A   1      37.765  21.483  25.219  1.00  0.00     0.227 C 
ATOM      5  O   UNL A   1      37.122  20.498  24.857  1.00  0.00    -0.274 OA
ATOM      6  H   UNL A   1      38.992  20.337  26.299  1.00  0.00     0.163 HD
BRANCH   4   7
ATOM      7  C   UNL A   1      37.431  22.920  24.794  1.00  0.00     0.103 C 
ATOM      8  C   UNL A   1      35.124  23.357  25.394  1.00  0.00     0.107 C 
ATOM      9  C   UNL A   1      35.271  23.221  23.915  1.00  0.00    -0.006 C 
ATOM     10  C   UNL A   1      36.561  23.648  25.832  1.00  0.00     0.047 C 
ATOM     11  C   UNL A   1      36.542  22.963  23.583  1.00  0.00    -0.016 C 
BRANCH   8  12
ATOM     12  N   UNL A   1      34.209  24.431  25.687  1.00  0.00    -0.332 N 
ATOM     13  C   UNL A   1      32.887  24.651  25.623  1.00  0.00     0.318 C 
ATOM     14  O   UNL A   1      32.540  25.781  25.987  1.00  0.00    -0.249 OA
ATOM     15  H   UNL A   1      34.686  25.221  26.030  1.00  0.00     0.165 HD
BRANCH  13  16
ATOM     16  N   UNL A   1      31.966  23.729  25.203  1.00  0.00    -0.316 N 
BRANCH  16  17
ATOM     17  C   UNL A   1      31.598  22.687  26.171  1.00  0.00     0.118 C 
ATOM     18  C   UNL A   1      30.252  22.925  26.844  1.00  0.00     0.027 C 
ENDBRANCH  16  17
BRANCH  16  19
ATOM     19  C   UNL A   1      31.368  23.613  23.867  1.00  0.00     0.221 C 
BRANCH  19  20
ATOM     20  C   UNL A   1      30.762  24.905  23.286  1.00  0.00     0.239 C 
ATOM     21  O   UNL A   1      29.844  25.489  23.867  1.00  0.00    -0.273 OA
ATOM     22  N   UNL A   1      31.291  25.515  22.189  1.00  0.00    -0.352 N 
ATOM     23  H   UNL A   1      30.661  25.995  21.604  1.00  0.00     0.163 HD
BRANCH  22  24
ATOM     24  C   UNL A   1      32.687  25.534  21.791  1.00  0.00     0.075 C 
ATOM     25  C   UNL A   1      32.846  25.202  20.315  1.00  0.00     0.030 C 
ATOM     26  C   UNL A   1      33.270  26.906  22.124  1.00  0.00     0.030 C 
ENDBRANCH  22  24
ENDBRANCH  19  20
ENDBRANCH  16  19
ENDBRANCH  13  16
ENDBRANCH   8  12
ENDBRANCH   4   7
ENDBRANCH   2   3
ENDBRANCH   1   2
BRANCH   1  27
ATOM     27  C   UNL A   1      41.759  20.559  26.781  1.00  0.00     0.002 C 
BRANCH  27  28
ATOM     28  C   UNL A   1      41.738  19.313  25.891  1.00  0.00     0.002 C 
BRANCH  28  29
ATOM     29  C   UNL A   1      42.674  18.185  26.331  1.00  0.00     0.021 C 
BRANCH  29  30
ATOM     30  C   UNL A   1      44.160  18.496  26.184  1.00  0.00     0.116 C 
BRANCH  30  31
ATOM     31  N   UNL A   1      44.583  18.516  24.793  1.00  0.00    -0.352 N 
ATOM     32  C   UNL A   1      44.788  19.584  23.957  1.00  0.00     0.251 C 
ATOM     33  H   UNL A   1      44.746  17.632  24.392  1.00  0.00     0.163 HD
ATOM     34  O   UNL A   1      44.961  19.405  22.754  1.00  0.00    -0.269 OA
BRANCH  32  35
ATOM     35  C   UNL A   1      44.775  20.959  24.499  1.00  0.00     0.039 A 
ATOM     36  C   UNL A   1      45.356  21.198  25.747  1.00  0.00     0.014 A 
ATOM     37  C   UNL A   1      44.196  22.010  23.783  1.00  0.00     0.014 A 
ATOM     38  C   UNL A   1      45.424  22.502  26.242  1.00  0.00     0.010 A 
ATOM     39  C   UNL A   1      44.326  23.318  24.244  1.00  0.00     0.010 A 
ATOM     40  C   UNL A   1      44.950  23.578  25.474  1.00  0.00    -0.014 A 
BRANCH  40  41
ATOM     41  C   UNL A   1      45.127  24.983  25.923  1.00  0.00     0.031 A 
ATOM     42  C   UNL A   1      46.486  25.627  25.889  1.00  0.00     0.074 A 
ATOM     43  C   UNL A   1      44.074  25.655  26.432  1.00  0.00     0.049 A 
ATOM     44  N   UNL A   1      46.853  26.804  26.328  1.00  0.00    -0.248 NA
ATOM     45  C   UNL A   1      47.580  24.836  25.306  1.00  0.00     0.031 C 
ATOM     46  C   UNL A   1      42.713  25.127  26.553  1.00  0.00     0.029 A 
ATOM     47  N   UNL A   1      43.985  26.919  26.959  1.00  0.00    -0.354 N 
ATOM     48  C   UNL A   1      48.218  26.890  26.086  1.00  0.00     0.074 A 
ATOM     49  C   UNL A   1      48.624  25.630  25.500  1.00  0.00     0.031 C 
ATOM     50  C   UNL A   1      41.925  26.062  27.104  1.00  0.00     0.029 A 
ATOM     51  C   UNL A   1      42.729  27.236  27.423  1.00  0.00     0.049 A 
ATOM     52  H   UNL A   1      44.747  27.540  27.002  1.00  0.00     0.167 HD
ATOM     53  C   UNL A   1      49.052  27.931  26.317  1.00  0.00     0.037 A 
ATOM     54  C   UNL A   1      42.284  28.340  28.054  1.00  0.00     0.037 A 
ATOM     55  C   UNL A   1      48.640  29.193  26.878  1.00  0.00     0.049 A 
ATOM     56  C   UNL A   1      43.245  29.469  28.324  1.00  0.00     0.074 A 
ATOM     57  C   UNL A   1      49.400  30.330  27.088  1.00  0.00     0.029 A 
ATOM     58  N   UNL A   1      47.359  29.480  27.327  1.00  0.00    -0.354 N 
ATOM     59  N   UNL A   1      44.516  29.565  28.020  1.00  0.00    -0.248 NA
ATOM     60  C   UNL A   1      42.706  30.645  29.021  1.00  0.00     0.031 C 
ATOM     61  C   UNL A   1      48.596  31.284  27.719  1.00  0.00     0.029 A 
ATOM     62  C   UNL A   1      47.318  30.764  27.844  1.00  0.00     0.049 A 
ATOM     63  H   UNL A   1      46.594  28.862  27.284  1.00  0.00     0.167 HD
ATOM     64  C   UNL A   1      44.919  30.820  28.459  1.00  0.00     0.074 A 
ATOM     65  C   UNL A   1      43.751  31.457  29.029  1.00  0.00     0.031 C 
ATOM     66  C   UNL A   1      46.146  31.392  28.397  1.00  0.00     0.037 A 
BRANCH  53  67
ATOM     67  C   UNL A   1      50.503  27.767  25.969  1.00  0.00     0.064 A 
ATOM     68  C   UNL A   1      50.978  27.987  24.667  1.00  0.00     0.173 A 
ATOM     69  C   UNL A   1      51.442  27.469  26.968  1.00  0.00     0.173 A 
ATOM     70  F   UNL A   1      50.121  28.265  23.673  1.00  0.00    -0.203 F 
ATOM     71  C   UNL A   1      52.338  27.903  24.378  1.00  0.00     0.198 A 
ATOM     72  C   UNL A   1      52.804  27.417  26.681  1.00  0.00     0.198 A 
ATOM     73  F   UNL A   1      51.042  27.256  28.230  1.00  0.00    -0.203 F 
ATOM     74  F   UNL A   1      52.766  28.087  23.120  1.00  0.00    -0.200 F 
ATOM     75  C   UNL A   1      53.250  27.630  25.386  1.00  0.00     0.200 A 
ATOM     76  F   UNL A   1      53.685  27.168  27.660  1.00  0.00    -0.200 F 
ATOM     77  F   UNL A   1      54.560  27.571  25.108  1.00  0.00    -0.200 F 
ENDBRANCH  53  67
BRANCH  54  78
ATOM     78  C   UNL A   1      40.864  28.437  28.492  1.00  0.00     0.064 A 
ATOM     79  C   UNL A   1      39.881  28.961  27.640  1.00  0.00     0.173 A 
ATOM     80  C   UNL A   1      40.471  28.058  29.784  1.00  0.00     0.173 A 
ATOM     81  F   UNL A   1      40.208  29.358  26.402  1.00  0.00    -0.203 F 
ATOM     82  C   UNL A   1      38.569  29.136  28.076  1.00  0.00     0.198 A 
ATOM     83  C   UNL A   1      39.150  28.200  30.206  1.00  0.00     0.198 A 
ATOM     84  F   UNL A   1      41.369  27.547  30.638  1.00  0.00    -0.203 F 
ATOM     85  F   UNL A   1      37.667  29.705  27.265  1.00  0.00    -0.200 F 
ATOM     86  C   UNL A   1      38.204  28.753  29.358  1.00  0.00     0.200 A 
ATOM     87  F   UNL A   1      38.799  27.812  31.439  1.00  0.00    -0.200 F 
ATOM     88  F   UNL A   1      36.945  28.930  29.780  1.00  0.00    -0.200 F 
ENDBRANCH  54  78
BRANCH  66  89
ATOM     89  C   UNL A   1      46.281  32.793  28.923  1.00  0.00     0.064 A 
ATOM     90  C   UNL A   1      46.081  33.914  28.104  1.00  0.00     0.173 A 
ATOM     91  C   UNL A   1      46.583  33.016  30.276  1.00  0.00     0.173 A 
ATOM     92  F   UNL A   1      45.806  33.756  26.800  1.00  0.00    -0.203 F 
ATOM     93  C   UNL A   1      46.208  35.204  28.611  1.00  0.00     0.198 A 
ATOM     94  C   UNL A   1      46.673  34.307  30.788  1.00  0.00     0.198 A 
ATOM     95  F   UNL A   1      46.776  31.979  31.106  1.00  0.00    -0.203 F 
ATOM     96  F   UNL A   1      46.069  36.259  27.796  1.00  0.00    -0.200 F 
ATOM     97  C   UNL A   1      46.496  35.400  29.954  1.00  0.00     0.200 A 
ATOM     98  F   UNL A   1      46.934  34.493  32.090  1.00  0.00    -0.200 F 
ATOM     99  F   UNL A   1      46.611  36.643  30.442  1.00  0.00    -0.200 F 
ENDBRANCH  66  89
ENDBRANCH  40  41
ENDBRANCH  32  35
ENDBRANCH  30  31
ENDBRANCH  29  30
ENDBRANCH  28  29
ENDBRANCH  27  28
ENDBRANCH   1  27
TORSDOF 19
ENDMDL
MODEL 3
REMARK VINA RESULT:     -10.5      6.310     12.084
REMARK SMILES CCN(CC(=O)NC(C)C)C(=O)N[C@H]1C=C[C@H](C(=O)NCCCCCCNC(=O)c2ccc(-c3c4nc(c(-c5c(F)c(F)c(F)c(F)c5F)c5ccc([nH]5)c(-c5c(F)c(F)c(F)c(F)c5F)c5nc(c(-c6c(F)c(F)c(F)c(F)c6F)c6ccc3[nH]6)C=C5)C=C4)cc2)C1
REMARK SMILES IDX 22 1 21 2 20 3 18 4 19 5 17 7 14 8 15 9 93 10 16 11 13 12
REMARK SMILES IDX 11 13 12 14 3 16 2 17 1 18 4 19 5 20 6 21 7 22 8 24 9 25
REMARK SMILES IDX 10 26 23 27 24 28 25 29 26 30 27 31 28 32 29 34 30 35 31 36
REMARK SMILES IDX 92 37 32 38 91 39 33 40 34 41 35 42 85 43 36 44 90 45 84 46
REMARK SMILES IDX 86 47 37 48 89 49 83 50 82 51 38 53 70 54 50 55 69 56 51 57
REMARK SMILES IDX 54 58 68 59 87 60 52 61 53 62 67 64 88 65 55 66 39 67 40 68
REMARK SMILES IDX 48 69 41 70 42 71 46 72 49 73 43 74 44 75 47 76 45 77 71 78
REMARK SMILES IDX 72 79 80 80 73 81 74 82 78 83 81 84 75 85 76 86 79 87 77 88
REMARK SMILES IDX 56 89 57 90 65 91 58 92 59 93 63 94 66 95 60 96 61 97 64 98
REMARK SMILES IDX 62 99
REMARK H PARENT 20 6 13 15 7 23 27 33 86 52 54 63
REMARK Flexibility Score: inf
ROOT
ATOM      1  C   UNL A   1      33.466  32.654  28.000  1.00  0.00     0.021 C 
ENDROOT
BRANCH   1   2
ATOM      2  C   UNL A   1      33.566  31.180  27.615  1.00  0.00     0.116 C 
BRANCH   2   3
ATOM      3  N   UNL A   1      32.520  30.804  26.686  1.00  0.00    -0.356 N 
ATOM      4  C   UNL A   1      32.537  29.855  25.707  1.00  0.00     0.227 C 
ATOM      5  O   UNL A   1      31.494  29.660  25.084  1.00  0.00    -0.274 OA
ATOM      6  H   UNL A   1      31.677  31.305  26.776  1.00  0.00     0.163 HD
BRANCH   4   7
ATOM      7  C   UNL A   1      33.835  29.072  25.460  1.00  0.00     0.103 C 
ATOM      8  C   UNL A   1      33.240  26.934  24.485  1.00  0.00     0.107 C 
ATOM      9  C   UNL A   1      33.703  26.765  25.894  1.00  0.00    -0.006 C 
ATOM     10  C   UNL A   1      33.810  28.308  24.126  1.00  0.00     0.047 C 
ATOM     11  C   UNL A   1      34.015  27.947  26.440  1.00  0.00    -0.016 C 
BRANCH   8  12
ATOM     12  N   UNL A   1      33.771  25.867  23.676  1.00  0.00    -0.332 N 
ATOM     13  C   UNL A   1      33.524  24.564  23.469  1.00  0.00     0.318 C 
ATOM     14  O   UNL A   1      34.279  24.025  22.651  1.00  0.00    -0.249 OA
ATOM     15  H   UNL A   1      34.522  26.180  23.122  1.00  0.00     0.165 HD
BRANCH  13  16
ATOM     16  N   UNL A   1      32.528  23.855  24.085  1.00  0.00    -0.316 N 
BRANCH  16  17
ATOM     17  C   UNL A   1      31.292  23.661  23.314  1.00  0.00     0.118 C 
ATOM     18  C   UNL A   1      30.313  24.822  23.424  1.00  0.00     0.027 C 
ENDBRANCH  16  17
BRANCH  16  19
ATOM     19  C   UNL A   1      32.520  23.340  25.460  1.00  0.00     0.221 C 
BRANCH  19  20
ATOM     20  C   UNL A   1      31.643  22.098  25.709  1.00  0.00     0.239 C 
ATOM     21  O   UNL A   1      30.466  22.214  26.056  1.00  0.00    -0.273 OA
ATOM     22  N   UNL A   1      32.090  20.840  25.437  1.00  0.00    -0.352 N 
ATOM     23  H   UNL A   1      31.748  20.116  26.011  1.00  0.00     0.163 HD
BRANCH  22  24
ATOM     24  C   UNL A   1      33.018  20.451  24.390  1.00  0.00     0.075 C 
ATOM     25  C   UNL A   1      34.441  20.358  24.920  1.00  0.00     0.030 C 
ATOM     26  C   UNL A   1      32.553  19.125  23.794  1.00  0.00     0.030 C 
ENDBRANCH  22  24
ENDBRANCH  19  20
ENDBRANCH  16  19
ENDBRANCH  13  16
ENDBRANCH   8  12
ENDBRANCH   4   7
ENDBRANCH   2   3
ENDBRANCH   1   2
BRANCH   1  27
ATOM     27  C   UNL A   1      34.815  33.376  28.100  1.00  0.00     0.002 C 
BRANCH  27  28
ATOM     28  C   UNL A   1      34.732  34.870  28.429  1.00  0.00     0.002 C 
BRANCH  28  29
ATOM     29  C   UNL A   1      33.338  35.375  28.808  1.00  0.00     0.021 C 
BRANCH  29  30
ATOM     30  C   UNL A   1      33.328  36.636  29.665  1.00  0.00     0.116 C 
BRANCH  30  31
ATOM     31  N   UNL A   1      32.466  36.505  30.829  1.00  0.00    -0.352 N 
ATOM     32  C   UNL A   1      32.574  35.661  31.905  1.00  0.00     0.251 C 
ATOM     33  H   UNL A   1      31.690  37.110  30.846  1.00  0.00     0.163 HD
ATOM     34  O   UNL A   1      31.647  35.556  32.704  1.00  0.00    -0.269 OA
BRANCH  32  35
ATOM     35  C   UNL A   1      33.799  34.856  32.093  1.00  0.00     0.039 A 
ATOM     36  C   UNL A   1      35.032  35.510  32.167  1.00  0.00     0.014 A 
ATOM     37  C   UNL A   1      33.736  33.463  32.197  1.00  0.00     0.014 A 
ATOM     38  C   UNL A   1      36.192  34.775  32.422  1.00  0.00     0.010 A 
ATOM     39  C   UNL A   1      34.883  32.741  32.520  1.00  0.00     0.010 A 
ATOM     40  C   UNL A   1      36.120  33.390  32.645  1.00  0.00    -0.014 A 
BRANCH  40  41
ATOM     41  C   UNL A   1      37.320  32.610  33.043  1.00  0.00     0.031 A 
ATOM     42  C   UNL A   1      38.039  32.922  34.327  1.00  0.00     0.074 A 
ATOM     43  C   UNL A   1      37.805  31.668  32.209  1.00  0.00     0.049 A 
ATOM     44  N   UNL A   1      39.153  32.418  34.794  1.00  0.00    -0.248 NA
ATOM     45  C   UNL A   1      37.438  33.952  35.190  1.00  0.00     0.031 C 
ATOM     46  C   UNL A   1      37.220  31.298  30.918  1.00  0.00     0.029 A 
ATOM     47  N   UNL A   1      38.912  30.862  32.312  1.00  0.00    -0.354 N 
ATOM     48  C   UNL A   1      39.393  33.075  35.994  1.00  0.00     0.074 A 
ATOM     49  C   UNL A   1      38.332  34.045  36.164  1.00  0.00     0.031 C 
ATOM     50  C   UNL A   1      37.962  30.332  30.358  1.00  0.00     0.029 A 
ATOM     51  C   UNL A   1      39.104  30.047  31.221  1.00  0.00     0.049 A 
ATOM     52  H   UNL A   1      39.511  30.866  33.093  1.00  0.00     0.167 HD
ATOM     53  C   UNL A   1      40.398  32.875  36.878  1.00  0.00     0.037 A 
ATOM     54  C   UNL A   1      40.099  29.184  30.939  1.00  0.00     0.037 A 
ATOM     55  C   UNL A   1      41.440  31.893  36.716  1.00  0.00     0.049 A 
ATOM     56  C   UNL A   1      41.220  29.008  31.931  1.00  0.00     0.074 A 
ATOM     57  C   UNL A   1      42.463  31.572  37.590  1.00  0.00     0.029 A 
ATOM     58  N   UNL A   1      41.595  31.080  35.602  1.00  0.00    -0.354 N 
ATOM     59  N   UNL A   1      41.393  29.581  33.096  1.00  0.00    -0.248 NA
ATOM     60  C   UNL A   1      42.282  28.059  31.568  1.00  0.00     0.031 C 
ATOM     61  C   UNL A   1      43.274  30.609  36.981  1.00  0.00     0.029 A 
ATOM     62  C   UNL A   1      42.719  30.284  35.755  1.00  0.00     0.049 A 
ATOM     63  H   UNL A   1      40.997  31.071  34.821  1.00  0.00     0.167 HD
ATOM     64  C   UNL A   1      42.561  29.040  33.617  1.00  0.00     0.074 A 
ATOM     65  C   UNL A   1      43.043  28.077  32.651  1.00  0.00     0.031 C 
ATOM     66  C   UNL A   1      43.181  29.319  34.791  1.00  0.00     0.037 A 
BRANCH  53  67
ATOM     67  C   UNL A   1      40.437  33.732  38.110  1.00  0.00     0.064 A 
ATOM     68  C   UNL A   1      41.238  34.881  38.185  1.00  0.00     0.173 A 
ATOM     69  C   UNL A   1      39.596  33.447  39.198  1.00  0.00     0.173 A 
ATOM     70  F   UNL A   1      42.066  35.193  37.177  1.00  0.00    -0.203 F 
ATOM     71  C   UNL A   1      41.205  35.705  39.307  1.00  0.00     0.198 A 
ATOM     72  C   UNL A   1      39.543  34.290  40.304  1.00  0.00     0.198 A 
ATOM     73  F   UNL A   1      38.806  32.364  39.175  1.00  0.00    -0.203 F 
ATOM     74  F   UNL A   1      42.002  36.782  39.369  1.00  0.00    -0.200 F 
ATOM     75  C   UNL A   1      40.350  35.416  40.360  1.00  0.00     0.200 A 
ATOM     76  F   UNL A   1      38.704  34.017  41.314  1.00  0.00    -0.200 F 
ATOM     77  F   UNL A   1      40.304  36.223  41.429  1.00  0.00    -0.200 F 
ENDBRANCH  53  67
BRANCH  54  78
ATOM     78  C   UNL A   1      40.100  28.426  29.657  1.00  0.00     0.064 A 
ATOM     79  C   UNL A   1      39.469  27.177  29.557  1.00  0.00     0.173 A 
ATOM     80  C   UNL A   1      40.772  28.908  28.524  1.00  0.00     0.173 A 
ATOM     81  F   UNL A   1      38.831  26.662  30.618  1.00  0.00    -0.203 F 
ATOM     82  C   UNL A   1      39.543  26.424  28.387  1.00  0.00     0.198 A 
ATOM     83  C   UNL A   1      40.814  28.170  27.343  1.00  0.00     0.198 A 
ATOM     84  F   UNL A   1      41.388  30.098  28.562  1.00  0.00    -0.203 F 
ATOM     85  F   UNL A   1      38.993  25.203  28.344  1.00  0.00    -0.200 F 
ATOM     86  C   UNL A   1      40.213  26.922  27.280  1.00  0.00     0.200 A 
ATOM     87  F   UNL A   1      41.447  28.663  26.270  1.00  0.00    -0.200 F 
ATOM     88  F   UNL A   1      40.291  26.194  26.158  1.00  0.00    -0.200 F 
ENDBRANCH  54  78
BRANCH  66  89
ATOM     89  C   UNL A   1      44.426  28.544  35.114  1.00  0.00     0.064 A 
ATOM     90  C   UNL A   1      45.701  29.011  34.761  1.00  0.00     0.173 A 
ATOM     91  C   UNL A   1      44.344  27.331  35.816  1.00  0.00     0.173 A 
ATOM     92  F   UNL A   1      45.835  30.156  34.075  1.00  0.00    -0.203 F 
ATOM     93  C   UNL A   1      46.844  28.278  35.071  1.00  0.00     0.198 A 
ATOM     94  C   UNL A   1      45.491  26.620  36.157  1.00  0.00     0.198 A 
ATOM     95  F   UNL A   1      43.150  26.843  36.186  1.00  0.00    -0.203 F 
ATOM     96  F   UNL A   1      48.047  28.716  34.674  1.00  0.00    -0.200 F 
ATOM     97  C   UNL A   1      46.739  27.088  35.776  1.00  0.00     0.200 A 
ATOM     98  F   UNL A   1      45.387  25.479  36.854  1.00  0.00    -0.200 F 
ATOM     99  F   UNL A   1      47.840  26.389  36.081  1.00  0.00    -0.200 F 
ENDBRANCH  66  89
ENDBRANCH  40  41
ENDBRANCH  32  35
ENDBRANCH  30  31
ENDBRANCH  29  30
ENDBRANCH  28  29
ENDBRANCH  27  28
ENDBRANCH   1  27
TORSDOF 19
ENDMDL
