MODEL 1
REMARK VINA RESULT:     -12.2      0.000      0.000
REMARK SMILES Cc1cc(C)c2c(=O)n(CCCC(=O)NCCCCCCNC(=O)c3ccc(-c4c5nc(c(-c6c(F)c(F)c(F)c(F)c6F)c6ccc([nH]6)c(-c6c(F)c(F)c(F)c(F)c6F)c6nc(c(-c7c(F)c(F)c(F)c(F)c7F)c7ccc4[nH]7)C=C6)C=C5)cc3)sc2n1
REMARK SMILES IDX 18 1 17 2 16 3 15 4 13 5 14 6 12 8 11 9 10 10 9 11 1 12 2 13
REMARK SMILES IDX 3 14 90 15 4 16 89 17 5 18 6 19 88 20 7 21 8 22 19 23 20 24
REMARK SMILES IDX 21 25 22 26 23 27 24 29 25 30 26 31 87 32 27 33 86 34 28 35
REMARK SMILES IDX 29 36 30 37 80 38 31 39 85 40 79 41 81 42 32 43 84 44 78 45
REMARK SMILES IDX 77 46 33 48 65 49 45 50 64 51 46 52 49 53 63 54 82 55 47 56
REMARK SMILES IDX 48 57 62 59 83 60 50 61 34 62 35 63 43 64 36 65 37 66 41 67
REMARK SMILES IDX 44 68 38 69 39 70 42 71 40 72 66 73 67 74 75 75 68 76 69 77
REMARK SMILES IDX 73 78 76 79 70 80 71 81 74 82 72 83 51 84 52 85 60 86 53 87
REMARK SMILES IDX 54 88 58 89 61 90 55 91 56 92 59 93 57 94
REMARK H PARENT 15 7 22 28 81 47 49 58
REMARK Flexibility Score: inf
ROOT
ATOM      1  C   UNL A   1      33.271  25.873  26.116  1.00  0.00     0.002 C 
ENDROOT
BRANCH   1   2
ATOM      2  C   UNL A   1      34.383  24.933  25.640  1.00  0.00     0.021 C 
BRANCH   2   3
ATOM      3  C   UNL A   1      34.392  23.586  26.365  1.00  0.00     0.116 C 
BRANCH   3   4
ATOM      4  N   UNL A   1      33.045  23.074  26.486  1.00  0.00    -0.356 N 
ATOM      5  C   UNL A   1      32.324  22.289  25.644  1.00  0.00     0.220 C 
ATOM      6  O   UNL A   1      31.136  22.098  25.909  1.00  0.00    -0.275 OA
ATOM      7  H   UNL A   1      32.576  23.336  27.311  1.00  0.00     0.163 HD
BRANCH   5   8
ATOM      8  C   UNL A   1      32.982  21.583  24.476  1.00  0.00     0.102 C 
BRANCH   8   9
ATOM      9  C   UNL A   1      32.425  21.809  23.064  1.00  0.00     0.033 C 
BRANCH   9  10
ATOM     10  C   UNL A   1      32.751  23.092  22.280  1.00  0.00     0.139 C 
BRANCH  10  11
ATOM     11  N   UNL A   1      32.259  24.393  22.720  1.00  0.00    -0.262 N 
ATOM     12  C   UNL A   1      28.920  29.521  22.980  1.00  0.00     0.067 C 
ATOM     13  C   UNL A   1      30.070  28.561  22.891  1.00  0.00     0.039 A 
ATOM     14  C   UNL A   1      31.370  29.024  22.643  1.00  0.00     0.027 A 
ATOM     15  N   UNL A   1      29.789  27.256  23.112  1.00  0.00    -0.241 NA
ATOM     16  C   UNL A   1      32.433  28.111  22.537  1.00  0.00    -0.033 A 
ATOM     17  C   UNL A   1      30.827  26.408  23.005  1.00  0.00     0.146 A 
ATOM     18  C   UNL A   1      33.832  28.590  22.311  1.00  0.00     0.045 C 
ATOM     19  C   UNL A   1      32.119  26.763  22.667  1.00  0.00     0.081 A 
ATOM     20  S   UNL A   1      30.684  24.675  23.321  1.00  0.00    -0.035 S 
ATOM     21  C   UNL A   1      32.962  25.568  22.434  1.00  0.00     0.270 A 
ATOM     22  O   UNL A   1      34.086  25.637  21.959  1.00  0.00    -0.268 OA
ENDBRANCH  10  11
ENDBRANCH   9  10
ENDBRANCH   8   9
ENDBRANCH   5   8
ENDBRANCH   3   4
ENDBRANCH   2   3
ENDBRANCH   1   2
BRANCH   1  23
ATOM     23  C   UNL A   1      33.560  27.370  25.929  1.00  0.00     0.002 C 
BRANCH  23  24
ATOM     24  C   UNL A   1      32.743  28.329  26.807  1.00  0.00     0.021 C 
BRANCH  24  25
ATOM     25  C   UNL A   1      33.588  29.094  27.814  1.00  0.00     0.116 C 
BRANCH  25  26
ATOM     26  N   UNL A   1      33.770  30.495  27.433  1.00  0.00    -0.352 N 
ATOM     27  C   UNL A   1      34.847  31.313  27.692  1.00  0.00     0.251 C 
ATOM     28  H   UNL A   1      33.030  30.904  26.931  1.00  0.00     0.163 HD
ATOM     29  O   UNL A   1      34.767  32.533  27.588  1.00  0.00    -0.269 OA
BRANCH  27  30
ATOM     30  C   UNL A   1      36.111  30.687  28.105  1.00  0.00     0.039 A 
ATOM     31  C   UNL A   1      36.458  29.402  27.681  1.00  0.00     0.014 A 
ATOM     32  C   UNL A   1      36.977  31.448  28.883  1.00  0.00     0.014 A 
ATOM     33  C   UNL A   1      37.727  28.910  27.986  1.00  0.00     0.010 A 
ATOM     34  C   UNL A   1      38.272  31.028  29.043  1.00  0.00     0.010 A 
ATOM     35  C   UNL A   1      38.636  29.734  28.661  1.00  0.00    -0.014 A 
BRANCH  35  36
ATOM     36  C   UNL A   1      39.997  29.290  28.958  1.00  0.00     0.031 A 
ATOM     37  C   UNL A   1      40.332  29.007  30.392  1.00  0.00     0.074 A 
ATOM     38  C   UNL A   1      40.799  28.870  27.955  1.00  0.00     0.049 A 
ATOM     39  N   UNL A   1      41.373  29.378  31.071  1.00  0.00    -0.248 NA
ATOM     40  C   UNL A   1      39.368  28.220  31.183  1.00  0.00     0.031 C 
ATOM     41  C   UNL A   1      40.491  28.772  26.520  1.00  0.00     0.029 A 
ATOM     42  N   UNL A   1      42.017  28.274  28.034  1.00  0.00    -0.354 N 
ATOM     43  C   UNL A   1      41.264  28.783  32.329  1.00  0.00     0.074 A 
ATOM     44  C   UNL A   1      39.970  28.149  32.371  1.00  0.00     0.031 C 
ATOM     45  C   UNL A   1      41.353  27.917  25.931  1.00  0.00     0.029 A 
ATOM     46  C   UNL A   1      42.375  27.565  26.897  1.00  0.00     0.049 A 
ATOM     47  H   UNL A   1      42.595  28.339  28.827  1.00  0.00     0.167 HD
ATOM     48  C   UNL A   1      42.299  28.722  33.215  1.00  0.00     0.037 A 
ATOM     49  C   UNL A   1      43.406  26.698  26.780  1.00  0.00     0.037 A 
ATOM     50  C   UNL A   1      43.352  29.636  32.881  1.00  0.00     0.049 A 
ATOM     51  C   UNL A   1      44.341  26.972  27.898  1.00  0.00     0.074 A 
ATOM     52  C   UNL A   1      43.451  31.012  32.815  1.00  0.00     0.029 A 
ATOM     53  N   UNL A   1      44.449  29.159  32.210  1.00  0.00    -0.354 N 
ATOM     54  N   UNL A   1      45.025  28.076  28.024  1.00  0.00    -0.248 NA
ATOM     55  C   UNL A   1      44.178  26.193  29.117  1.00  0.00     0.031 C 
ATOM     56  C   UNL A   1      44.286  31.265  31.688  1.00  0.00     0.029 A 
ATOM     57  C   UNL A   1      44.681  30.028  31.173  1.00  0.00     0.049 A 
ATOM     58  H   UNL A   1      44.969  28.351  32.428  1.00  0.00     0.167 HD
ATOM     59  C   UNL A   1      45.024  28.340  29.386  1.00  0.00     0.074 A 
ATOM     60  C   UNL A   1      44.571  27.101  30.013  1.00  0.00     0.031 C 
ATOM     61  C   UNL A   1      45.118  29.616  29.860  1.00  0.00     0.037 A 
BRANCH  48  62
ATOM     62  C   UNL A   1      42.471  27.655  34.262  1.00  0.00     0.064 A 
ATOM     63  C   UNL A   1      43.116  26.443  33.953  1.00  0.00     0.173 A 
ATOM     64  C   UNL A   1      41.786  27.689  35.494  1.00  0.00     0.173 A 
ATOM     65  F   UNL A   1      43.764  26.292  32.788  1.00  0.00    -0.203 F 
ATOM     66  C   UNL A   1      43.054  25.336  34.806  1.00  0.00     0.198 A 
ATOM     67  C   UNL A   1      41.767  26.601  36.365  1.00  0.00     0.198 A 
ATOM     68  F   UNL A   1      41.034  28.741  35.845  1.00  0.00    -0.203 F 
ATOM     69  F   UNL A   1      43.605  24.172  34.433  1.00  0.00    -0.200 F 
ATOM     70  C   UNL A   1      42.381  25.416  36.012  1.00  0.00     0.200 A 
ATOM     71  F   UNL A   1      41.090  26.690  37.519  1.00  0.00    -0.200 F 
ATOM     72  F   UNL A   1      42.286  24.345  36.812  1.00  0.00    -0.200 F 
ENDBRANCH  48  62
BRANCH  49  73
ATOM     73  C   UNL A   1      43.451  25.455  25.979  1.00  0.00     0.064 A 
ATOM     74  C   UNL A   1      44.568  25.149  25.187  1.00  0.00     0.173 A 
ATOM     75  C   UNL A   1      42.520  24.417  26.184  1.00  0.00     0.173 A 
ATOM     76  F   UNL A   1      45.517  26.072  24.980  1.00  0.00    -0.203 F 
ATOM     77  C   UNL A   1      44.756  23.871  24.653  1.00  0.00     0.198 A 
ATOM     78  C   UNL A   1      42.705  23.144  25.644  1.00  0.00     0.198 A 
ATOM     79  F   UNL A   1      41.462  24.589  26.990  1.00  0.00    -0.203 F 
ATOM     80  F   UNL A   1      45.865  23.598  23.953  1.00  0.00    -0.200 F 
ATOM     81  C   UNL A   1      43.830  22.867  24.890  1.00  0.00     0.200 A 
ATOM     82  F   UNL A   1      41.820  22.173  25.910  1.00  0.00    -0.200 F 
ATOM     83  F   UNL A   1      44.044  21.626  24.431  1.00  0.00    -0.200 F 
ENDBRANCH  49  73
BRANCH  61  84
ATOM     84  C   UNL A   1      45.439  30.712  28.879  1.00  0.00     0.064 A 
ATOM     85  C   UNL A   1      44.463  31.428  28.163  1.00  0.00     0.173 A 
ATOM     86  C   UNL A   1      46.760  31.165  28.782  1.00  0.00     0.173 A 
ATOM     87  F   UNL A   1      43.167  31.136  28.286  1.00  0.00    -0.203 F 
ATOM     88  C   UNL A   1      44.800  32.511  27.352  1.00  0.00     0.198 A 
ATOM     89  C   UNL A   1      47.091  32.271  28.002  1.00  0.00     0.198 A 
ATOM     90  F   UNL A   1      47.729  30.566  29.492  1.00  0.00    -0.203 F 
ATOM     91  F   UNL A   1      43.845  33.166  26.675  1.00  0.00    -0.200 F 
ATOM     92  C   UNL A   1      46.114  32.936  27.279  1.00  0.00     0.200 A 
ATOM     93  F   UNL A   1      48.356  32.713  27.975  1.00  0.00    -0.200 F 
ATOM     94  F   UNL A   1      46.433  34.006  26.537  1.00  0.00    -0.200 F 
ENDBRANCH  61  84
ENDBRANCH  35  36
ENDBRANCH  27  30
ENDBRANCH  25  26
ENDBRANCH  24  25
ENDBRANCH  23  24
ENDBRANCH   1  23
TORSDOF 16
ENDMDL
MODEL 2
REMARK VINA RESULT:     -12.1      3.020      8.610
REMARK SMILES Cc1cc(C)c2c(=O)n(CCCC(=O)NCCCCCCNC(=O)c3ccc(-c4c5nc(c(-c6c(F)c(F)c(F)c(F)c6F)c6ccc([nH]6)c(-c6c(F)c(F)c(F)c(F)c6F)c6nc(c(-c7c(F)c(F)c(F)c(F)c7F)c7ccc4[nH]7)C=C6)C=C5)cc3)sc2n1
REMARK SMILES IDX 18 1 17 2 16 3 15 4 13 5 14 6 12 8 11 9 10 10 9 11 1 12 2 13
REMARK SMILES IDX 3 14 90 15 4 16 89 17 5 18 6 19 88 20 7 21 8 22 19 23 20 24
REMARK SMILES IDX 21 25 22 26 23 27 24 29 25 30 26 31 87 32 27 33 86 34 28 35
REMARK SMILES IDX 29 36 30 37 80 38 31 39 85 40 79 41 81 42 32 43 84 44 78 45
REMARK SMILES IDX 77 46 33 48 65 49 45 50 64 51 46 52 49 53 63 54 82 55 47 56
REMARK SMILES IDX 48 57 62 59 83 60 50 61 34 62 35 63 43 64 36 65 37 66 41 67
REMARK SMILES IDX 44 68 38 69 39 70 42 71 40 72 66 73 67 74 75 75 68 76 69 77
REMARK SMILES IDX 73 78 76 79 70 80 71 81 74 82 72 83 51 84 52 85 60 86 53 87
REMARK SMILES IDX 54 88 58 89 61 90 55 91 56 92 59 93 57 94
REMARK H PARENT 15 7 22 28 81 47 49 58
REMARK Flexibility Score: inf
ROOT
ATOM      1  C   UNL A   1      35.536  24.018  24.666  1.00  0.00     0.002 C 
ENDROOT
BRANCH   1   2
ATOM      2  C   UNL A   1      34.508  24.315  23.569  1.00  0.00     0.021 C 
BRANCH   2   3
ATOM      3  C   UNL A   1      34.035  25.770  23.557  1.00  0.00     0.116 C 
BRANCH   3   4
ATOM      4  N   UNL A   1      34.087  26.324  24.891  1.00  0.00    -0.356 N 
ATOM      5  C   UNL A   1      33.204  27.122  25.546  1.00  0.00     0.220 C 
ATOM      6  O   UNL A   1      33.542  27.580  26.639  1.00  0.00    -0.275 OA
ATOM      7  H   UNL A   1      34.890  26.085  25.407  1.00  0.00     0.163 HD
BRANCH   5   8
ATOM      8  C   UNL A   1      31.809  27.358  25.003  1.00  0.00     0.102 C 
BRANCH   8   9
ATOM      9  C   UNL A   1      30.605  26.870  25.817  1.00  0.00     0.033 C 
BRANCH   9  10
ATOM     10  C   UNL A   1      30.098  25.423  25.694  1.00  0.00     0.139 C 
BRANCH  10  11
ATOM     11  N   UNL A   1      30.997  24.334  25.328  1.00  0.00    -0.262 N 
ATOM     12  C   UNL A   1      32.977  18.753  23.766  1.00  0.00     0.067 C 
ATOM     13  C   UNL A   1      32.789  20.062  24.476  1.00  0.00     0.039 A 
ATOM     14  C   UNL A   1      33.424  20.309  25.701  1.00  0.00     0.027 A 
ATOM     15  N   UNL A   1      32.028  20.989  23.849  1.00  0.00    -0.241 NA
ATOM     16  C   UNL A   1      33.218  21.529  26.367  1.00  0.00    -0.033 A 
ATOM     17  C   UNL A   1      31.852  22.146  24.510  1.00  0.00     0.146 A 
ATOM     18  C   UNL A   1      33.917  21.823  27.656  1.00  0.00     0.045 C 
ATOM     19  C   UNL A   1      32.356  22.437  25.763  1.00  0.00     0.081 A 
ATOM     20  S   UNL A   1      30.949  23.507  23.834  1.00  0.00    -0.035 S 
ATOM     21  C   UNL A   1      31.803  23.708  26.284  1.00  0.00     0.270 A 
ATOM     22  O   UNL A   1      31.971  24.075  27.437  1.00  0.00    -0.268 OA
ENDBRANCH  10  11
ENDBRANCH   9  10
ENDBRANCH   8   9
ENDBRANCH   5   8
ENDBRANCH   3   4
ENDBRANCH   2   3
ENDBRANCH   1   2
BRANCH   1  23
ATOM     23  C   UNL A   1      36.599  22.972  24.297  1.00  0.00     0.002 C 
BRANCH  23  24
ATOM     24  C   UNL A   1      37.222  22.203  25.470  1.00  0.00     0.021 C 
BRANCH  24  25
ATOM     25  C   UNL A   1      38.374  22.943  26.132  1.00  0.00     0.116 C 
BRANCH  25  26
ATOM     26  N   UNL A   1      39.632  22.200  26.047  1.00  0.00    -0.352 N 
ATOM     27  C   UNL A   1      40.916  22.690  26.131  1.00  0.00     0.251 C 
ATOM     28  H   UNL A   1      39.550  21.229  25.910  1.00  0.00     0.163 HD
ATOM     29  O   UNL A   1      41.881  22.032  25.755  1.00  0.00    -0.269 OA
BRANCH  27  30
ATOM     30  C   UNL A   1      41.110  24.037  26.686  1.00  0.00     0.039 A 
ATOM     31  C   UNL A   1      40.469  25.150  26.134  1.00  0.00     0.014 A 
ATOM     32  C   UNL A   1      41.903  24.152  27.822  1.00  0.00     0.014 A 
ATOM     33  C   UNL A   1      40.576  26.380  26.782  1.00  0.00     0.010 A 
ATOM     34  C   UNL A   1      41.875  25.320  28.540  1.00  0.00     0.010 A 
ATOM     35  C   UNL A   1      41.273  26.457  27.993  1.00  0.00    -0.014 A 
BRANCH  35  36
ATOM     36  C   UNL A   1      41.370  27.709  28.743  1.00  0.00     0.031 A 
ATOM     37  C   UNL A   1      42.476  28.652  28.372  1.00  0.00     0.074 A 
ATOM     38  C   UNL A   1      40.334  28.112  29.511  1.00  0.00     0.049 A 
ATOM     39  N   UNL A   1      43.299  29.283  29.149  1.00  0.00    -0.248 NA
ATOM     40  C   UNL A   1      42.708  28.910  26.939  1.00  0.00     0.031 C 
ATOM     41  C   UNL A   1      39.035  27.451  29.711  1.00  0.00     0.029 A 
ATOM     42  N   UNL A   1      40.157  29.300  30.145  1.00  0.00    -0.354 N 
ATOM     43  C   UNL A   1      44.073  30.106  28.329  1.00  0.00     0.074 A 
ATOM     44  C   UNL A   1      43.723  29.774  26.970  1.00  0.00     0.031 C 
ATOM     45  C   UNL A   1      38.136  28.351  30.163  1.00  0.00     0.029 A 
ATOM     46  C   UNL A   1      38.837  29.584  30.461  1.00  0.00     0.049 A 
ATOM     47  H   UNL A   1      40.901  29.907  30.362  1.00  0.00     0.167 HD
ATOM     48  C   UNL A   1      44.854  31.114  28.812  1.00  0.00     0.037 A 
ATOM     49  C   UNL A   1      38.347  30.773  30.878  1.00  0.00     0.037 A 
ATOM     50  C   UNL A   1      45.083  30.993  30.223  1.00  0.00     0.049 A 
ATOM     51  C   UNL A   1      39.493  31.573  31.372  1.00  0.00     0.074 A 
ATOM     52  C   UNL A   1      45.730  30.070  31.020  1.00  0.00     0.029 A 
ATOM     53  N   UNL A   1      44.317  31.742  31.080  1.00  0.00    -0.354 N 
ATOM     54  N   UNL A   1      40.196  31.269  32.428  1.00  0.00    -0.248 NA
ATOM     55  C   UNL A   1      40.137  32.477  30.430  1.00  0.00     0.031 C 
ATOM     56  C   UNL A   1      44.931  29.977  32.196  1.00  0.00     0.029 A 
ATOM     57  C   UNL A   1      43.879  30.886  32.060  1.00  0.00     0.049 A 
ATOM     58  H   UNL A   1      44.120  32.704  31.007  1.00  0.00     0.167 HD
ATOM     59  C   UNL A   1      41.501  31.599  32.092  1.00  0.00     0.074 A 
ATOM     60  C   UNL A   1      41.389  32.422  30.891  1.00  0.00     0.031 C 
ATOM     61  C   UNL A   1      42.562  30.945  32.649  1.00  0.00     0.037 A 
BRANCH  48  62
ATOM     62  C   UNL A   1      45.221  32.358  28.048  1.00  0.00     0.064 A 
ATOM     63  C   UNL A   1      44.246  33.326  27.743  1.00  0.00     0.173 A 
ATOM     64  C   UNL A   1      46.455  32.498  27.382  1.00  0.00     0.173 A 
ATOM     65  F   UNL A   1      43.024  33.262  28.292  1.00  0.00    -0.203 F 
ATOM     66  C   UNL A   1      44.485  34.345  26.814  1.00  0.00     0.198 A 
ATOM     67  C   UNL A   1      46.708  33.543  26.494  1.00  0.00     0.198 A 
ATOM     68  F   UNL A   1      47.419  31.573  27.496  1.00  0.00    -0.203 F 
ATOM     69  F   UNL A   1      43.500  35.193  26.484  1.00  0.00    -0.200 F 
ATOM     70  C   UNL A   1      45.716  34.453  26.192  1.00  0.00     0.200 A 
ATOM     71  F   UNL A   1      47.899  33.618  25.884  1.00  0.00    -0.200 F 
ATOM     72  F   UNL A   1      45.933  35.403  25.272  1.00  0.00    -0.200 F 
ENDBRANCH  48  62
BRANCH  49  73
ATOM     73  C   UNL A   1      37.029  31.365  30.560  1.00  0.00     0.064 A 
ATOM     74  C   UNL A   1      36.098  31.635  31.574  1.00  0.00     0.173 A 
ATOM     75  C   UNL A   1      36.762  31.924  29.294  1.00  0.00     0.173 A 
ATOM     76  F   UNL A   1      36.304  31.173  32.815  1.00  0.00    -0.203 F 
ATOM     77  C   UNL A   1      34.979  32.441  31.342  1.00  0.00     0.198 A 
ATOM     78  C   UNL A   1      35.641  32.721  29.062  1.00  0.00     0.198 A 
ATOM     79  F   UNL A   1      37.632  31.786  28.283  1.00  0.00    -0.203 F 
ATOM     80  F   UNL A   1      34.145  32.730  32.350  1.00  0.00    -0.200 F 
ATOM     81  C   UNL A   1      34.757  32.991  30.089  1.00  0.00     0.200 A 
ATOM     82  F   UNL A   1      35.457  33.274  27.855  1.00  0.00    -0.200 F 
ATOM     83  F   UNL A   1      33.720  33.814  29.885  1.00  0.00    -0.200 F 
ENDBRANCH  49  73
BRANCH  61  84
ATOM     84  C   UNL A   1      42.291  30.007  33.794  1.00  0.00     0.064 A 
ATOM     85  C   UNL A   1      41.942  28.654  33.630  1.00  0.00     0.173 A 
ATOM     86  C   UNL A   1      42.552  30.442  35.099  1.00  0.00     0.173 A 
ATOM     87  F   UNL A   1      41.787  28.127  32.413  1.00  0.00    -0.203 F 
ATOM     88  C   UNL A   1      41.813  27.795  34.720  1.00  0.00     0.198 A 
ATOM     89  C   UNL A   1      42.460  29.573  36.184  1.00  0.00     0.198 A 
ATOM     90  F   UNL A   1      42.953  31.704  35.318  1.00  0.00    -0.203 F 
ATOM     91  F   UNL A   1      41.470  26.512  34.527  1.00  0.00    -0.200 F 
ATOM     92  C   UNL A   1      42.080  28.254  35.996  1.00  0.00     0.200 A 
ATOM     93  F   UNL A   1      42.772  30.007  37.414  1.00  0.00    -0.200 F 
ATOM     94  F   UNL A   1      42.002  27.418  37.041  1.00  0.00    -0.200 F 
ENDBRANCH  61  84
ENDBRANCH  35  36
ENDBRANCH  27  30
ENDBRANCH  25  26
ENDBRANCH  24  25
ENDBRANCH  23  24
ENDBRANCH   1  23
TORSDOF 16
ENDMDL
MODEL 3
REMARK VINA RESULT:     -11.9      3.005      8.211
REMARK SMILES Cc1cc(C)c2c(=O)n(CCCC(=O)NCCCCCCNC(=O)c3ccc(-c4c5nc(c(-c6c(F)c(F)c(F)c(F)c6F)c6ccc([nH]6)c(-c6c(F)c(F)c(F)c(F)c6F)c6nc(c(-c7c(F)c(F)c(F)c(F)c7F)c7ccc4[nH]7)C=C6)C=C5)cc3)sc2n1
REMARK SMILES IDX 18 1 17 2 16 3 15 4 13 5 14 6 12 8 11 9 10 10 9 11 1 12 2 13
REMARK SMILES IDX 3 14 90 15 4 16 89 17 5 18 6 19 88 20 7 21 8 22 19 23 20 24
REMARK SMILES IDX 21 25 22 26 23 27 24 29 25 30 26 31 87 32 27 33 86 34 28 35
REMARK SMILES IDX 29 36 30 37 80 38 31 39 85 40 79 41 81 42 32 43 84 44 78 45
REMARK SMILES IDX 77 46 33 48 65 49 45 50 64 51 46 52 49 53 63 54 82 55 47 56
REMARK SMILES IDX 48 57 62 59 83 60 50 61 34 62 35 63 43 64 36 65 37 66 41 67
REMARK SMILES IDX 44 68 38 69 39 70 42 71 40 72 66 73 67 74 75 75 68 76 69 77
REMARK SMILES IDX 73 78 76 79 70 80 71 81 74 82 72 83 51 84 52 85 60 86 53 87
REMARK SMILES IDX 54 88 58 89 61 90 55 91 56 92 59 93 57 94
REMARK H PARENT 15 7 22 28 81 47 49 58
REMARK Flexibility Score: inf
ROOT
ATOM      1  C   UNL A   1      36.621  22.785  25.106  1.00  0.00     0.002 C 
ENDROOT
BRANCH   1   2
ATOM      2  C   UNL A   1      36.161  21.331  25.260  1.00  0.00     0.021 C 
BRANCH   2   3
ATOM      3  C   UNL A   1      34.910  21.178  26.126  1.00  0.00     0.116 C 
BRANCH   3   4
ATOM      4  N   UNL A   1      34.054  20.143  25.590  1.00  0.00    -0.356 N 
ATOM      5  C   UNL A   1      32.735  20.174  25.265  1.00  0.00     0.220 C 
ATOM      6  O   UNL A   1      32.193  19.113  24.952  1.00  0.00    -0.275 OA
ATOM      7  H   UNL A   1      34.497  19.278  25.437  1.00  0.00     0.163 HD
BRANCH   5   8
ATOM      8  C   UNL A   1      31.979  21.486  25.185  1.00  0.00     0.102 C 
BRANCH   8   9
ATOM      9  C   UNL A   1      32.064  22.313  23.896  1.00  0.00     0.033 C 
BRANCH   9  10
ATOM     10  C   UNL A   1      33.333  23.109  23.547  1.00  0.00     0.139 C 
BRANCH  10  11
ATOM     11  N   UNL A   1      33.600  24.410  24.152  1.00  0.00    -0.262 N 
ATOM     12  C   UNL A   1      32.729  29.665  27.173  1.00  0.00     0.067 C 
ATOM     13  C   UNL A   1      33.078  28.660  26.116  1.00  0.00     0.039 A 
ATOM     14  C   UNL A   1      33.435  29.074  24.825  1.00  0.00     0.027 A 
ATOM     15  N   UNL A   1      33.079  27.360  26.491  1.00  0.00    -0.241 NA
ATOM     16  C   UNL A   1      33.735  28.120  23.838  1.00  0.00    -0.033 A 
ATOM     17  C   UNL A   1      33.372  26.472  25.525  1.00  0.00     0.146 A 
ATOM     18  C   UNL A   1      34.154  28.546  22.466  1.00  0.00     0.045 C 
ATOM     19  C   UNL A   1      33.637  26.783  24.206  1.00  0.00     0.081 A 
ATOM     20  S   UNL A   1      33.491  24.734  25.826  1.00  0.00    -0.035 S 
ATOM     21  C   UNL A   1      33.712  25.564  23.369  1.00  0.00     0.270 A 
ATOM     22  O   UNL A   1      33.764  25.604  22.149  1.00  0.00    -0.268 OA
ENDBRANCH  10  11
ENDBRANCH   9  10
ENDBRANCH   8   9
ENDBRANCH   5   8
ENDBRANCH   3   4
ENDBRANCH   2   3
ENDBRANCH   1   2
BRANCH   1  23
ATOM     23  C   UNL A   1      37.965  23.117  25.772  1.00  0.00     0.002 C 
BRANCH  23  24
ATOM     24  C   UNL A   1      38.850  21.916  26.137  1.00  0.00     0.021 C 
BRANCH  24  25
ATOM     25  C   UNL A   1      40.101  22.302  26.911  1.00  0.00     0.116 C 
BRANCH  25  26
ATOM     26  N   UNL A   1      41.324  22.056  26.145  1.00  0.00    -0.352 N 
ATOM     27  C   UNL A   1      42.260  22.973  25.720  1.00  0.00     0.251 C 
ATOM     28  H   UNL A   1      41.498  21.119  25.902  1.00  0.00     0.163 HD
ATOM     29  O   UNL A   1      43.076  22.699  24.846  1.00  0.00    -0.269 OA
BRANCH  27  30
ATOM     30  C   UNL A   1      42.259  24.304  26.342  1.00  0.00     0.039 A 
ATOM     31  C   UNL A   1      41.450  25.334  25.854  1.00  0.00     0.014 A 
ATOM     32  C   UNL A   1      43.045  24.481  27.475  1.00  0.00     0.014 A 
ATOM     33  C   UNL A   1      41.382  26.533  26.563  1.00  0.00     0.010 A 
ATOM     34  C   UNL A   1      42.854  25.595  28.252  1.00  0.00     0.010 A 
ATOM     35  C   UNL A   1      42.080  26.654  27.770  1.00  0.00    -0.014 A 
BRANCH  35  36
ATOM     36  C   UNL A   1      42.001  27.867  28.582  1.00  0.00     0.031 A 
ATOM     37  C   UNL A   1      43.011  28.943  28.315  1.00  0.00     0.074 A 
ATOM     38  C   UNL A   1      40.891  28.115  29.312  1.00  0.00     0.049 A 
ATOM     39  N   UNL A   1      43.721  29.619  29.165  1.00  0.00    -0.248 NA
ATOM     40  C   UNL A   1      43.282  29.300  26.911  1.00  0.00     0.031 C 
ATOM     41  C   UNL A   1      39.666  27.306  29.411  1.00  0.00     0.029 A 
ATOM     42  N   UNL A   1      40.553  29.241  29.992  1.00  0.00    -0.354 N 
ATOM     43  C   UNL A   1      44.437  30.563  28.427  1.00  0.00     0.074 A 
ATOM     44  C   UNL A   1      44.192  30.267  27.037  1.00  0.00     0.031 C 
ATOM     45  C   UNL A   1      38.651  28.078  29.856  1.00  0.00     0.029 A 
ATOM     46  C   UNL A   1      39.196  29.362  30.250  1.00  0.00     0.049 A 
ATOM     47  H   UNL A   1      41.214  29.913  30.276  1.00  0.00     0.167 HD
ATOM     48  C   UNL A   1      45.078  31.623  28.998  1.00  0.00     0.037 A 
ATOM     49  C   UNL A   1      38.557  30.467  30.696  1.00  0.00     0.037 A 
ATOM     50  C   UNL A   1      45.251  31.454  30.412  1.00  0.00     0.049 A 
ATOM     51  C   UNL A   1      39.582  31.360  31.287  1.00  0.00     0.074 A 
ATOM     52  C   UNL A   1      45.958  30.565  31.197  1.00  0.00     0.029 A 
ATOM     53  N   UNL A   1      44.366  32.068  31.262  1.00  0.00    -0.354 N 
ATOM     54  N   UNL A   1      40.264  31.079  32.364  1.00  0.00    -0.248 NA
ATOM     55  C   UNL A   1      40.166  32.377  30.424  1.00  0.00     0.031 C 
ATOM     56  C   UNL A   1      45.118  30.324  32.324  1.00  0.00     0.029 A 
ATOM     57  C   UNL A   1      43.980  31.119  32.175  1.00  0.00     0.049 A 
ATOM     58  H   UNL A   1      44.066  33.005  31.224  1.00  0.00     0.167 HD
ATOM     59  C   UNL A   1      41.539  31.566  32.114  1.00  0.00     0.074 A 
ATOM     60  C   UNL A   1      41.393  32.434  30.949  1.00  0.00     0.031 C 
ATOM     61  C   UNL A   1      42.638  31.003  32.695  1.00  0.00     0.037 A 
BRANCH  48  62
ATOM     62  C   UNL A   1      45.340  32.938  28.315  1.00  0.00     0.064 A 
ATOM     63  C   UNL A   1      44.272  33.737  27.863  1.00  0.00     0.173 A 
ATOM     64  C   UNL A   1      46.621  33.309  27.859  1.00  0.00     0.173 A 
ATOM     65  F   UNL A   1      43.009  33.448  28.207  1.00  0.00    -0.203 F 
ATOM     66  C   UNL A   1      44.475  34.815  26.995  1.00  0.00     0.198 A 
ATOM     67  C   UNL A   1      46.826  34.413  27.032  1.00  0.00     0.198 A 
ATOM     68  F   UNL A   1      47.699  32.557  28.119  1.00  0.00    -0.203 F 
ATOM     69  F   UNL A   1      43.424  35.495  26.517  1.00  0.00    -0.200 F 
ATOM     70  C   UNL A   1      45.751  35.153  26.581  1.00  0.00     0.200 A 
ATOM     71  F   UNL A   1      48.067  34.711  26.624  1.00  0.00    -0.200 F 
ATOM     72  F   UNL A   1      45.944  36.159  25.717  1.00  0.00    -0.200 F 
ENDBRANCH  48  62
BRANCH  49  73
ATOM     73  C   UNL A   1      37.198  30.928  30.336  1.00  0.00     0.064 A 
ATOM     74  C   UNL A   1      36.318  31.406  31.318  1.00  0.00     0.173 A 
ATOM     75  C   UNL A   1      36.834  31.161  28.995  1.00  0.00     0.173 A 
ATOM     76  F   UNL A   1      36.616  31.260  32.616  1.00  0.00    -0.203 F 
ATOM     77  C   UNL A   1      35.153  32.101  30.978  1.00  0.00     0.198 A 
ATOM     78  C   UNL A   1      35.667  31.847  28.657  1.00  0.00     0.198 A 
ATOM     79  F   UNL A   1      37.648  30.810  27.989  1.00  0.00    -0.203 F 
ATOM     80  F   UNL A   1      34.368  32.598  31.942  1.00  0.00    -0.200 F 
ATOM     81  C   UNL A   1      34.834  32.330  29.648  1.00  0.00     0.200 A 
ATOM     82  F   UNL A   1      35.388  32.091  27.368  1.00  0.00    -0.200 F 
ATOM     83  F   UNL A   1      33.751  33.051  29.325  1.00  0.00    -0.200 F 
ENDBRANCH  49  73
BRANCH  61  84
ATOM     84  C   UNL A   1      42.418  29.982  33.779  1.00  0.00     0.064 A 
ATOM     85  C   UNL A   1      42.197  28.615  33.530  1.00  0.00     0.173 A 
ATOM     86  C   UNL A   1      42.601  30.364  35.113  1.00  0.00     0.173 A 
ATOM     87  F   UNL A   1      42.125  28.145  32.283  1.00  0.00    -0.203 F 
ATOM     88  C   UNL A   1      42.113  27.688  34.568  1.00  0.00     0.198 A 
ATOM     89  C   UNL A   1      42.555  29.430  36.146  1.00  0.00     0.198 A 
ATOM     90  F   UNL A   1      42.881  31.642  35.413  1.00  0.00    -0.203 F 
ATOM     91  F   UNL A   1      41.892  26.393  34.295  1.00  0.00    -0.200 F 
ATOM     92  C   UNL A   1      42.301  28.096  35.875  1.00  0.00     0.200 A 
ATOM     93  F   UNL A   1      42.791  29.820  37.408  1.00  0.00    -0.200 F 
ATOM     94  F   UNL A   1      42.267  27.198  36.870  1.00  0.00    -0.200 F 
ENDBRANCH  61  84
ENDBRANCH  35  36
ENDBRANCH  27  30
ENDBRANCH  25  26
ENDBRANCH  24  25
ENDBRANCH  23  24
ENDBRANCH   1  23
TORSDOF 16
ENDMDL
