MODEL 1
REMARK VINA RESULT:     -13.1      0.000      0.000
REMARK SMILES COc1ccc([C@@H](C(=O)NCCCCCCNC(=O)c2ccc(-c3c4nc(c(-c5c(F)c(F)c(F)c(F)c5F)c5ccc([nH]5)c(-c5c(F)c(F)c(F)c(F)c5F)c5nc(c(-c6c(F)c(F)c(F)c(F)c6F)c6ccc3[nH]6)C=C5)C=C4)cc2)[NH+]2CCC(C(N)=O)CC2)c(C)c1
REMARK SMILES IDX 13 1 12 2 11 3 10 4 8 5 9 6 7 8 6 9 3 10 4 11 94 12 5 13
REMARK SMILES IDX 92 14 93 15 2 16 1 17 83 18 84 19 91 20 85 22 90 23 86 24
REMARK SMILES IDX 87 25 88 26 89 27 14 30 15 31 16 32 17 33 18 34 19 36 20 37
REMARK SMILES IDX 21 38 82 39 22 40 81 41 23 42 24 43 25 44 75 45 26 46 80 47
REMARK SMILES IDX 74 48 76 49 27 50 79 51 73 52 72 53 28 55 60 56 40 57 59 58
REMARK SMILES IDX 41 59 44 60 58 61 77 62 42 63 43 64 57 66 78 67 45 68 29 69
REMARK SMILES IDX 30 70 38 71 31 72 32 73 36 74 39 75 33 76 34 77 37 78 35 79
REMARK SMILES IDX 61 80 62 81 70 82 63 83 64 84 68 85 71 86 65 87 66 88 69 89
REMARK SMILES IDX 67 90 46 91 47 92 55 93 48 94 49 95 53 96 56 97 50 98 51 99
REMARK SMILES IDX 54 100 52 101
REMARK H PARENT 10 7 83 21 88 28 88 29 17 35 76 54 44 65
REMARK Flexibility Score: inf
ROOT
ATOM      1  C   UNL A   1      36.471  22.403  25.025  1.00  0.00     0.002 C 
ENDROOT
BRANCH   1   2
ATOM      2  C   UNL A   1      36.238  22.996  23.627  1.00  0.00     0.021 C 
BRANCH   2   3
ATOM      3  C   UNL A   1      35.048  23.948  23.499  1.00  0.00     0.116 C 
BRANCH   3   4
ATOM      4  N   UNL A   1      34.918  24.833  24.638  1.00  0.00    -0.351 N 
ATOM      5  C   UNL A   1      33.807  25.198  25.355  1.00  0.00     0.283 C 
ATOM      6  O   UNL A   1      34.019  25.909  26.341  1.00  0.00    -0.268 OA
ATOM      7  H   UNL A   1      35.762  25.236  24.946  1.00  0.00     0.163 HD
BRANCH   5   8
ATOM      8  C   UNL A   1      32.395  24.673  24.939  1.00  0.00     0.305 C 
BRANCH   8   9
ATOM      9  C   UNL A   1      32.351  23.210  24.461  1.00  0.00     0.022 A 
ATOM     10  C   UNL A   1      32.248  20.623  23.291  1.00  0.00     0.119 A 
ATOM     11  C   UNL A   1      31.944  21.736  22.525  1.00  0.00     0.047 A 
ATOM     12  C   UNL A   1      32.572  20.793  24.637  1.00  0.00     0.050 A 
ATOM     13  C   UNL A   1      32.005  23.008  23.101  1.00  0.00     0.014 A 
ATOM     14  C   UNL A   1      32.625  22.068  25.243  1.00  0.00    -0.038 A 
ATOM     15  C   UNL A   1      33.028  22.079  26.694  1.00  0.00     0.045 C 
BRANCH  10  16
ATOM     16  O   UNL A   1      32.238  19.329  22.850  1.00  0.00    -0.497 OA
ATOM     17  C   UNL A   1      32.541  18.341  23.829  1.00  0.00     0.278 C 
ENDBRANCH  10  16
ENDBRANCH   8   9
BRANCH   8  18
ATOM     18  N   UNL A   1      31.630  25.649  24.094  1.00  0.00    -0.321 N 
ATOM     19  C   UNL A   1      30.557  26.359  24.797  1.00  0.00     0.263 C 
ATOM     20  C   UNL A   1      32.513  26.572  23.367  1.00  0.00     0.263 C 
ATOM     21  H   UNL A   1      31.153  25.069  23.406  1.00  0.00     0.349 HD
ATOM     22  C   UNL A   1      29.736  27.237  23.849  1.00  0.00     0.075 C 
ATOM     23  C   UNL A   1      31.743  27.474  22.399  1.00  0.00     0.075 C 
ATOM     24  C   UNL A   1      30.648  28.236  23.143  1.00  0.00     0.089 C 
BRANCH  24  25
ATOM     25  C   UNL A   1      29.847  29.108  22.199  1.00  0.00     0.220 C 
ATOM     26  N   UNL A   1      30.567  30.082  21.571  1.00  0.00    -0.369 N 
ATOM     27  O   UNL A   1      28.643  28.992  22.001  1.00  0.00    -0.275 OA
ATOM     28  H   UNL A   1      31.533  30.164  21.737  1.00  0.00     0.159 HD
ATOM     29  H   UNL A   1      30.120  30.702  20.950  1.00  0.00     0.159 HD
ENDBRANCH  24  25
ENDBRANCH   8  18
ENDBRANCH   5   8
ENDBRANCH   3   4
ENDBRANCH   2   3
ENDBRANCH   1   2
BRANCH   1  30
ATOM     30  C   UNL A   1      37.270  21.092  25.099  1.00  0.00     0.002 C 
BRANCH  30  31
ATOM     31  C   UNL A   1      38.668  21.189  25.714  1.00  0.00     0.021 C 
BRANCH  31  32
ATOM     32  C   UNL A   1      39.107  22.607  26.054  1.00  0.00     0.116 C 
BRANCH  32  33
ATOM     33  N   UNL A   1      40.554  22.776  26.140  1.00  0.00    -0.352 N 
ATOM     34  C   UNL A   1      41.266  23.912  26.494  1.00  0.00     0.251 C 
ATOM     35  H   UNL A   1      41.093  21.982  25.919  1.00  0.00     0.163 HD
ATOM     36  O   UNL A   1      42.483  23.909  26.548  1.00  0.00    -0.269 OA
BRANCH  34  37
ATOM     37  C   UNL A   1      40.498  25.105  26.915  1.00  0.00     0.039 A 
ATOM     38  C   UNL A   1      40.789  26.328  26.304  1.00  0.00     0.014 A 
ATOM     39  C   UNL A   1      39.687  25.048  28.047  1.00  0.00     0.014 A 
ATOM     40  C   UNL A   1      40.464  27.508  26.966  1.00  0.00     0.010 A 
ATOM     41  C   UNL A   1      39.443  26.214  28.747  1.00  0.00     0.010 A 
ATOM     42  C   UNL A   1      39.896  27.437  28.240  1.00  0.00    -0.014 A 
BRANCH  42  43
ATOM     43  C   UNL A   1      39.848  28.576  29.150  1.00  0.00     0.031 A 
ATOM     44  C   UNL A   1      38.831  29.634  28.985  1.00  0.00     0.074 A 
ATOM     45  C   UNL A   1      40.720  28.645  30.181  1.00  0.00     0.049 A 
ATOM     46  N   UNL A   1      38.964  30.840  29.428  1.00  0.00    -0.248 NA
ATOM     47  C   UNL A   1      37.583  29.417  28.271  1.00  0.00     0.031 C 
ATOM     48  C   UNL A   1      40.694  29.582  31.302  1.00  0.00     0.029 A 
ATOM     49  N   UNL A   1      41.967  28.008  30.290  1.00  0.00    -0.354 N 
ATOM     50  C   UNL A   1      37.757  31.481  29.284  1.00  0.00     0.074 A 
ATOM     51  C   UNL A   1      36.942  30.565  28.515  1.00  0.00     0.031 C 
ATOM     52  C   UNL A   1      41.942  29.714  31.777  1.00  0.00     0.029 A 
ATOM     53  C   UNL A   1      42.818  28.964  30.896  1.00  0.00     0.049 A 
ATOM     54  H   UNL A   1      42.198  27.093  30.008  1.00  0.00     0.167 HD
ATOM     55  C   UNL A   1      37.549  32.669  29.924  1.00  0.00     0.037 A 
ATOM     56  C   UNL A   1      43.893  29.470  30.225  1.00  0.00     0.037 A 
ATOM     57  C   UNL A   1      38.748  33.129  30.621  1.00  0.00     0.049 A 
ATOM     58  C   UNL A   1      43.866  30.970  30.015  1.00  0.00     0.074 A 
ATOM     59  C   UNL A   1      39.180  33.099  31.938  1.00  0.00     0.029 A 
ATOM     60  N   UNL A   1      39.853  33.485  29.869  1.00  0.00    -0.354 N 
ATOM     61  N   UNL A   1      42.878  31.749  30.357  1.00  0.00    -0.248 NA
ATOM     62  C   UNL A   1      44.919  31.690  29.296  1.00  0.00     0.031 C 
ATOM     63  C   UNL A   1      40.559  33.458  31.964  1.00  0.00     0.029 A 
ATOM     64  C   UNL A   1      40.961  33.700  30.665  1.00  0.00     0.049 A 
ATOM     65  H   UNL A   1      39.850  33.574  28.890  1.00  0.00     0.167 HD
ATOM     66  C   UNL A   1      43.115  33.012  29.885  1.00  0.00     0.074 A 
ATOM     67  C   UNL A   1      44.402  32.928  29.224  1.00  0.00     0.031 C 
ATOM     68  C   UNL A   1      42.221  34.033  30.029  1.00  0.00     0.037 A 
BRANCH  55  69
ATOM     69  C   UNL A   1      36.190  33.306  30.102  1.00  0.00     0.064 A 
ATOM     70  C   UNL A   1      35.501  33.862  29.002  1.00  0.00     0.173 A 
ATOM     71  C   UNL A   1      35.531  33.443  31.337  1.00  0.00     0.173 A 
ATOM     72  F   UNL A   1      35.942  33.708  27.747  1.00  0.00    -0.203 F 
ATOM     73  C   UNL A   1      34.328  34.607  29.148  1.00  0.00     0.198 A 
ATOM     74  C   UNL A   1      34.392  34.240  31.495  1.00  0.00     0.198 A 
ATOM     75  F   UNL A   1      35.933  32.764  32.418  1.00  0.00    -0.203 F 
ATOM     76  F   UNL A   1      33.726  35.118  28.065  1.00  0.00    -0.200 F 
ATOM     77  C   UNL A   1      33.799  34.835  30.401  1.00  0.00     0.200 A 
ATOM     78  F   UNL A   1      33.874  34.426  32.718  1.00  0.00    -0.200 F 
ATOM     79  F   UNL A   1      32.708  35.599  30.550  1.00  0.00    -0.200 F 
ENDBRANCH  55  69
BRANCH  56  80
ATOM     80  C   UNL A   1      44.498  28.489  29.285  1.00  0.00     0.064 A 
ATOM     81  C   UNL A   1      45.301  27.459  29.814  1.00  0.00     0.173 A 
ATOM     82  C   UNL A   1      44.025  28.335  27.977  1.00  0.00     0.173 A 
ATOM     83  F   UNL A   1      45.780  27.556  31.064  1.00  0.00    -0.203 F 
ATOM     84  C   UNL A   1      45.513  26.275  29.112  1.00  0.00     0.198 A 
ATOM     85  C   UNL A   1      44.261  27.158  27.268  1.00  0.00     0.198 A 
ATOM     86  F   UNL A   1      43.239  29.270  27.424  1.00  0.00    -0.203 F 
ATOM     87  F   UNL A   1      46.174  25.264  29.692  1.00  0.00    -0.200 F 
ATOM     88  C   UNL A   1      44.970  26.115  27.849  1.00  0.00     0.200 A 
ATOM     89  F   UNL A   1      43.719  26.996  26.053  1.00  0.00    -0.200 F 
ATOM     90  F   UNL A   1      45.095  24.946  27.208  1.00  0.00    -0.200 F 
ENDBRANCH  56  80
BRANCH  68  91
ATOM     91  C   UNL A   1      42.474  35.435  29.555  1.00  0.00     0.064 A 
ATOM     92  C   UNL A   1      41.941  35.931  28.354  1.00  0.00     0.173 A 
ATOM     93  C   UNL A   1      43.357  36.295  30.242  1.00  0.00     0.173 A 
ATOM     94  F   UNL A   1      41.152  35.165  27.586  1.00  0.00    -0.203 F 
ATOM     95  C   UNL A   1      42.224  37.221  27.903  1.00  0.00     0.198 A 
ATOM     96  C   UNL A   1      43.679  37.563  29.763  1.00  0.00     0.198 A 
ATOM     97  F   UNL A   1      43.914  35.939  31.409  1.00  0.00    -0.203 F 
ATOM     98  F   UNL A   1      41.648  37.675  26.780  1.00  0.00    -0.200 F 
ATOM     99  C   UNL A   1      43.100  38.034  28.602  1.00  0.00     0.200 A 
ATOM    100  F   UNL A   1      44.548  38.328  30.438  1.00  0.00    -0.200 F 
ATOM    101  F   UNL A   1      43.384  39.265  28.158  1.00  0.00    -0.200 F 
ENDBRANCH  68  91
ENDBRANCH  42  43
ENDBRANCH  34  37
ENDBRANCH  32  33
ENDBRANCH  31  32
ENDBRANCH  30  31
ENDBRANCH   1  30
TORSDOF 17
ENDMDL
MODEL 2
REMARK VINA RESULT:     -13.0      3.361      9.447
REMARK SMILES COc1ccc([C@@H](C(=O)NCCCCCCNC(=O)c2ccc(-c3c4nc(c(-c5c(F)c(F)c(F)c(F)c5F)c5ccc([nH]5)c(-c5c(F)c(F)c(F)c(F)c5F)c5nc(c(-c6c(F)c(F)c(F)c(F)c6F)c6ccc3[nH]6)C=C5)C=C4)cc2)[NH+]2CCC(C(N)=O)CC2)c(C)c1
REMARK SMILES IDX 13 1 12 2 11 3 10 4 8 5 9 6 7 8 6 9 3 10 4 11 94 12 5 13
REMARK SMILES IDX 92 14 93 15 2 16 1 17 83 18 84 19 91 20 85 22 90 23 86 24
REMARK SMILES IDX 87 25 88 26 89 27 14 30 15 31 16 32 17 33 18 34 19 36 20 37
REMARK SMILES IDX 21 38 82 39 22 40 81 41 23 42 24 43 25 44 75 45 26 46 80 47
REMARK SMILES IDX 74 48 76 49 27 50 79 51 73 52 72 53 28 55 60 56 40 57 59 58
REMARK SMILES IDX 41 59 44 60 58 61 77 62 42 63 43 64 57 66 78 67 45 68 29 69
REMARK SMILES IDX 30 70 38 71 31 72 32 73 36 74 39 75 33 76 34 77 37 78 35 79
REMARK SMILES IDX 61 80 62 81 70 82 63 83 64 84 68 85 71 86 65 87 66 88 69 89
REMARK SMILES IDX 67 90 46 91 47 92 55 93 48 94 49 95 53 96 56 97 50 98 51 99
REMARK SMILES IDX 54 100 52 101
REMARK H PARENT 10 7 83 21 88 28 88 29 17 35 76 54 44 65
REMARK Flexibility Score: inf
ROOT
ATOM      1  C   UNL A   1      32.049  29.495  25.963  1.00  0.00     0.002 C 
ENDROOT
BRANCH   1   2
ATOM      2  C   UNL A   1      31.562  28.431  26.959  1.00  0.00     0.021 C 
BRANCH   2   3
ATOM      3  C   UNL A   1      32.526  27.272  27.216  1.00  0.00     0.116 C 
BRANCH   3   4
ATOM      4  N   UNL A   1      33.371  26.987  26.075  1.00  0.00    -0.351 N 
ATOM      5  C   UNL A   1      33.134  26.212  24.969  1.00  0.00     0.283 C 
ATOM      6  O   UNL A   1      34.019  26.226  24.109  1.00  0.00    -0.268 OA
ATOM      7  H   UNL A   1      34.256  27.418  26.098  1.00  0.00     0.163 HD
BRANCH   5   8
ATOM      8  C   UNL A   1      31.790  25.427  24.830  1.00  0.00     0.305 C 
BRANCH   8   9
ATOM      9  C   UNL A   1      31.934  23.932  24.489  1.00  0.00     0.022 A 
ATOM     10  C   UNL A   1      32.298  21.265  23.581  1.00  0.00     0.119 A 
ATOM     11  C   UNL A   1      32.347  22.312  22.676  1.00  0.00     0.047 A 
ATOM     12  C   UNL A   1      32.039  21.541  24.924  1.00  0.00     0.050 A 
ATOM     13  C   UNL A   1      32.177  23.623  23.126  1.00  0.00     0.014 A 
ATOM     14  C   UNL A   1      31.849  22.857  25.399  1.00  0.00    -0.038 A 
ATOM     15  C   UNL A   1      31.618  22.983  26.881  1.00  0.00     0.045 C 
BRANCH  10  16
ATOM     16  O   UNL A   1      32.458  19.942  23.275  1.00  0.00    -0.497 OA
ATOM     17  C   UNL A   1      32.777  19.089  24.369  1.00  0.00     0.278 C 
ENDBRANCH  10  16
ENDBRANCH   8   9
BRANCH   8  18
ATOM     18  N   UNL A   1      30.754  26.171  24.040  1.00  0.00    -0.321 N 
ATOM     19  C   UNL A   1      29.481  26.375  24.738  1.00  0.00     0.263 C 
ATOM     20  C   UNL A   1      31.274  27.422  23.472  1.00  0.00     0.263 C 
ATOM     21  H   UNL A   1      30.530  25.547  23.265  1.00  0.00     0.349 HD
ATOM     22  C   UNL A   1      28.429  27.020  23.832  1.00  0.00     0.075 C 
ATOM     23  C   UNL A   1      30.262  28.110  22.552  1.00  0.00     0.075 C 
ATOM     24  C   UNL A   1      28.949  28.350  23.295  1.00  0.00     0.089 C 
BRANCH  24  25
ATOM     25  C   UNL A   1      27.918  28.996  22.393  1.00  0.00     0.220 C 
ATOM     26  N   UNL A   1      26.623  28.688  22.695  1.00  0.00    -0.369 N 
ATOM     27  O   UNL A   1      28.184  29.726  21.446  1.00  0.00    -0.275 OA
ATOM     28  H   UNL A   1      26.422  28.101  23.459  1.00  0.00     0.159 HD
ATOM     29  H   UNL A   1      25.890  29.055  22.150  1.00  0.00     0.159 HD
ENDBRANCH  24  25
ENDBRANCH   8  18
ENDBRANCH   5   8
ENDBRANCH   3   4
ENDBRANCH   2   3
ENDBRANCH   1   2
BRANCH   1  30
ATOM     30  C   UNL A   1      32.808  30.697  26.549  1.00  0.00     0.002 C 
BRANCH  30  31
ATOM     31  C   UNL A   1      33.914  30.370  27.555  1.00  0.00     0.021 C 
BRANCH  31  32
ATOM     32  C   UNL A   1      34.987  31.443  27.678  1.00  0.00     0.116 C 
BRANCH  32  33
ATOM     33  N   UNL A   1      35.284  31.831  29.054  1.00  0.00    -0.352 N 
ATOM     34  C   UNL A   1      36.153  31.225  29.948  1.00  0.00     0.251 C 
ATOM     35  H   UNL A   1      34.807  32.624  29.389  1.00  0.00     0.163 HD
ATOM     36  O   UNL A   1      36.325  31.669  31.068  1.00  0.00    -0.269 OA
BRANCH  34  37
ATOM     37  C   UNL A   1      36.956  30.080  29.462  1.00  0.00     0.039 A 
ATOM     38  C   UNL A   1      37.207  29.027  30.346  1.00  0.00     0.014 A 
ATOM     39  C   UNL A   1      37.632  30.168  28.247  1.00  0.00     0.014 A 
ATOM     40  C   UNL A   1      38.304  28.201  30.118  1.00  0.00     0.010 A 
ATOM     41  C   UNL A   1      38.770  29.407  28.065  1.00  0.00     0.010 A 
ATOM     42  C   UNL A   1      39.145  28.472  29.037  1.00  0.00    -0.014 A 
BRANCH  42  43
ATOM     43  C   UNL A   1      40.485  27.909  28.916  1.00  0.00     0.031 A 
ATOM     44  C   UNL A   1      40.680  26.492  28.552  1.00  0.00     0.074 A 
ATOM     45  C   UNL A   1      41.563  28.704  29.099  1.00  0.00     0.049 A 
ATOM     46  N   UNL A   1      41.741  25.812  28.835  1.00  0.00    -0.248 NA
ATOM     47  C   UNL A   1      39.665  25.714  27.859  1.00  0.00     0.031 C 
ATOM     48  C   UNL A   1      42.961  28.381  28.819  1.00  0.00     0.029 A 
ATOM     49  N   UNL A   1      41.624  29.912  29.814  1.00  0.00    -0.354 N 
ATOM     50  C   UNL A   1      41.666  24.612  28.171  1.00  0.00     0.074 A 
ATOM     51  C   UNL A   1      40.331  24.580  27.613  1.00  0.00     0.031 C 
ATOM     52  C   UNL A   1      43.740  29.138  29.606  1.00  0.00     0.029 A 
ATOM     53  C   UNL A   1      42.864  29.875  30.498  1.00  0.00     0.049 A 
ATOM     54  H   UNL A   1      40.949  30.630  29.834  1.00  0.00     0.167 HD
ATOM     55  C   UNL A   1      42.780  23.827  28.077  1.00  0.00     0.037 A 
ATOM     56  C   UNL A   1      42.911  29.847  31.861  1.00  0.00     0.037 A 
ATOM     57  C   UNL A   1      43.905  24.389  28.822  1.00  0.00     0.049 A 
ATOM     58  C   UNL A   1      43.585  28.625  32.451  1.00  0.00     0.074 A 
ATOM     59  C   UNL A   1      45.033  25.117  28.479  1.00  0.00     0.029 A 
ATOM     60  N   UNL A   1      43.813  24.462  30.201  1.00  0.00    -0.354 N 
ATOM     61  N   UNL A   1      44.026  27.614  31.757  1.00  0.00    -0.248 NA
ATOM     62  C   UNL A   1      43.711  28.407  33.894  1.00  0.00     0.031 C 
ATOM     63  C   UNL A   1      45.625  25.615  29.675  1.00  0.00     0.029 A 
ATOM     64  C   UNL A   1      44.853  25.193  30.741  1.00  0.00     0.049 A 
ATOM     65  H   UNL A   1      43.097  24.045  30.731  1.00  0.00     0.167 HD
ATOM     66  C   UNL A   1      44.433  26.623  32.611  1.00  0.00     0.074 A 
ATOM     67  C   UNL A   1      44.213  27.162  33.938  1.00  0.00     0.031 C 
ATOM     68  C   UNL A   1      44.881  25.411  32.174  1.00  0.00     0.037 A 
BRANCH  55  69
ATOM     69  C   UNL A   1      42.914  22.660  27.127  1.00  0.00     0.064 A 
ATOM     70  C   UNL A   1      42.175  21.474  27.326  1.00  0.00     0.173 A 
ATOM     71  C   UNL A   1      43.789  22.627  26.025  1.00  0.00     0.173 A 
ATOM     72  F   UNL A   1      41.217  21.393  28.259  1.00  0.00    -0.203 F 
ATOM     73  C   UNL A   1      42.393  20.316  26.575  1.00  0.00     0.198 A 
ATOM     74  C   UNL A   1      44.055  21.453  25.314  1.00  0.00     0.198 A 
ATOM     75  F   UNL A   1      44.370  23.743  25.566  1.00  0.00    -0.203 F 
ATOM     76  F   UNL A   1      41.665  19.218  26.821  1.00  0.00    -0.200 F 
ATOM     77  C   UNL A   1      43.367  20.292  25.599  1.00  0.00     0.200 A 
ATOM     78  F   UNL A   1      44.984  21.457  24.347  1.00  0.00    -0.200 F 
ATOM     79  F   UNL A   1      43.619  19.166  24.919  1.00  0.00    -0.200 F 
ENDBRANCH  55  69
BRANCH  56  80
ATOM     80  C   UNL A   1      41.786  30.587  32.492  1.00  0.00     0.064 A 
ATOM     81  C   UNL A   1      41.802  31.995  32.451  1.00  0.00     0.173 A 
ATOM     82  C   UNL A   1      40.572  29.962  32.793  1.00  0.00     0.173 A 
ATOM     83  F   UNL A   1      42.942  32.646  32.165  1.00  0.00    -0.203 F 
ATOM     84  C   UNL A   1      40.630  32.736  32.581  1.00  0.00     0.198 A 
ATOM     85  C   UNL A   1      39.404  30.709  32.948  1.00  0.00     0.198 A 
ATOM     86  F   UNL A   1      40.485  28.624  32.825  1.00  0.00    -0.203 F 
ATOM     87  F   UNL A   1      40.658  34.066  32.412  1.00  0.00    -0.200 F 
ATOM     88  C   UNL A   1      39.427  32.090  32.803  1.00  0.00     0.200 A 
ATOM     89  F   UNL A   1      38.236  30.081  33.143  1.00  0.00    -0.200 F 
ATOM     90  F   UNL A   1      38.285  32.790  32.839  1.00  0.00    -0.200 F 
ENDBRANCH  56  80
BRANCH  68  91
ATOM     91  C   UNL A   1      45.368  24.323  33.088  1.00  0.00     0.064 A 
ATOM     92  C   UNL A   1      44.550  23.253  33.485  1.00  0.00     0.173 A 
ATOM     93  C   UNL A   1      46.644  24.383  33.686  1.00  0.00     0.173 A 
ATOM     94  F   UNL A   1      43.291  23.147  33.034  1.00  0.00    -0.203 F 
ATOM     95  C   UNL A   1      45.002  22.275  34.374  1.00  0.00     0.198 A 
ATOM     96  C   UNL A   1      47.074  23.435  34.612  1.00  0.00     0.198 A 
ATOM     97  F   UNL A   1      47.520  25.349  33.372  1.00  0.00    -0.203 F 
ATOM     98  F   UNL A   1      44.209  21.239  34.681  1.00  0.00    -0.200 F 
ATOM     99  C   UNL A   1      46.259  22.371  34.944  1.00  0.00     0.200 A 
ATOM    100  F   UNL A   1      48.285  23.556  35.175  1.00  0.00    -0.200 F 
ATOM    101  F   UNL A   1      46.685  21.442  35.809  1.00  0.00    -0.200 F 
ENDBRANCH  68  91
ENDBRANCH  42  43
ENDBRANCH  34  37
ENDBRANCH  32  33
ENDBRANCH  31  32
ENDBRANCH  30  31
ENDBRANCH   1  30
TORSDOF 17
ENDMDL
MODEL 3
REMARK VINA RESULT:     -13.0      3.726      9.971
REMARK SMILES COc1ccc([C@@H](C(=O)NCCCCCCNC(=O)c2ccc(-c3c4nc(c(-c5c(F)c(F)c(F)c(F)c5F)c5ccc([nH]5)c(-c5c(F)c(F)c(F)c(F)c5F)c5nc(c(-c6c(F)c(F)c(F)c(F)c6F)c6ccc3[nH]6)C=C5)C=C4)cc2)[NH+]2CCC(C(N)=O)CC2)c(C)c1
REMARK SMILES IDX 13 1 12 2 11 3 10 4 8 5 9 6 7 8 6 9 3 10 4 11 94 12 5 13
REMARK SMILES IDX 92 14 93 15 2 16 1 17 83 18 84 19 91 20 85 22 90 23 86 24
REMARK SMILES IDX 87 25 88 26 89 27 14 30 15 31 16 32 17 33 18 34 19 36 20 37
REMARK SMILES IDX 21 38 82 39 22 40 81 41 23 42 24 43 25 44 75 45 26 46 80 47
REMARK SMILES IDX 74 48 76 49 27 50 79 51 73 52 72 53 28 55 60 56 40 57 59 58
REMARK SMILES IDX 41 59 44 60 58 61 77 62 42 63 43 64 57 66 78 67 45 68 29 69
REMARK SMILES IDX 30 70 38 71 31 72 32 73 36 74 39 75 33 76 34 77 37 78 35 79
REMARK SMILES IDX 61 80 62 81 70 82 63 83 64 84 68 85 71 86 65 87 66 88 69 89
REMARK SMILES IDX 67 90 46 91 47 92 55 93 48 94 49 95 53 96 56 97 50 98 51 99
REMARK SMILES IDX 54 100 52 101
REMARK H PARENT 10 7 83 21 88 28 88 29 17 35 76 54 44 65
REMARK Flexibility Score: inf
ROOT
ATOM      1  C   UNL A   1      31.404  28.254  25.583  1.00  0.00     0.002 C 
ENDROOT
BRANCH   1   2
ATOM      2  C   UNL A   1      31.481  27.302  26.787  1.00  0.00     0.021 C 
BRANCH   2   3
ATOM      3  C   UNL A   1      32.083  25.924  26.505  1.00  0.00     0.116 C 
BRANCH   3   4
ATOM      4  N   UNL A   1      31.121  24.853  26.667  1.00  0.00    -0.351 N 
ATOM      5  C   UNL A   1      31.167  23.550  26.242  1.00  0.00     0.283 C 
ATOM      6  O   UNL A   1      30.227  22.838  26.606  1.00  0.00    -0.268 OA
ATOM      7  H   UNL A   1      30.305  25.101  27.159  1.00  0.00     0.163 HD
BRANCH   5   8
ATOM      8  C   UNL A   1      32.380  23.037  25.402  1.00  0.00     0.305 C 
BRANCH   8   9
ATOM      9  C   UNL A   1      32.665  23.823  24.109  1.00  0.00     0.022 A 
ATOM     10  C   UNL A   1      32.886  25.338  21.715  1.00  0.00     0.119 A 
ATOM     11  C   UNL A   1      31.635  24.972  22.184  1.00  0.00     0.047 A 
ATOM     12  C   UNL A   1      34.020  24.927  22.417  1.00  0.00     0.050 A 
ATOM     13  C   UNL A   1      31.529  24.236  23.366  1.00  0.00     0.014 A 
ATOM     14  C   UNL A   1      33.937  24.170  23.606  1.00  0.00    -0.038 A 
ATOM     15  C   UNL A   1      35.253  23.842  24.259  1.00  0.00     0.045 C 
BRANCH  10  16
ATOM     16  O   UNL A   1      33.129  26.064  20.583  1.00  0.00    -0.497 OA
ATOM     17  C   UNL A   1      32.521  25.576  19.393  1.00  0.00     0.278 C 
ENDBRANCH  10  16
ENDBRANCH   8   9
BRANCH   8  18
ATOM     18  N   UNL A   1      32.412  21.543  25.267  1.00  0.00    -0.321 N 
ATOM     19  C   UNL A   1      32.603  21.056  23.897  1.00  0.00     0.263 C 
ATOM     20  C   UNL A   1      33.352  20.916  26.207  1.00  0.00     0.263 C 
ATOM     21  H   UNL A   1      31.472  21.245  25.522  1.00  0.00     0.349 HD
ATOM     22  C   UNL A   1      32.494  19.531  23.813  1.00  0.00     0.075 C 
ATOM     23  C   UNL A   1      33.282  19.387  26.167  1.00  0.00     0.075 C 
ATOM     24  C   UNL A   1      33.515  18.883  24.744  1.00  0.00     0.089 C 
BRANCH  24  25
ATOM     25  C   UNL A   1      33.413  17.374  24.672  1.00  0.00     0.220 C 
ATOM     26  N   UNL A   1      33.967  16.713  25.729  1.00  0.00    -0.369 N 
ATOM     27  O   UNL A   1      32.900  16.757  23.747  1.00  0.00    -0.275 OA
ATOM     28  H   UNL A   1      34.377  17.220  26.467  1.00  0.00     0.159 HD
ATOM     29  H   UNL A   1      33.957  15.729  25.755  1.00  0.00     0.159 HD
ENDBRANCH  24  25
ENDBRANCH   8  18
ENDBRANCH   5   8
ENDBRANCH   3   4
ENDBRANCH   2   3
ENDBRANCH   1   2
BRANCH   1  30
ATOM     30  C   UNL A   1      32.131  29.602  25.718  1.00  0.00     0.002 C 
BRANCH  30  31
ATOM     31  C   UNL A   1      32.506  30.027  27.139  1.00  0.00     0.021 C 
BRANCH  31  32
ATOM     32  C   UNL A   1      33.993  29.930  27.452  1.00  0.00     0.116 C 
BRANCH  32  33
ATOM     33  N   UNL A   1      34.458  30.905  28.434  1.00  0.00    -0.352 N 
ATOM     34  C   UNL A   1      35.640  30.898  29.157  1.00  0.00     0.251 C 
ATOM     35  H   UNL A   1      33.855  31.664  28.604  1.00  0.00     0.163 HD
ATOM     36  O   UNL A   1      35.916  31.794  29.934  1.00  0.00    -0.269 OA
BRANCH  34  37
ATOM     37  C   UNL A   1      36.616  29.822  28.874  1.00  0.00     0.039 A 
ATOM     38  C   UNL A   1      36.978  28.967  29.919  1.00  0.00     0.014 A 
ATOM     39  C   UNL A   1      37.321  29.818  27.673  1.00  0.00     0.014 A 
ATOM     40  C   UNL A   1      38.190  28.285  29.845  1.00  0.00     0.010 A 
ATOM     41  C   UNL A   1      38.563  29.213  27.634  1.00  0.00     0.010 A 
ATOM     42  C   UNL A   1      39.027  28.506  28.749  1.00  0.00    -0.014 A 
BRANCH  42  43
ATOM     43  C   UNL A   1      40.437  28.133  28.742  1.00  0.00     0.031 A 
ATOM     44  C   UNL A   1      40.871  26.823  28.220  1.00  0.00     0.074 A 
ATOM     45  C   UNL A   1      41.363  29.014  29.184  1.00  0.00     0.049 A 
ATOM     46  N   UNL A   1      41.974  26.240  28.554  1.00  0.00    -0.248 NA
ATOM     47  C   UNL A   1      40.066  26.045  27.290  1.00  0.00     0.031 C 
ATOM     48  C   UNL A   1      42.816  28.908  29.062  1.00  0.00     0.029 A 
ATOM     49  N   UNL A   1      41.167  30.095  30.059  1.00  0.00    -0.354 N 
ATOM     50  C   UNL A   1      42.149  25.156  27.728  1.00  0.00     0.074 A 
ATOM     51  C   UNL A   1      40.909  25.051  26.987  1.00  0.00     0.031 C 
ATOM     52  C   UNL A   1      43.380  29.622  30.048  1.00  0.00     0.029 A 
ATOM     53  C   UNL A   1      42.307  30.102  30.899  1.00  0.00     0.049 A 
ATOM     54  H   UNL A   1      40.402  30.715  30.082  1.00  0.00     0.167 HD
ATOM     55  C   UNL A   1      43.364  24.534  27.686  1.00  0.00     0.037 A 
ATOM     56  C   UNL A   1      42.191  29.870  32.239  1.00  0.00     0.037 A 
ATOM     57  C   UNL A   1      44.300  25.105  28.653  1.00  0.00     0.049 A 
ATOM     58  C   UNL A   1      42.951  28.662  32.745  1.00  0.00     0.074 A 
ATOM     59  C   UNL A   1      45.349  26.008  28.575  1.00  0.00     0.029 A 
ATOM     60  N   UNL A   1      44.031  24.953  30.001  1.00  0.00    -0.354 N 
ATOM     61  N   UNL A   1      43.611  27.830  31.989  1.00  0.00    -0.248 NA
ATOM     62  C   UNL A   1      42.929  28.240  34.148  1.00  0.00     0.031 C 
ATOM     63  C   UNL A   1      45.715  26.383  29.900  1.00  0.00     0.029 A 
ATOM     64  C   UNL A   1      44.885  25.712  30.778  1.00  0.00     0.049 A 
ATOM     65  H   UNL A   1      43.321  24.377  30.362  1.00  0.00     0.167 HD
ATOM     66  C   UNL A   1      44.044  26.775  32.747  1.00  0.00     0.074 A 
ATOM     67  C   UNL A   1      43.590  27.072  34.091  1.00  0.00     0.031 C 
ATOM     68  C   UNL A   1      44.707  25.707  32.217  1.00  0.00     0.037 A 
BRANCH  55  69
ATOM     69  C   UNL A   1      43.775  23.552  26.613  1.00  0.00     0.064 A 
ATOM     70  C   UNL A   1      43.275  22.232  26.610  1.00  0.00     0.173 A 
ATOM     71  C   UNL A   1      44.693  23.835  25.586  1.00  0.00     0.173 A 
ATOM     72  F   UNL A   1      42.307  21.846  27.450  1.00  0.00    -0.203 F 
ATOM     73  C   UNL A   1      43.756  21.248  25.742  1.00  0.00     0.198 A 
ATOM     74  C   UNL A   1      45.222  22.838  24.759  1.00  0.00     0.198 A 
ATOM     75  F   UNL A   1      45.065  25.091  25.312  1.00  0.00    -0.203 F 
ATOM     76  F   UNL A   1      43.248  20.009  25.795  1.00  0.00    -0.200 F 
ATOM     77  C   UNL A   1      44.764  21.540  24.847  1.00  0.00     0.200 A 
ATOM     78  F   UNL A   1      46.181  23.149  23.873  1.00  0.00    -0.200 F 
ATOM     79  F   UNL A   1      45.269  20.585  24.056  1.00  0.00    -0.200 F 
ENDBRANCH  55  69
BRANCH  56  80
ATOM     80  C   UNL A   1      40.905  30.364  32.799  1.00  0.00     0.064 A 
ATOM     81  C   UNL A   1      40.689  31.755  32.861  1.00  0.00     0.173 A 
ATOM     82  C   UNL A   1      39.789  29.529  32.927  1.00  0.00     0.173 A 
ATOM     83  F   UNL A   1      41.725  32.601  32.743  1.00  0.00    -0.203 F 
ATOM     84  C   UNL A   1      39.403  32.285  32.920  1.00  0.00     0.198 A 
ATOM     85  C   UNL A   1      38.504  30.065  33.011  1.00  0.00     0.198 A 
ATOM     86  F   UNL A   1      39.925  28.197  32.854  1.00  0.00    -0.203 F 
ATOM     87  F   UNL A   1      39.223  33.612  32.850  1.00  0.00    -0.200 F 
ATOM     88  C   UNL A   1      38.309  31.438  32.969  1.00  0.00     0.200 A 
ATOM     89  F   UNL A   1      37.445  29.244  33.038  1.00  0.00    -0.200 F 
ATOM     90  F   UNL A   1      37.068  31.942  32.934  1.00  0.00    -0.200 F 
ENDBRANCH  56  80
BRANCH  68  91
ATOM     91  C   UNL A   1      45.225  24.558  33.032  1.00  0.00     0.064 A 
ATOM     92  C   UNL A   1      44.432  23.443  33.349  1.00  0.00     0.173 A 
ATOM     93  C   UNL A   1      46.507  24.594  33.620  1.00  0.00     0.173 A 
ATOM     94  F   UNL A   1      43.170  23.350  32.905  1.00  0.00    -0.203 F 
ATOM     95  C   UNL A   1      44.913  22.405  34.150  1.00  0.00     0.198 A 
ATOM     96  C   UNL A   1      46.966  23.581  34.459  1.00  0.00     0.198 A 
ATOM     97  F   UNL A   1      47.361  25.599  33.376  1.00  0.00    -0.203 F 
ATOM     98  F   UNL A   1      44.143  21.331  34.379  1.00  0.00    -0.200 F 
ATOM     99  C   UNL A   1      46.175  22.478  34.712  1.00  0.00     0.200 A 
ATOM    100  F   UNL A   1      48.181  23.679  35.017  1.00  0.00    -0.200 F 
ATOM    101  F   UNL A   1      46.629  21.489  35.493  1.00  0.00    -0.200 F 
ENDBRANCH  68  91
ENDBRANCH  42  43
ENDBRANCH  34  37
ENDBRANCH  32  33
ENDBRANCH  31  32
ENDBRANCH  30  31
ENDBRANCH   1  30
TORSDOF 17
ENDMDL
