MODEL 1
REMARK VINA RESULT:     -13.1      0.000      0.000
REMARK SMILES O=C(NCCCCCCNC(=O)c1cccn2c(=O)c3ccc(Cl)cc3nc12)c1ccc(-c2c3nc(c(-c4c(F)c(F)c(F)c(F)c4F)c4ccc([nH]4)c(-c4c(F)c(F)c(F)c(F)c4F)c4nc(c(-c5c(F)c(F)c(F)c(F)c5F)c5ccc2[nH]5)C=C4)C=C3)cc1
REMARK SMILES IDX 5 1 4 2 3 3 1 4 2 5 29 7 30 8 91 9 31 10 90 11 32 12 33 13
REMARK SMILES IDX 34 14 84 15 35 16 89 17 83 18 85 19 36 20 88 21 82 22 81 23
REMARK SMILES IDX 37 25 69 26 49 27 68 28 50 29 53 30 67 31 86 32 51 33 52 34
REMARK SMILES IDX 66 36 87 37 54 38 38 39 39 40 47 41 40 42 41 43 45 44 48 45
REMARK SMILES IDX 42 46 43 47 46 48 44 49 70 50 71 51 79 52 72 53 73 54 77 55
REMARK SMILES IDX 80 56 74 57 75 58 78 59 76 60 55 61 56 62 64 63 57 64 58 65
REMARK SMILES IDX 62 66 65 67 59 68 60 69 63 70 61 71 6 72 7 73 8 74 9 75
REMARK SMILES IDX 10 76 11 77 12 79 13 80 14 81 28 82 15 83 17 84 27 85 16 86
REMARK SMILES IDX 18 87 26 88 19 89 20 90 25 91 21 92 23 93 22 94 24 95
REMARK H PARENT 3 6 85 24 53 35 10 78
REMARK Flexibility Score: inf
ROOT
ATOM      1  C   UNL A   1      32.109  28.134  25.585  1.00  0.00     0.021 C 
ENDROOT
BRANCH   1   2
ATOM      2  C   UNL A   1      33.105  29.264  25.334  1.00  0.00     0.116 C 
BRANCH   2   3
ATOM      3  N   UNL A   1      32.652  30.535  25.872  1.00  0.00    -0.352 N 
ATOM      4  O   UNL A   1      32.535  32.274  27.284  1.00  0.00    -0.269 OA
ATOM      5  C   UNL A   1      33.164  31.297  26.886  1.00  0.00     0.251 C 
ATOM      6  H   UNL A   1      31.849  30.906  25.441  1.00  0.00     0.163 HD
BRANCH   5   7
ATOM      7  C   UNL A   1      34.464  30.972  27.518  1.00  0.00     0.039 A 
ATOM      8  C   UNL A   1      34.647  29.681  28.033  1.00  0.00     0.014 A 
ATOM      9  C   UNL A   1      35.456  31.940  27.708  1.00  0.00     0.014 A 
ATOM     10  C   UNL A   1      35.816  29.359  28.726  1.00  0.00     0.010 A 
ATOM     11  C   UNL A   1      36.644  31.606  28.362  1.00  0.00     0.010 A 
ATOM     12  C   UNL A   1      36.821  30.320  28.899  1.00  0.00    -0.014 A 
BRANCH  12  13
ATOM     13  C   UNL A   1      38.010  30.040  29.739  1.00  0.00     0.031 A 
ATOM     14  C   UNL A   1      39.107  29.167  29.195  1.00  0.00     0.074 A 
ATOM     15  C   UNL A   1      38.114  30.552  30.978  1.00  0.00     0.049 A 
ATOM     16  N   UNL A   1      40.173  28.702  29.794  1.00  0.00    -0.248 NA
ATOM     17  C   UNL A   1      38.975  28.753  27.790  1.00  0.00     0.031 C 
ATOM     18  C   UNL A   1      37.140  31.440  31.610  1.00  0.00     0.029 A 
ATOM     19  N   UNL A   1      39.094  30.398  31.925  1.00  0.00    -0.354 N 
ATOM     20  C   UNL A   1      40.829  27.929  28.846  1.00  0.00     0.074 A 
ATOM     21  C   UNL A   1      40.026  27.962  27.641  1.00  0.00     0.031 C 
ATOM     22  C   UNL A   1      37.585  31.774  32.833  1.00  0.00     0.029 A 
ATOM     23  C   UNL A   1      38.853  31.093  33.084  1.00  0.00     0.049 A 
ATOM     24  H   UNL A   1      39.895  29.843  31.787  1.00  0.00     0.167 HD
ATOM     25  C   UNL A   1      42.002  27.261  28.962  1.00  0.00     0.037 A 
ATOM     26  C   UNL A   1      39.572  31.162  34.220  1.00  0.00     0.037 A 
ATOM     27  C   UNL A   1      42.813  27.239  30.149  1.00  0.00     0.049 A 
ATOM     28  C   UNL A   1      40.846  30.375  34.344  1.00  0.00     0.074 A 
ATOM     29  C   UNL A   1      44.009  26.578  30.369  1.00  0.00     0.029 A 
ATOM     30  N   UNL A   1      42.513  27.925  31.316  1.00  0.00    -0.354 N 
ATOM     31  N   UNL A   1      41.433  29.606  33.459  1.00  0.00    -0.248 NA
ATOM     32  C   UNL A   1      41.551  30.456  35.631  1.00  0.00     0.031 C 
ATOM     33  C   UNL A   1      44.424  26.850  31.678  1.00  0.00     0.029 A 
ATOM     34  C   UNL A   1      43.499  27.701  32.263  1.00  0.00     0.049 A 
ATOM     35  H   UNL A   1      41.717  28.487  31.453  1.00  0.00     0.167 HD
ATOM     36  C   UNL A   1      42.576  29.119  34.076  1.00  0.00     0.074 A 
ATOM     37  C   UNL A   1      42.610  29.690  35.408  1.00  0.00     0.031 C 
ATOM     38  C   UNL A   1      43.512  28.272  33.584  1.00  0.00     0.037 A 
BRANCH  25  39
ATOM     39  C   UNL A   1      42.466  26.490  27.764  1.00  0.00     0.064 A 
ATOM     40  C   UNL A   1      42.054  25.169  27.541  1.00  0.00     0.173 A 
ATOM     41  C   UNL A   1      43.333  27.076  26.831  1.00  0.00     0.173 A 
ATOM     42  F   UNL A   1      41.240  24.559  28.417  1.00  0.00    -0.203 F 
ATOM     43  C   UNL A   1      42.514  24.452  26.440  1.00  0.00     0.198 A 
ATOM     44  C   UNL A   1      43.774  26.364  25.719  1.00  0.00     0.198 A 
ATOM     45  F   UNL A   1      43.757  28.338  27.001  1.00  0.00    -0.203 F 
ATOM     46  F   UNL A   1      42.145  23.174  26.272  1.00  0.00    -0.200 F 
ATOM     47  C   UNL A   1      43.370  25.051  25.528  1.00  0.00     0.200 A 
ATOM     48  F   UNL A   1      44.599  26.945  24.837  1.00  0.00    -0.200 F 
ATOM     49  F   UNL A   1      43.817  24.358  24.472  1.00  0.00    -0.200 F 
ENDBRANCH  25  39
BRANCH  26  50
ATOM     50  C   UNL A   1      39.106  32.031  35.328  1.00  0.00     0.064 A 
ATOM     51  C   UNL A   1      38.347  31.496  36.378  1.00  0.00     0.173 A 
ATOM     52  C   UNL A   1      39.423  33.395  35.374  1.00  0.00     0.173 A 
ATOM     53  F   UNL A   1      38.003  30.200  36.361  1.00  0.00    -0.203 F 
ATOM     54  C   UNL A   1      37.922  32.296  37.436  1.00  0.00     0.198 A 
ATOM     55  C   UNL A   1      39.011  34.190  36.440  1.00  0.00     0.198 A 
ATOM     56  F   UNL A   1      40.144  33.950  34.389  1.00  0.00    -0.203 F 
ATOM     57  F   UNL A   1      37.182  31.766  38.419  1.00  0.00    -0.200 F 
ATOM     58  C   UNL A   1      38.260  33.640  37.470  1.00  0.00     0.200 A 
ATOM     59  F   UNL A   1      39.344  35.488  36.474  1.00  0.00    -0.200 F 
ATOM     60  F   UNL A   1      37.859  34.408  38.492  1.00  0.00    -0.200 F 
ENDBRANCH  26  50
BRANCH  38  61
ATOM     61  C   UNL A   1      44.655  27.916  34.485  1.00  0.00     0.064 A 
ATOM     62  C   UNL A   1      45.811  28.705  34.541  1.00  0.00     0.173 A 
ATOM     63  C   UNL A   1      44.574  26.800  35.330  1.00  0.00     0.173 A 
ATOM     64  F   UNL A   1      45.939  29.774  33.740  1.00  0.00    -0.203 F 
ATOM     65  C   UNL A   1      46.855  28.383  35.404  1.00  0.00     0.198 A 
ATOM     66  C   UNL A   1      45.612  26.490  36.204  1.00  0.00     0.198 A 
ATOM     67  F   UNL A   1      43.486  26.016  35.313  1.00  0.00    -0.203 F 
ATOM     68  F   UNL A   1      47.965  29.133  35.422  1.00  0.00    -0.200 F 
ATOM     69  C   UNL A   1      46.752  27.279  36.239  1.00  0.00     0.200 A 
ATOM     70  F   UNL A   1      45.509  25.427  37.015  1.00  0.00    -0.200 F 
ATOM     71  F   UNL A   1      47.755  26.972  37.072  1.00  0.00    -0.200 F 
ENDBRANCH  38  61
ENDBRANCH  12  13
ENDBRANCH   5   7
ENDBRANCH   2   3
ENDBRANCH   1   2
BRANCH   1  72
ATOM     72  C   UNL A   1      31.649  27.358  24.347  1.00  0.00     0.002 C 
BRANCH  72  73
ATOM     73  C   UNL A   1      30.496  26.374  24.557  1.00  0.00     0.002 C 
BRANCH  73  74
ATOM     74  C   UNL A   1      30.337  25.281  23.495  1.00  0.00     0.021 C 
BRANCH  74  75
ATOM     75  C   UNL A   1      30.682  23.861  23.938  1.00  0.00     0.116 C 
BRANCH  75  76
ATOM     76  N   UNL A   1      30.490  23.651  25.362  1.00  0.00    -0.352 N 
ATOM     77  C   UNL A   1      31.423  23.435  26.338  1.00  0.00     0.255 C 
ATOM     78  H   UNL A   1      29.554  23.665  25.668  1.00  0.00     0.163 HD
ATOM     79  O   UNL A   1      31.065  23.314  27.507  1.00  0.00    -0.269 OA
BRANCH  77  80
ATOM     80  C   UNL A   1      32.856  23.404  25.965  1.00  0.00     0.083 A 
ATOM     81  C   UNL A   1      33.565  24.539  26.074  1.00  0.00     0.019 A 
ATOM     82  C   UNL A   1      33.545  22.131  25.576  1.00  0.00     0.153 A 
ATOM     83  C   UNL A   1      34.963  24.567  25.741  1.00  0.00     0.019 A 
ATOM     84  N   UNL A   1      34.910  22.225  25.279  1.00  0.00    -0.267 N 
ATOM     85  N   UNL A   1      32.879  21.019  25.512  1.00  0.00    -0.229 NA
ATOM     86  C   UNL A   1      35.578  23.442  25.361  1.00  0.00     0.096 A 
ATOM     87  C   UNL A   1      35.638  21.098  24.883  1.00  0.00     0.265 A 
ATOM     88  C   UNL A   1      33.553  19.838  25.192  1.00  0.00     0.080 A 
ATOM     89  O   UNL A   1      36.824  21.109  24.552  1.00  0.00    -0.268 OA
ATOM     90  C   UNL A   1      34.908  19.819  24.868  1.00  0.00     0.066 A 
ATOM     91  C   UNL A   1      32.845  18.634  25.215  1.00  0.00     0.049 A 
ATOM     92  C   UNL A   1      35.560  18.617  24.561  1.00  0.00     0.017 A 
ATOM     93  C   UNL A   1      33.492  17.434  24.918  1.00  0.00     0.043 A 
ATOM     94  C   UNL A   1      34.845  17.420  24.588  1.00  0.00     0.021 A 
ATOM     95  Cl  UNL A   1      32.611  15.956  24.963  1.00  0.00    -0.084 Cl
ENDBRANCH  77  80
ENDBRANCH  75  76
ENDBRANCH  74  75
ENDBRANCH  73  74
ENDBRANCH  72  73
ENDBRANCH   1  72
TORSDOF 13
ENDMDL
MODEL 2
REMARK VINA RESULT:     -13.0      2.365      3.683
REMARK SMILES O=C(NCCCCCCNC(=O)c1cccn2c(=O)c3ccc(Cl)cc3nc12)c1ccc(-c2c3nc(c(-c4c(F)c(F)c(F)c(F)c4F)c4ccc([nH]4)c(-c4c(F)c(F)c(F)c(F)c4F)c4nc(c(-c5c(F)c(F)c(F)c(F)c5F)c5ccc2[nH]5)C=C4)C=C3)cc1
REMARK SMILES IDX 5 1 4 2 3 3 1 4 2 5 29 7 30 8 91 9 31 10 90 11 32 12 33 13
REMARK SMILES IDX 34 14 84 15 35 16 89 17 83 18 85 19 36 20 88 21 82 22 81 23
REMARK SMILES IDX 37 25 69 26 49 27 68 28 50 29 53 30 67 31 86 32 51 33 52 34
REMARK SMILES IDX 66 36 87 37 54 38 38 39 39 40 47 41 40 42 41 43 45 44 48 45
REMARK SMILES IDX 42 46 43 47 46 48 44 49 70 50 71 51 79 52 72 53 73 54 77 55
REMARK SMILES IDX 80 56 74 57 75 58 78 59 76 60 55 61 56 62 64 63 57 64 58 65
REMARK SMILES IDX 62 66 65 67 59 68 60 69 63 70 61 71 6 72 7 73 8 74 9 75
REMARK SMILES IDX 10 76 11 77 12 79 13 80 14 81 28 82 15 83 17 84 27 85 16 86
REMARK SMILES IDX 18 87 26 88 19 89 20 90 25 91 21 92 23 93 22 94 24 95
REMARK H PARENT 3 6 85 24 53 35 10 78
REMARK Flexibility Score: inf
ROOT
ATOM      1  C   UNL A   1      31.507  32.051  26.755  1.00  0.00     0.021 C 
ENDROOT
BRANCH   1   2
ATOM      2  C   UNL A   1      32.730  32.737  27.359  1.00  0.00     0.116 C 
BRANCH   2   3
ATOM      3  N   UNL A   1      32.484  34.133  27.678  1.00  0.00    -0.352 N 
ATOM      4  O   UNL A   1      32.580  36.051  28.836  1.00  0.00    -0.269 OA
ATOM      5  C   UNL A   1      33.043  34.930  28.639  1.00  0.00     0.251 C 
ATOM      6  H   UNL A   1      31.809  34.575  27.115  1.00  0.00     0.163 HD
BRANCH   5   7
ATOM      7  C   UNL A   1      34.195  34.475  29.451  1.00  0.00     0.039 A 
ATOM      8  C   UNL A   1      35.477  34.562  28.890  1.00  0.00     0.014 A 
ATOM      9  C   UNL A   1      34.026  33.868  30.700  1.00  0.00     0.014 A 
ATOM     10  C   UNL A   1      36.582  34.054  29.576  1.00  0.00     0.010 A 
ATOM     11  C   UNL A   1      35.136  33.400  31.406  1.00  0.00     0.010 A 
ATOM     12  C   UNL A   1      36.418  33.465  30.837  1.00  0.00    -0.014 A 
BRANCH  12  13
ATOM     13  C   UNL A   1      37.555  32.805  31.525  1.00  0.00     0.031 A 
ATOM     14  C   UNL A   1      38.247  31.649  30.858  1.00  0.00     0.074 A 
ATOM     15  C   UNL A   1      37.965  33.225  32.734  1.00  0.00     0.049 A 
ATOM     16  N   UNL A   1      39.181  30.859  31.324  1.00  0.00    -0.248 NA
ATOM     17  C   UNL A   1      37.821  31.337  29.486  1.00  0.00     0.031 C 
ATOM     18  C   UNL A   1      37.403  34.355  33.473  1.00  0.00     0.029 A 
ATOM     19  N   UNL A   1      38.957  32.748  33.552  1.00  0.00    -0.354 N 
ATOM     20  C   UNL A   1      39.440  29.947  30.310  1.00  0.00     0.074 A 
ATOM     21  C   UNL A   1      38.546  30.261  29.216  1.00  0.00     0.031 C 
ATOM     22  C   UNL A   1      38.077  34.500  34.626  1.00  0.00     0.029 A 
ATOM     23  C   UNL A   1      39.089  33.451  34.724  1.00  0.00     0.049 A 
ATOM     24  H   UNL A   1      39.521  31.975  33.321  1.00  0.00     0.167 HD
ATOM     25  C   UNL A   1      40.351  28.944  30.286  1.00  0.00     0.037 A 
ATOM     26  C   UNL A   1      39.929  33.262  35.759  1.00  0.00     0.037 A 
ATOM     27  C   UNL A   1      41.254  28.639  31.362  1.00  0.00     0.049 A 
ATOM     28  C   UNL A   1      40.899  32.114  35.731  1.00  0.00     0.074 A 
ATOM     29  C   UNL A   1      42.201  27.632  31.438  1.00  0.00     0.029 A 
ATOM     30  N   UNL A   1      41.330  29.351  32.549  1.00  0.00    -0.354 N 
ATOM     31  N   UNL A   1      41.102  31.225  34.790  1.00  0.00    -0.248 NA
ATOM     32  C   UNL A   1      41.747  31.936  36.919  1.00  0.00     0.031 C 
ATOM     33  C   UNL A   1      42.839  27.725  32.681  1.00  0.00     0.029 A 
ATOM     34  C   UNL A   1      42.306  28.805  33.366  1.00  0.00     0.049 A 
ATOM     35  H   UNL A   1      40.772  30.129  32.778  1.00  0.00     0.167 HD
ATOM     36  C   UNL A   1      42.103  30.389  35.264  1.00  0.00     0.074 A 
ATOM     37  C   UNL A   1      42.477  30.885  36.573  1.00  0.00     0.031 C 
ATOM     38  C   UNL A   1      42.660  29.307  34.669  1.00  0.00     0.037 A 
BRANCH  25  39
ATOM     39  C   UNL A   1      40.399  28.100  29.049  1.00  0.00     0.064 A 
ATOM     40  C   UNL A   1      41.187  28.463  27.948  1.00  0.00     0.173 A 
ATOM     41  C   UNL A   1      39.647  26.920  28.962  1.00  0.00     0.173 A 
ATOM     42  F   UNL A   1      41.907  29.595  27.978  1.00  0.00    -0.203 F 
ATOM     43  C   UNL A   1      41.201  27.688  26.792  1.00  0.00     0.198 A 
ATOM     44  C   UNL A   1      39.681  26.135  27.813  1.00  0.00     0.198 A 
ATOM     45  F   UNL A   1      38.876  26.531  29.988  1.00  0.00    -0.203 F 
ATOM     46  F   UNL A   1      41.924  28.079  25.733  1.00  0.00    -0.200 F 
ATOM     47  C   UNL A   1      40.451  26.523  26.727  1.00  0.00     0.200 A 
ATOM     48  F   UNL A   1      38.959  25.007  27.752  1.00  0.00    -0.200 F 
ATOM     49  F   UNL A   1      40.461  25.780  25.612  1.00  0.00    -0.200 F 
ENDBRANCH  25  39
BRANCH  26  50
ATOM     50  C   UNL A   1      39.897  34.201  36.906  1.00  0.00     0.064 A 
ATOM     51  C   UNL A   1      39.036  33.972  37.988  1.00  0.00     0.173 A 
ATOM     52  C   UNL A   1      40.734  35.324  36.957  1.00  0.00     0.173 A 
ATOM     53  F   UNL A   1      38.204  32.921  37.969  1.00  0.00    -0.203 F 
ATOM     54  C   UNL A   1      39.014  34.834  39.082  1.00  0.00     0.198 A 
ATOM     55  C   UNL A   1      40.721  36.177  38.059  1.00  0.00     0.198 A 
ATOM     56  F   UNL A   1      41.571  35.584  35.943  1.00  0.00    -0.203 F 
ATOM     57  F   UNL A   1      38.168  34.606  40.096  1.00  0.00    -0.200 F 
ATOM     58  C   UNL A   1      39.861  35.931  39.119  1.00  0.00     0.200 A 
ATOM     59  F   UNL A   1      41.545  37.233  38.095  1.00  0.00    -0.200 F 
ATOM     60  F   UNL A   1      39.845  36.756  40.175  1.00  0.00    -0.200 F 
ENDBRANCH  26  50
BRANCH  38  61
ATOM     61  C   UNL A   1      43.736  28.588  35.423  1.00  0.00     0.064 A 
ATOM     62  C   UNL A   1      45.089  28.902  35.237  1.00  0.00     0.173 A 
ATOM     63  C   UNL A   1      43.408  27.607  36.371  1.00  0.00     0.173 A 
ATOM     64  F   UNL A   1      45.450  29.822  34.330  1.00  0.00    -0.203 F 
ATOM     65  C   UNL A   1      46.080  28.249  35.966  1.00  0.00     0.198 A 
ATOM     66  C   UNL A   1      44.400  26.970  37.109  1.00  0.00     0.198 A 
ATOM     67  F   UNL A   1      42.126  27.276  36.584  1.00  0.00    -0.203 F 
ATOM     68  F   UNL A   1      47.370  28.542  35.752  1.00  0.00    -0.200 F 
ATOM     69  C   UNL A   1      45.734  27.287  36.905  1.00  0.00     0.200 A 
ATOM     70  F   UNL A   1      44.064  26.044  38.021  1.00  0.00    -0.200 F 
ATOM     71  F   UNL A   1      46.688  26.663  37.608  1.00  0.00    -0.200 F 
ENDBRANCH  38  61
ENDBRANCH  12  13
ENDBRANCH   5   7
ENDBRANCH   2   3
ENDBRANCH   1   2
BRANCH   1  72
ATOM     72  C   UNL A   1      31.725  30.626  26.239  1.00  0.00     0.002 C 
BRANCH  72  73
ATOM     73  C   UNL A   1      32.397  29.652  27.210  1.00  0.00     0.002 C 
BRANCH  73  74
ATOM     74  C   UNL A   1      32.058  28.169  27.024  1.00  0.00     0.021 C 
BRANCH  74  75
ATOM     75  C   UNL A   1      33.169  27.298  26.442  1.00  0.00     0.116 C 
BRANCH  75  76
ATOM     76  N   UNL A   1      33.683  27.802  25.181  1.00  0.00    -0.352 N 
ATOM     77  C   UNL A   1      33.620  27.243  23.935  1.00  0.00     0.255 C 
ATOM     78  H   UNL A   1      34.144  28.671  25.232  1.00  0.00     0.163 HD
ATOM     79  O   UNL A   1      34.087  27.846  22.972  1.00  0.00    -0.269 OA
BRANCH  77  80
ATOM     80  C   UNL A   1      32.940  25.938  23.770  1.00  0.00     0.083 A 
ATOM     81  C   UNL A   1      31.710  25.927  23.228  1.00  0.00     0.019 A 
ATOM     82  C   UNL A   1      33.623  24.643  24.090  1.00  0.00     0.153 A 
ATOM     83  C   UNL A   1      31.007  24.690  23.028  1.00  0.00     0.019 A 
ATOM     84  N   UNL A   1      32.887  23.474  23.858  1.00  0.00    -0.267 N 
ATOM     85  N   UNL A   1      34.828  24.639  24.571  1.00  0.00    -0.229 NA
ATOM     86  C   UNL A   1      31.596  23.532  23.343  1.00  0.00     0.096 A 
ATOM     87  C   UNL A   1      33.426  22.217  24.147  1.00  0.00     0.265 A 
ATOM     88  C   UNL A   1      35.460  23.418  24.818  1.00  0.00     0.080 A 
ATOM     89  O   UNL A   1      32.825  21.150  24.024  1.00  0.00    -0.268 OA
ATOM     90  C   UNL A   1      34.817  22.196  24.633  1.00  0.00     0.066 A 
ATOM     91  C   UNL A   1      36.788  23.426  25.249  1.00  0.00     0.049 A 
ATOM     92  C   UNL A   1      35.479  20.987  24.879  1.00  0.00     0.017 A 
ATOM     93  C   UNL A   1      37.456  22.224  25.488  1.00  0.00     0.043 A 
ATOM     94  C   UNL A   1      36.806  21.004  25.308  1.00  0.00     0.021 A 
ATOM     95  Cl  UNL A   1      39.097  22.246  26.006  1.00  0.00    -0.084 Cl
ENDBRANCH  77  80
ENDBRANCH  75  76
ENDBRANCH  74  75
ENDBRANCH  73  74
ENDBRANCH  72  73
ENDBRANCH   1  72
TORSDOF 13
ENDMDL
MODEL 3
REMARK VINA RESULT:     -12.9      3.464      5.424
REMARK SMILES O=C(NCCCCCCNC(=O)c1cccn2c(=O)c3ccc(Cl)cc3nc12)c1ccc(-c2c3nc(c(-c4c(F)c(F)c(F)c(F)c4F)c4ccc([nH]4)c(-c4c(F)c(F)c(F)c(F)c4F)c4nc(c(-c5c(F)c(F)c(F)c(F)c5F)c5ccc2[nH]5)C=C4)C=C3)cc1
REMARK SMILES IDX 5 1 4 2 3 3 1 4 2 5 29 7 30 8 91 9 31 10 90 11 32 12 33 13
REMARK SMILES IDX 34 14 84 15 35 16 89 17 83 18 85 19 36 20 88 21 82 22 81 23
REMARK SMILES IDX 37 25 69 26 49 27 68 28 50 29 53 30 67 31 86 32 51 33 52 34
REMARK SMILES IDX 66 36 87 37 54 38 38 39 39 40 47 41 40 42 41 43 45 44 48 45
REMARK SMILES IDX 42 46 43 47 46 48 44 49 70 50 71 51 79 52 72 53 73 54 77 55
REMARK SMILES IDX 80 56 74 57 75 58 78 59 76 60 55 61 56 62 64 63 57 64 58 65
REMARK SMILES IDX 62 66 65 67 59 68 60 69 63 70 61 71 6 72 7 73 8 74 9 75
REMARK SMILES IDX 10 76 11 77 12 79 13 80 14 81 28 82 15 83 17 84 27 85 16 86
REMARK SMILES IDX 18 87 26 88 19 89 20 90 25 91 21 92 23 93 22 94 24 95
REMARK H PARENT 3 6 85 24 53 35 10 78
REMARK Flexibility Score: inf
ROOT
ATOM      1  C   UNL A   1      31.469  31.769  27.079  1.00  0.00     0.021 C 
ENDROOT
BRANCH   1   2
ATOM      2  C   UNL A   1      32.757  32.573  27.237  1.00  0.00     0.116 C 
BRANCH   2   3
ATOM      3  N   UNL A   1      32.506  33.971  27.543  1.00  0.00    -0.352 N 
ATOM      4  O   UNL A   1      32.586  35.898  28.688  1.00  0.00    -0.269 OA
ATOM      5  C   UNL A   1      33.052  34.776  28.506  1.00  0.00     0.251 C 
ATOM      6  H   UNL A   1      31.838  34.408  26.968  1.00  0.00     0.163 HD
BRANCH   5   7
ATOM      7  C   UNL A   1      34.194  34.327  29.335  1.00  0.00     0.039 A 
ATOM      8  C   UNL A   1      35.489  34.486  28.822  1.00  0.00     0.014 A 
ATOM      9  C   UNL A   1      34.008  33.659  30.550  1.00  0.00     0.014 A 
ATOM     10  C   UNL A   1      36.590  33.988  29.523  1.00  0.00     0.010 A 
ATOM     11  C   UNL A   1      35.111  33.201  31.272  1.00  0.00     0.010 A 
ATOM     12  C   UNL A   1      36.408  33.338  30.751  1.00  0.00    -0.014 A 
BRANCH  12  13
ATOM     13  C   UNL A   1      37.546  32.690  31.448  1.00  0.00     0.031 A 
ATOM     14  C   UNL A   1      38.296  31.583  30.760  1.00  0.00     0.074 A 
ATOM     15  C   UNL A   1      37.907  33.079  32.683  1.00  0.00     0.049 A 
ATOM     16  N   UNL A   1      39.242  30.807  31.225  1.00  0.00    -0.248 NA
ATOM     17  C   UNL A   1      37.919  31.308  29.365  1.00  0.00     0.031 C 
ATOM     18  C   UNL A   1      37.287  34.161  33.446  1.00  0.00     0.029 A 
ATOM     19  N   UNL A   1      38.892  32.603  33.512  1.00  0.00    -0.354 N 
ATOM     20  C   UNL A   1      39.560  29.942  30.187  1.00  0.00     0.074 A 
ATOM     21  C   UNL A   1      38.687  30.268  29.079  1.00  0.00     0.031 C 
ATOM     22  C   UNL A   1      37.923  34.284  34.623  1.00  0.00     0.029 A 
ATOM     23  C   UNL A   1      38.967  33.266  34.712  1.00  0.00     0.049 A 
ATOM     24  H   UNL A   1      39.487  31.858  33.270  1.00  0.00     0.167 HD
ATOM     25  C   UNL A   1      40.504  28.970  30.153  1.00  0.00     0.037 A 
ATOM     26  C   UNL A   1      39.782  33.066  35.764  1.00  0.00     0.037 A 
ATOM     27  C   UNL A   1      41.386  28.655  31.243  1.00  0.00     0.049 A 
ATOM     28  C   UNL A   1      40.790  31.952  35.724  1.00  0.00     0.074 A 
ATOM     29  C   UNL A   1      42.364  27.677  31.311  1.00  0.00     0.029 A 
ATOM     30  N   UNL A   1      41.404  29.325  32.457  1.00  0.00    -0.354 N 
ATOM     31  N   UNL A   1      41.050  31.106  34.757  1.00  0.00    -0.248 NA
ATOM     32  C   UNL A   1      41.610  31.757  36.929  1.00  0.00     0.031 C 
ATOM     33  C   UNL A   1      42.962  27.744  32.575  1.00  0.00     0.029 A 
ATOM     34  C   UNL A   1      42.374  28.781  33.283  1.00  0.00     0.049 A 
ATOM     35  H   UNL A   1      40.814  30.075  32.698  1.00  0.00     0.167 HD
ATOM     36  C   UNL A   1      42.064  30.285  35.230  1.00  0.00     0.074 A 
ATOM     37  C   UNL A   1      42.385  30.744  36.567  1.00  0.00     0.031 C 
ATOM     38  C   UNL A   1      42.674  29.245  34.612  1.00  0.00     0.037 A 
BRANCH  25  39
ATOM     39  C   UNL A   1      40.615  28.176  28.888  1.00  0.00     0.064 A 
ATOM     40  C   UNL A   1      41.422  28.604  27.825  1.00  0.00     0.173 A 
ATOM     41  C   UNL A   1      39.905  26.976  28.736  1.00  0.00     0.173 A 
ATOM     42  F   UNL A   1      42.104  29.756  27.918  1.00  0.00    -0.203 F 
ATOM     43  C   UNL A   1      41.495  27.873  26.643  1.00  0.00     0.198 A 
ATOM     44  C   UNL A   1      39.998  26.236  27.560  1.00  0.00     0.198 A 
ATOM     45  F   UNL A   1      39.118  26.525  29.724  1.00  0.00    -0.203 F 
ATOM     46  F   UNL A   1      42.236  28.325  25.621  1.00  0.00    -0.200 F 
ATOM     47  C   UNL A   1      40.786  26.688  26.513  1.00  0.00     0.200 A 
ATOM     48  F   UNL A   1      39.315  25.089  27.437  1.00  0.00    -0.200 F 
ATOM     49  F   UNL A   1      40.853  25.988  25.372  1.00  0.00    -0.200 F 
ENDBRANCH  25  39
BRANCH  26  50
ATOM     50  C   UNL A   1      39.687  33.960  36.943  1.00  0.00     0.064 A 
ATOM     51  C   UNL A   1      40.395  35.170  36.976  1.00  0.00     0.173 A 
ATOM     52  C   UNL A   1      38.880  33.641  38.043  1.00  0.00     0.173 A 
ATOM     53  F   UNL A   1      41.197  35.502  35.954  1.00  0.00    -0.203 F 
ATOM     54  C   UNL A   1      40.296  36.029  38.067  1.00  0.00     0.198 A 
ATOM     55  C   UNL A   1      38.770  34.508  39.127  1.00  0.00     0.198 A 
ATOM     56  F   UNL A   1      38.188  32.492  38.056  1.00  0.00    -0.203 F 
ATOM     57  F   UNL A   1      40.997  37.171  38.084  1.00  0.00    -0.200 F 
ATOM     58  C   UNL A   1      39.479  35.701  39.138  1.00  0.00     0.200 A 
ATOM     59  F   UNL A   1      37.974  34.192  40.158  1.00  0.00    -0.200 F 
ATOM     60  F   UNL A   1      39.377  36.532  40.185  1.00  0.00    -0.200 F 
ENDBRANCH  26  50
BRANCH  38  61
ATOM     61  C   UNL A   1      43.751  28.533  35.371  1.00  0.00     0.064 A 
ATOM     62  C   UNL A   1      45.099  28.895  35.234  1.00  0.00     0.173 A 
ATOM     63  C   UNL A   1      43.430  27.511  36.276  1.00  0.00     0.173 A 
ATOM     64  F   UNL A   1      45.455  29.857  34.369  1.00  0.00    -0.203 F 
ATOM     65  C   UNL A   1      46.090  28.248  35.967  1.00  0.00     0.198 A 
ATOM     66  C   UNL A   1      44.421  26.879  37.020  1.00  0.00     0.198 A 
ATOM     67  F   UNL A   1      42.153  27.133  36.442  1.00  0.00    -0.203 F 
ATOM     68  F   UNL A   1      47.375  28.587  35.800  1.00  0.00    -0.200 F 
ATOM     69  C   UNL A   1      45.749  27.244  36.864  1.00  0.00     0.200 A 
ATOM     70  F   UNL A   1      44.091  25.913  37.890  1.00  0.00    -0.200 F 
ATOM     71  F   UNL A   1      46.704  26.625  37.571  1.00  0.00    -0.200 F 
ENDBRANCH  38  61
ENDBRANCH  12  13
ENDBRANCH   5   7
ENDBRANCH   2   3
ENDBRANCH   1   2
BRANCH   1  72
ATOM     72  C   UNL A   1      31.280  31.067  25.730  1.00  0.00     0.002 C 
BRANCH  72  73
ATOM     73  C   UNL A   1      31.866  29.659  25.614  1.00  0.00     0.002 C 
BRANCH  73  74
ATOM     74  C   UNL A   1      33.139  29.522  24.772  1.00  0.00     0.021 C 
BRANCH  74  75
ATOM     75  C   UNL A   1      33.830  28.161  24.820  1.00  0.00     0.116 C 
BRANCH  75  76
ATOM     76  N   UNL A   1      34.161  27.648  23.503  1.00  0.00    -0.352 N 
ATOM     77  C   UNL A   1      33.477  26.755  22.726  1.00  0.00     0.255 C 
ATOM     78  H   UNL A   1      34.997  27.992  23.114  1.00  0.00     0.163 HD
ATOM     79  O   UNL A   1      33.902  26.468  21.609  1.00  0.00    -0.269 OA
BRANCH  77  80
ATOM     80  C   UNL A   1      32.205  26.191  23.233  1.00  0.00     0.083 A 
ATOM     81  C   UNL A   1      32.238  24.992  23.837  1.00  0.00     0.019 A 
ATOM     82  C   UNL A   1      30.921  26.963  23.182  1.00  0.00     0.153 A 
ATOM     83  C   UNL A   1      31.038  24.402  24.364  1.00  0.00     0.019 A 
ATOM     84  N   UNL A   1      29.793  26.336  23.726  1.00  0.00    -0.267 N 
ATOM     85  N   UNL A   1      30.887  28.142  22.642  1.00  0.00    -0.229 NA
ATOM     86  C   UNL A   1      29.882  25.069  24.292  1.00  0.00     0.096 A 
ATOM     87  C   UNL A   1      28.543  26.963  23.705  1.00  0.00     0.265 A 
ATOM     88  C   UNL A   1      29.689  28.860  22.648  1.00  0.00     0.080 A 
ATOM     89  O   UNL A   1      27.497  26.457  24.111  1.00  0.00    -0.268 OA
ATOM     90  C   UNL A   1      28.504  28.328  23.152  1.00  0.00     0.066 A 
ATOM     91  C   UNL A   1      29.685  30.164  22.145  1.00  0.00     0.049 A 
ATOM     92  C   UNL A   1      27.320  29.076  23.154  1.00  0.00     0.017 A 
ATOM     93  C   UNL A   1      28.510  30.916  22.152  1.00  0.00     0.043 A 
ATOM     94  C   UNL A   1      27.326  30.377  22.652  1.00  0.00     0.021 A 
ATOM     95  Cl  UNL A   1      28.522  32.525  21.543  1.00  0.00    -0.084 Cl
ENDBRANCH  77  80
ENDBRANCH  75  76
ENDBRANCH  74  75
ENDBRANCH  73  74
ENDBRANCH  72  73
ENDBRANCH   1  72
TORSDOF 13
ENDMDL
