MODEL 1
REMARK VINA RESULT:     -12.8      0.000      0.000
REMARK SMILES Cc1ccc(C(=O)NCCCCCCNC(=O)c2ccc(-c3c4nc(c(-c5c(F)c(F)c(F)c(F)c5F)c5ccc([nH]5)c(-c5c(F)c(F)c(F)c(F)c5F)c5nc(c(-c6c(F)c(F)c(F)c(F)c6F)c6ccc3[nH]6)C=C5)C=C4)cc2)cc1S(=O)(=O)N(CC1CC1)C(C)C
REMARK SMILES IDX 10 1 9 2 8 3 6 4 7 5 5 7 1 8 2 9 3 10 82 11 4 12 81 13 83 14
REMARK SMILES IDX 84 15 85 16 86 17 87 18 88 19 89 20 90 21 91 22 92 23 93 24
REMARK SMILES IDX 11 25 12 26 13 27 14 28 15 29 16 30 17 32 18 33 19 34 80 35
REMARK SMILES IDX 20 36 79 37 21 38 22 39 23 40 73 41 24 42 78 43 72 44 74 45
REMARK SMILES IDX 25 46 77 47 71 48 70 49 26 51 58 52 38 53 57 54 39 55 42 56
REMARK SMILES IDX 56 57 75 58 40 59 41 60 55 62 76 63 43 64 27 65 28 66 36 67
REMARK SMILES IDX 29 68 30 69 34 70 37 71 31 72 32 73 35 74 33 75 59 76 60 77
REMARK SMILES IDX 68 78 61 79 62 80 66 81 69 82 63 83 64 84 67 85 65 86 44 87
REMARK SMILES IDX 45 88 53 89 46 90 47 91 51 92 54 93 48 94 49 95 52 96 50 97
REMARK H PARENT 8 6 15 31 74 50 42 61
REMARK Flexibility Score: inf
ROOT
ATOM      1  C   UNL A   1      35.088  22.329  26.427  1.00  0.00     0.021 C 
ENDROOT
BRANCH   1   2
ATOM      2  C   UNL A   1      33.873  21.832  27.216  1.00  0.00     0.116 C 
BRANCH   2   3
ATOM      3  N   UNL A   1      33.202  20.758  26.501  1.00  0.00    -0.352 N 
ATOM      4  C   UNL A   1      32.418  20.722  25.375  1.00  0.00     0.251 C 
ATOM      5  O   UNL A   1      32.029  19.619  24.990  1.00  0.00    -0.269 OA
ATOM      6  H   UNL A   1      33.339  19.873  26.910  1.00  0.00     0.163 HD
BRANCH   4   7
ATOM      7  C   UNL A   1      32.085  21.924  24.558  1.00  0.00     0.041 A 
ATOM      8  C   UNL A   1      31.928  25.542  22.176  1.00  0.00     0.046 C 
ATOM      9  C   UNL A   1      31.853  24.302  23.017  1.00  0.00    -0.031 A 
ATOM     10  C   UNL A   1      32.554  23.180  22.533  1.00  0.00     0.005 A 
ATOM     11  C   UNL A   1      31.162  24.166  24.236  1.00  0.00     0.086 A 
ATOM     12  C   UNL A   1      32.693  22.023  23.303  1.00  0.00     0.014 A 
ATOM     13  C   UNL A   1      31.243  22.957  24.968  1.00  0.00     0.035 A 
BRANCH  11  14
ATOM     14  S   UNL A   1      30.445  25.531  25.162  1.00  0.00     0.243 S 
ATOM     15  O   UNL A   1      29.308  26.011  24.403  1.00  0.00    -0.207 OA
ATOM     16  O   UNL A   1      30.224  24.953  26.470  1.00  0.00    -0.207 OA
BRANCH  14  17
ATOM     17  N   UNL A   1      31.566  26.792  25.280  1.00  0.00    -0.195 NA
BRANCH  17  18
ATOM     18  C   UNL A   1      31.145  28.213  25.199  1.00  0.00     0.106 C 
BRANCH  18  19
ATOM     19  C   UNL A   1      31.135  28.885  23.860  1.00  0.00     0.004 C 
ATOM     20  C   UNL A   1      30.287  28.527  22.661  1.00  0.00     0.005 C 
ATOM     21  C   UNL A   1      29.908  29.702  23.503  1.00  0.00     0.005 C 
ENDBRANCH  18  19
ENDBRANCH  17  18
BRANCH  17  22
ATOM     22  C   UNL A   1      32.846  26.598  26.059  1.00  0.00     0.067 C 
ATOM     23  C   UNL A   1      33.968  26.015  25.209  1.00  0.00     0.025 C 
ATOM     24  C   UNL A   1      33.352  27.842  26.787  1.00  0.00     0.025 C 
ENDBRANCH  17  22
ENDBRANCH  14  17
ENDBRANCH  11  14
ENDBRANCH   4   7
ENDBRANCH   2   3
ENDBRANCH   1   2
BRANCH   1  25
ATOM     25  C   UNL A   1      35.682  21.298  25.453  1.00  0.00     0.002 C 
BRANCH  25  26
ATOM     26  C   UNL A   1      36.976  21.705  24.724  1.00  0.00     0.002 C 
BRANCH  26  27
ATOM     27  C   UNL A   1      38.274  21.573  25.526  1.00  0.00     0.021 C 
BRANCH  27  28
ATOM     28  C   UNL A   1      38.811  22.896  26.061  1.00  0.00     0.116 C 
BRANCH  28  29
ATOM     29  N   UNL A   1      40.266  22.954  26.149  1.00  0.00    -0.352 N 
ATOM     30  C   UNL A   1      41.078  24.017  26.514  1.00  0.00     0.251 C 
ATOM     31  H   UNL A   1      40.739  22.122  25.917  1.00  0.00     0.163 HD
ATOM     32  O   UNL A   1      42.293  23.906  26.512  1.00  0.00    -0.269 OA
BRANCH  30  33
ATOM     33  C   UNL A   1      40.442  25.255  27.022  1.00  0.00     0.039 A 
ATOM     34  C   UNL A   1      40.671  26.446  26.324  1.00  0.00     0.014 A 
ATOM     35  C   UNL A   1      39.816  25.272  28.266  1.00  0.00     0.014 A 
ATOM     36  C   UNL A   1      40.494  27.661  26.980  1.00  0.00     0.010 A 
ATOM     37  C   UNL A   1      39.725  26.469  28.949  1.00  0.00     0.010 A 
ATOM     38  C   UNL A   1      40.131  27.655  28.329  1.00  0.00    -0.014 A 
BRANCH  38  39
ATOM     39  C   UNL A   1      40.293  28.816  29.192  1.00  0.00     0.031 A 
ATOM     40  C   UNL A   1      39.229  29.826  29.325  1.00  0.00     0.074 A 
ATOM     41  C   UNL A   1      41.425  28.965  29.916  1.00  0.00     0.049 A 
ATOM     42  N   UNL A   1      39.464  31.076  29.560  1.00  0.00    -0.248 NA
ATOM     43  C   UNL A   1      37.811  29.515  29.185  1.00  0.00     0.031 C 
ATOM     44  C   UNL A   1      41.665  29.928  30.989  1.00  0.00     0.029 A 
ATOM     45  N   UNL A   1      42.684  28.392  29.673  1.00  0.00    -0.354 N 
ATOM     46  C   UNL A   1      38.266  31.657  29.885  1.00  0.00     0.074 A 
ATOM     47  C   UNL A   1      37.256  30.674  29.555  1.00  0.00     0.031 C 
ATOM     48  C   UNL A   1      42.987  30.121  31.108  1.00  0.00     0.029 A 
ATOM     49  C   UNL A   1      43.625  29.383  30.034  1.00  0.00     0.049 A 
ATOM     50  H   UNL A   1      42.871  27.490  29.326  1.00  0.00     0.167 HD
ATOM     51  C   UNL A   1      38.241  32.848  30.543  1.00  0.00     0.037 A 
ATOM     52  C   UNL A   1      44.506  29.906  29.135  1.00  0.00     0.037 A 
ATOM     53  C   UNL A   1      39.575  33.357  30.832  1.00  0.00     0.049 A 
ATOM     54  C   UNL A   1      44.454  31.408  29.013  1.00  0.00     0.074 A 
ATOM     55  C   UNL A   1      40.364  33.331  31.970  1.00  0.00     0.029 A 
ATOM     56  N   UNL A   1      40.415  33.725  29.786  1.00  0.00    -0.354 N 
ATOM     57  N   UNL A   1      43.440  32.137  29.388  1.00  0.00    -0.248 NA
ATOM     58  C   UNL A   1      45.523  32.202  28.422  1.00  0.00     0.031 C 
ATOM     59  C   UNL A   1      41.679  33.709  31.612  1.00  0.00     0.029 A 
ATOM     60  C   UNL A   1      41.693  33.963  30.253  1.00  0.00     0.049 A 
ATOM     61  H   UNL A   1      40.137  33.805  28.844  1.00  0.00     0.167 HD
ATOM     62  C   UNL A   1      43.687  33.460  29.096  1.00  0.00     0.074 A 
ATOM     63  C   UNL A   1      45.016  33.444  28.514  1.00  0.00     0.031 C 
ATOM     64  C   UNL A   1      42.752  34.425  29.364  1.00  0.00     0.037 A 
BRANCH  51  65
ATOM     65  C   UNL A   1      36.974  33.352  31.178  1.00  0.00     0.064 A 
ATOM     66  C   UNL A   1      36.705  33.173  32.548  1.00  0.00     0.173 A 
ATOM     67  C   UNL A   1      35.952  33.969  30.434  1.00  0.00     0.173 A 
ATOM     68  F   UNL A   1      37.617  32.660  33.382  1.00  0.00    -0.203 F 
ATOM     69  C   UNL A   1      35.466  33.486  33.110  1.00  0.00     0.198 A 
ATOM     70  C   UNL A   1      34.696  34.239  30.985  1.00  0.00     0.198 A 
ATOM     71  F   UNL A   1      36.149  34.307  29.151  1.00  0.00    -0.203 F 
ATOM     72  F   UNL A   1      35.255  33.271  34.416  1.00  0.00    -0.200 F 
ATOM     73  C   UNL A   1      34.450  33.986  32.321  1.00  0.00     0.200 A 
ATOM     74  F   UNL A   1      33.718  34.723  30.207  1.00  0.00    -0.200 F 
ATOM     75  F   UNL A   1      33.241  34.224  32.847  1.00  0.00    -0.200 F 
ENDBRANCH  51  65
BRANCH  52  76
ATOM     76  C   UNL A   1      44.848  28.973  28.031  1.00  0.00     0.064 A 
ATOM     77  C   UNL A   1      45.700  27.886  28.312  1.00  0.00     0.173 A 
ATOM     78  C   UNL A   1      44.086  28.913  26.860  1.00  0.00     0.173 A 
ATOM     79  F   UNL A   1      46.449  27.893  29.427  1.00  0.00    -0.203 F 
ATOM     80  C   UNL A   1      45.701  26.742  27.518  1.00  0.00     0.198 A 
ATOM     81  C   UNL A   1      44.101  27.771  26.058  1.00  0.00     0.198 A 
ATOM     82  F   UNL A   1      43.243  29.909  26.548  1.00  0.00    -0.203 F 
ATOM     83  F   UNL A   1      46.437  25.680  27.876  1.00  0.00    -0.200 F 
ATOM     84  C   UNL A   1      44.881  26.675  26.406  1.00  0.00     0.200 A 
ATOM     85  F   UNL A   1      43.287  27.693  24.995  1.00  0.00    -0.200 F 
ATOM     86  F   UNL A   1      44.810  25.545  25.691  1.00  0.00    -0.200 F 
ENDBRANCH  52  76
BRANCH  64  87
ATOM     87  C   UNL A   1      42.736  35.892  28.951  1.00  0.00     0.064 A 
ATOM     88  C   UNL A   1      42.026  36.428  27.867  1.00  0.00     0.173 A 
ATOM     89  C   UNL A   1      43.400  36.865  29.753  1.00  0.00     0.173 A 
ATOM     90  F   UNL A   1      41.261  35.667  27.078  1.00  0.00    -0.203 F 
ATOM     91  C   UNL A   1      42.020  37.800  27.575  1.00  0.00     0.198 A 
ATOM     92  C   UNL A   1      43.346  38.235  29.493  1.00  0.00     0.198 A 
ATOM     93  F   UNL A   1      44.109  36.529  30.840  1.00  0.00    -0.203 F 
ATOM     94  F   UNL A   1      41.352  38.244  26.502  1.00  0.00    -0.200 F 
ATOM     95  C   UNL A   1      42.667  38.703  28.395  1.00  0.00     0.200 A 
ATOM     96  F   UNL A   1      43.945  39.094  30.331  1.00  0.00    -0.200 F 
ATOM     97  F   UNL A   1      42.619  40.017  28.136  1.00  0.00    -0.200 F 
ENDBRANCH  64  87
ENDBRANCH  38  39
ENDBRANCH  30  33
ENDBRANCH  28  29
ENDBRANCH  27  28
ENDBRANCH  26  27
ENDBRANCH  25  26
ENDBRANCH   1  25
TORSDOF 18
ENDMDL
MODEL 2
REMARK VINA RESULT:     -12.6      0.834      1.837
REMARK SMILES Cc1ccc(C(=O)NCCCCCCNC(=O)c2ccc(-c3c4nc(c(-c5c(F)c(F)c(F)c(F)c5F)c5ccc([nH]5)c(-c5c(F)c(F)c(F)c(F)c5F)c5nc(c(-c6c(F)c(F)c(F)c(F)c6F)c6ccc3[nH]6)C=C5)C=C4)cc2)cc1S(=O)(=O)N(CC1CC1)C(C)C
REMARK SMILES IDX 10 1 9 2 8 3 6 4 7 5 5 7 1 8 2 9 3 10 82 11 4 12 81 13 83 14
REMARK SMILES IDX 84 15 85 16 86 17 87 18 88 19 89 20 90 21 91 22 92 23 93 24
REMARK SMILES IDX 11 25 12 26 13 27 14 28 15 29 16 30 17 32 18 33 19 34 80 35
REMARK SMILES IDX 20 36 79 37 21 38 22 39 23 40 73 41 24 42 78 43 72 44 74 45
REMARK SMILES IDX 25 46 77 47 71 48 70 49 26 51 58 52 38 53 57 54 39 55 42 56
REMARK SMILES IDX 56 57 75 58 40 59 41 60 55 62 76 63 43 64 27 65 28 66 36 67
REMARK SMILES IDX 29 68 30 69 34 70 37 71 31 72 32 73 35 74 33 75 59 76 60 77
REMARK SMILES IDX 68 78 61 79 62 80 66 81 69 82 63 83 64 84 67 85 65 86 44 87
REMARK SMILES IDX 45 88 53 89 46 90 47 91 51 92 54 93 48 94 49 95 52 96 50 97
REMARK H PARENT 8 6 15 31 74 50 42 61
REMARK Flexibility Score: inf
ROOT
ATOM      1  C   UNL A   1      36.429  20.505  24.859  1.00  0.00     0.021 C 
ENDROOT
BRANCH   1   2
ATOM      2  C   UNL A   1      35.261  21.007  25.715  1.00  0.00     0.116 C 
BRANCH   2   3
ATOM      3  N   UNL A   1      34.155  20.065  25.675  1.00  0.00    -0.352 N 
ATOM      4  C   UNL A   1      32.850  20.161  25.262  1.00  0.00     0.251 C 
ATOM      5  O   UNL A   1      32.161  19.141  25.316  1.00  0.00    -0.269 OA
ATOM      6  H   UNL A   1      34.392  19.171  26.014  1.00  0.00     0.163 HD
BRANCH   4   7
ATOM      7  C   UNL A   1      32.252  21.398  24.683  1.00  0.00     0.041 A 
ATOM      8  C   UNL A   1      31.277  25.143  22.730  1.00  0.00     0.046 C 
ATOM      9  C   UNL A   1      31.498  23.854  23.466  1.00  0.00    -0.031 A 
ATOM     10  C   UNL A   1      32.006  22.784  22.704  1.00  0.00     0.005 A 
ATOM     11  C   UNL A   1      31.257  23.627  24.834  1.00  0.00     0.086 A 
ATOM     12  C   UNL A   1      32.404  21.588  23.307  1.00  0.00     0.014 A 
ATOM     13  C   UNL A   1      31.588  22.380  25.416  1.00  0.00     0.035 A 
BRANCH  11  14
ATOM     14  S   UNL A   1      30.881  24.914  26.033  1.00  0.00     0.243 S 
ATOM     15  O   UNL A   1      29.489  25.274  25.849  1.00  0.00    -0.207 OA
ATOM     16  O   UNL A   1      31.295  24.319  27.285  1.00  0.00    -0.207 OA
BRANCH  14  17
ATOM     17  N   UNL A   1      31.821  26.283  25.714  1.00  0.00    -0.195 NA
BRANCH  17  18
ATOM     18  C   UNL A   1      31.211  27.629  25.581  1.00  0.00     0.106 C 
BRANCH  18  19
ATOM     19  C   UNL A   1      30.772  28.088  24.224  1.00  0.00     0.004 C 
ATOM     20  C   UNL A   1      30.429  29.498  23.800  1.00  0.00     0.005 C 
ATOM     21  C   UNL A   1      31.754  28.920  23.421  1.00  0.00     0.005 C 
ENDBRANCH  18  19
ENDBRANCH  17  18
BRANCH  17  22
ATOM     22  C   UNL A   1      33.266  26.331  26.158  1.00  0.00     0.067 C 
ATOM     23  C   UNL A   1      34.092  25.183  25.591  1.00  0.00     0.025 C 
ATOM     24  C   UNL A   1      33.979  27.654  25.889  1.00  0.00     0.025 C 
ENDBRANCH  17  22
ENDBRANCH  14  17
ENDBRANCH  11  14
ENDBRANCH   4   7
ENDBRANCH   2   3
ENDBRANCH   1   2
BRANCH   1  25
ATOM     25  C   UNL A   1      37.168  21.605  24.079  1.00  0.00     0.002 C 
BRANCH  25  26
ATOM     26  C   UNL A   1      36.714  23.054  24.333  1.00  0.00     0.002 C 
BRANCH  26  27
ATOM     27  C   UNL A   1      37.564  23.868  25.311  1.00  0.00     0.021 C 
BRANCH  27  28
ATOM     28  C   UNL A   1      38.260  23.027  26.377  1.00  0.00     0.116 C 
BRANCH  28  29
ATOM     29  N   UNL A   1      39.716  23.018  26.268  1.00  0.00    -0.352 N 
ATOM     30  C   UNL A   1      40.618  24.036  26.534  1.00  0.00     0.251 C 
ATOM     31  H   UNL A   1      40.114  22.171  25.963  1.00  0.00     0.163 HD
ATOM     32  O   UNL A   1      41.815  23.872  26.367  1.00  0.00    -0.269 OA
BRANCH  30  33
ATOM     33  C   UNL A   1      40.115  25.291  27.141  1.00  0.00     0.039 A 
ATOM     34  C   UNL A   1      40.363  26.493  26.468  1.00  0.00     0.014 A 
ATOM     35  C   UNL A   1      39.601  25.298  28.435  1.00  0.00     0.014 A 
ATOM     36  C   UNL A   1      40.327  27.689  27.180  1.00  0.00     0.010 A 
ATOM     37  C   UNL A   1      39.652  26.469  29.166  1.00  0.00     0.010 A 
ATOM     38  C   UNL A   1      40.083  27.650  28.555  1.00  0.00    -0.014 A 
BRANCH  38  39
ATOM     39  C   UNL A   1      40.398  28.762  29.440  1.00  0.00     0.031 A 
ATOM     40  C   UNL A   1      39.387  29.776  29.787  1.00  0.00     0.074 A 
ATOM     41  C   UNL A   1      41.630  28.859  29.989  1.00  0.00     0.049 A 
ATOM     42  N   UNL A   1      39.680  31.008  30.047  1.00  0.00    -0.248 NA
ATOM     43  C   UNL A   1      37.958  29.490  29.851  1.00  0.00     0.031 C 
ATOM     44  C   UNL A   1      42.050  29.760  31.059  1.00  0.00     0.029 A 
ATOM     45  N   UNL A   1      42.825  28.284  29.526  1.00  0.00    -0.354 N 
ATOM     46  C   UNL A   1      38.557  31.586  30.581  1.00  0.00     0.074 A 
ATOM     47  C   UNL A   1      37.489  30.634  30.361  1.00  0.00     0.031 C 
ATOM     48  C   UNL A   1      43.379  29.931  30.983  1.00  0.00     0.029 A 
ATOM     49  C   UNL A   1      43.830  29.244  29.788  1.00  0.00     0.049 A 
ATOM     50  H   UNL A   1      42.939  27.400  29.109  1.00  0.00     0.167 HD
ATOM     51  C   UNL A   1      38.657  32.740  31.295  1.00  0.00     0.037 A 
ATOM     52  C   UNL A   1      44.573  29.803  28.792  1.00  0.00     0.037 A 
ATOM     53  C   UNL A   1      40.029  33.217  31.400  1.00  0.00     0.049 A 
ATOM     54  C   UNL A   1      44.533  31.311  28.756  1.00  0.00     0.074 A 
ATOM     55  C   UNL A   1      40.983  33.121  32.400  1.00  0.00     0.029 A 
ATOM     56  N   UNL A   1      40.707  33.631  30.258  1.00  0.00    -0.354 N 
ATOM     57  N   UNL A   1      43.603  32.030  29.319  1.00  0.00    -0.248 NA
ATOM     58  C   UNL A   1      45.515  32.122  28.049  1.00  0.00     0.031 C 
ATOM     59  C   UNL A   1      42.235  33.502  31.864  1.00  0.00     0.029 A 
ATOM     60  C   UNL A   1      42.046  33.828  30.534  1.00  0.00     0.049 A 
ATOM     61  H   UNL A   1      40.290  33.764  29.375  1.00  0.00     0.167 HD
ATOM     62  C   UNL A   1      43.829  33.364  29.060  1.00  0.00     0.074 A 
ATOM     63  C   UNL A   1      45.052  33.363  28.281  1.00  0.00     0.031 C 
ATOM     64  C   UNL A   1      42.965  34.324  29.517  1.00  0.00     0.037 A 
BRANCH  51  65
ATOM     65  C   UNL A   1      37.513  33.224  32.141  1.00  0.00     0.064 A 
ATOM     66  C   UNL A   1      36.455  33.982  31.601  1.00  0.00     0.173 A 
ATOM     67  C   UNL A   1      37.460  33.014  33.531  1.00  0.00     0.173 A 
ATOM     68  F   UNL A   1      36.348  34.201  30.286  1.00  0.00    -0.203 F 
ATOM     69  C   UNL A   1      35.481  34.576  32.404  1.00  0.00     0.198 A 
ATOM     70  C   UNL A   1      36.512  33.647  34.340  1.00  0.00     0.198 A 
ATOM     71  F   UNL A   1      38.341  32.200  34.132  1.00  0.00    -0.203 F 
ATOM     72  F   UNL A   1      34.511  35.309  31.840  1.00  0.00    -0.200 F 
ATOM     73  C   UNL A   1      35.530  34.438  33.776  1.00  0.00     0.200 A 
ATOM     74  F   UNL A   1      36.572  33.505  35.671  1.00  0.00    -0.200 F 
ATOM     75  F   UNL A   1      34.632  35.063  34.551  1.00  0.00    -0.200 F 
ENDBRANCH  51  65
BRANCH  52  76
ATOM     76  C   UNL A   1      44.724  28.926  27.603  1.00  0.00     0.064 A 
ATOM     77  C   UNL A   1      45.602  27.827  27.687  1.00  0.00     0.173 A 
ATOM     78  C   UNL A   1      43.781  28.925  26.570  1.00  0.00     0.173 A 
ATOM     79  F   UNL A   1      46.522  27.779  28.664  1.00  0.00    -0.203 F 
ATOM     80  C   UNL A   1      45.464  26.724  26.849  1.00  0.00     0.198 A 
ATOM     81  C   UNL A   1      43.656  27.823  25.721  1.00  0.00     0.198 A 
ATOM     82  F   UNL A   1      42.906  29.934  26.449  1.00  0.00    -0.203 F 
ATOM     83  F   UNL A   1      46.241  25.646  27.029  1.00  0.00    -0.200 F 
ATOM     84  C   UNL A   1      44.473  26.713  25.883  1.00  0.00     0.200 A 
ATOM     85  F   UNL A   1      42.680  27.799  24.802  1.00  0.00    -0.200 F 
ATOM     86  F   UNL A   1      44.279  25.619  25.134  1.00  0.00    -0.200 F 
ENDBRANCH  52  76
BRANCH  64  87
ATOM     87  C   UNL A   1      42.916  35.811  29.187  1.00  0.00     0.064 A 
ATOM     88  C   UNL A   1      43.614  36.822  29.865  1.00  0.00     0.173 A 
ATOM     89  C   UNL A   1      42.197  36.264  28.043  1.00  0.00     0.173 A 
ATOM     90  F   UNL A   1      44.423  36.553  30.894  1.00  0.00    -0.203 F 
ATOM     91  C   UNL A   1      43.558  38.167  29.473  1.00  0.00     0.198 A 
ATOM     92  C   UNL A   1      42.189  37.595  27.623  1.00  0.00     0.198 A 
ATOM     93  F   UNL A   1      41.491  35.429  27.268  1.00  0.00    -0.203 F 
ATOM     94  F   UNL A   1      44.218  39.090  30.187  1.00  0.00    -0.200 F 
ATOM     95  C   UNL A   1      42.859  38.551  28.347  1.00  0.00     0.200 A 
ATOM     96  F   UNL A   1      41.540  37.932  26.499  1.00  0.00    -0.200 F 
ATOM     97  F   UNL A   1      42.849  39.831  27.952  1.00  0.00    -0.200 F 
ENDBRANCH  64  87
ENDBRANCH  38  39
ENDBRANCH  30  33
ENDBRANCH  28  29
ENDBRANCH  27  28
ENDBRANCH  26  27
ENDBRANCH  25  26
ENDBRANCH   1  25
TORSDOF 18
ENDMDL
MODEL 3
REMARK VINA RESULT:     -12.5      0.991      2.152
REMARK SMILES Cc1ccc(C(=O)NCCCCCCNC(=O)c2ccc(-c3c4nc(c(-c5c(F)c(F)c(F)c(F)c5F)c5ccc([nH]5)c(-c5c(F)c(F)c(F)c(F)c5F)c5nc(c(-c6c(F)c(F)c(F)c(F)c6F)c6ccc3[nH]6)C=C5)C=C4)cc2)cc1S(=O)(=O)N(CC1CC1)C(C)C
REMARK SMILES IDX 10 1 9 2 8 3 6 4 7 5 5 7 1 8 2 9 3 10 82 11 4 12 81 13 83 14
REMARK SMILES IDX 84 15 85 16 86 17 87 18 88 19 89 20 90 21 91 22 92 23 93 24
REMARK SMILES IDX 11 25 12 26 13 27 14 28 15 29 16 30 17 32 18 33 19 34 80 35
REMARK SMILES IDX 20 36 79 37 21 38 22 39 23 40 73 41 24 42 78 43 72 44 74 45
REMARK SMILES IDX 25 46 77 47 71 48 70 49 26 51 58 52 38 53 57 54 39 55 42 56
REMARK SMILES IDX 56 57 75 58 40 59 41 60 55 62 76 63 43 64 27 65 28 66 36 67
REMARK SMILES IDX 29 68 30 69 34 70 37 71 31 72 32 73 35 74 33 75 59 76 60 77
REMARK SMILES IDX 68 78 61 79 62 80 66 81 69 82 63 83 64 84 67 85 65 86 44 87
REMARK SMILES IDX 45 88 53 89 46 90 47 91 51 92 54 93 48 94 49 95 52 96 50 97
REMARK H PARENT 8 6 15 31 74 50 42 61
REMARK Flexibility Score: inf
ROOT
ATOM      1  C   UNL A   1      34.850  20.662  25.002  1.00  0.00     0.021 C 
ENDROOT
BRANCH   1   2
ATOM      2  C   UNL A   1      33.332  20.739  25.188  1.00  0.00     0.116 C 
BRANCH   2   3
ATOM      3  N   UNL A   1      33.003  21.205  26.526  1.00  0.00    -0.352 N 
ATOM      4  C   UNL A   1      32.878  22.452  27.085  1.00  0.00     0.251 C 
ATOM      5  O   UNL A   1      32.534  22.512  28.267  1.00  0.00    -0.269 OA
ATOM      6  H   UNL A   1      32.836  20.473  27.163  1.00  0.00     0.163 HD
BRANCH   4   7
ATOM      7  C   UNL A   1      33.054  23.723  26.326  1.00  0.00     0.041 A 
ATOM      8  C   UNL A   1      33.925  27.689  24.807  1.00  0.00     0.046 C 
ATOM      9  C   UNL A   1      33.544  26.300  25.230  1.00  0.00    -0.031 A 
ATOM     10  C   UNL A   1      34.601  25.462  25.633  1.00  0.00     0.005 A 
ATOM     11  C   UNL A   1      32.239  25.773  25.269  1.00  0.00     0.086 A 
ATOM     12  C   UNL A   1      34.359  24.208  26.200  1.00  0.00     0.014 A 
ATOM     13  C   UNL A   1      32.016  24.467  25.768  1.00  0.00     0.035 A 
BRANCH  11  14
ATOM     14  S   UNL A   1      30.739  26.744  25.069  1.00  0.00     0.243 S 
ATOM     15  O   UNL A   1      29.622  25.824  25.156  1.00  0.00    -0.207 OA
ATOM     16  O   UNL A   1      30.883  27.773  26.076  1.00  0.00    -0.207 OA
BRANCH  14  17
ATOM     17  N   UNL A   1      30.716  27.450  23.533  1.00  0.00    -0.195 NA
BRANCH  17  18
ATOM     18  C   UNL A   1      30.941  26.646  22.306  1.00  0.00     0.106 C 
BRANCH  18  19
ATOM     19  C   UNL A   1      32.345  26.280  21.934  1.00  0.00     0.004 C 
ATOM     20  C   UNL A   1      32.920  24.891  21.777  1.00  0.00     0.005 C 
ATOM     21  C   UNL A   1      32.564  25.679  20.558  1.00  0.00     0.005 C 
ENDBRANCH  18  19
ENDBRANCH  17  18
BRANCH  17  22
ATOM     22  C   UNL A   1      29.892  28.693  23.282  1.00  0.00     0.067 C 
ATOM     23  C   UNL A   1      30.333  29.447  22.033  1.00  0.00     0.025 C 
ATOM     24  C   UNL A   1      28.383  28.466  23.235  1.00  0.00     0.025 C 
ENDBRANCH  17  22
ENDBRANCH  14  17
ENDBRANCH  11  14
ENDBRANCH   4   7
ENDBRANCH   2   3
ENDBRANCH   1   2
BRANCH   1  25
ATOM     25  C   UNL A   1      35.465  21.864  24.265  1.00  0.00     0.002 C 
BRANCH  25  26
ATOM     26  C   UNL A   1      37.002  21.905  24.174  1.00  0.00     0.002 C 
BRANCH  26  27
ATOM     27  C   UNL A   1      37.696  23.016  24.965  1.00  0.00     0.021 C 
BRANCH  27  28
ATOM     28  C   UNL A   1      38.398  22.532  26.231  1.00  0.00     0.116 C 
BRANCH  28  29
ATOM     29  N   UNL A   1      39.855  22.580  26.157  1.00  0.00    -0.352 N 
ATOM     30  C   UNL A   1      40.705  23.655  26.363  1.00  0.00     0.251 C 
ATOM     31  H   UNL A   1      40.296  21.730  25.929  1.00  0.00     0.163 HD
ATOM     32  O   UNL A   1      41.912  23.531  26.237  1.00  0.00    -0.269 OA
BRANCH  30  33
ATOM     33  C   UNL A   1      40.132  24.929  26.857  1.00  0.00     0.039 A 
ATOM     34  C   UNL A   1      40.498  26.111  26.203  1.00  0.00     0.014 A 
ATOM     35  C   UNL A   1      39.427  24.973  28.057  1.00  0.00     0.014 A 
ATOM     36  C   UNL A   1      40.370  27.325  26.874  1.00  0.00     0.010 A 
ATOM     37  C   UNL A   1      39.383  26.161  28.760  1.00  0.00     0.010 A 
ATOM     38  C   UNL A   1      39.919  27.323  28.195  1.00  0.00    -0.014 A 
BRANCH  38  39
ATOM     39  C   UNL A   1      40.110  28.452  29.093  1.00  0.00     0.031 A 
ATOM     40  C   UNL A   1      39.075  29.488  29.254  1.00  0.00     0.074 A 
ATOM     41  C   UNL A   1      41.243  28.547  29.825  1.00  0.00     0.049 A 
ATOM     42  N   UNL A   1      39.344  30.723  29.528  1.00  0.00    -0.248 NA
ATOM     43  C   UNL A   1      37.649  29.222  29.101  1.00  0.00     0.031 C 
ATOM     44  C   UNL A   1      41.506  29.470  30.927  1.00  0.00     0.029 A 
ATOM     45  N   UNL A   1      42.486  27.945  29.568  1.00  0.00    -0.354 N 
ATOM     46  C   UNL A   1      38.162  31.328  29.866  1.00  0.00     0.074 A 
ATOM     47  C   UNL A   1      37.125  30.385  29.504  1.00  0.00     0.031 C 
ATOM     48  C   UNL A   1      42.833  29.621  31.055  1.00  0.00     0.029 A 
ATOM     49  C   UNL A   1      43.453  28.899  29.961  1.00  0.00     0.049 A 
ATOM     50  H   UNL A   1      42.648  27.049  29.195  1.00  0.00     0.167 HD
ATOM     51  C   UNL A   1      38.168  32.498  30.560  1.00  0.00     0.037 A 
ATOM     52  C   UNL A   1      44.352  29.422  29.081  1.00  0.00     0.037 A 
ATOM     53  C   UNL A   1      39.515  32.960  30.867  1.00  0.00     0.049 A 
ATOM     54  C   UNL A   1      44.343  30.929  29.004  1.00  0.00     0.074 A 
ATOM     55  C   UNL A   1      40.300  32.878  32.006  1.00  0.00     0.029 A 
ATOM     56  N   UNL A   1      40.369  33.336  29.836  1.00  0.00    -0.354 N 
ATOM     57  N   UNL A   1      43.350  31.675  29.398  1.00  0.00    -0.248 NA
ATOM     58  C   UNL A   1      45.437  31.709  28.441  1.00  0.00     0.031 C 
ATOM     59  C   UNL A   1      41.626  33.228  31.664  1.00  0.00     0.029 A 
ATOM     60  C   UNL A   1      41.652  33.523  30.313  1.00  0.00     0.049 A 
ATOM     61  H   UNL A   1      40.097  33.452  28.896  1.00  0.00     0.167 HD
ATOM     62  C   UNL A   1      43.635  32.998  29.147  1.00  0.00     0.074 A 
ATOM     63  C   UNL A   1      44.965  32.962  28.569  1.00  0.00     0.031 C 
ATOM     64  C   UNL A   1      42.727  33.980  29.441  1.00  0.00     0.037 A 
BRANCH  51  65
ATOM     65  C   UNL A   1      36.914  33.019  31.205  1.00  0.00     0.064 A 
ATOM     66  C   UNL A   1      35.977  33.794  30.495  1.00  0.00     0.173 A 
ATOM     67  C   UNL A   1      36.633  32.827  32.570  1.00  0.00     0.173 A 
ATOM     68  F   UNL A   1      36.089  33.998  29.178  1.00  0.00    -0.203 F 
ATOM     69  C   UNL A   1      34.900  34.420  31.124  1.00  0.00     0.198 A 
ATOM     70  C   UNL A   1      35.582  33.492  33.210  1.00  0.00     0.198 A 
ATOM     71  F   UNL A   1      37.385  32.001  33.313  1.00  0.00    -0.203 F 
ATOM     72  F   UNL A   1      34.052  35.167  30.404  1.00  0.00    -0.200 F 
ATOM     73  C   UNL A   1      34.723  34.298  32.488  1.00  0.00     0.200 A 
ATOM     74  F   UNL A   1      35.423  33.365  34.534  1.00  0.00    -0.200 F 
ATOM     75  F   UNL A   1      33.728  34.953  33.102  1.00  0.00    -0.200 F 
ENDBRANCH  51  65
BRANCH  52  76
ATOM     76  C   UNL A   1      44.672  28.513  27.951  1.00  0.00     0.064 A 
ATOM     77  C   UNL A   1      45.450  27.368  28.212  1.00  0.00     0.173 A 
ATOM     78  C   UNL A   1      43.943  28.545  26.758  1.00  0.00     0.173 A 
ATOM     79  F   UNL A   1      46.165  27.287  29.345  1.00  0.00    -0.203 F 
ATOM     80  C   UNL A   1      45.407  26.257  27.373  1.00  0.00     0.198 A 
ATOM     81  C   UNL A   1      43.914  27.435  25.911  1.00  0.00     0.198 A 
ATOM     82  F   UNL A   1      43.170  29.600  26.463  1.00  0.00    -0.203 F 
ATOM     83  F   UNL A   1      46.068  25.140  27.708  1.00  0.00    -0.200 F 
ATOM     84  C   UNL A   1      44.618  26.282  26.236  1.00  0.00     0.200 A 
ATOM     85  F   UNL A   1      43.130  27.447  24.824  1.00  0.00    -0.200 F 
ATOM     86  F   UNL A   1      44.503  25.186  25.475  1.00  0.00    -0.200 F 
ENDBRANCH  52  76
BRANCH  64  87
ATOM     87  C   UNL A   1      42.755  35.459  29.073  1.00  0.00     0.064 A 
ATOM     88  C   UNL A   1      42.050  36.051  28.014  1.00  0.00     0.173 A 
ATOM     89  C   UNL A   1      43.459  36.386  29.895  1.00  0.00     0.173 A 
ATOM     90  F   UNL A   1      41.252  35.339  27.212  1.00  0.00    -0.203 F 
ATOM     91  C   UNL A   1      42.086  37.430  27.764  1.00  0.00     0.198 A 
ATOM     92  C   UNL A   1      43.447  37.764  29.678  1.00  0.00     0.198 A 
ATOM     93  F   UNL A   1      44.169  35.995  30.963  1.00  0.00    -0.203 F 
ATOM     94  F   UNL A   1      41.420  37.928  26.712  1.00  0.00    -0.200 F 
ATOM     95  C   UNL A   1      42.772  38.287  28.602  1.00  0.00     0.200 A 
ATOM     96  F   UNL A   1      44.083  38.577  30.533  1.00  0.00    -0.200 F 
ATOM     97  F   UNL A   1      42.763  39.609  28.384  1.00  0.00    -0.200 F 
ENDBRANCH  64  87
ENDBRANCH  38  39
ENDBRANCH  30  33
ENDBRANCH  28  29
ENDBRANCH  27  28
ENDBRANCH  26  27
ENDBRANCH  25  26
ENDBRANCH   1  25
TORSDOF 18
ENDMDL
