MODEL 1
REMARK VINA RESULT:     -13.2      0.000      0.000
REMARK SMILES O=C(NCCCCCCNC(=O)[C@H]1[C@H]2CC[C@H](C2)[C@@H]1C(=O)N1CC[NH+](C2CCCCC2)CC1)c1ccc(-c2c3nc(c(-c4c(F)c(F)c(F)c(F)c4F)c4ccc([nH]4)c(-c4c(F)c(F)c(F)c(F)c4F)c4nc(c(-c5c(F)c(F)c(F)c(F)c5F)c5ccc2[nH]5)C=C4)C=C3)cc1
REMARK SMILES IDX 6 1 5 2 4 3 3 4 1 5 2 6 34 8 35 9 96 10 36 11 95 12 37 13
REMARK SMILES IDX 38 14 39 15 89 16 40 17 94 18 88 19 90 20 41 21 93 22 87 23
REMARK SMILES IDX 86 24 42 26 74 27 54 28 73 29 55 30 58 31 72 32 91 33 56 34
REMARK SMILES IDX 57 35 71 37 92 38 59 39 43 40 44 41 52 42 45 43 46 44 50 45
REMARK SMILES IDX 53 46 47 47 48 48 51 49 49 50 75 51 76 52 84 53 77 54 78 55
REMARK SMILES IDX 82 56 85 57 79 58 80 59 83 60 81 61 60 62 61 63 69 64 62 65
REMARK SMILES IDX 63 66 67 67 70 68 64 69 65 70 68 71 66 72 7 73 8 74 9 75
REMARK SMILES IDX 10 76 11 77 12 79 13 80 14 81 19 82 15 83 18 84 17 85 16 86
REMARK SMILES IDX 20 87 21 88 22 89 23 90 33 91 24 92 32 93 25 94 26 96 27 97
REMARK SMILES IDX 31 98 28 99 30 100 29 101
REMARK H PARENT 3 7 90 25 58 36 10 78 25 95
REMARK Flexibility Score: inf
ROOT
ATOM      1  C   UNL A   1      31.520  30.643  26.873  1.00  0.00     0.002 C 
ENDROOT
BRANCH   1   2
ATOM      2  C   UNL A   1      31.411  32.151  26.646  1.00  0.00     0.021 C 
BRANCH   2   3
ATOM      3  C   UNL A   1      32.674  32.930  26.977  1.00  0.00     0.116 C 
BRANCH   3   4
ATOM      4  N   UNL A   1      32.391  34.215  27.594  1.00  0.00    -0.352 N 
ATOM      5  O   UNL A   1      32.549  35.822  29.174  1.00  0.00    -0.269 OA
ATOM      6  C   UNL A   1      33.004  34.804  28.674  1.00  0.00     0.251 C 
ATOM      7  H   UNL A   1      31.661  34.733  27.183  1.00  0.00     0.163 HD
BRANCH   6   8
ATOM      8  C   UNL A   1      34.218  34.177  29.244  1.00  0.00     0.039 A 
ATOM      9  C   UNL A   1      34.108  33.166  30.201  1.00  0.00     0.014 A 
ATOM     10  C   UNL A   1      35.478  34.609  28.818  1.00  0.00     0.014 A 
ATOM     11  C   UNL A   1      35.248  32.687  30.831  1.00  0.00     0.010 A 
ATOM     12  C   UNL A   1      36.630  34.058  29.389  1.00  0.00     0.010 A 
ATOM     13  C   UNL A   1      36.523  33.110  30.416  1.00  0.00    -0.014 A 
BRANCH  13  14
ATOM     14  C   UNL A   1      37.714  32.466  31.024  1.00  0.00     0.031 A 
ATOM     15  C   UNL A   1      38.184  32.821  32.405  1.00  0.00     0.074 A 
ATOM     16  C   UNL A   1      38.337  31.500  30.320  1.00  0.00     0.049 A 
ATOM     17  N   UNL A   1      39.165  32.297  33.098  1.00  0.00    -0.248 NA
ATOM     18  C   UNL A   1      37.474  33.905  33.098  1.00  0.00     0.031 C 
ATOM     19  C   UNL A   1      37.981  31.093  28.958  1.00  0.00     0.029 A 
ATOM     20  N   UNL A   1      39.371  30.664  30.655  1.00  0.00    -0.354 N 
ATOM     21  C   UNL A   1      39.195  32.989  34.302  1.00  0.00     0.074 A 
ATOM     22  C   UNL A   1      38.153  33.992  34.236  1.00  0.00     0.031 C 
ATOM     23  C   UNL A   1      38.739  30.049  28.597  1.00  0.00     0.029 A 
ATOM     24  C   UNL A   1      39.675  29.752  29.675  1.00  0.00     0.049 A 
ATOM     25  H   UNL A   1      39.848  30.714  31.514  1.00  0.00     0.167 HD
ATOM     26  C   UNL A   1      40.013  32.795  35.364  1.00  0.00     0.037 A 
ATOM     27  C   UNL A   1      40.611  28.787  29.641  1.00  0.00     0.037 A 
ATOM     28  C   UNL A   1      41.044  31.788  35.424  1.00  0.00     0.049 A 
ATOM     29  C   UNL A   1      41.498  28.597  30.836  1.00  0.00     0.074 A 
ATOM     30  C   UNL A   1      41.918  31.507  36.461  1.00  0.00     0.029 A 
ATOM     31  N   UNL A   1      41.339  30.896  34.403  1.00  0.00    -0.354 N 
ATOM     32  N   UNL A   1      41.498  29.244  31.976  1.00  0.00    -0.248 NA
ATOM     33  C   UNL A   1      42.515  27.543  30.740  1.00  0.00     0.031 C 
ATOM     34  C   UNL A   1      42.764  30.469  36.054  1.00  0.00     0.029 A 
ATOM     35  C   UNL A   1      42.389  30.073  34.781  1.00  0.00     0.049 A 
ATOM     36  H   UNL A   1      40.872  30.854  33.538  1.00  0.00     0.167 HD
ATOM     37  C   UNL A   1      42.512  28.679  32.733  1.00  0.00     0.074 A 
ATOM     38  C   UNL A   1      43.078  27.608  31.938  1.00  0.00     0.031 C 
ATOM     39  C   UNL A   1      42.946  29.022  33.970  1.00  0.00     0.037 A 
BRANCH  26  40
ATOM     40  C   UNL A   1      39.837  33.688  36.558  1.00  0.00     0.064 A 
ATOM     41  C   UNL A   1      40.481  34.932  36.644  1.00  0.00     0.173 A 
ATOM     42  C   UNL A   1      38.958  33.332  37.592  1.00  0.00     0.173 A 
ATOM     43  F   UNL A   1      41.340  35.314  35.687  1.00  0.00    -0.203 F 
ATOM     44  C   UNL A   1      40.259  35.779  37.726  1.00  0.00     0.198 A 
ATOM     45  C   UNL A   1      38.720  34.192  38.660  1.00  0.00     0.198 A 
ATOM     46  F   UNL A   1      38.313  32.156  37.555  1.00  0.00    -0.203 F 
ATOM     47  F   UNL A   1      40.906  36.952  37.801  1.00  0.00    -0.200 F 
ATOM     48  C   UNL A   1      39.373  35.414  38.729  1.00  0.00     0.200 A 
ATOM     49  F   UNL A   1      37.855  33.843  39.622  1.00  0.00    -0.200 F 
ATOM     50  F   UNL A   1      39.149  36.239  39.760  1.00  0.00    -0.200 F 
ENDBRANCH  26  40
BRANCH  27  51
ATOM     51  C   UNL A   1      40.756  27.941  28.429  1.00  0.00     0.064 A 
ATOM     52  C   UNL A   1      40.100  26.708  28.323  1.00  0.00     0.173 A 
ATOM     53  C   UNL A   1      41.552  28.354  27.350  1.00  0.00     0.173 A 
ATOM     54  F   UNL A   1      39.343  26.263  29.336  1.00  0.00    -0.203 F 
ATOM     55  C   UNL A   1      40.251  25.910  27.191  1.00  0.00     0.198 A 
ATOM     56  C   UNL A   1      41.674  27.571  26.205  1.00  0.00     0.198 A 
ATOM     57  F   UNL A   1      42.194  29.531  27.399  1.00  0.00    -0.203 F 
ATOM     58  F   UNL A   1      39.650  24.713  27.133  1.00  0.00    -0.200 F 
ATOM     59  C   UNL A   1      41.031  26.345  26.130  1.00  0.00     0.200 A 
ATOM     60  F   UNL A   1      42.415  28.005  25.176  1.00  0.00    -0.200 F 
ATOM     61  F   UNL A   1      41.170  25.580  25.039  1.00  0.00    -0.200 F 
ENDBRANCH  27  51
BRANCH  39  62
ATOM     62  C   UNL A   1      44.085  28.223  34.528  1.00  0.00     0.064 A 
ATOM     63  C   UNL A   1      45.417  28.626  34.348  1.00  0.00     0.173 A 
ATOM     64  C   UNL A   1      43.845  27.043  35.247  1.00  0.00     0.173 A 
ATOM     65  F   UNL A   1      45.697  29.738  33.651  1.00  0.00    -0.203 F 
ATOM     66  C   UNL A   1      46.469  27.858  34.837  1.00  0.00     0.198 A 
ATOM     67  C   UNL A   1      44.898  26.292  35.760  1.00  0.00     0.198 A 
ATOM     68  F   UNL A   1      42.589  26.618  35.450  1.00  0.00    -0.203 F 
ATOM     69  F   UNL A   1      47.734  28.230  34.602  1.00  0.00    -0.200 F 
ATOM     70  C   UNL A   1      46.209  26.694  35.546  1.00  0.00     0.200 A 
ATOM     71  F   UNL A   1      44.647  25.173  36.453  1.00  0.00    -0.200 F 
ATOM     72  F   UNL A   1      47.223  25.952  36.011  1.00  0.00    -0.200 F 
ENDBRANCH  39  62
ENDBRANCH  13  14
ENDBRANCH   6   8
ENDBRANCH   3   4
ENDBRANCH   2   3
ENDBRANCH   1   2
BRANCH   1  73
ATOM     73  C   UNL A   1      32.923  30.140  27.232  1.00  0.00     0.002 C 
BRANCH  73  74
ATOM     74  C   UNL A   1      33.070  28.614  27.303  1.00  0.00     0.021 C 
BRANCH  74  75
ATOM     75  C   UNL A   1      34.054  28.039  26.286  1.00  0.00     0.116 C 
BRANCH  75  76
ATOM     76  N   UNL A   1      34.060  28.827  25.068  1.00  0.00    -0.356 N 
ATOM     77  C   UNL A   1      33.440  28.582  23.879  1.00  0.00     0.224 C 
ATOM     78  H   UNL A   1      34.587  29.658  25.106  1.00  0.00     0.163 HD
ATOM     79  O   UNL A   1      33.672  29.323  22.928  1.00  0.00    -0.275 OA
BRANCH  77  80
ATOM     80  C   UNL A   1      32.437  27.450  23.828  1.00  0.00     0.094 C 
ATOM     81  C   UNL A   1      31.113  27.832  24.536  1.00  0.00     0.002 C 
ATOM     82  C   UNL A   1      31.975  27.048  22.410  1.00  0.00     0.094 C 
ATOM     83  C   UNL A   1      30.432  29.040  23.868  1.00  0.00     0.005 C 
ATOM     84  C   UNL A   1      30.210  26.704  24.063  1.00  0.00     0.009 C 
ATOM     85  C   UNL A   1      30.439  27.005  22.574  1.00  0.00     0.002 C 
ATOM     86  C   UNL A   1      29.937  28.466  22.528  1.00  0.00     0.005 C 
BRANCH  82  87
ATOM     87  C   UNL A   1      32.765  25.821  21.932  1.00  0.00     0.227 C 
ATOM     88  O   UNL A   1      33.376  25.878  20.861  1.00  0.00    -0.275 OA
ATOM     89  N   UNL A   1      32.995  24.776  22.807  1.00  0.00    -0.331 N 
ATOM     90  C   UNL A   1      34.301  24.117  22.754  1.00  0.00     0.181 C 
ATOM     91  C   UNL A   1      31.937  23.940  23.358  1.00  0.00     0.181 C 
ATOM     92  C   UNL A   1      34.678  23.451  24.101  1.00  0.00     0.284 C 
ATOM     93  C   UNL A   1      32.345  23.395  24.734  1.00  0.00     0.284 C 
ATOM     94  N   UNL A   1      33.618  22.652  24.751  1.00  0.00    -0.330 N 
ATOM     95  H   UNL A   1      33.849  22.544  25.740  1.00  0.00     0.348 HD
BRANCH  94  96
ATOM     96  C   UNL A   1      33.592  21.219  24.384  1.00  0.00     0.184 C 
ATOM     97  C   UNL A   1      34.767  20.434  25.012  1.00  0.00     0.065 C 
ATOM     98  C   UNL A   1      32.249  20.486  24.583  1.00  0.00     0.065 C 
ATOM     99  C   UNL A   1      34.779  18.961  24.615  1.00  0.00     0.006 C 
ATOM    100  C   UNL A   1      32.310  18.998  24.246  1.00  0.00     0.006 C 
ATOM    101  C   UNL A   1      33.453  18.303  24.971  1.00  0.00     0.000 C 
ENDBRANCH  94  96
ENDBRANCH  82  87
ENDBRANCH  77  80
ENDBRANCH  75  76
ENDBRANCH  74  75
ENDBRANCH  73  74
ENDBRANCH   1  73
TORSDOF 15
ENDMDL
MODEL 2
REMARK VINA RESULT:     -13.0      5.164     10.825
REMARK SMILES O=C(NCCCCCCNC(=O)[C@H]1[C@H]2CC[C@H](C2)[C@@H]1C(=O)N1CC[NH+](C2CCCCC2)CC1)c1ccc(-c2c3nc(c(-c4c(F)c(F)c(F)c(F)c4F)c4ccc([nH]4)c(-c4c(F)c(F)c(F)c(F)c4F)c4nc(c(-c5c(F)c(F)c(F)c(F)c5F)c5ccc2[nH]5)C=C4)C=C3)cc1
REMARK SMILES IDX 6 1 5 2 4 3 3 4 1 5 2 6 34 8 35 9 96 10 36 11 95 12 37 13
REMARK SMILES IDX 38 14 39 15 89 16 40 17 94 18 88 19 90 20 41 21 93 22 87 23
REMARK SMILES IDX 86 24 42 26 74 27 54 28 73 29 55 30 58 31 72 32 91 33 56 34
REMARK SMILES IDX 57 35 71 37 92 38 59 39 43 40 44 41 52 42 45 43 46 44 50 45
REMARK SMILES IDX 53 46 47 47 48 48 51 49 49 50 75 51 76 52 84 53 77 54 78 55
REMARK SMILES IDX 82 56 85 57 79 58 80 59 83 60 81 61 60 62 61 63 69 64 62 65
REMARK SMILES IDX 63 66 67 67 70 68 64 69 65 70 68 71 66 72 7 73 8 74 9 75
REMARK SMILES IDX 10 76 11 77 12 79 13 80 14 81 19 82 15 83 18 84 17 85 16 86
REMARK SMILES IDX 20 87 21 88 22 89 23 90 33 91 24 92 32 93 25 94 26 96 27 97
REMARK SMILES IDX 31 98 28 99 30 100 29 101
REMARK H PARENT 3 7 90 25 58 36 10 78 25 95
REMARK Flexibility Score: inf
ROOT
ATOM      1  C   UNL A   1      37.563  21.066  24.624  1.00  0.00     0.002 C 
ENDROOT
BRANCH   1   2
ATOM      2  C   UNL A   1      38.309  19.767  24.926  1.00  0.00     0.021 C 
BRANCH   2   3
ATOM      3  C   UNL A   1      39.259  19.847  26.110  1.00  0.00     0.116 C 
BRANCH   3   4
ATOM      4  N   UNL A   1      40.407  18.969  25.964  1.00  0.00    -0.352 N 
ATOM      5  O   UNL A   1      42.593  18.460  25.708  1.00  0.00    -0.269 OA
ATOM      6  C   UNL A   1      41.744  19.287  26.004  1.00  0.00     0.251 C 
ATOM      7  H   UNL A   1      40.200  18.017  25.817  1.00  0.00     0.163 HD
BRANCH   6   8
ATOM      8  C   UNL A   1      42.147  20.658  26.390  1.00  0.00     0.039 A 
ATOM      9  C   UNL A   1      42.303  21.648  25.418  1.00  0.00     0.014 A 
ATOM     10  C   UNL A   1      42.374  20.953  27.738  1.00  0.00     0.014 A 
ATOM     11  C   UNL A   1      42.818  22.887  25.774  1.00  0.00     0.010 A 
ATOM     12  C   UNL A   1      42.804  22.231  28.106  1.00  0.00     0.010 A 
ATOM     13  C   UNL A   1      43.052  23.201  27.124  1.00  0.00    -0.014 A 
BRANCH  13  14
ATOM     14  C   UNL A   1      43.470  24.584  27.467  1.00  0.00     0.031 A 
ATOM     15  C   UNL A   1      44.859  25.080  27.186  1.00  0.00     0.074 A 
ATOM     16  C   UNL A   1      42.543  25.411  27.988  1.00  0.00     0.049 A 
ATOM     17  N   UNL A   1      45.353  26.281  27.365  1.00  0.00    -0.248 NA
ATOM     18  C   UNL A   1      45.822  24.111  26.646  1.00  0.00     0.031 C 
ATOM     19  C   UNL A   1      41.170  25.026  28.326  1.00  0.00     0.029 A 
ATOM     20  N   UNL A   1      42.597  26.747  28.294  1.00  0.00    -0.354 N 
ATOM     21  C   UNL A   1      46.681  26.211  26.966  1.00  0.00     0.074 A 
ATOM     22  C   UNL A   1      46.928  24.842  26.565  1.00  0.00     0.031 C 
ATOM     23  C   UNL A   1      40.495  26.110  28.734  1.00  0.00     0.029 A 
ATOM     24  C   UNL A   1      41.402  27.251  28.746  1.00  0.00     0.049 A 
ATOM     25  H   UNL A   1      43.412  27.289  28.201  1.00  0.00     0.167 HD
ATOM     26  C   UNL A   1      47.603  27.203  26.934  1.00  0.00     0.037 A 
ATOM     27  C   UNL A   1      41.073  28.495  29.137  1.00  0.00     0.037 A 
ATOM     28  C   UNL A   1      47.347  28.566  27.330  1.00  0.00     0.049 A 
ATOM     29  C   UNL A   1      42.117  29.571  29.083  1.00  0.00     0.074 A 
ATOM     30  C   UNL A   1      48.214  29.645  27.322  1.00  0.00     0.029 A 
ATOM     31  N   UNL A   1      46.131  29.037  27.803  1.00  0.00    -0.354 N 
ATOM     32  N   UNL A   1      43.362  29.495  28.683  1.00  0.00    -0.248 NA
ATOM     33  C   UNL A   1      41.711  30.906  29.539  1.00  0.00     0.031 C 
ATOM     34  C   UNL A   1      47.534  30.760  27.824  1.00  0.00     0.029 A 
ATOM     35  C   UNL A   1      46.229  30.387  28.103  1.00  0.00     0.049 A 
ATOM     36  H   UNL A   1      45.318  28.492  27.911  1.00  0.00     0.167 HD
ATOM     37  C   UNL A   1      43.890  30.767  28.836  1.00  0.00     0.074 A 
ATOM     38  C   UNL A   1      42.816  31.606  29.328  1.00  0.00     0.031 C 
ATOM     39  C   UNL A   1      45.152  31.200  28.604  1.00  0.00     0.037 A 
BRANCH  26  40
ATOM     40  C   UNL A   1      48.985  26.862  26.455  1.00  0.00     0.064 A 
ATOM     41  C   UNL A   1      49.945  26.312  27.319  1.00  0.00     0.173 A 
ATOM     42  C   UNL A   1      49.330  27.014  25.104  1.00  0.00     0.173 A 
ATOM     43  F   UNL A   1      49.668  26.156  28.622  1.00  0.00    -0.203 F 
ATOM     44  C   UNL A   1      51.201  25.939  26.849  1.00  0.00     0.198 A 
ATOM     45  C   UNL A   1      50.579  26.618  24.633  1.00  0.00     0.198 A 
ATOM     46  F   UNL A   1      48.447  27.530  24.235  1.00  0.00    -0.203 F 
ATOM     47  F   UNL A   1      52.112  25.441  27.698  1.00  0.00    -0.200 F 
ATOM     48  C   UNL A   1      51.515  26.084  25.505  1.00  0.00     0.200 A 
ATOM     49  F   UNL A   1      50.876  26.748  23.333  1.00  0.00    -0.200 F 
ATOM     50  F   UNL A   1      52.719  25.709  25.054  1.00  0.00    -0.200 F 
ENDBRANCH  26  40
BRANCH  27  51
ATOM     51  C   UNL A   1      39.696  28.778  29.618  1.00  0.00     0.064 A 
ATOM     52  C   UNL A   1      39.344  28.591  30.961  1.00  0.00     0.173 A 
ATOM     53  C   UNL A   1      38.707  29.249  28.742  1.00  0.00     0.173 A 
ATOM     54  F   UNL A   1      40.252  28.126  31.832  1.00  0.00    -0.203 F 
ATOM     55  C   UNL A   1      38.048  28.844  31.405  1.00  0.00     0.198 A 
ATOM     56  C   UNL A   1      37.421  29.533  29.194  1.00  0.00     0.198 A 
ATOM     57  F   UNL A   1      38.996  29.453  27.448  1.00  0.00    -0.203 F 
ATOM     58  F   UNL A   1      37.724  28.612  32.684  1.00  0.00    -0.200 F 
ATOM     59  C   UNL A   1      37.090  29.321  30.523  1.00  0.00     0.200 A 
ATOM     60  F   UNL A   1      36.505  30.012  28.342  1.00  0.00    -0.200 F 
ATOM     61  F   UNL A   1      35.845  29.570  30.953  1.00  0.00    -0.200 F 
ENDBRANCH  27  51
BRANCH  39  62
ATOM     62  C   UNL A   1      45.426  32.649  28.880  1.00  0.00     0.064 A 
ATOM     63  C   UNL A   1      45.158  33.638  27.922  1.00  0.00     0.173 A 
ATOM     64  C   UNL A   1      45.962  33.051  30.112  1.00  0.00     0.173 A 
ATOM     65  F   UNL A   1      44.663  33.299  26.722  1.00  0.00    -0.203 F 
ATOM     66  C   UNL A   1      45.451  34.975  28.175  1.00  0.00     0.198 A 
ATOM     67  C   UNL A   1      46.226  34.392  30.372  1.00  0.00     0.198 A 
ATOM     68  F   UNL A   1      46.231  32.143  31.063  1.00  0.00    -0.203 F 
ATOM     69  F   UNL A   1      45.244  35.895  27.223  1.00  0.00    -0.200 F 
ATOM     70  C   UNL A   1      45.981  35.351  29.400  1.00  0.00     0.200 A 
ATOM     71  F   UNL A   1      46.729  34.757  31.559  1.00  0.00    -0.200 F 
ATOM     72  F   UNL A   1      46.268  36.638  29.639  1.00  0.00    -0.200 F 
ENDBRANCH  39  62
ENDBRANCH  13  14
ENDBRANCH   6   8
ENDBRANCH   3   4
ENDBRANCH   2   3
ENDBRANCH   1   2
BRANCH   1  73
ATOM     73  C   UNL A   1      37.834  22.214  25.603  1.00  0.00     0.002 C 
BRANCH  73  74
ATOM     74  C   UNL A   1      37.264  23.575  25.186  1.00  0.00     0.021 C 
BRANCH  74  75
ATOM     75  C   UNL A   1      36.132  24.074  26.081  1.00  0.00     0.116 C 
BRANCH  75  76
ATOM     76  N   UNL A   1      35.603  22.997  26.895  1.00  0.00    -0.356 N 
ATOM     77  C   UNL A   1      34.383  22.392  26.840  1.00  0.00     0.224 C 
ATOM     78  H   UNL A   1      36.214  22.654  27.589  1.00  0.00     0.163 HD
ATOM     79  O   UNL A   1      34.090  21.572  27.706  1.00  0.00    -0.275 OA
BRANCH  77  80
ATOM     80  C   UNL A   1      33.492  22.712  25.659  1.00  0.00     0.094 C 
ATOM     81  C   UNL A   1      33.945  21.956  24.385  1.00  0.00     0.002 C 
ATOM     82  C   UNL A   1      32.017  22.284  25.818  1.00  0.00     0.094 C 
ATOM     83  C   UNL A   1      33.882  20.430  24.569  1.00  0.00     0.005 C 
ATOM     84  C   UNL A   1      32.738  22.180  23.487  1.00  0.00     0.009 C 
ATOM     85  C   UNL A   1      31.750  21.554  24.482  1.00  0.00     0.002 C 
ATOM     86  C   UNL A   1      32.370  20.143  24.604  1.00  0.00     0.005 C 
BRANCH  82  87
ATOM     87  C   UNL A   1      31.168  23.485  26.258  1.00  0.00     0.227 C 
ATOM     88  O   UNL A   1      30.624  23.465  27.367  1.00  0.00    -0.275 OA
ATOM     89  N   UNL A   1      31.232  24.663  25.539  1.00  0.00    -0.331 N 
ATOM     90  C   UNL A   1      31.204  25.922  26.286  1.00  0.00     0.181 C 
ATOM     91  C   UNL A   1      30.780  24.789  24.159  1.00  0.00     0.181 C 
ATOM     92  C   UNL A   1      31.887  27.079  25.515  1.00  0.00     0.284 C 
ATOM     93  C   UNL A   1      31.569  25.889  23.434  1.00  0.00     0.284 C 
ATOM     94  N   UNL A   1      31.529  27.210  24.086  1.00  0.00    -0.330 N 
ATOM     95  H   UNL A   1      32.250  27.759  23.617  1.00  0.00     0.348 HD
BRANCH  94  96
ATOM     96  C   UNL A   1      30.375  28.091  23.803  1.00  0.00     0.184 C 
ATOM     97  C   UNL A   1      30.696  29.142  22.716  1.00  0.00     0.065 C 
ATOM     98  C   UNL A   1      29.028  27.388  23.532  1.00  0.00     0.065 C 
ATOM     99  C   UNL A   1      29.531  30.085  22.435  1.00  0.00     0.006 C 
ATOM    100  C   UNL A   1      27.896  28.353  23.184  1.00  0.00     0.006 C 
ATOM    101  C   UNL A   1      28.287  29.294  22.054  1.00  0.00     0.000 C 
ENDBRANCH  94  96
ENDBRANCH  82  87
ENDBRANCH  77  80
ENDBRANCH  75  76
ENDBRANCH  74  75
ENDBRANCH  73  74
ENDBRANCH   1  73
TORSDOF 15
ENDMDL
MODEL 3
REMARK VINA RESULT:     -13.0      0.566      7.146
REMARK SMILES O=C(NCCCCCCNC(=O)[C@H]1[C@H]2CC[C@H](C2)[C@@H]1C(=O)N1CC[NH+](C2CCCCC2)CC1)c1ccc(-c2c3nc(c(-c4c(F)c(F)c(F)c(F)c4F)c4ccc([nH]4)c(-c4c(F)c(F)c(F)c(F)c4F)c4nc(c(-c5c(F)c(F)c(F)c(F)c5F)c5ccc2[nH]5)C=C4)C=C3)cc1
REMARK SMILES IDX 6 1 5 2 4 3 3 4 1 5 2 6 34 8 35 9 96 10 36 11 95 12 37 13
REMARK SMILES IDX 38 14 39 15 89 16 40 17 94 18 88 19 90 20 41 21 93 22 87 23
REMARK SMILES IDX 86 24 42 26 74 27 54 28 73 29 55 30 58 31 72 32 91 33 56 34
REMARK SMILES IDX 57 35 71 37 92 38 59 39 43 40 44 41 52 42 45 43 46 44 50 45
REMARK SMILES IDX 53 46 47 47 48 48 51 49 49 50 75 51 76 52 84 53 77 54 78 55
REMARK SMILES IDX 82 56 85 57 79 58 80 59 83 60 81 61 60 62 61 63 69 64 62 65
REMARK SMILES IDX 63 66 67 67 70 68 64 69 65 70 68 71 66 72 7 73 8 74 9 75
REMARK SMILES IDX 10 76 11 77 12 79 13 80 14 81 19 82 15 83 18 84 17 85 16 86
REMARK SMILES IDX 20 87 21 88 22 89 23 90 33 91 24 92 32 93 25 94 26 96 27 97
REMARK SMILES IDX 31 98 28 99 30 100 29 101
REMARK H PARENT 3 7 90 25 58 36 10 78 25 95
REMARK Flexibility Score: inf
ROOT
ATOM      1  C   UNL A   1      31.708  30.895  26.716  1.00  0.00     0.002 C 
ENDROOT
BRANCH   1   2
ATOM      2  C   UNL A   1      31.476  32.396  26.885  1.00  0.00     0.021 C 
BRANCH   2   3
ATOM      3  C   UNL A   1      32.742  33.209  27.102  1.00  0.00     0.116 C 
BRANCH   3   4
ATOM      4  N   UNL A   1      32.482  34.484  27.749  1.00  0.00    -0.352 N 
ATOM      5  O   UNL A   1      32.609  36.020  29.401  1.00  0.00    -0.269 OA
ATOM      6  C   UNL A   1      33.045  34.997  28.893  1.00  0.00     0.251 C 
ATOM      7  H   UNL A   1      31.813  35.056  27.309  1.00  0.00     0.163 HD
BRANCH   6   8
ATOM      8  C   UNL A   1      34.179  34.284  29.522  1.00  0.00     0.039 A 
ATOM      9  C   UNL A   1      33.951  33.347  30.532  1.00  0.00     0.014 A 
ATOM     10  C   UNL A   1      35.483  34.559  29.099  1.00  0.00     0.014 A 
ATOM     11  C   UNL A   1      35.026  32.790  31.211  1.00  0.00     0.010 A 
ATOM     12  C   UNL A   1      36.563  33.926  29.723  1.00  0.00     0.010 A 
ATOM     13  C   UNL A   1      36.344  33.055  30.799  1.00  0.00    -0.014 A 
BRANCH  13  14
ATOM     14  C   UNL A   1      37.453  32.329  31.467  1.00  0.00     0.031 A 
ATOM     15  C   UNL A   1      38.208  31.233  30.773  1.00  0.00     0.074 A 
ATOM     16  C   UNL A   1      37.810  32.724  32.705  1.00  0.00     0.049 A 
ATOM     17  N   UNL A   1      39.245  30.553  31.199  1.00  0.00    -0.248 NA
ATOM     18  C   UNL A   1      37.742  30.837  29.437  1.00  0.00     0.031 C 
ATOM     19  C   UNL A   1      37.127  33.761  33.483  1.00  0.00     0.029 A 
ATOM     20  N   UNL A   1      38.844  32.330  33.514  1.00  0.00    -0.354 N 
ATOM     21  C   UNL A   1      39.551  29.649  30.190  1.00  0.00     0.074 A 
ATOM     22  C   UNL A   1      38.572  29.843  29.142  1.00  0.00     0.031 C 
ATOM     23  C   UNL A   1      37.795  33.965  34.627  1.00  0.00     0.029 A 
ATOM     24  C   UNL A   1      38.913  33.032  34.692  1.00  0.00     0.049 A 
ATOM     25  H   UNL A   1      39.475  31.614  33.273  1.00  0.00     0.167 HD
ATOM     26  C   UNL A   1      40.561  28.748  30.146  1.00  0.00     0.037 A 
ATOM     27  C   UNL A   1      39.776  32.931  35.718  1.00  0.00     0.037 A 
ATOM     28  C   UNL A   1      41.536  28.566  31.193  1.00  0.00     0.049 A 
ATOM     29  C   UNL A   1      40.886  31.925  35.634  1.00  0.00     0.074 A 
ATOM     30  C   UNL A   1      42.604  27.685  31.236  1.00  0.00     0.029 A 
ATOM     31  N   UNL A   1      41.562  29.279  32.382  1.00  0.00    -0.354 N 
ATOM     32  N   UNL A   1      41.176  31.094  34.664  1.00  0.00    -0.248 NA
ATOM     33  C   UNL A   1      41.789  31.843  36.789  1.00  0.00     0.031 C 
ATOM     34  C   UNL A   1      43.254  27.840  32.465  1.00  0.00     0.029 A 
ATOM     35  C   UNL A   1      42.619  28.849  33.170  1.00  0.00     0.049 A 
ATOM     36  H   UNL A   1      40.923  29.987  32.631  1.00  0.00     0.167 HD
ATOM     37  C   UNL A   1      42.291  30.389  35.088  1.00  0.00     0.074 A 
ATOM     38  C   UNL A   1      42.651  30.921  36.387  1.00  0.00     0.031 C 
ATOM     39  C   UNL A   1      42.952  29.383  34.465  1.00  0.00     0.037 A 
BRANCH  26  40
ATOM     40  C   UNL A   1      40.673  27.879  28.927  1.00  0.00     0.064 A 
ATOM     41  C   UNL A   1      39.899  26.717  28.781  1.00  0.00     0.173 A 
ATOM     42  C   UNL A   1      41.506  28.249  27.861  1.00  0.00     0.173 A 
ATOM     43  F   UNL A   1      39.095  26.314  29.776  1.00  0.00    -0.203 F 
ATOM     44  C   UNL A   1      39.964  25.955  27.618  1.00  0.00     0.198 A 
ATOM     45  C   UNL A   1      41.551  27.498  26.689  1.00  0.00     0.198 A 
ATOM     46  F   UNL A   1      42.263  29.354  27.947  1.00  0.00    -0.203 F 
ATOM     47  F   UNL A   1      39.235  24.834  27.511  1.00  0.00    -0.200 F 
ATOM     48  C   UNL A   1      40.782  26.350  26.569  1.00  0.00     0.200 A 
ATOM     49  F   UNL A   1      42.333  27.887  25.673  1.00  0.00    -0.200 F 
ATOM     50  F   UNL A   1      40.830  25.623  25.445  1.00  0.00    -0.200 F 
ENDBRANCH  26  40
BRANCH  27  51
ATOM     51  C   UNL A   1      39.613  33.803  36.910  1.00  0.00     0.064 A 
ATOM     52  C   UNL A   1      40.185  35.081  36.958  1.00  0.00     0.173 A 
ATOM     53  C   UNL A   1      38.874  33.375  38.023  1.00  0.00     0.173 A 
ATOM     54  F   UNL A   1      40.915  35.527  35.925  1.00  0.00    -0.203 F 
ATOM     55  C   UNL A   1      40.041  35.889  38.083  1.00  0.00     0.198 A 
ATOM     56  C   UNL A   1      38.703  34.197  39.133  1.00  0.00     0.198 A 
ATOM     57  F   UNL A   1      38.299  32.163  38.022  1.00  0.00    -0.203 F 
ATOM     58  F   UNL A   1      40.638  37.089  38.124  1.00  0.00    -0.200 F 
ATOM     59  C   UNL A   1      39.295  35.450  39.166  1.00  0.00     0.200 A 
ATOM     60  F   UNL A   1      37.965  33.775  40.169  1.00  0.00    -0.200 F 
ATOM     61  F   UNL A   1      39.152  36.231  40.246  1.00  0.00    -0.200 F 
ENDBRANCH  27  51
BRANCH  39  62
ATOM     62  C   UNL A   1      44.129  28.803  35.190  1.00  0.00     0.064 A 
ATOM     63  C   UNL A   1      45.424  29.310  35.003  1.00  0.00     0.173 A 
ATOM     64  C   UNL A   1      43.963  27.732  36.080  1.00  0.00     0.173 A 
ATOM     65  F   UNL A   1      45.635  30.323  34.148  1.00  0.00    -0.203 F 
ATOM     66  C   UNL A   1      46.515  28.741  35.652  1.00  0.00     0.198 A 
ATOM     67  C   UNL A   1      45.053  27.184  36.749  1.00  0.00     0.198 A 
ATOM     68  F   UNL A   1      42.745  27.215  36.297  1.00  0.00    -0.203 F 
ATOM     69  F   UNL A   1      47.750  29.202  35.411  1.00  0.00    -0.200 F 
ATOM     70  C   UNL A   1      46.329  27.681  36.527  1.00  0.00     0.200 A 
ATOM     71  F   UNL A   1      44.872  26.166  37.602  1.00  0.00    -0.200 F 
ATOM     72  F   UNL A   1      47.381  27.130  37.147  1.00  0.00    -0.200 F 
ENDBRANCH  39  62
ENDBRANCH  13  14
ENDBRANCH   6   8
ENDBRANCH   3   4
ENDBRANCH   2   3
ENDBRANCH   1   2
BRANCH   1  73
ATOM     73  C   UNL A   1      33.157  30.436  26.912  1.00  0.00     0.002 C 
BRANCH  73  74
ATOM     74  C   UNL A   1      33.326  28.966  27.316  1.00  0.00     0.021 C 
BRANCH  74  75
ATOM     75  C   UNL A   1      34.061  28.118  26.278  1.00  0.00     0.116 C 
BRANCH  75  76
ATOM     76  N   UNL A   1      34.111  28.797  24.998  1.00  0.00    -0.356 N 
ATOM     77  C   UNL A   1      33.533  28.448  23.813  1.00  0.00     0.224 C 
ATOM     78  H   UNL A   1      34.638  29.629  24.982  1.00  0.00     0.163 HD
ATOM     79  O   UNL A   1      33.800  29.104  22.810  1.00  0.00    -0.275 OA
BRANCH  77  80
ATOM     80  C   UNL A   1      32.531  27.314  23.825  1.00  0.00     0.094 C 
ATOM     81  C   UNL A   1      31.245  27.703  24.597  1.00  0.00     0.002 C 
ATOM     82  C   UNL A   1      31.998  26.897  22.438  1.00  0.00     0.094 C 
ATOM     83  C   UNL A   1      30.528  28.903  23.952  1.00  0.00     0.005 C 
ATOM     84  C   UNL A   1      30.320  26.568  24.182  1.00  0.00     0.009 C 
ATOM     85  C   UNL A   1      30.473  26.853  22.680  1.00  0.00     0.002 C 
ATOM     86  C   UNL A   1      29.965  28.314  22.645  1.00  0.00     0.005 C 
BRANCH  82  87
ATOM     87  C   UNL A   1      32.764  25.666  21.933  1.00  0.00     0.227 C 
ATOM     88  O   UNL A   1      33.342  25.722  20.843  1.00  0.00    -0.275 OA
ATOM     89  N   UNL A   1      33.015  24.618  22.798  1.00  0.00    -0.331 N 
ATOM     90  C   UNL A   1      34.315  23.951  22.703  1.00  0.00     0.181 C 
ATOM     91  C   UNL A   1      31.970  23.788  23.380  1.00  0.00     0.181 C 
ATOM     92  C   UNL A   1      34.730  23.280  24.036  1.00  0.00     0.284 C 
ATOM     93  C   UNL A   1      32.418  23.237  24.742  1.00  0.00     0.284 C 
ATOM     94  N   UNL A   1      33.685  22.485  24.718  1.00  0.00    -0.330 N 
ATOM     95  H   UNL A   1      33.946  22.374  25.698  1.00  0.00     0.348 HD
BRANCH  94  96
ATOM     96  C   UNL A   1      33.639  21.054  24.348  1.00  0.00     0.184 C 
ATOM     97  C   UNL A   1      34.803  20.252  24.974  1.00  0.00     0.065 C 
ATOM     98  C   UNL A   1      32.285  20.340  24.549  1.00  0.00     0.065 C 
ATOM     99  C   UNL A   1      34.794  18.779  24.576  1.00  0.00     0.006 C 
ATOM    100  C   UNL A   1      32.326  18.851  24.210  1.00  0.00     0.006 C 
ATOM    101  C   UNL A   1      33.460  18.139  24.932  1.00  0.00     0.000 C 
ENDBRANCH  94  96
ENDBRANCH  82  87
ENDBRANCH  77  80
ENDBRANCH  75  76
ENDBRANCH  74  75
ENDBRANCH  73  74
ENDBRANCH   1  73
TORSDOF 15
ENDMDL
