MODEL 1
REMARK VINA RESULT:     -12.4      0.000      0.000
REMARK SMILES Cc1cc(C)c(C(=O)NC[C@H]2CC[C@@H](C(=O)NCCCCCCNC(=O)c3ccc(-c4c5nc(c(-c6c(F)c(F)c(F)c(F)c6F)c6ccc([nH]6)c(-c6c(F)c(F)c(F)c(F)c6F)c6nc(c(-c7c(F)c(F)c(F)c(F)c7F)c7ccc4[nH]7)C=C6)C=C5)cc3)O2)c(C)c1
REMARK SMILES IDX 20 1 19 2 18 3 17 4 15 5 16 6 14 8 11 9 12 10 90 11 13 12
REMARK SMILES IDX 10 13 9 14 7 15 8 16 6 18 1 19 2 20 3 21 93 22 4 23 91 24
REMARK SMILES IDX 5 25 92 26 21 27 22 28 23 29 24 30 25 31 26 33 27 34 28 35
REMARK SMILES IDX 89 36 29 37 88 38 30 39 31 40 32 41 82 42 33 43 87 44 81 45
REMARK SMILES IDX 83 46 34 47 86 48 80 49 79 50 35 52 67 53 47 54 66 55 48 56
REMARK SMILES IDX 51 57 65 58 84 59 49 60 50 61 64 63 85 64 52 65 36 66 37 67
REMARK SMILES IDX 45 68 38 69 39 70 43 71 46 72 40 73 41 74 44 75 42 76 68 77
REMARK SMILES IDX 69 78 77 79 70 80 71 81 75 82 78 83 72 84 73 85 76 86 74 87
REMARK SMILES IDX 53 88 54 89 62 90 55 91 56 92 60 93 63 94 57 95 58 96 61 97
REMARK SMILES IDX 59 98
REMARK H PARENT 17 7 9 17 24 32 83 51 51 62
REMARK Flexibility Score: inf
ROOT
ATOM      1  C   UNL A   1      31.887  29.720  27.175  1.00  0.00     0.002 C 
ENDROOT
BRANCH   1   2
ATOM      2  C   UNL A   1      33.331  29.208  27.234  1.00  0.00     0.021 C 
BRANCH   2   3
ATOM      3  C   UNL A   1      33.901  28.747  25.895  1.00  0.00     0.116 C 
BRANCH   3   4
ATOM      4  N   UNL A   1      34.022  27.302  25.835  1.00  0.00    -0.354 N 
ATOM      5  C   UNL A   1      33.176  26.398  25.255  1.00  0.00     0.249 C 
ATOM      6  O   UNL A   1      33.457  25.202  25.334  1.00  0.00    -0.272 OA
ATOM      7  H   UNL A   1      34.819  26.921  26.271  1.00  0.00     0.163 HD
BRANCH   5   8
ATOM      8  C   UNL A   1      31.904  26.914  24.564  1.00  0.00     0.207 C 
ATOM      9  C   UNL A   1      30.458  25.607  23.263  1.00  0.00     0.138 C 
ATOM     10  C   UNL A   1      29.619  26.328  24.302  1.00  0.00     0.037 C 
ATOM     11  O   UNL A   1      31.732  26.264  23.290  1.00  0.00    -0.363 OA
ATOM     12  C   UNL A   1      30.635  26.658  25.367  1.00  0.00     0.045 C 
BRANCH   9  13
ATOM     13  C   UNL A   1      30.650  24.096  23.529  1.00  0.00     0.148 C 
BRANCH  13  14
ATOM     14  N   UNL A   1      31.861  23.604  22.903  1.00  0.00    -0.349 N 
ATOM     15  C   UNL A   1      32.807  22.651  23.164  1.00  0.00     0.251 C 
ATOM     16  O   UNL A   1      33.921  23.004  22.754  1.00  0.00    -0.269 OA
ATOM     17  H   UNL A   1      32.054  24.084  22.065  1.00  0.00     0.163 HD
BRANCH  15  18
ATOM     18  C   UNL A   1      32.680  21.275  23.803  1.00  0.00     0.045 A 
ATOM     19  C   UNL A   1      32.721  17.059  25.001  1.00  0.00     0.044 C 
ATOM     20  C   UNL A   1      32.656  18.501  24.604  1.00  0.00    -0.051 A 
ATOM     21  C   UNL A   1      32.295  18.866  23.319  1.00  0.00     0.007 A 
ATOM     22  C   UNL A   1      32.978  19.513  25.496  1.00  0.00     0.007 A 
ATOM     23  C   UNL A   1      32.261  20.221  22.916  1.00  0.00    -0.038 A 
ATOM     24  C   UNL A   1      33.011  20.886  25.127  1.00  0.00    -0.038 A 
ATOM     25  C   UNL A   1      31.802  20.415  21.485  1.00  0.00     0.045 C 
ATOM     26  C   UNL A   1      33.416  21.772  26.262  1.00  0.00     0.045 C 
ENDBRANCH  15  18
ENDBRANCH  13  14
ENDBRANCH   9  13
ENDBRANCH   5   8
ENDBRANCH   3   4
ENDBRANCH   2   3
ENDBRANCH   1   2
BRANCH   1  27
ATOM     27  C   UNL A   1      31.602  30.750  26.078  1.00  0.00     0.002 C 
BRANCH  27  28
ATOM     28  C   UNL A   1      31.388  32.182  26.571  1.00  0.00     0.021 C 
BRANCH  28  29
ATOM     29  C   UNL A   1      32.611  32.828  27.214  1.00  0.00     0.116 C 
BRANCH  29  30
ATOM     30  N   UNL A   1      32.374  34.210  27.596  1.00  0.00    -0.352 N 
ATOM     31  C   UNL A   1      32.966  34.954  28.587  1.00  0.00     0.251 C 
ATOM     32  H   UNL A   1      31.688  34.681  27.069  1.00  0.00     0.163 HD
ATOM     33  O   UNL A   1      32.522  36.056  28.882  1.00  0.00    -0.269 OA
BRANCH  31  34
ATOM     34  C   UNL A   1      34.134  34.412  29.315  1.00  0.00     0.039 A 
ATOM     35  C   UNL A   1      33.927  33.763  30.535  1.00  0.00     0.014 A 
ATOM     36  C   UNL A   1      35.428  34.547  28.803  1.00  0.00     0.014 A 
ATOM     37  C   UNL A   1      35.011  33.203  31.214  1.00  0.00     0.010 A 
ATOM     38  C   UNL A   1      36.494  33.918  29.439  1.00  0.00     0.010 A 
ATOM     39  C   UNL A   1      36.299  33.247  30.656  1.00  0.00    -0.014 A 
BRANCH  39  40
ATOM     40  C   UNL A   1      37.455  32.611  31.338  1.00  0.00     0.031 A 
ATOM     41  C   UNL A   1      38.183  31.470  30.682  1.00  0.00     0.074 A 
ATOM     42  C   UNL A   1      37.816  33.022  32.570  1.00  0.00     0.049 A 
ATOM     43  N   UNL A   1      39.172  30.743  31.141  1.00  0.00    -0.248 NA
ATOM     44  C   UNL A   1      37.721  31.074  29.343  1.00  0.00     0.031 C 
ATOM     45  C   UNL A   1      37.164  34.089  33.329  1.00  0.00     0.029 A 
ATOM     46  N   UNL A   1      38.814  32.584  33.404  1.00  0.00    -0.354 N 
ATOM     47  C   UNL A   1      39.437  29.801  30.155  1.00  0.00     0.074 A 
ATOM     48  C   UNL A   1      38.470  30.008  29.101  1.00  0.00     0.031 C 
ATOM     49  C   UNL A   1      37.792  34.239  34.506  1.00  0.00     0.029 A 
ATOM     50  C   UNL A   1      38.863  33.252  34.604  1.00  0.00     0.049 A 
ATOM     51  H   UNL A   1      39.435  31.858  33.166  1.00  0.00     0.167 HD
ATOM     52  C   UNL A   1      40.416  28.866  30.121  1.00  0.00     0.037 A 
ATOM     53  C   UNL A   1      39.674  33.080  35.665  1.00  0.00     0.037 A 
ATOM     54  C   UNL A   1      41.391  28.677  31.164  1.00  0.00     0.049 A 
ATOM     55  C   UNL A   1      40.741  32.020  35.610  1.00  0.00     0.074 A 
ATOM     56  C   UNL A   1      42.456  27.794  31.201  1.00  0.00     0.029 A 
ATOM     57  N   UNL A   1      41.414  29.381  32.360  1.00  0.00    -0.354 N 
ATOM     58  N   UNL A   1      41.027  31.182  34.643  1.00  0.00    -0.248 NA
ATOM     59  C   UNL A   1      41.603  31.886  36.793  1.00  0.00     0.031 C 
ATOM     60  C   UNL A   1      43.088  27.921  32.441  1.00  0.00     0.029 A 
ATOM     61  C   UNL A   1      42.459  28.931  33.152  1.00  0.00     0.049 A 
ATOM     62  H   UNL A   1      40.782  30.093  32.609  1.00  0.00     0.167 HD
ATOM     63  C   UNL A   1      42.120  30.447  35.085  1.00  0.00     0.074 A 
ATOM     64  C   UNL A   1      42.455  30.950  36.401  1.00  0.00     0.031 C 
ATOM     65  C   UNL A   1      42.787  29.448  34.456  1.00  0.00     0.037 A 
BRANCH  52  66
ATOM     66  C   UNL A   1      40.483  27.972  28.915  1.00  0.00     0.064 A 
ATOM     67  C   UNL A   1      41.273  28.293  27.801  1.00  0.00     0.173 A 
ATOM     68  C   UNL A   1      39.774  26.761  28.887  1.00  0.00     0.173 A 
ATOM     69  F   UNL A   1      41.963  29.443  27.770  1.00  0.00    -0.203 F 
ATOM     70  C   UNL A   1      41.325  27.452  26.692  1.00  0.00     0.198 A 
ATOM     71  C   UNL A   1      39.856  25.905  27.790  1.00  0.00     0.198 A 
ATOM     72  F   UNL A   1      39.007  26.400  29.927  1.00  0.00    -0.203 F 
ATOM     73  F   UNL A   1      42.043  27.808  25.617  1.00  0.00    -0.200 F 
ATOM     74  C   UNL A   1      40.623  26.256  26.690  1.00  0.00     0.200 A 
ATOM     75  F   UNL A   1      39.190  24.743  27.799  1.00  0.00    -0.200 F 
ATOM     76  F   UNL A   1      40.681  25.444  25.625  1.00  0.00    -0.200 F 
ENDBRANCH  52  66
BRANCH  53  77
ATOM     77  C   UNL A   1      39.522  33.945  36.866  1.00  0.00     0.064 A 
ATOM     78  C   UNL A   1      40.143  35.201  36.934  1.00  0.00     0.173 A 
ATOM     79  C   UNL A   1      38.767  33.533  37.974  1.00  0.00     0.173 A 
ATOM     80  F   UNL A   1      40.892  35.632  35.908  1.00  0.00    -0.203 F 
ATOM     81  C   UNL A   1      40.039  35.997  38.072  1.00  0.00     0.198 A 
ATOM     82  C   UNL A   1      38.636  34.344  39.098  1.00  0.00     0.198 A 
ATOM     83  F   UNL A   1      38.147  32.344  37.960  1.00  0.00    -0.203 F 
ATOM     84  F   UNL A   1      40.687  37.168  38.130  1.00  0.00    -0.200 F 
ATOM     85  C   UNL A   1      39.280  35.571  39.152  1.00  0.00     0.200 A 
ATOM     86  F   UNL A   1      37.888  33.935  40.133  1.00  0.00    -0.200 F 
ATOM     87  F   UNL A   1      39.177  36.338  40.245  1.00  0.00    -0.200 F 
ENDBRANCH  53  77
BRANCH  65  88
ATOM     88  C   UNL A   1      43.977  28.860  35.162  1.00  0.00     0.064 A 
ATOM     89  C   UNL A   1      45.270  29.380  34.995  1.00  0.00     0.173 A 
ATOM     90  C   UNL A   1      43.813  27.787  36.051  1.00  0.00     0.173 A 
ATOM     91  F   UNL A   1      45.484  30.397  34.146  1.00  0.00    -0.203 F 
ATOM     92  C   UNL A   1      46.356  28.827  35.668  1.00  0.00     0.198 A 
ATOM     93  C   UNL A   1      44.894  27.260  36.750  1.00  0.00     0.198 A 
ATOM     94  F   UNL A   1      42.597  27.257  36.254  1.00  0.00    -0.203 F 
ATOM     95  F   UNL A   1      47.589  29.305  35.452  1.00  0.00    -0.200 F 
ATOM     96  C   UNL A   1      46.167  27.774  36.551  1.00  0.00     0.200 A 
ATOM     97  F   UNL A   1      44.707  26.254  37.615  1.00  0.00    -0.200 F 
ATOM     98  F   UNL A   1      47.213  27.251  37.205  1.00  0.00    -0.200 F 
ENDBRANCH  65  88
ENDBRANCH  39  40
ENDBRANCH  31  34
ENDBRANCH  29  30
ENDBRANCH  28  29
ENDBRANCH  27  28
ENDBRANCH   1  27
TORSDOF 16
ENDMDL
MODEL 2
REMARK VINA RESULT:     -12.4      1.749      7.605
REMARK SMILES Cc1cc(C)c(C(=O)NC[C@H]2CC[C@@H](C(=O)NCCCCCCNC(=O)c3ccc(-c4c5nc(c(-c6c(F)c(F)c(F)c(F)c6F)c6ccc([nH]6)c(-c6c(F)c(F)c(F)c(F)c6F)c6nc(c(-c7c(F)c(F)c(F)c(F)c7F)c7ccc4[nH]7)C=C6)C=C5)cc3)O2)c(C)c1
REMARK SMILES IDX 20 1 19 2 18 3 17 4 15 5 16 6 14 8 11 9 12 10 90 11 13 12
REMARK SMILES IDX 10 13 9 14 7 15 8 16 6 18 1 19 2 20 3 21 93 22 4 23 91 24
REMARK SMILES IDX 5 25 92 26 21 27 22 28 23 29 24 30 25 31 26 33 27 34 28 35
REMARK SMILES IDX 89 36 29 37 88 38 30 39 31 40 32 41 82 42 33 43 87 44 81 45
REMARK SMILES IDX 83 46 34 47 86 48 80 49 79 50 35 52 67 53 47 54 66 55 48 56
REMARK SMILES IDX 51 57 65 58 84 59 49 60 50 61 64 63 85 64 52 65 36 66 37 67
REMARK SMILES IDX 45 68 38 69 39 70 43 71 46 72 40 73 41 74 44 75 42 76 68 77
REMARK SMILES IDX 69 78 77 79 70 80 71 81 75 82 78 83 72 84 73 85 76 86 74 87
REMARK SMILES IDX 53 88 54 89 62 90 55 91 56 92 60 93 63 94 57 95 58 96 61 97
REMARK SMILES IDX 59 98
REMARK H PARENT 17 7 9 17 24 32 83 51 51 62
REMARK Flexibility Score: inf
ROOT
ATOM      1  C   UNL A   1      34.631  32.370  29.487  1.00  0.00     0.002 C 
ENDROOT
BRANCH   1   2
ATOM      2  C   UNL A   1      34.873  31.383  28.341  1.00  0.00     0.021 C 
BRANCH   2   3
ATOM      3  C   UNL A   1      33.675  31.167  27.419  1.00  0.00     0.116 C 
BRANCH   3   4
ATOM      4  N   UNL A   1      33.050  29.877  27.648  1.00  0.00    -0.354 N 
ATOM      5  C   UNL A   1      32.381  29.083  26.759  1.00  0.00     0.249 C 
ATOM      6  O   UNL A   1      31.906  28.023  27.167  1.00  0.00    -0.272 OA
ATOM      7  H   UNL A   1      33.115  29.528  28.567  1.00  0.00     0.163 HD
BRANCH   5   8
ATOM      8  C   UNL A   1      32.226  29.565  25.309  1.00  0.00     0.207 C 
ATOM      9  C   UNL A   1      33.162  28.512  23.436  1.00  0.00     0.138 C 
ATOM     10  C   UNL A   1      31.683  28.710  23.162  1.00  0.00     0.037 C 
ATOM     11  O   UNL A   1      33.445  29.334  24.576  1.00  0.00    -0.363 OA
ATOM     12  C   UNL A   1      31.112  28.853  24.551  1.00  0.00     0.045 C 
BRANCH   9  13
ATOM     13  C   UNL A   1      33.569  27.051  23.739  1.00  0.00     0.148 C 
BRANCH  13  14
ATOM     14  N   UNL A   1      33.127  26.155  22.689  1.00  0.00    -0.349 N 
ATOM     15  C   UNL A   1      33.266  24.830  22.378  1.00  0.00     0.251 C 
ATOM     16  O   UNL A   1      33.287  24.659  21.152  1.00  0.00    -0.269 OA
ATOM     17  H   UNL A   1      32.579  26.626  22.021  1.00  0.00     0.163 HD
BRANCH  15  18
ATOM     18  C   UNL A   1      33.343  23.603  23.276  1.00  0.00     0.045 A 
ATOM     19  C   UNL A   1      32.997  19.771  25.377  1.00  0.00     0.044 C 
ATOM     20  C   UNL A   1      33.114  21.105  24.706  1.00  0.00    -0.051 A 
ATOM     21  C   UNL A   1      31.984  21.831  24.372  1.00  0.00     0.007 A 
ATOM     22  C   UNL A   1      34.349  21.642  24.375  1.00  0.00     0.007 A 
ATOM     23  C   UNL A   1      32.075  23.076  23.707  1.00  0.00    -0.038 A 
ATOM     24  C   UNL A   1      34.492  22.863  23.660  1.00  0.00    -0.038 A 
ATOM     25  C   UNL A   1      30.730  23.732  23.466  1.00  0.00     0.045 C 
ATOM     26  C   UNL A   1      35.924  23.208  23.402  1.00  0.00     0.045 C 
ENDBRANCH  15  18
ENDBRANCH  13  14
ENDBRANCH   9  13
ENDBRANCH   5   8
ENDBRANCH   3   4
ENDBRANCH   2   3
ENDBRANCH   1   2
BRANCH   1  27
ATOM     27  C   UNL A   1      34.695  33.851  29.102  1.00  0.00     0.002 C 
BRANCH  27  28
ATOM     28  C   UNL A   1      33.351  34.580  29.090  1.00  0.00     0.021 C 
BRANCH  28  29
ATOM     29  C   UNL A   1      33.389  36.002  29.639  1.00  0.00     0.116 C 
BRANCH  29  30
ATOM     30  N   UNL A   1      32.484  36.190  30.760  1.00  0.00    -0.352 N 
ATOM     31  C   UNL A   1      32.568  35.700  32.040  1.00  0.00     0.251 C 
ATOM     32  H   UNL A   1      31.695  36.750  30.575  1.00  0.00     0.163 HD
ATOM     33  O   UNL A   1      31.625  35.818  32.812  1.00  0.00    -0.269 OA
BRANCH  31  34
ATOM     34  C   UNL A   1      33.798  35.006  32.483  1.00  0.00     0.039 A 
ATOM     35  C   UNL A   1      33.701  33.692  32.948  1.00  0.00     0.014 A 
ATOM     36  C   UNL A   1      35.039  35.647  32.446  1.00  0.00     0.014 A 
ATOM     37  C   UNL A   1      34.855  33.003  33.324  1.00  0.00     0.010 A 
ATOM     38  C   UNL A   1      36.197  34.934  32.744  1.00  0.00     0.010 A 
ATOM     39  C   UNL A   1      36.117  33.607  33.195  1.00  0.00    -0.014 A 
BRANCH  39  40
ATOM     40  C   UNL A   1      37.361  32.873  33.541  1.00  0.00     0.031 A 
ATOM     41  C   UNL A   1      38.082  33.175  34.826  1.00  0.00     0.074 A 
ATOM     42  C   UNL A   1      37.873  31.976  32.675  1.00  0.00     0.049 A 
ATOM     43  N   UNL A   1      39.212  32.691  35.277  1.00  0.00    -0.248 NA
ATOM     44  C   UNL A   1      37.464  34.175  35.711  1.00  0.00     0.031 C 
ATOM     45  C   UNL A   1      37.292  31.625  31.379  1.00  0.00     0.029 A 
ATOM     46  N   UNL A   1      39.004  31.202  32.752  1.00  0.00    -0.354 N 
ATOM     47  C   UNL A   1      39.444  33.336  36.485  1.00  0.00     0.074 A 
ATOM     48  C   UNL A   1      38.372  34.288  36.669  1.00  0.00     0.031 C 
ATOM     49  C   UNL A   1      38.056  30.690  30.793  1.00  0.00     0.029 A 
ATOM     50  C   UNL A   1      39.203  30.406  31.649  1.00  0.00     0.049 A 
ATOM     51  H   UNL A   1      39.616  31.217  33.522  1.00  0.00     0.167 HD
ATOM     52  C   UNL A   1      40.447  33.133  37.373  1.00  0.00     0.037 A 
ATOM     53  C   UNL A   1      40.202  29.551  31.360  1.00  0.00     0.037 A 
ATOM     54  C   UNL A   1      41.502  32.170  37.195  1.00  0.00     0.049 A 
ATOM     55  C   UNL A   1      41.316  29.359  32.354  1.00  0.00     0.074 A 
ATOM     56  C   UNL A   1      42.534  31.850  38.060  1.00  0.00     0.029 A 
ATOM     57  N   UNL A   1      41.664  31.374  36.069  1.00  0.00    -0.354 N 
ATOM     58  N   UNL A   1      41.487  29.923  33.526  1.00  0.00    -0.248 NA
ATOM     59  C   UNL A   1      42.372  28.405  31.990  1.00  0.00     0.031 C 
ATOM     60  C   UNL A   1      43.352  30.905  37.435  1.00  0.00     0.029 A 
ATOM     61  C   UNL A   1      42.794  30.584  36.208  1.00  0.00     0.049 A 
ATOM     62  H   UNL A   1      41.064  31.372  35.288  1.00  0.00     0.167 HD
ATOM     63  C   UNL A   1      42.648  29.369  34.051  1.00  0.00     0.074 A 
ATOM     64  C   UNL A   1      43.130  28.413  33.077  1.00  0.00     0.031 C 
ATOM     65  C   UNL A   1      43.257  29.628  35.234  1.00  0.00     0.037 A 
BRANCH  52  66
ATOM     66  C   UNL A   1      40.453  33.973  38.619  1.00  0.00     0.064 A 
ATOM     67  C   UNL A   1      39.770  33.575  39.780  1.00  0.00     0.173 A 
ATOM     68  C   UNL A   1      41.178  35.172  38.667  1.00  0.00     0.173 A 
ATOM     69  F   UNL A   1      39.052  32.442  39.787  1.00  0.00    -0.203 F 
ATOM     70  C   UNL A   1      39.787  34.363  40.928  1.00  0.00     0.198 A 
ATOM     71  C   UNL A   1      41.222  35.941  39.828  1.00  0.00     0.198 A 
ATOM     72  F   UNL A   1      41.855  35.598  37.589  1.00  0.00    -0.203 F 
ATOM     73  F   UNL A   1      39.080  33.990  42.004  1.00  0.00    -0.200 F 
ATOM     74  C   UNL A   1      40.518  35.541  40.954  1.00  0.00     0.200 A 
ATOM     75  F   UNL A   1      41.943  37.070  39.855  1.00  0.00    -0.200 F 
ATOM     76  F   UNL A   1      40.540  36.295  42.062  1.00  0.00    -0.200 F 
ENDBRANCH  52  66
BRANCH  53  77
ATOM     77  C   UNL A   1      40.187  28.795  30.079  1.00  0.00     0.064 A 
ATOM     78  C   UNL A   1      40.812  29.307  28.932  1.00  0.00     0.173 A 
ATOM     79  C   UNL A   1      39.539  27.556  29.968  1.00  0.00     0.173 A 
ATOM     80  F   UNL A   1      41.428  30.497  28.981  1.00  0.00    -0.203 F 
ATOM     81  C   UNL A   1      40.765  28.623  27.719  1.00  0.00     0.198 A 
ATOM     82  C   UNL A   1      39.521  26.858  28.763  1.00  0.00     0.198 A 
ATOM     83  F   UNL A   1      38.931  27.018  31.035  1.00  0.00    -0.203 F 
ATOM     84  F   UNL A   1      41.324  29.161  26.627  1.00  0.00    -0.200 F 
ATOM     85  C   UNL A   1      40.125  27.395  27.636  1.00  0.00     0.200 A 
ATOM     86  F   UNL A   1      38.916  25.663  28.692  1.00  0.00    -0.200 F 
ATOM     87  F   UNL A   1      40.084  26.737  26.471  1.00  0.00    -0.200 F 
ENDBRANCH  53  77
BRANCH  65  88
ATOM     88  C   UNL A   1      44.489  28.834  35.565  1.00  0.00     0.064 A 
ATOM     89  C   UNL A   1      44.422  27.612  36.250  1.00  0.00     0.173 A 
ATOM     90  C   UNL A   1      45.753  29.285  35.153  1.00  0.00     0.173 A 
ATOM     91  F   UNL A   1      43.240  27.142  36.679  1.00  0.00    -0.203 F 
ATOM     92  C   UNL A   1      45.575  26.886  36.536  1.00  0.00     0.198 A 
ATOM     93  C   UNL A   1      46.900  28.541  35.408  1.00  0.00     0.198 A 
ATOM     94  F   UNL A   1      45.874  30.443  34.488  1.00  0.00    -0.203 F 
ATOM     95  F   UNL A   1      45.492  25.749  37.239  1.00  0.00    -0.200 F 
ATOM     96  C   UNL A   1      46.812  27.346  36.108  1.00  0.00     0.200 A 
ATOM     97  F   UNL A   1      48.092  28.978  34.979  1.00  0.00    -0.200 F 
ATOM     98  F   UNL A   1      47.920  26.641  36.376  1.00  0.00    -0.200 F 
ENDBRANCH  65  88
ENDBRANCH  39  40
ENDBRANCH  31  34
ENDBRANCH  29  30
ENDBRANCH  28  29
ENDBRANCH  27  28
ENDBRANCH   1  27
TORSDOF 16
ENDMDL
MODEL 3
REMARK VINA RESULT:     -12.3      2.151      7.706
REMARK SMILES Cc1cc(C)c(C(=O)NC[C@H]2CC[C@@H](C(=O)NCCCCCCNC(=O)c3ccc(-c4c5nc(c(-c6c(F)c(F)c(F)c(F)c6F)c6ccc([nH]6)c(-c6c(F)c(F)c(F)c(F)c6F)c6nc(c(-c7c(F)c(F)c(F)c(F)c7F)c7ccc4[nH]7)C=C6)C=C5)cc3)O2)c(C)c1
REMARK SMILES IDX 20 1 19 2 18 3 17 4 15 5 16 6 14 8 11 9 12 10 90 11 13 12
REMARK SMILES IDX 10 13 9 14 7 15 8 16 6 18 1 19 2 20 3 21 93 22 4 23 91 24
REMARK SMILES IDX 5 25 92 26 21 27 22 28 23 29 24 30 25 31 26 33 27 34 28 35
REMARK SMILES IDX 89 36 29 37 88 38 30 39 31 40 32 41 82 42 33 43 87 44 81 45
REMARK SMILES IDX 83 46 34 47 86 48 80 49 79 50 35 52 67 53 47 54 66 55 48 56
REMARK SMILES IDX 51 57 65 58 84 59 49 60 50 61 64 63 85 64 52 65 36 66 37 67
REMARK SMILES IDX 45 68 38 69 39 70 43 71 46 72 40 73 41 74 44 75 42 76 68 77
REMARK SMILES IDX 69 78 77 79 70 80 71 81 75 82 78 83 72 84 73 85 76 86 74 87
REMARK SMILES IDX 53 88 54 89 62 90 55 91 56 92 60 93 63 94 57 95 58 96 61 97
REMARK SMILES IDX 59 98
REMARK H PARENT 17 7 9 17 24 32 83 51 51 62
REMARK Flexibility Score: inf
ROOT
ATOM      1  C   UNL A   1      35.038  33.942  28.944  1.00  0.00     0.002 C 
ENDROOT
BRANCH   1   2
ATOM      2  C   UNL A   1      35.655  32.813  28.112  1.00  0.00     0.021 C 
BRANCH   2   3
ATOM      3  C   UNL A   1      34.995  31.449  28.297  1.00  0.00     0.116 C 
BRANCH   3   4
ATOM      4  N   UNL A   1      33.623  31.450  27.821  1.00  0.00    -0.354 N 
ATOM      5  C   UNL A   1      33.024  30.591  26.942  1.00  0.00     0.249 C 
ATOM      6  O   UNL A   1      31.842  30.782  26.654  1.00  0.00    -0.272 OA
ATOM      7  H   UNL A   1      33.048  32.165  28.178  1.00  0.00     0.163 HD
BRANCH   5   8
ATOM      8  C   UNL A   1      33.860  29.456  26.332  1.00  0.00     0.207 C 
ATOM      9  C   UNL A   1      33.232  27.198  26.289  1.00  0.00     0.138 C 
ATOM     10  C   UNL A   1      33.608  27.600  24.875  1.00  0.00     0.037 C 
ATOM     11  O   UNL A   1      33.722  28.258  27.121  1.00  0.00    -0.363 OA
ATOM     12  C   UNL A   1      33.449  29.099  24.909  1.00  0.00     0.045 C 
BRANCH   9  13
ATOM     13  C   UNL A   1      31.714  27.018  26.523  1.00  0.00     0.148 C 
BRANCH  13  14
ATOM     14  N   UNL A   1      31.406  25.665  26.943  1.00  0.00    -0.349 N 
ATOM     15  C   UNL A   1      31.632  24.397  26.482  1.00  0.00     0.251 C 
ATOM     16  O   UNL A   1      30.695  23.643  26.774  1.00  0.00    -0.269 OA
ATOM     17  H   UNL A   1      30.900  25.657  27.788  1.00  0.00     0.163 HD
BRANCH  15  18
ATOM     18  C   UNL A   1      32.828  23.806  25.748  1.00  0.00     0.045 A 
ATOM     19  C   UNL A   1      36.325  22.830  23.292  1.00  0.00     0.044 C 
ATOM     20  C   UNL A   1      35.108  23.118  24.116  1.00  0.00    -0.051 A 
ATOM     21  C   UNL A   1      34.008  23.744  23.559  1.00  0.00     0.007 A 
ATOM     22  C   UNL A   1      35.053  22.792  25.463  1.00  0.00     0.007 A 
ATOM     23  C   UNL A   1      32.864  24.056  24.331  1.00  0.00    -0.038 A 
ATOM     24  C   UNL A   1      33.950  23.130  26.294  1.00  0.00    -0.038 A 
ATOM     25  C   UNL A   1      31.752  24.703  23.530  1.00  0.00     0.045 C 
ATOM     26  C   UNL A   1      34.149  22.694  27.711  1.00  0.00     0.045 C 
ENDBRANCH  15  18
ENDBRANCH  13  14
ENDBRANCH   9  13
ENDBRANCH   5   8
ENDBRANCH   3   4
ENDBRANCH   2   3
ENDBRANCH   1   2
BRANCH   1  27
ATOM     27  C   UNL A   1      34.684  35.213  28.165  1.00  0.00     0.002 C 
BRANCH  27  28
ATOM     28  C   UNL A   1      33.604  36.088  28.804  1.00  0.00     0.021 C 
BRANCH  28  29
ATOM     29  C   UNL A   1      32.657  35.351  29.744  1.00  0.00     0.116 C 
BRANCH  29  30
ATOM     30  N   UNL A   1      32.320  36.134  30.921  1.00  0.00    -0.352 N 
ATOM     31  C   UNL A   1      32.843  36.070  32.189  1.00  0.00     0.251 C 
ATOM     32  H   UNL A   1      31.613  36.807  30.791  1.00  0.00     0.163 HD
ATOM     33  O   UNL A   1      32.320  36.691  33.106  1.00  0.00    -0.269 OA
BRANCH  31  34
ATOM     34  C   UNL A   1      34.032  35.231  32.454  1.00  0.00     0.039 A 
ATOM     35  C   UNL A   1      35.300  35.760  32.201  1.00  0.00     0.014 A 
ATOM     36  C   UNL A   1      33.899  33.928  32.941  1.00  0.00     0.014 A 
ATOM     37  C   UNL A   1      36.437  35.002  32.490  1.00  0.00     0.010 A 
ATOM     38  C   UNL A   1      35.032  33.205  33.304  1.00  0.00     0.010 A 
ATOM     39  C   UNL A   1      36.313  33.730  33.074  1.00  0.00    -0.014 A 
BRANCH  39  40
ATOM     40  C   UNL A   1      37.511  32.929  33.436  1.00  0.00     0.031 A 
ATOM     41  C   UNL A   1      38.245  33.209  34.718  1.00  0.00     0.074 A 
ATOM     42  C   UNL A   1      37.971  31.989  32.587  1.00  0.00     0.049 A 
ATOM     43  N   UNL A   1      39.345  32.666  35.180  1.00  0.00    -0.248 NA
ATOM     44  C   UNL A   1      37.686  34.258  35.585  1.00  0.00     0.031 C 
ATOM     45  C   UNL A   1      37.372  31.652  31.295  1.00  0.00     0.029 A 
ATOM     46  N   UNL A   1      39.053  31.151  32.679  1.00  0.00    -0.354 N 
ATOM     47  C   UNL A   1      39.612  33.316  36.379  1.00  0.00     0.074 A 
ATOM     48  C   UNL A   1      38.597  34.333  36.544  1.00  0.00     0.031 C 
ATOM     49  C   UNL A   1      38.081  30.664  30.726  1.00  0.00     0.029 A 
ATOM     50  C   UNL A   1      39.207  30.327  31.590  1.00  0.00     0.049 A 
ATOM     51  H   UNL A   1      39.664  31.142  33.451  1.00  0.00     0.167 HD
ATOM     52  C   UNL A   1      40.598  33.069  37.272  1.00  0.00     0.037 A 
ATOM     53  C   UNL A   1      40.155  29.409  31.318  1.00  0.00     0.037 A 
ATOM     54  C   UNL A   1      41.595  32.042  37.113  1.00  0.00     0.049 A 
ATOM     55  C   UNL A   1      41.253  29.169  32.319  1.00  0.00     0.074 A 
ATOM     56  C   UNL A   1      42.605  31.676  37.987  1.00  0.00     0.029 A 
ATOM     57  N   UNL A   1      41.712  31.220  36.002  1.00  0.00    -0.354 N 
ATOM     58  N   UNL A   1      41.455  29.741  33.481  1.00  0.00    -0.248 NA
ATOM     59  C   UNL A   1      42.252  28.148  31.972  1.00  0.00     0.031 C 
ATOM     60  C   UNL A   1      43.367  30.674  37.380  1.00  0.00     0.029 A 
ATOM     61  C   UNL A   1      42.793  30.367  36.156  1.00  0.00     0.049 A 
ATOM     62  H   UNL A   1      41.114  31.240  35.219  1.00  0.00     0.167 HD
ATOM     63  C   UNL A   1      42.580  29.128  34.018  1.00  0.00     0.074 A 
ATOM     64  C   UNL A   1      43.007  28.129  33.061  1.00  0.00     0.031 C 
ATOM     65  C   UNL A   1      43.201  29.369  35.199  1.00  0.00     0.037 A 
BRANCH  52  66
ATOM     66  C   UNL A   1      40.652  33.927  38.505  1.00  0.00     0.064 A 
ATOM     67  C   UNL A   1      41.413  35.105  38.552  1.00  0.00     0.173 A 
ATOM     68  C   UNL A   1      39.905  33.585  39.643  1.00  0.00     0.173 A 
ATOM     69  F   UNL A   1      42.154  35.474  37.497  1.00  0.00    -0.203 F 
ATOM     70  C   UNL A   1      41.450  35.890  39.702  1.00  0.00     0.198 A 
ATOM     71  C   UNL A   1      39.917  34.391  40.779  1.00  0.00     0.198 A 
ATOM     72  F   UNL A   1      39.154  32.473  39.652  1.00  0.00    -0.203 F 
ATOM     73  F   UNL A   1      42.229  36.980  39.742  1.00  0.00    -0.200 F 
ATOM     74  C   UNL A   1      40.696  35.536  40.812  1.00  0.00     0.200 A 
ATOM     75  F   UNL A   1      39.175  34.056  41.844  1.00  0.00    -0.200 F 
ATOM     76  F   UNL A   1      40.727  36.297  41.915  1.00  0.00    -0.200 F 
ENDBRANCH  52  66
BRANCH  53  77
ATOM     77  C   UNL A   1      40.098  28.635  30.049  1.00  0.00     0.064 A 
ATOM     78  C   UNL A   1      39.448  27.394  29.990  1.00  0.00     0.173 A 
ATOM     79  C   UNL A   1      40.703  29.109  28.875  1.00  0.00     0.173 A 
ATOM     80  F   UNL A   1      38.872  26.888  31.090  1.00  0.00    -0.203 F 
ATOM     81  C   UNL A   1      39.428  26.645  28.815  1.00  0.00     0.198 A 
ATOM     82  C   UNL A   1      40.653  28.375  27.693  1.00  0.00     0.198 A 
ATOM     83  F   UNL A   1      41.332  30.293  28.874  1.00  0.00    -0.203 F 
ATOM     84  F   UNL A   1      38.847  25.438  28.801  1.00  0.00    -0.200 F 
ATOM     85  C   UNL A   1      40.025  27.139  27.665  1.00  0.00     0.200 A 
ATOM     86  F   UNL A   1      41.217  28.865  26.579  1.00  0.00    -0.200 F 
ATOM     87  F   UNL A   1      40.003  26.421  26.534  1.00  0.00    -0.200 F 
ENDBRANCH  53  77
BRANCH  65  88
ATOM     88  C   UNL A   1      44.383  28.509  35.547  1.00  0.00     0.064 A 
ATOM     89  C   UNL A   1      45.693  28.874  35.201  1.00  0.00     0.173 A 
ATOM     90  C   UNL A   1      44.205  27.323  36.276  1.00  0.00     0.173 A 
ATOM     91  F   UNL A   1      45.918  29.991  34.492  1.00  0.00    -0.203 F 
ATOM     92  C   UNL A   1      46.775  28.068  35.544  1.00  0.00     0.198 A 
ATOM     93  C   UNL A   1      45.291  26.537  36.648  1.00  0.00     0.198 A 
ATOM     94  F   UNL A   1      42.974  26.931  36.640  1.00  0.00    -0.203 F 
ATOM     95  F   UNL A   1      48.011  28.409  35.155  1.00  0.00    -0.200 F 
ATOM     96  C   UNL A   1      46.575  26.906  36.274  1.00  0.00     0.200 A 
ATOM     97  F   UNL A   1      45.097  25.425  37.369  1.00  0.00    -0.200 F 
ATOM     98  F   UNL A   1      47.619  26.137  36.611  1.00  0.00    -0.200 F 
ENDBRANCH  65  88
ENDBRANCH  39  40
ENDBRANCH  31  34
ENDBRANCH  29  30
ENDBRANCH  28  29
ENDBRANCH  27  28
ENDBRANCH   1  27
TORSDOF 16
ENDMDL
