MODEL 1
REMARK VINA RESULT:     -11.3      0.000      0.000
REMARK SMILES CCN(CC)c1ccc(NC(=O)[C@@H]2CC=CC[C@@H]2C(=O)NCCCCCCNC(=O)c2ccc(-c3c4nc(c(-c5c(F)c(F)c(F)c(F)c5F)c5ccc([nH]5)c(-c5c(F)c(F)c(F)c(F)c5F)c5nc(c(-c6c(F)c(F)c(F)c(F)c6F)c6ccc3[nH]6)C=C5)C=C4)cc2)cc1
REMARK SMILES IDX 23 1 22 2 21 3 19 4 20 5 18 7 13 8 14 9 15 10 17 11 16 12
REMARK SMILES IDX 11 13 10 14 12 16 9 17 6 18 7 19 95 20 8 21 94 22 3 23 2 24
REMARK SMILES IDX 1 25 4 26 5 27 24 28 25 29 26 30 27 31 28 32 29 33 30 35
REMARK SMILES IDX 31 36 32 37 93 38 33 39 92 40 34 41 35 42 36 43 86 44 37 45
REMARK SMILES IDX 91 46 85 47 87 48 38 49 90 50 84 51 83 52 39 54 71 55 51 56
REMARK SMILES IDX 70 57 52 58 55 59 69 60 88 61 53 62 54 63 68 65 89 66 56 67
REMARK SMILES IDX 40 68 41 69 49 70 42 71 43 72 47 73 50 74 44 75 45 76 48 77
REMARK SMILES IDX 46 78 72 79 73 80 81 81 74 82 75 83 79 84 82 85 76 86 77 87
REMARK SMILES IDX 80 88 78 89 57 90 58 91 66 92 59 93 60 94 64 95 67 96 61 97
REMARK SMILES IDX 62 98 65 99 63 100
REMARK H PARENT 21 6 10 15 28 34 87 53 55 64
REMARK Flexibility Score: inf
ROOT
ATOM      1  C   UNL A   1      31.828  29.198  26.735  1.00  0.00     0.021 C 
ENDROOT
BRANCH   1   2
ATOM      2  C   UNL A   1      33.052  28.328  26.447  1.00  0.00     0.116 C 
BRANCH   2   3
ATOM      3  N   UNL A   1      33.390  28.398  25.048  1.00  0.00    -0.356 N 
ATOM      4  C   UNL A   1      32.939  27.706  23.976  1.00  0.00     0.224 C 
ATOM      5  O   UNL A   1      33.419  28.079  22.899  1.00  0.00    -0.275 OA
ATOM      6  H   UNL A   1      34.075  29.072  24.833  1.00  0.00     0.163 HD
BRANCH   4   7
ATOM      7  C   UNL A   1      31.864  26.590  24.063  1.00  0.00     0.095 C 
ATOM      8  C   UNL A   1      32.324  25.157  24.461  1.00  0.00     0.095 C 
ATOM      9  C   UNL A   1      33.557  24.771  23.629  1.00  0.00     0.041 C 
ATOM     10  C   UNL A   1      33.275  24.968  22.160  1.00  0.00    -0.030 C 
ATOM     11  C   UNL A   1      31.280  26.428  22.625  1.00  0.00     0.041 C 
ATOM     12  C   UNL A   1      32.221  25.669  21.708  1.00  0.00    -0.030 C 
BRANCH   8  13
ATOM     13  C   UNL A   1      32.379  24.846  25.961  1.00  0.00     0.228 C 
ATOM     14  N   UNL A   1      33.180  23.832  26.413  1.00  0.00    -0.326 N 
ATOM     15  H   UNL A   1      33.757  24.042  27.183  1.00  0.00     0.169 HD
ATOM     16  O   UNL A   1      31.692  25.441  26.790  1.00  0.00    -0.274 OA
BRANCH  14  17
ATOM     17  C   UNL A   1      33.273  22.527  25.903  1.00  0.00     0.041 A 
ATOM     18  C   UNL A   1      33.381  19.925  24.824  1.00  0.00     0.037 A 
ATOM     19  C   UNL A   1      34.548  20.641  25.096  1.00  0.00     0.028 A 
ATOM     20  C   UNL A   1      32.155  20.562  25.045  1.00  0.00     0.028 A 
ATOM     21  C   UNL A   1      34.500  21.923  25.642  1.00  0.00     0.028 A 
ATOM     22  C   UNL A   1      32.097  21.863  25.557  1.00  0.00     0.028 A 
BRANCH  18  23
ATOM     23  N   UNL A   1      33.434  18.631  24.346  1.00  0.00    -0.372 N 
BRANCH  23  24
ATOM     24  C   UNL A   1      32.293  18.102  23.602  1.00  0.00     0.113 C 
ATOM     25  C   UNL A   1      32.427  18.382  22.113  1.00  0.00     0.027 C 
ENDBRANCH  23  24
BRANCH  23  26
ATOM     26  C   UNL A   1      34.706  17.909  24.356  1.00  0.00     0.113 C 
ATOM     27  C   UNL A   1      34.532  16.396  24.379  1.00  0.00     0.027 C 
ENDBRANCH  23  26
ENDBRANCH  18  23
ENDBRANCH  14  17
ENDBRANCH   8  13
ENDBRANCH   4   7
ENDBRANCH   2   3
ENDBRANCH   1   2
BRANCH   1  28
ATOM     28  C   UNL A   1      31.540  30.205  25.618  1.00  0.00     0.002 C 
BRANCH  28  29
ATOM     29  C   UNL A   1      31.068  31.573  26.125  1.00  0.00     0.002 C 
BRANCH  29  30
ATOM     30  C   UNL A   1      31.814  32.106  27.353  1.00  0.00     0.021 C 
BRANCH  30  31
ATOM     31  C   UNL A   1      32.851  33.184  27.050  1.00  0.00     0.116 C 
BRANCH  31  32
ATOM     32  N   UNL A   1      32.653  34.362  27.880  1.00  0.00    -0.352 N 
ATOM     33  C   UNL A   1      33.206  34.687  29.090  1.00  0.00     0.251 C 
ATOM     34  H   UNL A   1      32.026  35.027  27.514  1.00  0.00     0.163 HD
ATOM     35  O   UNL A   1      32.712  35.581  29.768  1.00  0.00    -0.269 OA
BRANCH  33  36
ATOM     36  C   UNL A   1      34.403  33.971  29.583  1.00  0.00     0.039 A 
ATOM     37  C   UNL A   1      34.230  32.905  30.470  1.00  0.00     0.014 A 
ATOM     38  C   UNL A   1      35.690  34.396  29.240  1.00  0.00     0.014 A 
ATOM     39  C   UNL A   1      35.345  32.250  30.994  1.00  0.00     0.010 A 
ATOM     40  C   UNL A   1      36.801  33.703  29.713  1.00  0.00     0.010 A 
ATOM     41  C   UNL A   1      36.640  32.637  30.611  1.00  0.00    -0.014 A 
BRANCH  41  42
ATOM     42  C   UNL A   1      37.831  31.957  31.176  1.00  0.00     0.031 A 
ATOM     43  C   UNL A   1      38.324  32.310  32.551  1.00  0.00     0.074 A 
ATOM     44  C   UNL A   1      38.490  31.046  30.434  1.00  0.00     0.049 A 
ATOM     45  N   UNL A   1      39.348  31.831  33.213  1.00  0.00    -0.248 NA
ATOM     46  C   UNL A   1      37.586  33.362  33.267  1.00  0.00     0.031 C 
ATOM     47  C   UNL A   1      38.144  30.664  29.065  1.00  0.00     0.029 A 
ATOM     48  N   UNL A   1      39.590  30.284  30.728  1.00  0.00    -0.354 N 
ATOM     49  C   UNL A   1      39.385  32.532  34.411  1.00  0.00     0.074 A 
ATOM     50  C   UNL A   1      38.314  33.504  34.366  1.00  0.00     0.031 C 
ATOM     51  C   UNL A   1      39.001  29.720  28.645  1.00  0.00     0.029 A 
ATOM     52  C   UNL A   1      39.966  29.447  29.706  1.00  0.00     0.049 A 
ATOM     53  H   UNL A   1      40.066  30.330  31.589  1.00  0.00     0.167 HD
ATOM     54  C   UNL A   1      40.222  32.365  35.463  1.00  0.00     0.037 A 
ATOM     55  C   UNL A   1      40.971  28.554  29.639  1.00  0.00     0.037 A 
ATOM     56  C   UNL A   1      41.266  31.375  35.518  1.00  0.00     0.049 A 
ATOM     57  C   UNL A   1      41.856  28.353  30.838  1.00  0.00     0.074 A 
ATOM     58  C   UNL A   1      42.125  31.080  36.562  1.00  0.00     0.029 A 
ATOM     59  N   UNL A   1      41.591  30.516  34.478  1.00  0.00    -0.354 N 
ATOM     60  N   UNL A   1      41.835  28.968  31.994  1.00  0.00    -0.248 NA
ATOM     61  C   UNL A   1      42.894  27.320  30.726  1.00  0.00     0.031 C 
ATOM     62  C   UNL A   1      42.992  30.066  36.142  1.00  0.00     0.029 A 
ATOM     63  C   UNL A   1      42.648  29.699  34.852  1.00  0.00     0.049 A 
ATOM     64  H   UNL A   1      41.139  30.490  33.605  1.00  0.00     0.167 HD
ATOM     65  C   UNL A   1      42.838  28.384  32.756  1.00  0.00     0.074 A 
ATOM     66  C   UNL A   1      43.436  27.352  31.935  1.00  0.00     0.031 C 
ATOM     67  C   UNL A   1      43.231  28.678  34.020  1.00  0.00     0.037 A 
BRANCH  54  68
ATOM     68  C   UNL A   1      40.037  33.275  36.642  1.00  0.00     0.064 A 
ATOM     69  C   UNL A   1      39.088  33.004  37.640  1.00  0.00     0.173 A 
ATOM     70  C   UNL A   1      40.830  34.423  36.788  1.00  0.00     0.173 A 
ATOM     71  F   UNL A   1      38.295  31.925  37.542  1.00  0.00    -0.203 F 
ATOM     72  C   UNL A   1      38.917  33.865  38.721  1.00  0.00     0.198 A 
ATOM     73  C   UNL A   1      40.676  35.266  37.885  1.00  0.00     0.198 A 
ATOM     74  F   UNL A   1      41.756  34.727  35.866  1.00  0.00    -0.203 F 
ATOM     75  F   UNL A   1      37.967  33.613  39.632  1.00  0.00    -0.200 F 
ATOM     76  C   UNL A   1      39.715  34.991  38.846  1.00  0.00     0.200 A 
ATOM     77  F   UNL A   1      41.454  36.351  38.011  1.00  0.00    -0.200 F 
ATOM     78  F   UNL A   1      39.549  35.819  39.886  1.00  0.00    -0.200 F 
ENDBRANCH  54  68
BRANCH  55  79
ATOM     79  C   UNL A   1      41.157  27.747  28.407  1.00  0.00     0.064 A 
ATOM     80  C   UNL A   1      40.487  26.528  28.240  1.00  0.00     0.173 A 
ATOM     81  C   UNL A   1      41.992  28.184  27.370  1.00  0.00     0.173 A 
ATOM     82  F   UNL A   1      39.692  26.062  29.213  1.00  0.00    -0.203 F 
ATOM     83  C   UNL A   1      40.659  25.766  27.087  1.00  0.00     0.198 A 
ATOM     84  C   UNL A   1      42.145  27.433  26.206  1.00  0.00     0.198 A 
ATOM     85  F   UNL A   1      42.649  29.348  27.481  1.00  0.00    -0.203 F 
ATOM     86  F   UNL A   1      40.037  24.585  26.967  1.00  0.00    -0.200 F 
ATOM     87  C   UNL A   1      41.483  26.222  26.069  1.00  0.00     0.200 A 
ATOM     88  F   UNL A   1      42.931  27.882  25.219  1.00  0.00    -0.200 F 
ATOM     89  F   UNL A   1      41.644  25.492  24.956  1.00  0.00    -0.200 F 
ENDBRANCH  55  79
BRANCH  67  90
ATOM     90  C   UNL A   1      44.344  27.854  34.596  1.00  0.00     0.064 A 
ATOM     91  C   UNL A   1      45.686  28.249  34.480  1.00  0.00     0.173 A 
ATOM     92  C   UNL A   1      44.065  26.664  35.283  1.00  0.00     0.173 A 
ATOM     93  F   UNL A   1      46.004  29.372  33.818  1.00  0.00    -0.203 F 
ATOM     94  C   UNL A   1      46.709  27.464  35.004  1.00  0.00     0.198 A 
ATOM     95  C   UNL A   1      45.089  25.896  35.830  1.00  0.00     0.198 A 
ATOM     96  F   UNL A   1      42.799  26.246  35.426  1.00  0.00    -0.203 F 
ATOM     97  F   UNL A   1      47.986  27.834  34.836  1.00  0.00    -0.200 F 
ATOM     98  C   UNL A   1      46.410  26.292  35.683  1.00  0.00     0.200 A 
ATOM     99  F   UNL A   1      44.799  24.769  36.495  1.00  0.00    -0.200 F 
ATOM    100  F   UNL A   1      47.398  25.537  36.185  1.00  0.00    -0.200 F 
ENDBRANCH  67  90
ENDBRANCH  41  42
ENDBRANCH  33  36
ENDBRANCH  31  32
ENDBRANCH  30  31
ENDBRANCH  29  30
ENDBRANCH  28  29
ENDBRANCH   1  28
TORSDOF 18
ENDMDL
MODEL 2
REMARK VINA RESULT:     -11.3      2.104      4.695
REMARK SMILES CCN(CC)c1ccc(NC(=O)[C@@H]2CC=CC[C@@H]2C(=O)NCCCCCCNC(=O)c2ccc(-c3c4nc(c(-c5c(F)c(F)c(F)c(F)c5F)c5ccc([nH]5)c(-c5c(F)c(F)c(F)c(F)c5F)c5nc(c(-c6c(F)c(F)c(F)c(F)c6F)c6ccc3[nH]6)C=C5)C=C4)cc2)cc1
REMARK SMILES IDX 23 1 22 2 21 3 19 4 20 5 18 7 13 8 14 9 15 10 17 11 16 12
REMARK SMILES IDX 11 13 10 14 12 16 9 17 6 18 7 19 95 20 8 21 94 22 3 23 2 24
REMARK SMILES IDX 1 25 4 26 5 27 24 28 25 29 26 30 27 31 28 32 29 33 30 35
REMARK SMILES IDX 31 36 32 37 93 38 33 39 92 40 34 41 35 42 36 43 86 44 37 45
REMARK SMILES IDX 91 46 85 47 87 48 38 49 90 50 84 51 83 52 39 54 71 55 51 56
REMARK SMILES IDX 70 57 52 58 55 59 69 60 88 61 53 62 54 63 68 65 89 66 56 67
REMARK SMILES IDX 40 68 41 69 49 70 42 71 43 72 47 73 50 74 44 75 45 76 48 77
REMARK SMILES IDX 46 78 72 79 73 80 81 81 74 82 75 83 79 84 82 85 76 86 77 87
REMARK SMILES IDX 80 88 78 89 57 90 58 91 66 92 59 93 60 94 64 95 67 96 61 97
REMARK SMILES IDX 62 98 65 99 63 100
REMARK H PARENT 21 6 10 15 28 34 87 53 55 64
REMARK Flexibility Score: inf
ROOT
ATOM      1  C   UNL A   1      31.835  28.831  27.616  1.00  0.00     0.021 C 
ENDROOT
BRANCH   1   2
ATOM      2  C   UNL A   1      31.605  27.408  27.105  1.00  0.00     0.116 C 
BRANCH   2   3
ATOM      3  N   UNL A   1      32.802  26.909  26.475  1.00  0.00    -0.356 N 
ATOM      4  C   UNL A   1      33.092  26.633  25.182  1.00  0.00     0.224 C 
ATOM      5  O   UNL A   1      34.260  26.270  24.996  1.00  0.00    -0.275 OA
ATOM      6  H   UNL A   1      33.543  26.738  27.100  1.00  0.00     0.163 HD
BRANCH   4   7
ATOM      7  C   UNL A   1      32.084  26.818  24.016  1.00  0.00     0.095 C 
ATOM      8  C   UNL A   1      31.098  25.653  23.708  1.00  0.00     0.095 C 
ATOM      9  C   UNL A   1      31.876  24.330  23.655  1.00  0.00     0.041 C 
ATOM     10  C   UNL A   1      33.042  24.450  22.705  1.00  0.00    -0.030 C 
ATOM     11  C   UNL A   1      32.936  26.963  22.717  1.00  0.00     0.041 C 
ATOM     12  C   UNL A   1      33.486  25.632  22.241  1.00  0.00    -0.030 C 
BRANCH   8  13
ATOM     13  C   UNL A   1      29.779  25.648  24.488  1.00  0.00     0.228 C 
ATOM     14  N   UNL A   1      28.672  26.248  23.949  1.00  0.00    -0.326 N 
ATOM     15  H   UNL A   1      27.838  25.725  23.972  1.00  0.00     0.169 HD
ATOM     16  O   UNL A   1      29.672  25.165  25.614  1.00  0.00    -0.274 OA
BRANCH  14  17
ATOM     17  C   UNL A   1      28.592  27.524  23.368  1.00  0.00     0.041 A 
ATOM     18  C   UNL A   1      28.370  30.112  22.275  1.00  0.00     0.037 A 
ATOM     19  C   UNL A   1      29.586  29.426  22.262  1.00  0.00     0.028 A 
ATOM     20  C   UNL A   1      27.280  29.501  22.903  1.00  0.00     0.028 A 
ATOM     21  C   UNL A   1      29.698  28.141  22.789  1.00  0.00     0.028 A 
ATOM     22  C   UNL A   1      27.392  28.227  23.469  1.00  0.00     0.028 A 
BRANCH  18  23
ATOM     23  N   UNL A   1      28.248  31.358  21.692  1.00  0.00    -0.372 N 
BRANCH  23  24
ATOM     24  C   UNL A   1      28.747  32.529  22.408  1.00  0.00     0.113 C 
ATOM     25  C   UNL A   1      28.988  32.217  23.878  1.00  0.00     0.027 C 
ENDBRANCH  23  24
BRANCH  23  26
ATOM     26  C   UNL A   1      27.873  31.462  20.282  1.00  0.00     0.113 C 
ATOM     27  C   UNL A   1      27.690  32.901  19.819  1.00  0.00     0.027 C 
ENDBRANCH  23  26
ENDBRANCH  18  23
ENDBRANCH  14  17
ENDBRANCH   8  13
ENDBRANCH   4   7
ENDBRANCH   2   3
ENDBRANCH   1   2
BRANCH   1  28
ATOM     28  C   UNL A   1      32.483  29.740  26.567  1.00  0.00     0.002 C 
BRANCH  28  29
ATOM     29  C   UNL A   1      31.515  30.755  25.947  1.00  0.00     0.002 C 
BRANCH  29  30
ATOM     30  C   UNL A   1      31.412  32.093  26.686  1.00  0.00     0.021 C 
BRANCH  30  31
ATOM     31  C   UNL A   1      32.753  32.709  27.079  1.00  0.00     0.116 C 
BRANCH  31  32
ATOM     32  N   UNL A   1      32.587  34.054  27.606  1.00  0.00    -0.352 N 
ATOM     33  C   UNL A   1      33.138  34.635  28.718  1.00  0.00     0.251 C 
ATOM     34  H   UNL A   1      31.988  34.635  27.084  1.00  0.00     0.163 HD
ATOM     35  O   UNL A   1      32.669  35.679  29.159  1.00  0.00    -0.269 OA
BRANCH  33  36
ATOM     36  C   UNL A   1      34.304  34.017  29.385  1.00  0.00     0.039 A 
ATOM     37  C   UNL A   1      35.588  34.362  28.949  1.00  0.00     0.014 A 
ATOM     38  C   UNL A   1      34.138  33.046  30.376  1.00  0.00     0.014 A 
ATOM     39  C   UNL A   1      36.703  33.751  29.523  1.00  0.00     0.010 A 
ATOM     40  C   UNL A   1      35.253  32.483  30.993  1.00  0.00     0.010 A 
ATOM     41  C   UNL A   1      36.545  32.814  30.558  1.00  0.00    -0.014 A 
BRANCH  41  42
ATOM     42  C   UNL A   1      37.724  32.148  31.162  1.00  0.00     0.031 A 
ATOM     43  C   UNL A   1      38.180  32.521  32.544  1.00  0.00     0.074 A 
ATOM     44  C   UNL A   1      38.407  31.233  30.449  1.00  0.00     0.049 A 
ATOM     45  N   UNL A   1      39.189  32.057  33.238  1.00  0.00    -0.248 NA
ATOM     46  C   UNL A   1      37.418  33.577  33.229  1.00  0.00     0.031 C 
ATOM     47  C   UNL A   1      38.100  30.831  29.076  1.00  0.00     0.029 A 
ATOM     48  N   UNL A   1      39.504  30.480  30.780  1.00  0.00    -0.354 N 
ATOM     49  C   UNL A   1      39.191  32.773  34.428  1.00  0.00     0.074 A 
ATOM     50  C   UNL A   1      38.116  33.737  34.343  1.00  0.00     0.031 C 
ATOM     51  C   UNL A   1      38.972  29.888  28.690  1.00  0.00     0.029 A 
ATOM     52  C   UNL A   1      39.911  29.633  29.779  1.00  0.00     0.049 A 
ATOM     53  H   UNL A   1      39.957  30.540  31.653  1.00  0.00     0.167 HD
ATOM     54  C   UNL A   1      40.002  32.624  35.504  1.00  0.00     0.037 A 
ATOM     55  C   UNL A   1      40.923  28.746  29.749  1.00  0.00     0.037 A 
ATOM     56  C   UNL A   1      41.049  31.640  35.598  1.00  0.00     0.049 A 
ATOM     57  C   UNL A   1      41.778  28.564  30.972  1.00  0.00     0.074 A 
ATOM     58  C   UNL A   1      41.883  31.364  36.667  1.00  0.00     0.029 A 
ATOM     59  N   UNL A   1      41.407  30.770  34.577  1.00  0.00    -0.354 N 
ATOM     60  N   UNL A   1      41.723  29.194  32.120  1.00  0.00    -0.248 NA
ATOM     61  C   UNL A   1      42.824  27.536  30.900  1.00  0.00     0.031 C 
ATOM     62  C   UNL A   1      42.767  30.349  36.283  1.00  0.00     0.029 A 
ATOM     63  C   UNL A   1      42.457  29.965  34.988  1.00  0.00     0.049 A 
ATOM     64  H   UNL A   1      40.977  30.731  33.694  1.00  0.00     0.167 HD
ATOM     65  C   UNL A   1      42.709  28.625  32.915  1.00  0.00     0.074 A 
ATOM     66  C   UNL A   1      43.335  27.587  32.122  1.00  0.00     0.031 C 
ATOM     67  C   UNL A   1      43.068  28.937  34.184  1.00  0.00     0.037 A 
BRANCH  54  68
ATOM     68  C   UNL A   1      39.781  33.547  36.666  1.00  0.00     0.064 A 
ATOM     69  C   UNL A   1      38.914  33.212  37.718  1.00  0.00     0.173 A 
ATOM     70  C   UNL A   1      40.459  34.772  36.741  1.00  0.00     0.173 A 
ATOM     71  F   UNL A   1      38.231  32.057  37.688  1.00  0.00    -0.203 F 
ATOM     72  C   UNL A   1      38.707  34.085  38.783  1.00  0.00     0.198 A 
ATOM     73  C   UNL A   1      40.272  35.630  37.822  1.00  0.00     0.198 A 
ATOM     74  F   UNL A   1      41.304  35.140  35.766  1.00  0.00    -0.203 F 
ATOM     75  F   UNL A   1      37.833  33.768  39.747  1.00  0.00    -0.200 F 
ATOM     76  C   UNL A   1      39.390  35.290  38.837  1.00  0.00     0.200 A 
ATOM     77  F   UNL A   1      40.940  36.791  37.879  1.00  0.00    -0.200 F 
ATOM     78  F   UNL A   1      39.191  36.129  39.863  1.00  0.00    -0.200 F 
ENDBRANCH  54  68
BRANCH  55  79
ATOM     79  C   UNL A   1      41.145  27.925  28.532  1.00  0.00     0.064 A 
ATOM     80  C   UNL A   1      42.005  28.364  27.518  1.00  0.00     0.173 A 
ATOM     81  C   UNL A   1      40.514  26.685  28.365  1.00  0.00     0.173 A 
ATOM     82  F   UNL A   1      42.617  29.553  27.625  1.00  0.00    -0.203 F 
ATOM     83  C   UNL A   1      42.216  27.599  26.372  1.00  0.00     0.198 A 
ATOM     84  C   UNL A   1      40.743  25.909  27.231  1.00  0.00     0.198 A 
ATOM     85  F   UNL A   1      39.686  26.219  29.312  1.00  0.00    -0.203 F 
ATOM     86  F   UNL A   1      43.015  28.058  25.400  1.00  0.00    -0.200 F 
ATOM     87  C   UNL A   1      41.589  26.370  26.233  1.00  0.00     0.200 A 
ATOM     88  F   UNL A   1      40.147  24.716  27.105  1.00  0.00    -0.200 F 
ATOM     89  F   UNL A   1      41.796  25.631  25.134  1.00  0.00    -0.200 F 
ENDBRANCH  55  79
BRANCH  67  90
ATOM     90  C   UNL A   1      44.170  28.127  34.799  1.00  0.00     0.064 A 
ATOM     91  C   UNL A   1      43.908  26.933  35.488  1.00  0.00     0.173 A 
ATOM     92  C   UNL A   1      45.506  28.541  34.685  1.00  0.00     0.173 A 
ATOM     93  F   UNL A   1      42.646  26.503  35.636  1.00  0.00    -0.203 F 
ATOM     94  C   UNL A   1      44.940  26.201  36.068  1.00  0.00     0.198 A 
ATOM     95  C   UNL A   1      46.538  27.792  35.242  1.00  0.00     0.198 A 
ATOM     96  F   UNL A   1      45.809  29.672  34.031  1.00  0.00    -0.203 F 
ATOM     97  F   UNL A   1      44.661  25.092  36.766  1.00  0.00    -0.200 F 
ATOM     98  C   UNL A   1      46.254  26.628  35.941  1.00  0.00     0.200 A 
ATOM     99  F   UNL A   1      47.807  28.200  35.110  1.00  0.00    -0.200 F 
ATOM    100  F   UNL A   1      47.245  25.922  36.502  1.00  0.00    -0.200 F 
ENDBRANCH  67  90
ENDBRANCH  41  42
ENDBRANCH  33  36
ENDBRANCH  31  32
ENDBRANCH  30  31
ENDBRANCH  29  30
ENDBRANCH  28  29
ENDBRANCH   1  28
TORSDOF 18
ENDMDL
MODEL 3
REMARK VINA RESULT:     -11.2      1.707      4.056
REMARK SMILES CCN(CC)c1ccc(NC(=O)[C@@H]2CC=CC[C@@H]2C(=O)NCCCCCCNC(=O)c2ccc(-c3c4nc(c(-c5c(F)c(F)c(F)c(F)c5F)c5ccc([nH]5)c(-c5c(F)c(F)c(F)c(F)c5F)c5nc(c(-c6c(F)c(F)c(F)c(F)c6F)c6ccc3[nH]6)C=C5)C=C4)cc2)cc1
REMARK SMILES IDX 23 1 22 2 21 3 19 4 20 5 18 7 13 8 14 9 15 10 17 11 16 12
REMARK SMILES IDX 11 13 10 14 12 16 9 17 6 18 7 19 95 20 8 21 94 22 3 23 2 24
REMARK SMILES IDX 1 25 4 26 5 27 24 28 25 29 26 30 27 31 28 32 29 33 30 35
REMARK SMILES IDX 31 36 32 37 93 38 33 39 92 40 34 41 35 42 36 43 86 44 37 45
REMARK SMILES IDX 91 46 85 47 87 48 38 49 90 50 84 51 83 52 39 54 71 55 51 56
REMARK SMILES IDX 70 57 52 58 55 59 69 60 88 61 53 62 54 63 68 65 89 66 56 67
REMARK SMILES IDX 40 68 41 69 49 70 42 71 43 72 47 73 50 74 44 75 45 76 48 77
REMARK SMILES IDX 46 78 72 79 73 80 81 81 74 82 75 83 79 84 82 85 76 86 77 87
REMARK SMILES IDX 80 88 78 89 57 90 58 91 66 92 59 93 60 94 64 95 67 96 61 97
REMARK SMILES IDX 62 98 65 99 63 100
REMARK H PARENT 21 6 10 15 28 34 87 53 55 64
REMARK Flexibility Score: inf
ROOT
ATOM      1  C   UNL A   1      34.041  27.659  25.511  1.00  0.00     0.021 C 
ENDROOT
BRANCH   1   2
ATOM      2  C   UNL A   1      33.840  26.258  26.089  1.00  0.00     0.116 C 
BRANCH   2   3
ATOM      3  N   UNL A   1      34.435  25.274  25.220  1.00  0.00    -0.356 N 
ATOM      4  C   UNL A   1      33.889  24.375  24.369  1.00  0.00     0.224 C 
ATOM      5  O   UNL A   1      34.720  23.719  23.729  1.00  0.00    -0.275 OA
ATOM      6  H   UNL A   1      35.419  25.252  25.253  1.00  0.00     0.163 HD
BRANCH   4   7
ATOM      7  C   UNL A   1      32.361  24.218  24.149  1.00  0.00     0.095 C 
ATOM      8  C   UNL A   1      31.569  23.300  25.126  1.00  0.00     0.095 C 
ATOM      9  C   UNL A   1      32.316  21.968  25.288  1.00  0.00     0.041 C 
ATOM     10  C   UNL A   1      32.602  21.364  23.935  1.00  0.00    -0.030 C 
ATOM     11  C   UNL A   1      32.184  23.545  22.751  1.00  0.00     0.041 C 
ATOM     12  C   UNL A   1      32.492  22.059  22.789  1.00  0.00    -0.030 C 
BRANCH   8  13
ATOM     13  C   UNL A   1      31.043  23.957  26.407  1.00  0.00     0.228 C 
ATOM     14  N   UNL A   1      30.058  24.905  26.326  1.00  0.00    -0.326 N 
ATOM     15  H   UNL A   1      29.299  24.800  26.944  1.00  0.00     0.169 HD
ATOM     16  O   UNL A   1      31.499  23.705  27.521  1.00  0.00    -0.274 OA
BRANCH  14  17
ATOM     17  C   UNL A   1      30.010  26.012  25.463  1.00  0.00     0.041 A 
ATOM     18  C   UNL A   1      29.819  28.214  23.715  1.00  0.00     0.037 A 
ATOM     19  C   UNL A   1      30.599  28.278  24.871  1.00  0.00     0.028 A 
ATOM     20  C   UNL A   1      29.085  27.047  23.483  1.00  0.00     0.028 A 
ATOM     21  C   UNL A   1      30.707  27.187  25.732  1.00  0.00     0.028 A 
ATOM     22  C   UNL A   1      29.158  25.960  24.361  1.00  0.00     0.028 A 
BRANCH  18  23
ATOM     23  N   UNL A   1      29.767  29.274  22.831  1.00  0.00    -0.372 N 
BRANCH  23  24
ATOM     24  C   UNL A   1      28.683  30.246  22.950  1.00  0.00     0.113 C 
ATOM     25  C   UNL A   1      29.053  31.375  23.900  1.00  0.00     0.027 C 
ENDBRANCH  23  24
BRANCH  23  26
ATOM     26  C   UNL A   1      30.919  29.557  21.974  1.00  0.00     0.113 C 
ATOM     27  C   UNL A   1      32.217  28.970  22.508  1.00  0.00     0.027 C 
ENDBRANCH  23  26
ENDBRANCH  18  23
ENDBRANCH  14  17
ENDBRANCH   8  13
ENDBRANCH   4   7
ENDBRANCH   2   3
ENDBRANCH   1   2
BRANCH   1  28
ATOM     28  C   UNL A   1      34.773  28.599  26.474  1.00  0.00     0.002 C 
BRANCH  28  29
ATOM     29  C   UNL A   1      33.837  29.502  27.286  1.00  0.00     0.002 C 
BRANCH  29  30
ATOM     30  C   UNL A   1      33.289  30.719  26.532  1.00  0.00     0.021 C 
BRANCH  30  31
ATOM     31  C   UNL A   1      32.186  31.478  27.265  1.00  0.00     0.116 C 
BRANCH  31  32
ATOM     32  N   UNL A   1      32.429  32.912  27.254  1.00  0.00    -0.352 N 
ATOM     33  C   UNL A   1      33.373  33.647  27.921  1.00  0.00     0.251 C 
ATOM     34  H   UNL A   1      31.823  33.432  26.679  1.00  0.00     0.163 HD
ATOM     35  O   UNL A   1      33.252  34.864  28.008  1.00  0.00    -0.269 OA
BRANCH  33  36
ATOM     36  C   UNL A   1      34.547  32.984  28.528  1.00  0.00     0.039 A 
ATOM     37  C   UNL A   1      34.378  32.288  29.729  1.00  0.00     0.014 A 
ATOM     38  C   UNL A   1      35.821  33.114  27.967  1.00  0.00     0.014 A 
ATOM     39  C   UNL A   1      35.480  31.701  30.352  1.00  0.00     0.010 A 
ATOM     40  C   UNL A   1      36.910  32.475  28.555  1.00  0.00     0.010 A 
ATOM     41  C   UNL A   1      36.754  31.781  29.765  1.00  0.00    -0.014 A 
BRANCH  41  42
ATOM     42  C   UNL A   1      37.933  31.175  30.429  1.00  0.00     0.031 A 
ATOM     43  C   UNL A   1      38.287  31.556  31.839  1.00  0.00     0.074 A 
ATOM     44  C   UNL A   1      38.706  30.309  29.748  1.00  0.00     0.049 A 
ATOM     45  N   UNL A   1      39.279  31.140  32.586  1.00  0.00    -0.248 NA
ATOM     46  C   UNL A   1      37.428  32.558  32.488  1.00  0.00     0.031 C 
ATOM     47  C   UNL A   1      38.501  29.908  28.356  1.00  0.00     0.029 A 
ATOM     48  N   UNL A   1      39.823  29.615  30.135  1.00  0.00    -0.354 N 
ATOM     49  C   UNL A   1      39.172  31.840  33.781  1.00  0.00     0.074 A 
ATOM     50  C   UNL A   1      38.051  32.743  33.643  1.00  0.00     0.031 C 
ATOM     51  C   UNL A   1      39.446  29.020  28.012  1.00  0.00     0.029 A 
ATOM     52  C   UNL A   1      40.334  28.805  29.151  1.00  0.00     0.049 A 
ATOM     53  H   UNL A   1      40.221  29.689  31.033  1.00  0.00     0.167 HD
ATOM     54  C   UNL A   1      39.928  31.723  34.900  1.00  0.00     0.037 A 
ATOM     55  C   UNL A   1      41.395  27.976  29.172  1.00  0.00     0.037 A 
ATOM     56  C   UNL A   1      41.022  30.799  35.045  1.00  0.00     0.049 A 
ATOM     57  C   UNL A   1      42.187  27.828  30.440  1.00  0.00     0.074 A 
ATOM     58  C   UNL A   1      41.807  30.556  36.158  1.00  0.00     0.029 A 
ATOM     59  N   UNL A   1      41.486  29.964  34.039  1.00  0.00    -0.354 N 
ATOM     60  N   UNL A   1      42.031  28.438  31.589  1.00  0.00    -0.248 NA
ATOM     61  C   UNL A   1      43.293  26.861  30.419  1.00  0.00     0.031 C 
ATOM     62  C   UNL A   1      42.768  29.598  35.816  1.00  0.00     0.029 A 
ATOM     63  C   UNL A   1      42.556  29.213  34.502  1.00  0.00     0.049 A 
ATOM     64  H   UNL A   1      41.111  29.912  33.131  1.00  0.00     0.167 HD
ATOM     65  C   UNL A   1      43.001  27.916  32.434  1.00  0.00     0.074 A 
ATOM     66  C   UNL A   1      43.729  26.924  31.669  1.00  0.00     0.031 C 
ATOM     67  C   UNL A   1      43.268  28.232  33.725  1.00  0.00     0.037 A 
BRANCH  54  68
ATOM     68  C   UNL A   1      39.589  32.618  36.057  1.00  0.00     0.064 A 
ATOM     69  C   UNL A   1      40.235  33.849  36.249  1.00  0.00     0.173 A 
ATOM     70  C   UNL A   1      38.593  32.250  36.973  1.00  0.00     0.173 A 
ATOM     71  F   UNL A   1      41.204  34.241  35.408  1.00  0.00    -0.203 F 
ATOM     72  C   UNL A   1      39.920  34.662  37.335  1.00  0.00     0.198 A 
ATOM     73  C   UNL A   1      38.260  33.080  38.041  1.00  0.00     0.198 A 
ATOM     74  F   UNL A   1      37.939  31.087  36.833  1.00  0.00    -0.203 F 
ATOM     75  F   UNL A   1      40.590  35.806  37.529  1.00  0.00    -0.200 F 
ATOM     76  C   UNL A   1      38.930  34.280  38.227  1.00  0.00     0.200 A 
ATOM     77  F   UNL A   1      37.296  32.714  38.898  1.00  0.00    -0.200 F 
ATOM     78  F   UNL A   1      38.628  35.063  39.271  1.00  0.00    -0.200 F 
ENDBRANCH  54  68
BRANCH  55  79
ATOM     79  C   UNL A   1      41.732  27.185  27.962  1.00  0.00     0.064 A 
ATOM     80  C   UNL A   1      42.604  27.695  26.991  1.00  0.00     0.173 A 
ATOM     81  C   UNL A   1      41.203  25.903  27.760  1.00  0.00     0.173 A 
ATOM     82  F   UNL A   1      43.119  28.924  27.133  1.00  0.00    -0.203 F 
ATOM     83  C   UNL A   1      42.922  26.958  25.852  1.00  0.00     0.198 A 
ATOM     84  C   UNL A   1      41.541  25.156  26.633  1.00  0.00     0.198 A 
ATOM     85  F   UNL A   1      40.369  25.369  28.665  1.00  0.00    -0.203 F 
ATOM     86  F   UNL A   1      43.729  27.482  24.921  1.00  0.00    -0.200 F 
ATOM     87  C   UNL A   1      42.395  25.687  25.678  1.00  0.00     0.200 A 
ATOM     88  F   UNL A   1      41.041  23.924  26.473  1.00  0.00    -0.200 F 
ATOM     89  F   UNL A   1      42.706  24.975  24.586  1.00  0.00    -0.200 F 
ENDBRANCH  55  79
BRANCH  67  90
ATOM     90  C   UNL A   1      44.378  27.477  34.395  1.00  0.00     0.064 A 
ATOM     91  C   UNL A   1      45.689  27.977  34.430  1.00  0.00     0.173 A 
ATOM     92  C   UNL A   1      44.126  26.247  35.020  1.00  0.00     0.173 A 
ATOM     93  F   UNL A   1      45.983  29.141  33.834  1.00  0.00    -0.203 F 
ATOM     94  C   UNL A   1      46.712  27.256  35.040  1.00  0.00     0.198 A 
ATOM     95  C   UNL A   1      45.146  25.542  35.653  1.00  0.00     0.198 A 
ATOM     96  F   UNL A   1      42.888  25.729  35.019  1.00  0.00    -0.203 F 
ATOM     97  F   UNL A   1      47.966  27.728  35.016  1.00  0.00    -0.200 F 
ATOM     98  C   UNL A   1      46.439  26.043  35.655  1.00  0.00     0.200 A 
ATOM     99  F   UNL A   1      44.879  24.376  36.256  1.00  0.00    -0.200 F 
ATOM    100  F   UNL A   1      47.427  25.350  36.240  1.00  0.00    -0.200 F 
ENDBRANCH  67  90
ENDBRANCH  41  42
ENDBRANCH  33  36
ENDBRANCH  31  32
ENDBRANCH  30  31
ENDBRANCH  29  30
ENDBRANCH  28  29
ENDBRANCH   1  28
TORSDOF 18
ENDMDL
