MODEL 1
REMARK VINA RESULT:     -12.3      0.000      0.000
REMARK SMILES O=C(NCCCCCCNC(=O)c1ccc(-c2c3nc(c(-c4c(F)c(F)c(F)c(F)c4F)c4ccc([nH]4)c(-c4c(F)c(F)c(F)c(F)c4F)c4nc(c(-c5c(F)c(F)c(F)c(F)c5F)c5ccc2[nH]5)C=C4)C=C3)cc1)C1=Cc2c(Cl)cc(Cl)cc2O[C@@H]1C(F)(F)F
REMARK SMILES IDX 7 1 6 2 5 3 4 4 3 5 1 6 2 7 76 9 77 10 87 11 78 12 86 13
REMARK SMILES IDX 79 14 85 15 80 16 81 17 84 18 82 19 83 20 88 21 89 22 90 23
REMARK SMILES IDX 91 24 8 25 9 26 10 27 11 28 12 30 13 31 14 32 75 33 15 34
REMARK SMILES IDX 74 35 16 36 17 37 18 38 68 39 19 40 73 41 67 42 69 43 20 44
REMARK SMILES IDX 72 45 66 46 65 47 21 49 53 50 33 51 52 52 34 53 37 54 51 55
REMARK SMILES IDX 70 56 35 57 36 58 50 60 71 61 38 62 22 63 23 64 31 65 24 66
REMARK SMILES IDX 25 67 29 68 32 69 26 70 27 71 30 72 28 73 54 74 55 75 63 76
REMARK SMILES IDX 56 77 57 78 61 79 64 80 58 81 59 82 62 83 60 84 39 85 40 86
REMARK SMILES IDX 48 87 41 88 42 89 46 90 49 91 43 92 44 93 47 94 45 95
REMARK H PARENT 3 8 10 29 69 48 37 59
REMARK Flexibility Score: inf
ROOT
ATOM      1  C   UNL A   1      36.440  20.130  25.002  1.00  0.00     0.002 C 
ENDROOT
BRANCH   1   2
ATOM      2  C   UNL A   1      35.295  19.119  24.862  1.00  0.00     0.002 C 
BRANCH   2   3
ATOM      3  C   UNL A   1      33.902  19.680  24.582  1.00  0.00     0.021 C 
BRANCH   3   4
ATOM      4  C   UNL A   1      32.967  19.820  25.778  1.00  0.00     0.116 C 
BRANCH   4   5
ATOM      5  N   UNL A   1      33.444  20.682  26.845  1.00  0.00    -0.352 N 
ATOM      6  O   UNL A   1      33.855  22.603  27.933  1.00  0.00    -0.270 OA
ATOM      7  C   UNL A   1      33.576  22.043  26.874  1.00  0.00     0.251 C 
ATOM      8  H   UNL A   1      33.712  20.217  27.671  1.00  0.00     0.163 HD
BRANCH   7   9
ATOM      9  C   UNL A   1      33.297  22.894  25.680  1.00  0.00     0.067 C 
ATOM     10  C   UNL A   1      32.147  23.580  25.559  1.00  0.00     0.027 C 
ATOM     11  C   UNL A   1      34.547  23.430  25.029  1.00  0.00     0.314 C 
ATOM     12  C   UNL A   1      32.340  25.050  25.680  1.00  0.00     0.036 A 
ATOM     13  O   UNL A   1      34.762  24.827  25.366  1.00  0.00    -0.475 OA
ATOM     14  C   UNL A   1      31.274  25.886  26.061  1.00  0.00     0.053 A 
ATOM     15  C   UNL A   1      33.647  25.568  25.676  1.00  0.00     0.130 A 
ATOM     16  Cl  UNL A   1      29.644  25.312  26.129  1.00  0.00    -0.083 Cl
ATOM     17  C   UNL A   1      31.523  27.182  26.515  1.00  0.00     0.042 A 
ATOM     18  C   UNL A   1      33.891  26.869  26.114  1.00  0.00     0.067 A 
ATOM     19  C   UNL A   1      32.833  27.655  26.561  1.00  0.00     0.046 A 
ATOM     20  Cl  UNL A   1      33.150  29.201  27.246  1.00  0.00    -0.084 Cl
BRANCH  11  21
ATOM     21  C   UNL A   1      34.547  23.216  23.506  1.00  0.00     0.429 C 
ATOM     22  F   UNL A   1      35.736  22.726  23.078  1.00  0.00    -0.167 F 
ATOM     23  F   UNL A   1      33.595  22.335  23.121  1.00  0.00    -0.167 F 
ATOM     24  F   UNL A   1      34.322  24.368  22.828  1.00  0.00    -0.167 F 
ENDBRANCH  11  21
ENDBRANCH   7   9
ENDBRANCH   4   5
ENDBRANCH   3   4
ENDBRANCH   2   3
ENDBRANCH   1   2
BRANCH   1  25
ATOM     25  C   UNL A   1      37.865  19.620  24.762  1.00  0.00     0.021 C 
BRANCH  25  26
ATOM     26  C   UNL A   1      38.924  20.037  25.782  1.00  0.00     0.116 C 
BRANCH  26  27
ATOM     27  N   UNL A   1      40.034  19.108  25.869  1.00  0.00    -0.352 N 
ATOM     28  C   UNL A   1      41.370  19.327  26.104  1.00  0.00     0.251 C 
ATOM     29  H   UNL A   1      39.790  18.162  25.739  1.00  0.00     0.163 HD
ATOM     30  O   UNL A   1      42.156  18.387  26.024  1.00  0.00    -0.269 OA
BRANCH  28  31
ATOM     31  C   UNL A   1      41.891  20.678  26.428  1.00  0.00     0.039 A 
ATOM     32  C   UNL A   1      42.100  21.575  25.374  1.00  0.00     0.014 A 
ATOM     33  C   UNL A   1      42.231  21.055  27.729  1.00  0.00     0.014 A 
ATOM     34  C   UNL A   1      42.598  22.857  25.627  1.00  0.00     0.010 A 
ATOM     35  C   UNL A   1      42.668  22.357  27.991  1.00  0.00     0.010 A 
ATOM     36  C   UNL A   1      42.861  23.271  26.943  1.00  0.00    -0.014 A 
BRANCH  36  37
ATOM     37  C   UNL A   1      43.344  24.649  27.230  1.00  0.00     0.031 A 
ATOM     38  C   UNL A   1      42.402  25.688  27.777  1.00  0.00     0.074 A 
ATOM     39  C   UNL A   1      44.621  24.981  26.958  1.00  0.00     0.049 A 
ATOM     40  N   UNL A   1      42.622  26.953  28.033  1.00  0.00    -0.248 NA
ATOM     41  C   UNL A   1      41.025  25.252  28.055  1.00  0.00     0.031 C 
ATOM     42  C   UNL A   1      45.625  24.079  26.392  1.00  0.00     0.029 A 
ATOM     43  N   UNL A   1      45.291  26.170  27.110  1.00  0.00    -0.354 N 
ATOM     44  C   UNL A   1      41.414  27.465  28.490  1.00  0.00     0.074 A 
ATOM     45  C   UNL A   1      40.451  26.386  28.430  1.00  0.00     0.031 C 
ATOM     46  C   UNL A   1      46.785  24.742  26.258  1.00  0.00     0.029 A 
ATOM     47  C   UNL A   1      46.599  26.123  26.694  1.00  0.00     0.049 A 
ATOM     48  H   UNL A   1      44.873  26.980  27.483  1.00  0.00     0.167 HD
ATOM     49  C   UNL A   1      41.137  28.712  28.941  1.00  0.00     0.037 A 
ATOM     50  C   UNL A   1      47.540  27.086  26.657  1.00  0.00     0.037 A 
ATOM     51  C   UNL A   1      42.100  29.780  29.021  1.00  0.00     0.049 A 
ATOM     52  C   UNL A   1      47.204  28.467  27.155  1.00  0.00     0.074 A 
ATOM     53  C   UNL A   1      41.924  31.067  29.504  1.00  0.00     0.029 A 
ATOM     54  N   UNL A   1      43.420  29.687  28.608  1.00  0.00    -0.354 N 
ATOM     55  N   UNL A   1      46.072  28.920  27.637  1.00  0.00    -0.248 NA
ATOM     56  C   UNL A   1      48.279  29.467  27.111  1.00  0.00     0.031 C 
ATOM     57  C   UNL A   1      43.126  31.763  29.345  1.00  0.00     0.029 A 
ATOM     58  C   UNL A   1      44.065  30.898  28.810  1.00  0.00     0.049 A 
ATOM     59  H   UNL A   1      43.838  28.881  28.228  1.00  0.00     0.167 HD
ATOM     60  C   UNL A   1      46.307  30.246  27.978  1.00  0.00     0.074 A 
ATOM     61  C   UNL A   1      47.693  30.520  27.664  1.00  0.00     0.031 C 
ATOM     62  C   UNL A   1      45.449  31.154  28.502  1.00  0.00     0.037 A 
BRANCH  49  63
ATOM     63  C   UNL A   1      39.734  28.994  29.393  1.00  0.00     0.064 A 
ATOM     64  C   UNL A   1      38.751  29.442  28.497  1.00  0.00     0.173 A 
ATOM     65  C   UNL A   1      39.352  28.765  30.724  1.00  0.00     0.173 A 
ATOM     66  F   UNL A   1      39.066  29.686  27.217  1.00  0.00    -0.203 F 
ATOM     67  C   UNL A   1      37.446  29.673  28.923  1.00  0.00     0.198 A 
ATOM     68  C   UNL A   1      38.039  28.968  31.139  1.00  0.00     0.198 A 
ATOM     69  F   UNL A   1      40.251  28.328  31.620  1.00  0.00    -0.203 F 
ATOM     70  F   UNL A   1      36.535  30.141  28.058  1.00  0.00    -0.200 F 
ATOM     71  C   UNL A   1      37.088  29.428  30.239  1.00  0.00     0.200 A 
ATOM     72  F   UNL A   1      37.691  28.718  32.409  1.00  0.00    -0.200 F 
ATOM     73  F   UNL A   1      35.829  29.641  30.645  1.00  0.00    -0.200 F 
ENDBRANCH  49  63
BRANCH  50  74
ATOM     74  C   UNL A   1      48.899  26.778  26.139  1.00  0.00     0.064 A 
ATOM     75  C   UNL A   1      49.233  27.018  24.800  1.00  0.00     0.173 A 
ATOM     76  C   UNL A   1      49.885  26.222  26.968  1.00  0.00     0.173 A 
ATOM     77  F   UNL A   1      48.317  27.525  23.962  1.00  0.00    -0.203 F 
ATOM     78  C   UNL A   1      50.494  26.693  24.302  1.00  0.00     0.198 A 
ATOM     79  C   UNL A   1      51.155  25.926  26.477  1.00  0.00     0.198 A 
ATOM     80  F   UNL A   1      49.617  25.976  28.259  1.00  0.00    -0.203 F 
ATOM     81  F   UNL A   1      50.769  26.885  23.005  1.00  0.00    -0.200 F 
ATOM     82  C   UNL A   1      51.455  26.152  25.142  1.00  0.00     0.200 A 
ATOM     83  F   UNL A   1      52.085  25.416  27.295  1.00  0.00    -0.200 F 
ATOM     84  F   UNL A   1      52.667  25.841  24.664  1.00  0.00    -0.200 F 
ENDBRANCH  50  74
BRANCH  62  85
ATOM     85  C   UNL A   1      45.992  32.520  28.805  1.00  0.00     0.064 A 
ATOM     86  C   UNL A   1      46.593  32.816  30.038  1.00  0.00     0.173 A 
ATOM     87  C   UNL A   1      45.945  33.534  27.837  1.00  0.00     0.173 A 
ATOM     88  F   UNL A   1      46.649  31.884  31.003  1.00  0.00    -0.203 F 
ATOM     89  C   UNL A   1      47.104  34.085  30.298  1.00  0.00     0.198 A 
ATOM     90  C   UNL A   1      46.484  34.793  28.090  1.00  0.00     0.198 A 
ATOM     91  F   UNL A   1      45.386  33.300  26.640  1.00  0.00    -0.203 F 
ATOM     92  F   UNL A   1      47.632  34.359  31.500  1.00  0.00    -0.200 F 
ATOM     93  C   UNL A   1      47.056  35.070  29.322  1.00  0.00     0.200 A 
ATOM     94  F   UNL A   1      46.447  35.739  27.142  1.00  0.00    -0.200 F 
ATOM     95  F   UNL A   1      47.554  36.288  29.572  1.00  0.00    -0.200 F 
ENDBRANCH  62  85
ENDBRANCH  36  37
ENDBRANCH  28  31
ENDBRANCH  26  27
ENDBRANCH  25  26
ENDBRANCH   1  25
TORSDOF 14
ENDMDL
MODEL 2
REMARK VINA RESULT:     -12.3      4.534      9.755
REMARK SMILES O=C(NCCCCCCNC(=O)c1ccc(-c2c3nc(c(-c4c(F)c(F)c(F)c(F)c4F)c4ccc([nH]4)c(-c4c(F)c(F)c(F)c(F)c4F)c4nc(c(-c5c(F)c(F)c(F)c(F)c5F)c5ccc2[nH]5)C=C4)C=C3)cc1)C1=Cc2c(Cl)cc(Cl)cc2O[C@@H]1C(F)(F)F
REMARK SMILES IDX 7 1 6 2 5 3 4 4 3 5 1 6 2 7 76 9 77 10 87 11 78 12 86 13
REMARK SMILES IDX 79 14 85 15 80 16 81 17 84 18 82 19 83 20 88 21 89 22 90 23
REMARK SMILES IDX 91 24 8 25 9 26 10 27 11 28 12 30 13 31 14 32 75 33 15 34
REMARK SMILES IDX 74 35 16 36 17 37 18 38 68 39 19 40 73 41 67 42 69 43 20 44
REMARK SMILES IDX 72 45 66 46 65 47 21 49 53 50 33 51 52 52 34 53 37 54 51 55
REMARK SMILES IDX 70 56 35 57 36 58 50 60 71 61 38 62 22 63 23 64 31 65 24 66
REMARK SMILES IDX 25 67 29 68 32 69 26 70 27 71 30 72 28 73 54 74 55 75 63 76
REMARK SMILES IDX 56 77 57 78 61 79 64 80 58 81 59 82 62 83 60 84 39 85 40 86
REMARK SMILES IDX 48 87 41 88 42 89 46 90 49 91 43 92 44 93 47 94 45 95
REMARK H PARENT 3 8 10 29 69 48 37 59
REMARK Flexibility Score: inf
ROOT
ATOM      1  C   UNL A   1      33.042  26.807  25.198  1.00  0.00     0.002 C 
ENDROOT
BRANCH   1   2
ATOM      2  C   UNL A   1      32.237  26.609  26.488  1.00  0.00     0.002 C 
BRANCH   2   3
ATOM      3  C   UNL A   1      30.980  25.745  26.397  1.00  0.00     0.021 C 
BRANCH   3   4
ATOM      4  C   UNL A   1      31.183  24.281  26.022  1.00  0.00     0.116 C 
BRANCH   4   5
ATOM      5  N   UNL A   1      31.965  23.498  26.962  1.00  0.00    -0.352 N 
ATOM      6  O   UNL A   1      33.788  22.518  27.834  1.00  0.00    -0.270 OA
ATOM      7  C   UNL A   1      33.248  23.035  26.857  1.00  0.00     0.251 C 
ATOM      8  H   UNL A   1      31.503  23.267  27.801  1.00  0.00     0.163 HD
BRANCH   7   9
ATOM      9  C   UNL A   1      34.061  23.222  25.619  1.00  0.00     0.067 C 
ATOM     10  C   UNL A   1      35.298  23.743  25.664  1.00  0.00     0.027 C 
ATOM     11  C   UNL A   1      33.713  22.240  24.528  1.00  0.00     0.314 C 
ATOM     12  C   UNL A   1      36.356  22.742  25.356  1.00  0.00     0.036 A 
ATOM     13  O   UNL A   1      34.704  21.182  24.433  1.00  0.00    -0.475 OA
ATOM     14  C   UNL A   1      37.676  22.930  25.804  1.00  0.00     0.053 A 
ATOM     15  C   UNL A   1      35.976  21.485  24.853  1.00  0.00     0.130 A 
ATOM     16  Cl  UNL A   1      38.207  24.435  26.472  1.00  0.00    -0.083 Cl
ATOM     17  C   UNL A   1      38.569  21.858  25.832  1.00  0.00     0.042 A 
ATOM     18  C   UNL A   1      36.876  20.421  24.866  1.00  0.00     0.067 A 
ATOM     19  C   UNL A   1      38.155  20.605  25.385  1.00  0.00     0.046 A 
ATOM     20  Cl  UNL A   1      39.212  19.258  25.546  1.00  0.00    -0.084 Cl
BRANCH  11  21
ATOM     21  C   UNL A   1      33.500  22.931  23.171  1.00  0.00     0.429 C 
ATOM     22  F   UNL A   1      32.983  24.174  23.328  1.00  0.00    -0.167 F 
ATOM     23  F   UNL A   1      34.660  23.069  22.489  1.00  0.00    -0.167 F 
ATOM     24  F   UNL A   1      32.648  22.242  22.374  1.00  0.00    -0.167 F 
ENDBRANCH  11  21
ENDBRANCH   7   9
ENDBRANCH   4   5
ENDBRANCH   3   4
ENDBRANCH   2   3
ENDBRANCH   1   2
BRANCH   1  25
ATOM     25  C   UNL A   1      32.716  28.038  24.343  1.00  0.00     0.021 C 
BRANCH  25  26
ATOM     26  C   UNL A   1      33.528  29.302  24.622  1.00  0.00     0.116 C 
BRANCH  26  27
ATOM     27  N   UNL A   1      32.793  30.302  25.374  1.00  0.00    -0.352 N 
ATOM     28  C   UNL A   1      33.046  30.865  26.600  1.00  0.00     0.251 C 
ATOM     29  H   UNL A   1      31.978  30.632  24.930  1.00  0.00     0.163 HD
ATOM     30  O   UNL A   1      32.216  31.622  27.096  1.00  0.00    -0.269 OA
BRANCH  28  31
ATOM     31  C   UNL A   1      34.288  30.561  27.355  1.00  0.00     0.039 A 
ATOM     32  C   UNL A   1      35.173  31.612  27.620  1.00  0.00     0.014 A 
ATOM     33  C   UNL A   1      34.623  29.263  27.749  1.00  0.00     0.014 A 
ATOM     34  C   UNL A   1      36.360  31.374  28.320  1.00  0.00     0.010 A 
ATOM     35  C   UNL A   1      35.778  29.035  28.503  1.00  0.00     0.010 A 
ATOM     36  C   UNL A   1      36.661  30.087  28.793  1.00  0.00    -0.014 A 
BRANCH  36  37
ATOM     37  C   UNL A   1      37.897  29.831  29.582  1.00  0.00     0.031 A 
ATOM     38  C   UNL A   1      38.950  28.889  29.065  1.00  0.00     0.074 A 
ATOM     39  C   UNL A   1      38.054  30.414  30.786  1.00  0.00     0.049 A 
ATOM     40  N   UNL A   1      40.062  28.495  29.635  1.00  0.00    -0.248 NA
ATOM     41  C   UNL A   1      38.713  28.294  27.741  1.00  0.00     0.031 C 
ATOM     42  C   UNL A   1      37.093  31.319  31.418  1.00  0.00     0.029 A 
ATOM     43  N   UNL A   1      39.076  30.325  31.700  1.00  0.00    -0.354 N 
ATOM     44  C   UNL A   1      40.650  27.603  28.746  1.00  0.00     0.074 A 
ATOM     45  C   UNL A   1      39.748  27.474  27.621  1.00  0.00     0.031 C 
ATOM     46  C   UNL A   1      37.575  31.711  32.608  1.00  0.00     0.029 A 
ATOM     47  C   UNL A   1      38.862  31.061  32.841  1.00  0.00     0.049 A 
ATOM     48  H   UNL A   1      39.885  29.785  31.552  1.00  0.00     0.167 HD
ATOM     49  C   UNL A   1      41.842  26.967  28.847  1.00  0.00     0.037 A 
ATOM     50  C   UNL A   1      39.611  31.189  33.952  1.00  0.00     0.037 A 
ATOM     51  C   UNL A   1      42.749  27.111  29.956  1.00  0.00     0.049 A 
ATOM     52  C   UNL A   1      40.928  30.463  34.043  1.00  0.00     0.074 A 
ATOM     53  C   UNL A   1      44.000  26.540  30.128  1.00  0.00     0.029 A 
ATOM     54  N   UNL A   1      42.505  27.881  31.083  1.00  0.00    -0.354 N 
ATOM     55  N   UNL A   1      41.496  29.667  33.170  1.00  0.00    -0.248 NA
ATOM     56  C   UNL A   1      41.711  30.662  35.271  1.00  0.00     0.031 C 
ATOM     57  C   UNL A   1      44.493  26.932  31.376  1.00  0.00     0.029 A 
ATOM     58  C   UNL A   1      43.574  27.787  31.961  1.00  0.00     0.049 A 
ATOM     59  H   UNL A   1      41.693  28.416  31.236  1.00  0.00     0.167 HD
ATOM     60  C   UNL A   1      42.710  29.293  33.730  1.00  0.00     0.074 A 
ATOM     61  C   UNL A   1      42.805  29.962  35.010  1.00  0.00     0.031 C 
ATOM     62  C   UNL A   1      43.660  28.467  33.228  1.00  0.00     0.037 A 
BRANCH  49  63
ATOM     63  C   UNL A   1      42.244  26.058  27.722  1.00  0.00     0.064 A 
ATOM     64  C   UNL A   1      43.151  26.471  26.735  1.00  0.00     0.173 A 
ATOM     65  C   UNL A   1      41.757  24.744  27.657  1.00  0.00     0.173 A 
ATOM     66  F   UNL A   1      43.638  27.721  26.746  1.00  0.00    -0.203 F 
ATOM     67  C   UNL A   1      43.538  25.609  25.712  1.00  0.00     0.198 A 
ATOM     68  C   UNL A   1      42.169  23.875  26.650  1.00  0.00     0.198 A 
ATOM     69  F   UNL A   1      40.893  24.295  28.581  1.00  0.00    -0.203 F 
ATOM     70  F   UNL A   1      44.374  26.040  24.756  1.00  0.00    -0.200 F 
ATOM     71  C   UNL A   1      43.054  24.311  25.674  1.00  0.00     0.200 A 
ATOM     72  F   UNL A   1      41.711  22.616  26.622  1.00  0.00    -0.200 F 
ATOM     73  F   UNL A   1      43.435  23.480  24.695  1.00  0.00    -0.200 F 
ENDBRANCH  49  63
BRANCH  50  74
ATOM     74  C   UNL A   1      39.142  32.049  35.070  1.00  0.00     0.064 A 
ATOM     75  C   UNL A   1      39.403  33.426  35.080  1.00  0.00     0.173 A 
ATOM     76  C   UNL A   1      38.438  31.510  36.158  1.00  0.00     0.173 A 
ATOM     77  F   UNL A   1      40.093  33.984  34.075  1.00  0.00    -0.203 F 
ATOM     78  C   UNL A   1      38.999  34.228  36.146  1.00  0.00     0.198 A 
ATOM     79  C   UNL A   1      38.009  32.318  37.208  1.00  0.00     0.198 A 
ATOM     80  F   UNL A   1      38.160  30.198  36.194  1.00  0.00    -0.203 F 
ATOM     81  F   UNL A   1      39.308  35.532  36.155  1.00  0.00    -0.200 F 
ATOM     82  C   UNL A   1      38.298  33.674  37.206  1.00  0.00     0.200 A 
ATOM     83  F   UNL A   1      37.320  31.781  38.225  1.00  0.00    -0.200 F 
ATOM     84  F   UNL A   1      37.910  34.445  38.231  1.00  0.00    -0.200 F 
ENDBRANCH  50  74
BRANCH  62  85
ATOM     85  C   UNL A   1      44.903  28.268  34.046  1.00  0.00     0.064 A 
ATOM     86  C   UNL A   1      46.007  29.125  33.925  1.00  0.00     0.173 A 
ATOM     87  C   UNL A   1      44.975  27.231  34.988  1.00  0.00     0.173 A 
ATOM     88  F   UNL A   1      45.994  30.123  33.028  1.00  0.00    -0.203 F 
ATOM     89  C   UNL A   1      47.148  28.935  34.701  1.00  0.00     0.198 A 
ATOM     90  C   UNL A   1      46.106  27.062  35.783  1.00  0.00     0.198 A 
ATOM     91  F   UNL A   1      43.944  26.389  35.146  1.00  0.00    -0.203 F 
ATOM     92  F   UNL A   1      48.209  29.737  34.537  1.00  0.00    -0.200 F 
ATOM     93  C   UNL A   1      47.193  27.909  35.634  1.00  0.00     0.200 A 
ATOM     94  F   UNL A   1      46.142  26.079  36.692  1.00  0.00    -0.200 F 
ATOM     95  F   UNL A   1      48.289  27.732  36.385  1.00  0.00    -0.200 F 
ENDBRANCH  62  85
ENDBRANCH  36  37
ENDBRANCH  28  31
ENDBRANCH  26  27
ENDBRANCH  25  26
ENDBRANCH   1  25
TORSDOF 14
ENDMDL
MODEL 3
REMARK VINA RESULT:     -12.1      5.565     10.960
REMARK SMILES O=C(NCCCCCCNC(=O)c1ccc(-c2c3nc(c(-c4c(F)c(F)c(F)c(F)c4F)c4ccc([nH]4)c(-c4c(F)c(F)c(F)c(F)c4F)c4nc(c(-c5c(F)c(F)c(F)c(F)c5F)c5ccc2[nH]5)C=C4)C=C3)cc1)C1=Cc2c(Cl)cc(Cl)cc2O[C@@H]1C(F)(F)F
REMARK SMILES IDX 7 1 6 2 5 3 4 4 3 5 1 6 2 7 76 9 77 10 87 11 78 12 86 13
REMARK SMILES IDX 79 14 85 15 80 16 81 17 84 18 82 19 83 20 88 21 89 22 90 23
REMARK SMILES IDX 91 24 8 25 9 26 10 27 11 28 12 30 13 31 14 32 75 33 15 34
REMARK SMILES IDX 74 35 16 36 17 37 18 38 68 39 19 40 73 41 67 42 69 43 20 44
REMARK SMILES IDX 72 45 66 46 65 47 21 49 53 50 33 51 52 52 34 53 37 54 51 55
REMARK SMILES IDX 70 56 35 57 36 58 50 60 71 61 38 62 22 63 23 64 31 65 24 66
REMARK SMILES IDX 25 67 29 68 32 69 26 70 27 71 30 72 28 73 54 74 55 75 63 76
REMARK SMILES IDX 56 77 57 78 61 79 64 80 58 81 59 82 62 83 60 84 39 85 40 86
REMARK SMILES IDX 48 87 41 88 42 89 46 90 49 91 43 92 44 93 47 94 45 95
REMARK H PARENT 3 8 10 29 69 48 37 59
REMARK Flexibility Score: inf
ROOT
ATOM      1  C   UNL A   1      31.377  30.833  25.964  1.00  0.00     0.002 C 
ENDROOT
BRANCH   1   2
ATOM      2  C   UNL A   1      32.387  29.892  26.633  1.00  0.00     0.002 C 
BRANCH   2   3
ATOM      3  C   UNL A   1      31.846  28.582  27.201  1.00  0.00     0.021 C 
BRANCH   3   4
ATOM      4  C   UNL A   1      31.868  27.372  26.273  1.00  0.00     0.116 C 
BRANCH   4   5
ATOM      5  N   UNL A   1      31.444  26.119  26.871  1.00  0.00    -0.352 N 
ATOM      6  O   UNL A   1      31.405  23.903  27.239  1.00  0.00    -0.270 OA
ATOM      7  C   UNL A   1      31.739  24.834  26.507  1.00  0.00     0.251 C 
ATOM      8  H   UNL A   1      30.856  26.208  27.656  1.00  0.00     0.163 HD
BRANCH   7   9
ATOM      9  C   UNL A   1      32.545  24.518  25.291  1.00  0.00     0.067 C 
ATOM     10  C   UNL A   1      33.697  23.832  25.371  1.00  0.00     0.027 C 
ATOM     11  C   UNL A   1      31.712  24.419  24.037  1.00  0.00     0.314 C 
ATOM     12  C   UNL A   1      33.594  22.465  24.790  1.00  0.00     0.036 A 
ATOM     13  O   UNL A   1      31.495  23.033  23.655  1.00  0.00    -0.475 OA
ATOM     14  C   UNL A   1      34.479  21.446  25.186  1.00  0.00     0.053 A 
ATOM     15  C   UNL A   1      32.447  22.125  24.052  1.00  0.00     0.130 A 
ATOM     16  Cl  UNL A   1      35.891  21.780  26.129  1.00  0.00    -0.083 Cl
ATOM     17  C   UNL A   1      34.176  20.109  24.927  1.00  0.00     0.042 A 
ATOM     18  C   UNL A   1      32.154  20.790  23.780  1.00  0.00     0.067 A 
ATOM     19  C   UNL A   1      33.002  19.789  24.248  1.00  0.00     0.046 A 
ATOM     20  Cl  UNL A   1      32.563  18.138  24.049  1.00  0.00    -0.084 Cl
BRANCH  11  21
ATOM     21  C   UNL A   1      32.310  25.232  22.876  1.00  0.00     0.429 C 
ATOM     22  F   UNL A   1      31.338  25.741  22.081  1.00  0.00    -0.167 F 
ATOM     23  F   UNL A   1      33.046  26.277  23.320  1.00  0.00    -0.167 F 
ATOM     24  F   UNL A   1      33.117  24.481  22.089  1.00  0.00    -0.167 F 
ENDBRANCH  11  21
ENDBRANCH   7   9
ENDBRANCH   4   5
ENDBRANCH   3   4
ENDBRANCH   2   3
ENDBRANCH   1   2
BRANCH   1  25
ATOM     25  C   UNL A   1      31.276  32.262  26.507  1.00  0.00     0.021 C 
BRANCH  25  26
ATOM     26  C   UNL A   1      32.548  32.863  27.101  1.00  0.00     0.116 C 
BRANCH  26  27
ATOM     27  N   UNL A   1      32.358  34.200  27.633  1.00  0.00    -0.352 N 
ATOM     28  C   UNL A   1      33.021  34.869  28.632  1.00  0.00     0.251 C 
ATOM     29  H   UNL A   1      31.634  34.713  27.205  1.00  0.00     0.163 HD
ATOM     30  O   UNL A   1      32.612  35.969  28.993  1.00  0.00    -0.269 OA
BRANCH  28  31
ATOM     31  C   UNL A   1      34.208  34.284  29.305  1.00  0.00     0.039 A 
ATOM     32  C   UNL A   1      34.001  33.509  30.452  1.00  0.00     0.014 A 
ATOM     33  C   UNL A   1      35.512  34.532  28.868  1.00  0.00     0.014 A 
ATOM     34  C   UNL A   1      35.088  32.943  31.126  1.00  0.00     0.010 A 
ATOM     35  C   UNL A   1      36.593  33.915  29.504  1.00  0.00     0.010 A 
ATOM     36  C   UNL A   1      36.395  33.119  30.642  1.00  0.00    -0.014 A 
BRANCH  36  37
ATOM     37  C   UNL A   1      37.554  32.481  31.322  1.00  0.00     0.031 A 
ATOM     38  C   UNL A   1      38.296  31.349  30.664  1.00  0.00     0.074 A 
ATOM     39  C   UNL A   1      37.915  32.890  32.554  1.00  0.00     0.049 A 
ATOM     40  N   UNL A   1      39.290  30.630  31.124  1.00  0.00    -0.248 NA
ATOM     41  C   UNL A   1      37.850  30.959  29.318  1.00  0.00     0.031 C 
ATOM     42  C   UNL A   1      37.257  33.951  33.318  1.00  0.00     0.029 A 
ATOM     43  N   UNL A   1      38.918  32.456  33.386  1.00  0.00    -0.354 N 
ATOM     44  C   UNL A   1      39.579  29.701  30.132  1.00  0.00     0.074 A 
ATOM     45  C   UNL A   1      38.625  29.914  29.065  1.00  0.00     0.031 C 
ATOM     46  C   UNL A   1      37.881  34.095  34.498  1.00  0.00     0.029 A 
ATOM     47  C   UNL A   1      38.959  33.115  34.591  1.00  0.00     0.049 A 
ATOM     48  H   UNL A   1      39.548  31.740  33.142  1.00  0.00     0.167 HD
ATOM     49  C   UNL A   1      40.565  28.772  30.102  1.00  0.00     0.037 A 
ATOM     50  C   UNL A   1      39.766  32.942  35.655  1.00  0.00     0.037 A 
ATOM     51  C   UNL A   1      41.528  28.573  31.154  1.00  0.00     0.049 A 
ATOM     52  C   UNL A   1      40.848  31.895  35.599  1.00  0.00     0.074 A 
ATOM     53  C   UNL A   1      42.590  27.685  31.195  1.00  0.00     0.029 A 
ATOM     54  N   UNL A   1      41.548  29.274  32.350  1.00  0.00    -0.354 N 
ATOM     55  N   UNL A   1      41.144  31.062  34.632  1.00  0.00    -0.248 NA
ATOM     56  C   UNL A   1      41.711  31.771  36.782  1.00  0.00     0.031 C 
ATOM     57  C   UNL A   1      43.227  27.820  32.433  1.00  0.00     0.029 A 
ATOM     58  C   UNL A   1      42.594  28.827  33.143  1.00  0.00     0.049 A 
ATOM     59  H   UNL A   1      40.914  29.985  32.599  1.00  0.00     0.167 HD
ATOM     60  C   UNL A   1      42.242  30.336  35.077  1.00  0.00     0.074 A 
ATOM     61  C   UNL A   1      42.569  30.838  36.394  1.00  0.00     0.031 C 
ATOM     62  C   UNL A   1      42.915  29.342  34.449  1.00  0.00     0.037 A 
BRANCH  49  63
ATOM     63  C   UNL A   1      40.659  27.897  28.886  1.00  0.00     0.064 A 
ATOM     64  C   UNL A   1      39.891  26.729  28.762  1.00  0.00     0.173 A 
ATOM     65  C   UNL A   1      41.487  28.254  27.811  1.00  0.00     0.173 A 
ATOM     66  F   UNL A   1      39.091  26.338  29.765  1.00  0.00    -0.203 F 
ATOM     67  C   UNL A   1      39.966  25.940  27.617  1.00  0.00     0.198 A 
ATOM     68  C   UNL A   1      41.538  27.479  26.656  1.00  0.00     0.198 A 
ATOM     69  F   UNL A   1      42.237  29.365  27.875  1.00  0.00    -0.203 F 
ATOM     70  F   UNL A   1      39.254  24.807  27.539  1.00  0.00    -0.200 F 
ATOM     71  C   UNL A   1      40.782  26.319  26.562  1.00  0.00     0.200 A 
ATOM     72  F   UNL A   1      42.317  27.854  25.631  1.00  0.00    -0.200 F 
ATOM     73  F   UNL A   1      40.846  25.564  25.457  1.00  0.00    -0.200 F 
ENDBRANCH  49  63
BRANCH  50  74
ATOM     74  C   UNL A   1      39.593  33.788  36.865  1.00  0.00     0.064 A 
ATOM     75  C   UNL A   1      38.804  33.359  37.940  1.00  0.00     0.173 A 
ATOM     76  C   UNL A   1      40.200  35.049  36.964  1.00  0.00     0.173 A 
ATOM     77  F   UNL A   1      38.183  32.171  37.882  1.00  0.00    -0.203 F 
ATOM     78  C   UNL A   1      38.608  34.167  39.058  1.00  0.00     0.198 A 
ATOM     79  C   UNL A   1      40.028  35.843  38.095  1.00  0.00     0.198 A 
ATOM     80  F   UNL A   1      40.969  35.505  35.963  1.00  0.00    -0.203 F 
ATOM     81  F   UNL A   1      37.805  33.754  40.048  1.00  0.00    -0.200 F 
ATOM     82  C   UNL A   1      39.224  35.406  39.137  1.00  0.00     0.200 A 
ATOM     83  F   UNL A   1      40.637  37.035  38.173  1.00  0.00    -0.200 F 
ATOM     84  F   UNL A   1      39.036  36.184  40.212  1.00  0.00    -0.200 F 
ENDBRANCH  50  74
BRANCH  62  85
ATOM     85  C   UNL A   1      44.098  28.754  35.162  1.00  0.00     0.064 A 
ATOM     86  C   UNL A   1      43.960  27.680  36.054  1.00  0.00     0.173 A 
ATOM     87  C   UNL A   1      45.390  29.246  34.920  1.00  0.00     0.173 A 
ATOM     88  F   UNL A   1      42.745  27.183  36.330  1.00  0.00    -0.203 F 
ATOM     89  C   UNL A   1      45.070  27.137  36.696  1.00  0.00     0.198 A 
ATOM     90  C   UNL A   1      46.500  28.681  35.542  1.00  0.00     0.198 A 
ATOM     91  F   UNL A   1      45.576  30.267  34.071  1.00  0.00    -0.203 F 
ATOM     92  F   UNL A   1      44.910  26.141  37.580  1.00  0.00    -0.200 F 
ATOM     93  C   UNL A   1      46.339  27.633  36.434  1.00  0.00     0.200 A 
ATOM     94  F   UNL A   1      47.726  29.153  35.278  1.00  0.00    -0.200 F 
ATOM     95  F   UNL A   1      47.406  27.104  37.048  1.00  0.00    -0.200 F 
ENDBRANCH  62  85
ENDBRANCH  36  37
ENDBRANCH  28  31
ENDBRANCH  26  27
ENDBRANCH  25  26
ENDBRANCH   1  25
TORSDOF 14
ENDMDL
