MODEL 1
REMARK VINA RESULT:     -12.7      0.000      0.000
REMARK SMILES C[C@]1(Cn2c(=O)[nH]c3cc(C(=O)NCCCCCCNC(=O)c4ccc(-c5c6nc(c(-c7c(F)c(F)c(F)c(F)c7F)c7ccc([nH]7)c(-c7c(F)c(F)c(F)c(F)c7F)c7nc(c(-c8c(F)c(F)c(F)c(F)c8F)c8ccc5[nH]8)C=C7)C=C6)cc4)ccc32)CCCO1
REMARK SMILES IDX 16 1 15 2 14 3 13 4 11 5 12 6 10 8 4 9 5 10 88 11 6 12 7 13
REMARK SMILES IDX 8 14 87 15 9 17 86 18 3 19 2 20 1 21 89 22 92 23 90 24 91 25
REMARK SMILES IDX 17 26 18 27 19 28 20 29 21 30 22 32 23 33 24 34 85 35 25 36
REMARK SMILES IDX 84 37 26 38 27 39 28 40 78 41 29 42 83 43 77 44 79 45 30 46
REMARK SMILES IDX 82 47 76 48 75 49 31 51 63 52 43 53 62 54 44 55 47 56 61 57
REMARK SMILES IDX 80 58 45 59 46 60 60 62 81 63 48 64 32 65 33 66 41 67 34 68
REMARK SMILES IDX 35 69 39 70 42 71 36 72 37 73 40 74 38 75 64 76 65 77 73 78
REMARK SMILES IDX 66 79 67 80 71 81 74 82 68 83 69 84 72 85 70 86 49 87 50 88
REMARK SMILES IDX 58 89 51 90 52 91 56 92 59 93 53 94 54 95 57 96 55 97
REMARK H PARENT 13 7 7 16 20 31 79 50 47 61
REMARK Flexibility Score: inf
ROOT
ATOM      1  C   UNL A   1      40.775  21.212  27.479  1.00  0.00     0.002 C 
ENDROOT
BRANCH   1   2
ATOM      2  C   UNL A   1      40.376  21.841  26.138  1.00  0.00     0.021 C 
BRANCH   2   3
ATOM      3  C   UNL A   1      38.886  22.182  26.046  1.00  0.00     0.116 C 
BRANCH   3   4
ATOM      4  N   UNL A   1      38.136  21.044  25.546  1.00  0.00    -0.352 N 
ATOM      5  C   UNL A   1      36.817  20.862  25.217  1.00  0.00     0.251 C 
ATOM      6  O   UNL A   1      36.488  19.762  24.775  1.00  0.00    -0.269 OA
ATOM      7  H   UNL A   1      38.686  20.237  25.417  1.00  0.00     0.163 HD
BRANCH   5   8
ATOM      8  C   UNL A   1      35.784  21.934  25.308  1.00  0.00     0.042 A 
ATOM      9  N   UNL A   1      32.501  24.453  25.675  1.00  0.00    -0.289 N 
ATOM     10  C   UNL A   1      31.838  23.820  26.748  1.00  0.00     0.326 A 
ATOM     11  C   UNL A   1      33.703  23.773  25.440  1.00  0.00     0.069 A 
ATOM     12  O   UNL A   1      30.776  24.141  27.270  1.00  0.00    -0.248 OA
ATOM     13  N   UNL A   1      32.626  22.721  27.116  1.00  0.00    -0.306 N 
ATOM     14  C   UNL A   1      33.747  22.675  26.295  1.00  0.00     0.067 A 
ATOM     15  C   UNL A   1      34.742  24.037  24.579  1.00  0.00     0.029 A 
ATOM     16  H   UNL A   1      32.420  22.085  27.838  1.00  0.00     0.171 HD
ATOM     17  C   UNL A   1      34.758  21.741  26.252  1.00  0.00     0.042 A 
ATOM     18  C   UNL A   1      35.798  23.116  24.534  1.00  0.00     0.016 A 
BRANCH   9  19
ATOM     19  C   UNL A   1      31.996  25.595  24.944  1.00  0.00     0.162 C 
BRANCH  19  20
ATOM     20  C   UNL A   1      32.313  26.988  25.552  1.00  0.00     0.083 C 
ATOM     21  C   UNL A   1      31.276  27.417  26.601  1.00  0.00     0.044 C 
ATOM     22  C   UNL A   1      33.739  27.119  26.082  1.00  0.00     0.039 C 
ATOM     23  O   UNL A   1      32.233  27.976  24.494  1.00  0.00    -0.373 OA
ATOM     24  C   UNL A   1      33.994  28.605  25.979  1.00  0.00     0.031 C 
ATOM     25  C   UNL A   1      33.230  28.987  24.726  1.00  0.00     0.161 C 
ENDBRANCH  19  20
ENDBRANCH   9  19
ENDBRANCH   5   8
ENDBRANCH   3   4
ENDBRANCH   2   3
ENDBRANCH   1   2
BRANCH   1  26
ATOM     26  C   UNL A   1      41.988  20.276  27.417  1.00  0.00     0.002 C 
BRANCH  26  27
ATOM     27  C   UNL A   1      42.129  19.466  26.122  1.00  0.00     0.021 C 
BRANCH  27  28
ATOM     28  C   UNL A   1      43.436  18.678  26.013  1.00  0.00     0.116 C 
BRANCH  28  29
ATOM     29  N   UNL A   1      44.266  19.102  24.904  1.00  0.00    -0.352 N 
ATOM     30  C   UNL A   1      44.837  20.278  24.510  1.00  0.00     0.251 C 
ATOM     31  H   UNL A   1      44.469  18.363  24.286  1.00  0.00     0.163 HD
ATOM     32  O   UNL A   1      45.545  20.223  23.502  1.00  0.00    -0.269 OA
BRANCH  30  33
ATOM     33  C   UNL A   1      44.631  21.604  25.158  1.00  0.00     0.039 A 
ATOM     34  C   UNL A   1      45.207  22.024  26.355  1.00  0.00     0.014 A 
ATOM     35  C   UNL A   1      43.735  22.477  24.506  1.00  0.00     0.014 A 
ATOM     36  C   UNL A   1      44.826  23.234  26.929  1.00  0.00     0.010 A 
ATOM     37  C   UNL A   1      43.368  23.698  25.064  1.00  0.00     0.010 A 
ATOM     38  C   UNL A   1      43.881  24.057  26.301  1.00  0.00    -0.014 A 
BRANCH  38  39
ATOM     39  C   UNL A   1      43.563  25.328  26.950  1.00  0.00     0.031 A 
ATOM     40  C   UNL A   1      44.532  26.415  26.654  1.00  0.00     0.074 A 
ATOM     41  C   UNL A   1      42.478  25.561  27.720  1.00  0.00     0.049 A 
ATOM     42  N   UNL A   1      45.359  26.973  27.476  1.00  0.00    -0.248 NA
ATOM     43  C   UNL A   1      44.685  26.857  25.259  1.00  0.00     0.031 C 
ATOM     44  C   UNL A   1      41.288  24.721  27.865  1.00  0.00     0.029 A 
ATOM     45  N   UNL A   1      42.179  26.654  28.490  1.00  0.00    -0.354 N 
ATOM     46  C   UNL A   1      46.001  27.973  26.753  1.00  0.00     0.074 A 
ATOM     47  C   UNL A   1      45.657  27.766  25.371  1.00  0.00     0.031 C 
ATOM     48  C   UNL A   1      40.312  25.427  28.482  1.00  0.00     0.029 A 
ATOM     49  C   UNL A   1      40.861  26.697  28.927  1.00  0.00     0.049 A 
ATOM     50  H   UNL A   1      42.840  27.348  28.715  1.00  0.00     0.167 HD
ATOM     51  C   UNL A   1      46.547  29.043  27.392  1.00  0.00     0.037 A 
ATOM     52  C   UNL A   1      40.255  27.712  29.591  1.00  0.00     0.037 A 
ATOM     53  C   UNL A   1      46.692  28.798  28.802  1.00  0.00     0.049 A 
ATOM     54  C   UNL A   1      41.298  28.495  30.289  1.00  0.00     0.074 A 
ATOM     55  C   UNL A   1      47.610  28.213  29.644  1.00  0.00     0.029 A 
ATOM     56  N   UNL A   1      45.526  28.924  29.501  1.00  0.00    -0.354 N 
ATOM     57  N   UNL A   1      42.006  28.036  31.283  1.00  0.00    -0.248 NA
ATOM     58  C   UNL A   1      41.771  29.747  29.704  1.00  0.00     0.031 C 
ATOM     59  C   UNL A   1      46.917  27.904  30.854  1.00  0.00     0.029 A 
ATOM     60  C   UNL A   1      45.600  28.332  30.732  1.00  0.00     0.049 A 
ATOM     61  H   UNL A   1      44.727  29.388  29.161  1.00  0.00     0.167 HD
ATOM     62  C   UNL A   1      43.210  28.694  31.165  1.00  0.00     0.074 A 
ATOM     63  C   UNL A   1      42.952  29.849  30.318  1.00  0.00     0.031 C 
ATOM     64  C   UNL A   1      44.381  28.063  31.454  1.00  0.00     0.037 A 
BRANCH  51  65
ATOM     65  C   UNL A   1      46.510  30.459  26.863  1.00  0.00     0.064 A 
ATOM     66  C   UNL A   1      47.686  31.238  26.875  1.00  0.00     0.173 A 
ATOM     67  C   UNL A   1      45.311  31.173  26.650  1.00  0.00     0.173 A 
ATOM     68  F   UNL A   1      48.879  30.671  27.112  1.00  0.00    -0.203 F 
ATOM     69  C   UNL A   1      47.654  32.628  26.722  1.00  0.00     0.198 A 
ATOM     70  C   UNL A   1      45.288  32.553  26.447  1.00  0.00     0.198 A 
ATOM     71  F   UNL A   1      44.112  30.586  26.747  1.00  0.00    -0.203 F 
ATOM     72  F   UNL A   1      48.783  33.339  26.844  1.00  0.00    -0.200 F 
ATOM     73  C   UNL A   1      46.455  33.284  26.507  1.00  0.00     0.200 A 
ATOM     74  F   UNL A   1      44.113  33.173  26.274  1.00  0.00    -0.200 F 
ATOM     75  F   UNL A   1      46.416  34.619  26.406  1.00  0.00    -0.200 F 
ENDBRANCH  51  65
BRANCH  52  76
ATOM     76  C   UNL A   1      38.872  28.229  29.457  1.00  0.00     0.064 A 
ATOM     77  C   UNL A   1      38.080  28.461  30.597  1.00  0.00     0.173 A 
ATOM     78  C   UNL A   1      38.435  28.821  28.258  1.00  0.00     0.173 A 
ATOM     79  F   UNL A   1      38.440  27.952  31.784  1.00  0.00    -0.203 F 
ATOM     80  C   UNL A   1      36.961  29.297  30.554  1.00  0.00     0.198 A 
ATOM     81  C   UNL A   1      37.314  29.651  28.215  1.00  0.00     0.198 A 
ATOM     82  F   UNL A   1      39.152  28.696  27.131  1.00  0.00    -0.203 F 
ATOM     83  F   UNL A   1      36.287  29.569  31.680  1.00  0.00    -0.200 F 
ATOM     84  C   UNL A   1      36.592  29.908  29.368  1.00  0.00     0.200 A 
ATOM     85  F   UNL A   1      36.983  30.262  27.070  1.00  0.00    -0.200 F 
ATOM     86  F   UNL A   1      35.573  30.778  29.343  1.00  0.00    -0.200 F 
ENDBRANCH  52  76
BRANCH  64  87
ATOM     87  C   UNL A   1      44.342  26.933  32.427  1.00  0.00     0.064 A 
ATOM     88  C   UNL A   1      44.272  25.577  32.072  1.00  0.00     0.173 A 
ATOM     89  C   UNL A   1      44.435  27.247  33.790  1.00  0.00     0.173 A 
ATOM     90  F   UNL A   1      44.246  25.202  30.786  1.00  0.00    -0.203 F 
ATOM     91  C   UNL A   1      44.269  24.582  33.048  1.00  0.00     0.198 A 
ATOM     92  C   UNL A   1      44.465  26.251  34.759  1.00  0.00     0.198 A 
ATOM     93  F   UNL A   1      44.533  28.528  34.179  1.00  0.00    -0.203 F 
ATOM     94  F   UNL A   1      44.190  23.290  32.693  1.00  0.00    -0.200 F 
ATOM     95  C   UNL A   1      44.373  24.920  34.390  1.00  0.00     0.200 A 
ATOM     96  F   UNL A   1      44.603  26.583  36.050  1.00  0.00    -0.200 F 
ATOM     97  F   UNL A   1      44.407  23.961  35.325  1.00  0.00    -0.200 F 
ENDBRANCH  64  87
ENDBRANCH  38  39
ENDBRANCH  30  33
ENDBRANCH  28  29
ENDBRANCH  27  28
ENDBRANCH  26  27
ENDBRANCH   1  26
TORSDOF 15
ENDMDL
MODEL 2
REMARK VINA RESULT:     -12.6      2.936      8.912
REMARK SMILES C[C@]1(Cn2c(=O)[nH]c3cc(C(=O)NCCCCCCNC(=O)c4ccc(-c5c6nc(c(-c7c(F)c(F)c(F)c(F)c7F)c7ccc([nH]7)c(-c7c(F)c(F)c(F)c(F)c7F)c7nc(c(-c8c(F)c(F)c(F)c(F)c8F)c8ccc5[nH]8)C=C7)C=C6)cc4)ccc32)CCCO1
REMARK SMILES IDX 16 1 15 2 14 3 13 4 11 5 12 6 10 8 4 9 5 10 88 11 6 12 7 13
REMARK SMILES IDX 8 14 87 15 9 17 86 18 3 19 2 20 1 21 89 22 92 23 90 24 91 25
REMARK SMILES IDX 17 26 18 27 19 28 20 29 21 30 22 32 23 33 24 34 85 35 25 36
REMARK SMILES IDX 84 37 26 38 27 39 28 40 78 41 29 42 83 43 77 44 79 45 30 46
REMARK SMILES IDX 82 47 76 48 75 49 31 51 63 52 43 53 62 54 44 55 47 56 61 57
REMARK SMILES IDX 80 58 45 59 46 60 60 62 81 63 48 64 32 65 33 66 41 67 34 68
REMARK SMILES IDX 35 69 39 70 42 71 36 72 37 73 40 74 38 75 64 76 65 77 73 78
REMARK SMILES IDX 66 79 67 80 71 81 74 82 68 83 69 84 72 85 70 86 49 87 50 88
REMARK SMILES IDX 58 89 51 90 52 91 56 92 59 93 53 94 54 95 57 96 55 97
REMARK H PARENT 13 7 7 16 20 31 79 50 47 61
REMARK Flexibility Score: inf
ROOT
ATOM      1  C   UNL A   1      33.986  28.352  25.672  1.00  0.00     0.002 C 
ENDROOT
BRANCH   1   2
ATOM      2  C   UNL A   1      33.078  29.238  24.809  1.00  0.00     0.021 C 
BRANCH   2   3
ATOM      3  C   UNL A   1      33.225  28.978  23.307  1.00  0.00     0.116 C 
BRANCH   3   4
ATOM      4  N   UNL A   1      31.931  29.045  22.652  1.00  0.00    -0.352 N 
ATOM      5  C   UNL A   1      30.889  28.160  22.542  1.00  0.00     0.251 C 
ATOM      6  O   UNL A   1      29.885  28.536  21.936  1.00  0.00    -0.269 OA
ATOM      7  H   UNL A   1      31.767  29.901  22.194  1.00  0.00     0.163 HD
BRANCH   5   8
ATOM      8  C   UNL A   1      30.885  26.803  23.161  1.00  0.00     0.042 A 
ATOM      9  N   UNL A   1      30.943  23.326  25.434  1.00  0.00    -0.289 N 
ATOM     10  C   UNL A   1      30.185  23.758  26.542  1.00  0.00     0.326 A 
ATOM     11  C   UNL A   1      30.979  24.366  24.495  1.00  0.00     0.069 A 
ATOM     12  O   UNL A   1      29.899  23.122  27.552  1.00  0.00    -0.248 OA
ATOM     13  N   UNL A   1      29.816  25.085  26.286  1.00  0.00    -0.306 N 
ATOM     14  C   UNL A   1      30.329  25.465  25.051  1.00  0.00     0.067 A 
ATOM     15  C   UNL A   1      31.500  24.425  23.225  1.00  0.00     0.029 A 
ATOM     16  H   UNL A   1      29.280  25.656  26.883  1.00  0.00     0.171 HD
ATOM     17  C   UNL A   1      30.270  26.688  24.422  1.00  0.00     0.042 A 
ATOM     18  C   UNL A   1      31.429  25.652  22.550  1.00  0.00     0.016 A 
BRANCH   9  19
ATOM     19  C   UNL A   1      31.581  22.033  25.316  1.00  0.00     0.162 C 
BRANCH  19  20
ATOM     20  C   UNL A   1      33.118  22.010  25.533  1.00  0.00     0.083 C 
ATOM     21  C   UNL A   1      33.533  21.084  26.686  1.00  0.00     0.044 C 
ATOM     22  C   UNL A   1      33.916  21.722  24.263  1.00  0.00     0.039 C 
ATOM     23  O   UNL A   1      33.543  23.340  25.926  1.00  0.00    -0.373 OA
ATOM     24  C   UNL A   1      35.244  22.385  24.549  1.00  0.00     0.031 C 
ATOM     25  C   UNL A   1      34.840  23.600  25.360  1.00  0.00     0.161 C 
ENDBRANCH  19  20
ENDBRANCH   9  19
ENDBRANCH   5   8
ENDBRANCH   3   4
ENDBRANCH   2   3
ENDBRANCH   1   2
BRANCH   1  26
ATOM     26  C   UNL A   1      34.537  29.028  26.933  1.00  0.00     0.002 C 
BRANCH  26  27
ATOM     27  C   UNL A   1      33.698  30.194  27.474  1.00  0.00     0.021 C 
BRANCH  27  28
ATOM     28  C   UNL A   1      34.470  31.506  27.623  1.00  0.00     0.116 C 
BRANCH  28  29
ATOM     29  N   UNL A   1      34.444  32.032  28.973  1.00  0.00    -0.352 N 
ATOM     30  C   UNL A   1      35.289  32.001  30.045  1.00  0.00     0.251 C 
ATOM     31  H   UNL A   1      33.619  32.535  29.162  1.00  0.00     0.163 HD
ATOM     32  O   UNL A   1      34.925  32.637  31.038  1.00  0.00    -0.269 OA
BRANCH  30  33
ATOM     33  C   UNL A   1      36.562  31.232  30.127  1.00  0.00     0.039 A 
ATOM     34  C   UNL A   1      37.845  31.764  30.005  1.00  0.00     0.014 A 
ATOM     35  C   UNL A   1      36.431  29.838  30.297  1.00  0.00     0.014 A 
ATOM     36  C   UNL A   1      38.951  30.919  29.959  1.00  0.00     0.010 A 
ATOM     37  C   UNL A   1      37.535  28.991  30.275  1.00  0.00     0.010 A 
ATOM     38  C   UNL A   1      38.795  29.530  30.060  1.00  0.00    -0.014 A 
BRANCH  38  39
ATOM     39  C   UNL A   1      40.010  28.716  30.041  1.00  0.00     0.031 A 
ATOM     40  C   UNL A   1      40.653  28.560  31.372  1.00  0.00     0.074 A 
ATOM     41  C   UNL A   1      40.520  28.102  28.952  1.00  0.00     0.049 A 
ATOM     42  N   UNL A   1      41.789  29.043  31.754  1.00  0.00    -0.248 NA
ATOM     43  C   UNL A   1      39.897  27.889  32.440  1.00  0.00     0.031 C 
ATOM     44  C   UNL A   1      39.871  27.896  27.656  1.00  0.00     0.029 A 
ATOM     45  N   UNL A   1      41.720  27.459  28.801  1.00  0.00    -0.354 N 
ATOM     46  C   UNL A   1      41.987  28.574  33.049  1.00  0.00     0.074 A 
ATOM     47  C   UNL A   1      40.740  27.993  33.471  1.00  0.00     0.031 C 
ATOM     48  C   UNL A   1      40.579  26.994  26.937  1.00  0.00     0.029 A 
ATOM     49  C   UNL A   1      41.813  26.694  27.644  1.00  0.00     0.049 A 
ATOM     50  H   UNL A   1      42.454  27.533  29.453  1.00  0.00     0.167 HD
ATOM     51  C   UNL A   1      43.245  28.471  33.559  1.00  0.00     0.037 A 
ATOM     52  C   UNL A   1      42.822  25.858  27.299  1.00  0.00     0.037 A 
ATOM     53  C   UNL A   1      44.193  29.221  32.780  1.00  0.00     0.049 A 
ATOM     54  C   UNL A   1      44.047  26.297  28.003  1.00  0.00     0.074 A 
ATOM     55  C   UNL A   1      44.657  30.515  32.712  1.00  0.00     0.029 A 
ATOM     56  N   UNL A   1      44.567  28.596  31.625  1.00  0.00    -0.354 N 
ATOM     57  N   UNL A   1      44.661  27.421  27.757  1.00  0.00    -0.248 NA
ATOM     58  C   UNL A   1      44.473  25.598  29.212  1.00  0.00     0.031 C 
ATOM     59  C   UNL A   1      45.245  30.671  31.419  1.00  0.00     0.029 A 
ATOM     60  C   UNL A   1      45.151  29.462  30.741  1.00  0.00     0.049 A 
ATOM     61  H   UNL A   1      44.434  27.636  31.449  1.00  0.00     0.167 HD
ATOM     62  C   UNL A   1      45.221  27.764  28.967  1.00  0.00     0.074 A 
ATOM     63  C   UNL A   1      45.239  26.544  29.759  1.00  0.00     0.031 C 
ATOM     64  C   UNL A   1      45.287  29.066  29.361  1.00  0.00     0.037 A 
BRANCH  51  65
ATOM     65  C   UNL A   1      43.710  27.341  34.449  1.00  0.00     0.064 A 
ATOM     66  C   UNL A   1      43.864  26.047  33.909  1.00  0.00     0.173 A 
ATOM     67  C   UNL A   1      43.698  27.413  35.858  1.00  0.00     0.173 A 
ATOM     68  F   UNL A   1      43.846  25.854  32.581  1.00  0.00    -0.203 F 
ATOM     69  C   UNL A   1      43.960  24.913  34.722  1.00  0.00     0.198 A 
ATOM     70  C   UNL A   1      43.846  26.286  36.667  1.00  0.00     0.198 A 
ATOM     71  F   UNL A   1      43.427  28.553  36.506  1.00  0.00    -0.203 F 
ATOM     72  F   UNL A   1      44.000  23.694  34.167  1.00  0.00    -0.200 F 
ATOM     73  C   UNL A   1      43.952  25.033  36.100  1.00  0.00     0.200 A 
ATOM     74  F   UNL A   1      43.802  26.421  37.999  1.00  0.00    -0.200 F 
ATOM     75  F   UNL A   1      43.998  23.946  36.881  1.00  0.00    -0.200 F 
ENDBRANCH  51  65
BRANCH  52  76
ATOM     76  C   UNL A   1      42.761  24.542  26.619  1.00  0.00     0.064 A 
ATOM     77  C   UNL A   1      43.384  24.349  25.373  1.00  0.00     0.173 A 
ATOM     78  C   UNL A   1      42.398  23.380  27.325  1.00  0.00     0.173 A 
ATOM     79  F   UNL A   1      43.783  25.404  24.647  1.00  0.00    -0.203 F 
ATOM     80  C   UNL A   1      43.693  23.072  24.897  1.00  0.00     0.198 A 
ATOM     81  C   UNL A   1      42.701  22.105  26.846  1.00  0.00     0.198 A 
ATOM     82  F   UNL A   1      41.843  23.465  28.543  1.00  0.00    -0.203 F 
ATOM     83  F   UNL A   1      44.371  22.932  23.749  1.00  0.00    -0.200 F 
ATOM     84  C   UNL A   1      43.370  21.952  25.644  1.00  0.00     0.200 A 
ATOM     85  F   UNL A   1      42.412  21.029  27.591  1.00  0.00    -0.200 F 
ATOM     86  F   UNL A   1      43.743  20.733  25.232  1.00  0.00    -0.200 F 
ENDBRANCH  52  76
BRANCH  64  87
ATOM     87  C   UNL A   1      45.320  30.114  28.300  1.00  0.00     0.064 A 
ATOM     88  C   UNL A   1      44.183  30.727  27.750  1.00  0.00     0.173 A 
ATOM     89  C   UNL A   1      46.576  30.553  27.860  1.00  0.00     0.173 A 
ATOM     90  F   UNL A   1      42.954  30.402  28.170  1.00  0.00    -0.203 F 
ATOM     91  C   UNL A   1      44.306  31.721  26.780  1.00  0.00     0.198 A 
ATOM     92  C   UNL A   1      46.696  31.567  26.917  1.00  0.00     0.198 A 
ATOM     93  F   UNL A   1      47.693  30.018  28.376  1.00  0.00    -0.203 F 
ATOM     94  F   UNL A   1      43.210  32.290  26.256  1.00  0.00    -0.200 F 
ATOM     95  C   UNL A   1      45.562  32.145  26.371  1.00  0.00     0.200 A 
ATOM     96  F   UNL A   1      47.912  31.998  26.554  1.00  0.00    -0.200 F 
ATOM     97  F   UNL A   1      45.681  33.126  25.465  1.00  0.00    -0.200 F 
ENDBRANCH  64  87
ENDBRANCH  38  39
ENDBRANCH  30  33
ENDBRANCH  28  29
ENDBRANCH  27  28
ENDBRANCH  26  27
ENDBRANCH   1  26
TORSDOF 15
ENDMDL
MODEL 3
REMARK VINA RESULT:     -12.2      3.703      9.876
REMARK SMILES C[C@]1(Cn2c(=O)[nH]c3cc(C(=O)NCCCCCCNC(=O)c4ccc(-c5c6nc(c(-c7c(F)c(F)c(F)c(F)c7F)c7ccc([nH]7)c(-c7c(F)c(F)c(F)c(F)c7F)c7nc(c(-c8c(F)c(F)c(F)c(F)c8F)c8ccc5[nH]8)C=C7)C=C6)cc4)ccc32)CCCO1
REMARK SMILES IDX 16 1 15 2 14 3 13 4 11 5 12 6 10 8 4 9 5 10 88 11 6 12 7 13
REMARK SMILES IDX 8 14 87 15 9 17 86 18 3 19 2 20 1 21 89 22 92 23 90 24 91 25
REMARK SMILES IDX 17 26 18 27 19 28 20 29 21 30 22 32 23 33 24 34 85 35 25 36
REMARK SMILES IDX 84 37 26 38 27 39 28 40 78 41 29 42 83 43 77 44 79 45 30 46
REMARK SMILES IDX 82 47 76 48 75 49 31 51 63 52 43 53 62 54 44 55 47 56 61 57
REMARK SMILES IDX 80 58 45 59 46 60 60 62 81 63 48 64 32 65 33 66 41 67 34 68
REMARK SMILES IDX 35 69 39 70 42 71 36 72 37 73 40 74 38 75 64 76 65 77 73 78
REMARK SMILES IDX 66 79 67 80 71 81 74 82 68 83 69 84 72 85 70 86 49 87 50 88
REMARK SMILES IDX 58 89 51 90 52 91 56 92 59 93 53 94 54 95 57 96 55 97
REMARK H PARENT 13 7 7 16 20 31 79 50 47 61
REMARK Flexibility Score: inf
ROOT
ATOM      1  C   UNL A   1      35.197  32.768  28.018  1.00  0.00     0.002 C 
ENDROOT
BRANCH   1   2
ATOM      2  C   UNL A   1      34.075  31.750  28.265  1.00  0.00     0.021 C 
BRANCH   2   3
ATOM      3  C   UNL A   1      34.083  30.585  27.271  1.00  0.00     0.116 C 
BRANCH   3   4
ATOM      4  N   UNL A   1      32.938  30.670  26.383  1.00  0.00    -0.352 N 
ATOM      5  C   UNL A   1      32.205  29.729  25.706  1.00  0.00     0.251 C 
ATOM      6  O   UNL A   1      31.245  30.124  25.044  1.00  0.00    -0.269 OA
ATOM      7  H   UNL A   1      32.624  31.591  26.235  1.00  0.00     0.163 HD
BRANCH   5   8
ATOM      8  C   UNL A   1      32.471  28.263  25.777  1.00  0.00     0.042 A 
ATOM      9  N   UNL A   1      32.839  24.186  26.484  1.00  0.00    -0.289 N 
ATOM     10  C   UNL A   1      31.514  23.894  26.869  1.00  0.00     0.326 A 
ATOM     11  C   UNL A   1      32.904  25.540  26.127  1.00  0.00     0.069 A 
ATOM     12  O   UNL A   1      31.052  22.811  27.216  1.00  0.00    -0.248 OA
ATOM     13  N   UNL A   1      30.799  25.097  26.796  1.00  0.00    -0.306 N 
ATOM     14  C   UNL A   1      31.657  26.106  26.374  1.00  0.00     0.067 A 
ATOM     15  C   UNL A   1      33.927  26.291  25.601  1.00  0.00     0.029 A 
ATOM     16  H   UNL A   1      29.844  25.209  27.008  1.00  0.00     0.171 HD
ATOM     17  C   UNL A   1      31.408  27.451  26.219  1.00  0.00     0.042 A 
ATOM     18  C   UNL A   1      33.694  27.660  25.407  1.00  0.00     0.016 A 
BRANCH   9  19
ATOM     19  C   UNL A   1      33.933  23.239  26.484  1.00  0.00     0.162 C 
BRANCH  19  20
ATOM     20  C   UNL A   1      34.033  22.313  25.242  1.00  0.00     0.083 C 
ATOM     21  C   UNL A   1      35.309  22.565  24.425  1.00  0.00     0.044 C 
ATOM     22  C   UNL A   1      33.852  20.831  25.562  1.00  0.00     0.039 C 
ATOM     23  O   UNL A   1      32.929  22.622  24.353  1.00  0.00    -0.373 OA
ATOM     24  C   UNL A   1      33.335  20.271  24.257  1.00  0.00     0.031 C 
ATOM     25  C   UNL A   1      32.487  21.407  23.721  1.00  0.00     0.161 C 
ENDBRANCH  19  20
ENDBRANCH   9  19
ENDBRANCH   5   8
ENDBRANCH   3   4
ENDBRANCH   2   3
ENDBRANCH   1   2
BRANCH   1  26
ATOM     26  C   UNL A   1      34.742  34.231  27.974  1.00  0.00     0.002 C 
BRANCH  26  27
ATOM     27  C   UNL A   1      33.353  34.508  28.565  1.00  0.00     0.021 C 
BRANCH  27  28
ATOM     28  C   UNL A   1      33.279  35.765  29.433  1.00  0.00     0.116 C 
BRANCH  28  29
ATOM     29  N   UNL A   1      32.900  35.490  30.804  1.00  0.00    -0.352 N 
ATOM     30  C   UNL A   1      33.466  34.827  31.855  1.00  0.00     0.251 C 
ATOM     31  H   UNL A   1      32.024  35.876  31.033  1.00  0.00     0.163 HD
ATOM     32  O   UNL A   1      32.836  34.861  32.916  1.00  0.00    -0.269 OA
BRANCH  30  33
ATOM     33  C   UNL A   1      34.728  34.038  31.807  1.00  0.00     0.039 A 
ATOM     34  C   UNL A   1      36.013  34.562  31.686  1.00  0.00     0.014 A 
ATOM     35  C   UNL A   1      34.580  32.635  31.844  1.00  0.00     0.014 A 
ATOM     36  C   UNL A   1      37.103  33.713  31.512  1.00  0.00     0.010 A 
ATOM     37  C   UNL A   1      35.669  31.781  31.693  1.00  0.00     0.010 A 
ATOM     38  C   UNL A   1      36.928  32.323  31.480  1.00  0.00    -0.014 A 
BRANCH  38  39
ATOM     39  C   UNL A   1      38.127  31.499  31.331  1.00  0.00     0.031 A 
ATOM     40  C   UNL A   1      38.827  31.215  32.610  1.00  0.00     0.074 A 
ATOM     41  C   UNL A   1      38.577  30.982  30.167  1.00  0.00     0.049 A 
ATOM     42  N   UNL A   1      39.987  31.647  32.981  1.00  0.00    -0.248 NA
ATOM     43  C   UNL A   1      38.110  30.458  33.648  1.00  0.00     0.031 C 
ATOM     44  C   UNL A   1      37.866  30.902  28.890  1.00  0.00     0.029 A 
ATOM     45  N   UNL A   1      39.759  30.341  29.903  1.00  0.00    -0.354 N 
ATOM     46  C   UNL A   1      40.236  31.059  34.218  1.00  0.00     0.074 A 
ATOM     47  C   UNL A   1      39.000  30.456  34.643  1.00  0.00     0.031 C 
ATOM     48  C   UNL A   1      38.526  30.062  28.060  1.00  0.00     0.029 A 
ATOM     49  C   UNL A   1      39.786  29.684  28.678  1.00  0.00     0.049 A 
ATOM     50  H   UNL A   1      40.522  30.345  30.524  1.00  0.00     0.167 HD
ATOM     51  C   UNL A   1      41.514  30.894  34.656  1.00  0.00     0.037 A 
ATOM     52  C   UNL A   1      40.765  28.871  28.211  1.00  0.00     0.037 A 
ATOM     53  C   UNL A   1      42.437  31.701  33.906  1.00  0.00     0.049 A 
ATOM     54  C   UNL A   1      42.028  29.229  28.895  1.00  0.00     0.074 A 
ATOM     55  C   UNL A   1      42.919  32.990  33.934  1.00  0.00     0.029 A 
ATOM     56  N   UNL A   1      42.749  31.180  32.682  1.00  0.00    -0.354 N 
ATOM     57  N   UNL A   1      42.648  30.363  28.724  1.00  0.00    -0.248 NA
ATOM     58  C   UNL A   1      42.497  28.417  30.014  1.00  0.00     0.031 C 
ATOM     59  C   UNL A   1      43.450  33.257  32.635  1.00  0.00     0.029 A 
ATOM     60  C   UNL A   1      43.306  32.117  31.854  1.00  0.00     0.049 A 
ATOM     61  H   UNL A   1      42.593  30.242  32.427  1.00  0.00     0.167 HD
ATOM     62  C   UNL A   1      43.268  30.588  29.932  1.00  0.00     0.074 A 
ATOM     63  C   UNL A   1      43.302  29.300  30.608  1.00  0.00     0.031 C 
ATOM     64  C   UNL A   1      43.373  31.847  30.440  1.00  0.00     0.037 A 
BRANCH  51  65
ATOM     65  C   UNL A   1      42.001  29.682  35.417  1.00  0.00     0.064 A 
ATOM     66  C   UNL A   1      42.924  29.846  36.471  1.00  0.00     0.173 A 
ATOM     67  C   UNL A   1      41.847  28.361  34.946  1.00  0.00     0.173 A 
ATOM     68  F   UNL A   1      43.183  31.065  36.969  1.00  0.00    -0.203 F 
ATOM     69  C   UNL A   1      43.660  28.772  36.984  1.00  0.00     0.198 A 
ATOM     70  C   UNL A   1      42.545  27.284  35.493  1.00  0.00     0.198 A 
ATOM     71  F   UNL A   1      41.109  28.077  33.866  1.00  0.00    -0.203 F 
ATOM     72  F   UNL A   1      44.601  28.990  37.913  1.00  0.00    -0.200 F 
ATOM     73  C   UNL A   1      43.469  27.492  36.495  1.00  0.00     0.200 A 
ATOM     74  F   UNL A   1      42.369  26.057  34.984  1.00  0.00    -0.200 F 
ATOM     75  F   UNL A   1      44.204  26.470  36.952  1.00  0.00    -0.200 F 
ENDBRANCH  51  65
BRANCH  52  76
ATOM     76  C   UNL A   1      40.652  27.623  27.418  1.00  0.00     0.064 A 
ATOM     77  C   UNL A   1      41.446  27.428  26.274  1.00  0.00     0.173 A 
ATOM     78  C   UNL A   1      40.030  26.481  27.955  1.00  0.00     0.173 A 
ATOM     79  F   UNL A   1      42.092  28.462  25.715  1.00  0.00    -0.203 F 
ATOM     80  C   UNL A   1      41.665  26.153  25.743  1.00  0.00     0.198 A 
ATOM     81  C   UNL A   1      40.245  25.210  27.419  1.00  0.00     0.198 A 
ATOM     82  F   UNL A   1      39.295  26.562  29.073  1.00  0.00    -0.203 F 
ATOM     83  F   UNL A   1      42.503  25.996  24.708  1.00  0.00    -0.200 F 
ATOM     84  C   UNL A   1      41.081  25.043  26.329  1.00  0.00     0.200 A 
ATOM     85  F   UNL A   1      39.701  24.138  28.013  1.00  0.00    -0.200 F 
ATOM     86  F   UNL A   1      41.360  23.814  25.876  1.00  0.00    -0.200 F 
ENDBRANCH  52  76
BRANCH  64  87
ATOM     87  C   UNL A   1      43.374  32.987  29.477  1.00  0.00     0.064 A 
ATOM     88  C   UNL A   1      42.293  33.857  29.271  1.00  0.00     0.173 A 
ATOM     89  C   UNL A   1      44.557  33.238  28.770  1.00  0.00     0.173 A 
ATOM     90  F   UNL A   1      41.153  33.716  29.962  1.00  0.00    -0.203 F 
ATOM     91  C   UNL A   1      42.390  34.918  28.372  1.00  0.00     0.198 A 
ATOM     92  C   UNL A   1      44.662  34.315  27.898  1.00  0.00     0.198 A 
ATOM     93  F   UNL A   1      45.629  32.451  28.953  1.00  0.00    -0.203 F 
ATOM     94  F   UNL A   1      41.343  35.734  28.177  1.00  0.00    -0.200 F 
ATOM     95  C   UNL A   1      43.577  35.150  27.692  1.00  0.00     0.200 A 
ATOM     96  F   UNL A   1      45.824  34.555  27.274  1.00  0.00    -0.200 F 
ATOM     97  F   UNL A   1      43.682  36.191  26.855  1.00  0.00    -0.200 F 
ENDBRANCH  64  87
ENDBRANCH  38  39
ENDBRANCH  30  33
ENDBRANCH  28  29
ENDBRANCH  27  28
ENDBRANCH  26  27
ENDBRANCH   1  26
TORSDOF 15
ENDMDL
