MODEL 1
REMARK VINA RESULT:     -12.9      0.000      0.000
REMARK SMILES Cc1ccc(OCCC(=O)N2C[C@H](O)C[C@@H]2C(=O)NCCCCCCNC(=O)c2ccc(-c3c4nc(c(-c5c(F)c(F)c(F)c(F)c5F)c5ccc([nH]5)c(-c5c(F)c(F)c(F)c(F)c5F)c5nc(c(-c6c(F)c(F)c(F)c(F)c6F)c6ccc3[nH]6)C=C5)C=C4)cc2)cc1
REMARK SMILES IDX 21 1 20 2 19 3 17 4 18 5 16 7 11 8 12 9 13 10 15 11 9 12
REMARK SMILES IDX 10 13 8 14 7 15 6 16 5 17 1 18 2 19 3 20 93 21 4 22 92 23
REMARK SMILES IDX 14 24 22 26 23 27 24 28 25 29 26 30 27 31 28 33 29 34 30 35
REMARK SMILES IDX 91 36 31 37 90 38 32 39 33 40 34 41 84 42 35 43 89 44 83 45
REMARK SMILES IDX 85 46 36 47 88 48 82 49 81 50 37 52 69 53 49 54 68 55 50 56
REMARK SMILES IDX 53 57 67 58 86 59 51 60 52 61 66 63 87 64 54 65 38 66 39 67
REMARK SMILES IDX 47 68 40 69 41 70 45 71 48 72 42 73 43 74 46 75 44 76 70 77
REMARK SMILES IDX 71 78 79 79 72 80 73 81 77 82 80 83 74 84 75 85 78 86 76 87
REMARK SMILES IDX 55 88 56 89 64 90 57 91 58 92 62 93 65 94 59 95 60 96 63 97
REMARK SMILES IDX 61 98
REMARK H PARENT 19 6 14 25 26 32 85 51 53 62
REMARK Flexibility Score: inf
ROOT
ATOM      1  C   UNL A   1      33.182  27.760  25.467  1.00  0.00     0.021 C 
ENDROOT
BRANCH   1   2
ATOM      2  C   UNL A   1      32.598  27.238  26.780  1.00  0.00     0.116 C 
BRANCH   2   3
ATOM      3  N   UNL A   1      31.539  26.262  26.617  1.00  0.00    -0.354 N 
ATOM      4  C   UNL A   1      31.673  24.894  26.614  1.00  0.00     0.242 C 
ATOM      5  O   UNL A   1      30.751  24.253  27.128  1.00  0.00    -0.273 OA
ATOM      6  H   UNL A   1      30.628  26.615  26.493  1.00  0.00     0.163 HD
BRANCH   4   7
ATOM      7  C   UNL A   1      32.747  24.168  25.752  1.00  0.00     0.177 C 
ATOM      8  N   UNL A   1      32.319  23.016  24.964  1.00  0.00    -0.328 N 
ATOM      9  C   UNL A   1      32.525  21.777  25.703  1.00  0.00     0.152 C 
ATOM     10  C   UNL A   1      33.276  22.164  26.978  1.00  0.00     0.136 C 
ATOM     11  C   UNL A   1      33.794  23.573  26.705  1.00  0.00     0.069 C 
BRANCH   8  12
ATOM     12  C   UNL A   1      31.949  23.128  23.637  1.00  0.00     0.226 C 
ATOM     13  O   UNL A   1      32.683  22.763  22.719  1.00  0.00    -0.275 OA
BRANCH  12  14
ATOM     14  C   UNL A   1      30.656  23.874  23.332  1.00  0.00     0.141 C 
BRANCH  14  15
ATOM     15  C   UNL A   1      30.818  25.349  22.980  1.00  0.00     0.239 C 
BRANCH  15  16
ATOM     16  O   UNL A   1      30.178  26.231  23.914  1.00  0.00    -0.493 OA
BRANCH  16  17
ATOM     17  C   UNL A   1      29.771  27.445  23.433  1.00  0.00     0.119 A 
ATOM     18  C   UNL A   1      28.071  30.737  21.263  1.00  0.00     0.044 C 
ATOM     19  C   UNL A   1      28.667  29.646  22.101  1.00  0.00    -0.051 A 
ATOM     20  C   UNL A   1      27.846  28.789  22.841  1.00  0.00     0.007 A 
ATOM     21  C   UNL A   1      30.051  29.463  22.139  1.00  0.00     0.007 A 
ATOM     22  C   UNL A   1      28.400  27.700  23.519  1.00  0.00     0.046 A 
ATOM     23  C   UNL A   1      30.602  28.374  22.813  1.00  0.00     0.046 A 
ENDBRANCH  16  17
ENDBRANCH  15  16
ENDBRANCH  14  15
ENDBRANCH  12  14
ENDBRANCH   8  12
BRANCH  10  24
ATOM     24  O   UNL A   1      32.413  22.144  28.110  1.00  0.00    -0.391 OA
ATOM     25  H   UNL A   1      32.922  22.349  28.910  1.00  0.00     0.211 HD
ENDBRANCH  10  24
ENDBRANCH   4   7
ENDBRANCH   2   3
ENDBRANCH   1   2
BRANCH   1  26
ATOM     26  C   UNL A   1      33.109  29.280  25.275  1.00  0.00     0.002 C 
BRANCH  26  27
ATOM     27  C   UNL A   1      32.156  30.046  26.210  1.00  0.00     0.002 C 
BRANCH  27  28
ATOM     28  C   UNL A   1      32.818  30.954  27.251  1.00  0.00     0.021 C 
BRANCH  28  29
ATOM     29  C   UNL A   1      34.164  30.446  27.740  1.00  0.00     0.116 C 
BRANCH  29  30
ATOM     30  N   UNL A   1      34.827  31.358  28.662  1.00  0.00    -0.352 N 
ATOM     31  C   UNL A   1      36.035  31.194  29.326  1.00  0.00     0.251 C 
ATOM     32  H   UNL A   1      34.355  32.204  28.838  1.00  0.00     0.163 HD
ATOM     33  O   UNL A   1      36.461  32.032  30.083  1.00  0.00    -0.269 OA
BRANCH  31  34
ATOM     34  C   UNL A   1      36.846  30.003  28.979  1.00  0.00     0.039 A 
ATOM     35  C   UNL A   1      37.124  29.091  30.001  1.00  0.00     0.014 A 
ATOM     36  C   UNL A   1      37.511  29.939  27.756  1.00  0.00     0.014 A 
ATOM     37  C   UNL A   1      38.236  28.265  29.882  1.00  0.00     0.010 A 
ATOM     38  C   UNL A   1      38.663  29.183  27.671  1.00  0.00     0.010 A 
ATOM     39  C   UNL A   1      39.060  28.405  28.764  1.00  0.00    -0.014 A 
BRANCH  39  40
ATOM     40  C   UNL A   1      40.406  27.847  28.710  1.00  0.00     0.031 A 
ATOM     41  C   UNL A   1      40.603  26.411  28.445  1.00  0.00     0.074 A 
ATOM     42  C   UNL A   1      41.471  28.661  28.881  1.00  0.00     0.049 A 
ATOM     43  N   UNL A   1      41.646  25.739  28.798  1.00  0.00    -0.248 NA
ATOM     44  C   UNL A   1      39.583  25.595  27.804  1.00  0.00     0.031 C 
ATOM     45  C   UNL A   1      42.878  28.343  28.653  1.00  0.00     0.029 A 
ATOM     46  N   UNL A   1      41.494  29.904  29.536  1.00  0.00    -0.354 N 
ATOM     47  C   UNL A   1      41.569  24.497  28.209  1.00  0.00     0.074 A 
ATOM     48  C   UNL A   1      40.227  24.431  27.679  1.00  0.00     0.031 C 
ATOM     49  C   UNL A   1      43.631  29.164  29.402  1.00  0.00     0.029 A 
ATOM     50  C   UNL A   1      42.722  29.933  30.236  1.00  0.00     0.049 A 
ATOM     51  H   UNL A   1      40.803  30.606  29.512  1.00  0.00     0.167 HD
ATOM     52  C   UNL A   1      42.703  23.738  28.123  1.00  0.00     0.037 A 
ATOM     53  C   UNL A   1      42.771  29.994  31.597  1.00  0.00     0.037 A 
ATOM     54  C   UNL A   1      43.795  24.349  28.885  1.00  0.00     0.049 A 
ATOM     55  C   UNL A   1      43.541  28.862  32.234  1.00  0.00     0.074 A 
ATOM     56  C   UNL A   1      44.892  25.112  28.515  1.00  0.00     0.029 A 
ATOM     57  N   UNL A   1      43.690  24.461  30.268  1.00  0.00    -0.354 N 
ATOM     58  N   UNL A   1      43.763  27.716  31.654  1.00  0.00    -0.248 NA
ATOM     59  C   UNL A   1      44.084  28.924  33.587  1.00  0.00     0.031 C 
ATOM     60  C   UNL A   1      45.421  25.719  29.680  1.00  0.00     0.029 A 
ATOM     61  C   UNL A   1      44.658  25.314  30.761  1.00  0.00     0.049 A 
ATOM     62  H   UNL A   1      43.018  23.998  30.820  1.00  0.00     0.167 HD
ATOM     63  C   UNL A   1      44.435  26.891  32.522  1.00  0.00     0.074 A 
ATOM     64  C   UNL A   1      44.634  27.703  33.708  1.00  0.00     0.031 C 
ATOM     65  C   UNL A   1      44.754  25.605  32.185  1.00  0.00     0.037 A 
BRANCH  52  66
ATOM     66  C   UNL A   1      42.917  22.625  27.107  1.00  0.00     0.064 A 
ATOM     67  C   UNL A   1      42.241  21.389  27.240  1.00  0.00     0.173 A 
ATOM     68  C   UNL A   1      43.832  22.664  26.039  1.00  0.00     0.173 A 
ATOM     69  F   UNL A   1      41.244  21.225  28.118  1.00  0.00    -0.203 F 
ATOM     70  C   UNL A   1      42.561  20.263  26.470  1.00  0.00     0.198 A 
ATOM     71  C   UNL A   1      44.188  21.529  25.300  1.00  0.00     0.198 A 
ATOM     72  F   UNL A   1      44.370  23.811  25.616  1.00  0.00    -0.203 F 
ATOM     73  F   UNL A   1      41.896  19.116  26.664  1.00  0.00    -0.200 F 
ATOM     74  C   UNL A   1      43.564  20.323  25.529  1.00  0.00     0.200 A 
ATOM     75  F   UNL A   1      45.141  21.621  24.362  1.00  0.00    -0.200 F 
ATOM     76  F   UNL A   1      43.904  19.236  24.823  1.00  0.00    -0.200 F 
ENDBRANCH  52  66
BRANCH  53  77
ATOM     77  C   UNL A   1      41.591  30.660  32.206  1.00  0.00     0.064 A 
ATOM     78  C   UNL A   1      41.522  32.068  32.181  1.00  0.00     0.173 A 
ATOM     79  C   UNL A   1      40.409  29.961  32.477  1.00  0.00     0.173 A 
ATOM     80  F   UNL A   1      42.625  32.788  31.922  1.00  0.00    -0.203 F 
ATOM     81  C   UNL A   1      40.307  32.738  32.302  1.00  0.00     0.198 A 
ATOM     82  C   UNL A   1      39.195  30.638  32.617  1.00  0.00     0.198 A 
ATOM     83  F   UNL A   1      40.401  28.621  32.497  1.00  0.00    -0.203 F 
ATOM     84  F   UNL A   1      40.262  34.070  32.154  1.00  0.00    -0.200 F 
ATOM     85  C   UNL A   1      39.139  32.020  32.496  1.00  0.00     0.200 A 
ATOM     86  F   UNL A   1      38.059  29.943  32.774  1.00  0.00    -0.200 F 
ATOM     87  F   UNL A   1      37.959  32.653  32.522  1.00  0.00    -0.200 F 
ENDBRANCH  53  77
BRANCH  65  88
ATOM     88  C   UNL A   1      45.275  24.531  33.117  1.00  0.00     0.064 A 
ATOM     89  C   UNL A   1      44.566  23.370  33.466  1.00  0.00     0.173 A 
ATOM     90  C   UNL A   1      46.612  24.584  33.590  1.00  0.00     0.173 A 
ATOM     91  F   UNL A   1      43.343  23.124  32.979  1.00  0.00    -0.203 F 
ATOM     92  C   UNL A   1      45.118  22.377  34.282  1.00  0.00     0.198 A 
ATOM     93  C   UNL A   1      47.180  23.562  34.354  1.00  0.00     0.198 A 
ATOM     94  F   UNL A   1      47.420  25.614  33.305  1.00  0.00    -0.203 F 
ATOM     95  F   UNL A   1      44.379  21.312  34.622  1.00  0.00    -0.200 F 
ATOM     96  C   UNL A   1      46.428  22.467  34.716  1.00  0.00     0.200 A 
ATOM     97  F   UNL A   1      48.469  23.641  34.715  1.00  0.00    -0.200 F 
ATOM     98  F   UNL A   1      46.967  21.490  35.457  1.00  0.00    -0.200 F 
ENDBRANCH  65  88
ENDBRANCH  39  40
ENDBRANCH  31  34
ENDBRANCH  29  30
ENDBRANCH  28  29
ENDBRANCH  27  28
ENDBRANCH  26  27
ENDBRANCH   1  26
TORSDOF 19
ENDMDL
MODEL 2
REMARK VINA RESULT:     -12.5      1.767      3.413
REMARK SMILES Cc1ccc(OCCC(=O)N2C[C@H](O)C[C@@H]2C(=O)NCCCCCCNC(=O)c2ccc(-c3c4nc(c(-c5c(F)c(F)c(F)c(F)c5F)c5ccc([nH]5)c(-c5c(F)c(F)c(F)c(F)c5F)c5nc(c(-c6c(F)c(F)c(F)c(F)c6F)c6ccc3[nH]6)C=C5)C=C4)cc2)cc1
REMARK SMILES IDX 21 1 20 2 19 3 17 4 18 5 16 7 11 8 12 9 13 10 15 11 9 12
REMARK SMILES IDX 10 13 8 14 7 15 6 16 5 17 1 18 2 19 3 20 93 21 4 22 92 23
REMARK SMILES IDX 14 24 22 26 23 27 24 28 25 29 26 30 27 31 28 33 29 34 30 35
REMARK SMILES IDX 91 36 31 37 90 38 32 39 33 40 34 41 84 42 35 43 89 44 83 45
REMARK SMILES IDX 85 46 36 47 88 48 82 49 81 50 37 52 69 53 49 54 68 55 50 56
REMARK SMILES IDX 53 57 67 58 86 59 51 60 52 61 66 63 87 64 54 65 38 66 39 67
REMARK SMILES IDX 47 68 40 69 41 70 45 71 48 72 42 73 43 74 46 75 44 76 70 77
REMARK SMILES IDX 71 78 79 79 72 80 73 81 77 82 80 83 74 84 75 85 78 86 76 87
REMARK SMILES IDX 55 88 56 89 64 90 57 91 58 92 62 93 65 94 59 95 60 96 63 97
REMARK SMILES IDX 61 98
REMARK H PARENT 19 6 14 25 26 32 85 51 53 62
REMARK Flexibility Score: inf
ROOT
ATOM      1  C   UNL A   1      32.788  26.990  26.665  1.00  0.00     0.021 C 
ENDROOT
BRANCH   1   2
ATOM      2  C   UNL A   1      32.056  25.880  25.908  1.00  0.00     0.116 C 
BRANCH   2   3
ATOM      3  N   UNL A   1      32.500  24.541  26.239  1.00  0.00    -0.354 N 
ATOM      4  C   UNL A   1      33.799  24.096  26.304  1.00  0.00     0.242 C 
ATOM      5  O   UNL A   1      34.047  23.261  27.180  1.00  0.00    -0.273 OA
ATOM      6  H   UNL A   1      31.797  23.879  26.435  1.00  0.00     0.163 HD
BRANCH   4   7
ATOM      7  C   UNL A   1      34.828  24.371  25.170  1.00  0.00     0.177 C 
ATOM      8  N   UNL A   1      34.748  23.547  23.967  1.00  0.00    -0.328 N 
ATOM      9  C   UNL A   1      35.637  22.396  24.067  1.00  0.00     0.152 C 
ATOM     10  C   UNL A   1      36.443  22.594  25.351  1.00  0.00     0.136 C 
ATOM     11  C   UNL A   1      36.228  24.060  25.717  1.00  0.00     0.069 C 
BRANCH   8  12
ATOM     12  C   UNL A   1      34.048  23.948  22.845  1.00  0.00     0.226 C 
ATOM     13  O   UNL A   1      34.127  25.093  22.399  1.00  0.00    -0.275 OA
BRANCH  12  14
ATOM     14  C   UNL A   1      33.041  22.968  22.260  1.00  0.00     0.141 C 
BRANCH  14  15
ATOM     15  C   UNL A   1      31.843  22.649  23.149  1.00  0.00     0.239 C 
BRANCH  15  16
ATOM     16  O   UNL A   1      32.183  21.866  24.303  1.00  0.00    -0.493 OA
BRANCH  16  17
ATOM     17  C   UNL A   1      32.386  20.529  24.100  1.00  0.00     0.119 A 
ATOM     18  C   UNL A   1      33.928  16.578  23.427  1.00  0.00     0.044 C 
ATOM     19  C   UNL A   1      33.309  17.916  23.703  1.00  0.00    -0.051 A 
ATOM     20  C   UNL A   1      33.516  18.555  24.930  1.00  0.00     0.007 A 
ATOM     21  C   UNL A   1      32.531  18.547  22.731  1.00  0.00     0.007 A 
ATOM     22  C   UNL A   1      33.040  19.854  25.133  1.00  0.00     0.046 A 
ATOM     23  C   UNL A   1      32.061  19.843  22.932  1.00  0.00     0.046 A 
ENDBRANCH  16  17
ENDBRANCH  15  16
ENDBRANCH  14  15
ENDBRANCH  12  14
ENDBRANCH   8  12
BRANCH  10  24
ATOM     24  O   UNL A   1      35.981  21.734  26.388  1.00  0.00    -0.391 OA
ATOM     25  H   UNL A   1      35.042  21.906  26.557  1.00  0.00     0.211 HD
ENDBRANCH  10  24
ENDBRANCH   4   7
ENDBRANCH   2   3
ENDBRANCH   1   2
BRANCH   1  26
ATOM     26  C   UNL A   1      31.893  28.106  27.219  1.00  0.00     0.002 C 
BRANCH  26  27
ATOM     27  C   UNL A   1      31.796  29.391  26.378  1.00  0.00     0.002 C 
BRANCH  27  28
ATOM     28  C   UNL A   1      32.488  30.629  26.955  1.00  0.00     0.021 C 
BRANCH  28  29
ATOM     29  C   UNL A   1      33.927  30.386  27.378  1.00  0.00     0.116 C 
BRANCH  29  30
ATOM     30  N   UNL A   1      34.393  31.308  28.406  1.00  0.00    -0.352 N 
ATOM     31  C   UNL A   1      35.500  31.195  29.234  1.00  0.00     0.251 C 
ATOM     32  H   UNL A   1      33.849  32.119  28.528  1.00  0.00     0.163 HD
ATOM     33  O   UNL A   1      35.761  32.034  30.063  1.00  0.00    -0.269 OA
BRANCH  31  34
ATOM     34  C   UNL A   1      36.426  30.064  28.984  1.00  0.00     0.039 A 
ATOM     35  C   UNL A   1      36.794  29.276  30.079  1.00  0.00     0.014 A 
ATOM     36  C   UNL A   1      37.093  29.959  27.765  1.00  0.00     0.014 A 
ATOM     37  C   UNL A   1      37.983  28.558  30.021  1.00  0.00     0.010 A 
ATOM     38  C   UNL A   1      38.313  29.316  27.735  1.00  0.00     0.010 A 
ATOM     39  C   UNL A   1      38.787  28.680  28.887  1.00  0.00    -0.014 A 
BRANCH  39  40
ATOM     40  C   UNL A   1      40.182  28.255  28.869  1.00  0.00     0.031 A 
ATOM     41  C   UNL A   1      40.536  26.894  28.429  1.00  0.00     0.074 A 
ATOM     42  C   UNL A   1      41.148  29.127  29.236  1.00  0.00     0.049 A 
ATOM     43  N   UNL A   1      41.613  26.272  28.773  1.00  0.00    -0.248 NA
ATOM     44  C   UNL A   1      39.648  26.092  27.603  1.00  0.00     0.031 C 
ATOM     45  C   UNL A   1      42.591  28.969  29.083  1.00  0.00     0.029 A 
ATOM     46  N   UNL A   1      41.003  30.261  30.052  1.00  0.00    -0.354 N 
ATOM     47  C   UNL A   1      41.700  25.125  28.017  1.00  0.00     0.074 A 
ATOM     48  C   UNL A   1      40.409  25.018  27.375  1.00  0.00     0.031 C 
ATOM     49  C   UNL A   1      43.207  29.737  29.995  1.00  0.00     0.029 A 
ATOM     50  C   UNL A   1      42.171  30.297  30.847  1.00  0.00     0.049 A 
ATOM     51  H   UNL A   1      40.250  30.896  30.067  1.00  0.00     0.167 HD
ATOM     52  C   UNL A   1      42.905  24.488  27.922  1.00  0.00     0.037 A 
ATOM     53  C   UNL A   1      42.120  30.168  32.204  1.00  0.00     0.037 A 
ATOM     54  C   UNL A   1      43.877  25.077  28.847  1.00  0.00     0.049 A 
ATOM     55  C   UNL A   1      42.951  29.029  32.743  1.00  0.00     0.074 A 
ATOM     56  C   UNL A   1      44.916  25.978  28.674  1.00  0.00     0.029 A 
ATOM     57  N   UNL A   1      43.666  24.982  30.219  1.00  0.00    -0.354 N 
ATOM     58  N   UNL A   1      43.324  28.000  32.034  1.00  0.00    -0.248 NA
ATOM     59  C   UNL A   1      43.391  28.944  34.132  1.00  0.00     0.031 C 
ATOM     60  C   UNL A   1      45.302  26.457  29.951  1.00  0.00     0.029 A 
ATOM     61  C   UNL A   1      44.509  25.837  30.901  1.00  0.00     0.049 A 
ATOM     62  H   UNL A   1      43.007  24.388  30.646  1.00  0.00     0.167 HD
ATOM     63  C   UNL A   1      44.012  27.123  32.834  1.00  0.00     0.074 A 
ATOM     64  C   UNL A   1      44.048  27.771  34.131  1.00  0.00     0.031 C 
ATOM     65  C   UNL A   1      44.478  25.930  32.354  1.00  0.00     0.037 A 
BRANCH  52  66
ATOM     66  C   UNL A   1      43.297  23.554  26.786  1.00  0.00     0.064 A 
ATOM     67  C   UNL A   1      42.904  22.195  26.804  1.00  0.00     0.173 A 
ATOM     68  C   UNL A   1      44.129  23.895  25.704  1.00  0.00     0.173 A 
ATOM     69  F   UNL A   1      42.009  21.734  27.686  1.00  0.00    -0.203 F 
ATOM     70  C   UNL A   1      43.414  21.246  25.908  1.00  0.00     0.198 A 
ATOM     71  C   UNL A   1      44.677  22.941  24.837  1.00  0.00     0.198 A 
ATOM     72  F   UNL A   1      44.391  25.166  25.393  1.00  0.00    -0.203 F 
ATOM     73  F   UNL A   1      43.016  19.969  25.995  1.00  0.00    -0.200 F 
ATOM     74  C   UNL A   1      44.333  21.613  24.951  1.00  0.00     0.200 A 
ATOM     75  F   UNL A   1      45.541  23.329  23.887  1.00  0.00    -0.200 F 
ATOM     76  F   UNL A   1      44.858  20.700  24.122  1.00  0.00    -0.200 F 
ENDBRANCH  52  66
BRANCH  53  77
ATOM     77  C   UNL A   1      40.841  30.635  32.799  1.00  0.00     0.064 A 
ATOM     78  C   UNL A   1      40.552  32.014  32.783  1.00  0.00     0.173 A 
ATOM     79  C   UNL A   1      39.779  29.757  33.046  1.00  0.00     0.173 A 
ATOM     80  F   UNL A   1      41.533  32.901  32.547  1.00  0.00    -0.203 F 
ATOM     81  C   UNL A   1      39.246  32.485  32.888  1.00  0.00     0.198 A 
ATOM     82  C   UNL A   1      38.472  30.234  33.170  1.00  0.00     0.198 A 
ATOM     83  F   UNL A   1      39.982  28.432  33.056  1.00  0.00    -0.203 F 
ATOM     84  F   UNL A   1      38.995  33.794  32.750  1.00  0.00    -0.200 F 
ATOM     85  C   UNL A   1      38.203  31.591  33.058  1.00  0.00     0.200 A 
ATOM     86  F   UNL A   1      37.458  29.368  33.304  1.00  0.00    -0.200 F 
ATOM     87  F   UNL A   1      36.938  32.031  33.070  1.00  0.00    -0.200 F 
ENDBRANCH  53  77
BRANCH  65  88
ATOM     88  C   UNL A   1      45.037  24.784  33.172  1.00  0.00     0.064 A 
ATOM     89  C   UNL A   1      44.331  23.608  33.475  1.00  0.00     0.173 A 
ATOM     90  C   UNL A   1      46.399  24.788  33.568  1.00  0.00     0.173 A 
ATOM     91  F   UNL A   1      43.079  23.412  33.045  1.00  0.00    -0.203 F 
ATOM     92  C   UNL A   1      44.915  22.552  34.182  1.00  0.00     0.198 A 
ATOM     93  C   UNL A   1      46.995  23.706  34.219  1.00  0.00     0.198 A 
ATOM     94  F   UNL A   1      47.204  25.828  33.312  1.00  0.00    -0.203 F 
ATOM     95  F   UNL A   1      44.182  21.471  34.485  1.00  0.00    -0.200 F 
ATOM     96  C   UNL A   1      46.249  22.595  34.543  1.00  0.00     0.200 A 
ATOM     97  F   UNL A   1      48.304  23.744  34.509  1.00  0.00    -0.200 F 
ATOM     98  F   UNL A   1      46.815  21.560  35.177  1.00  0.00    -0.200 F 
ENDBRANCH  65  88
ENDBRANCH  39  40
ENDBRANCH  31  34
ENDBRANCH  29  30
ENDBRANCH  28  29
ENDBRANCH  27  28
ENDBRANCH  26  27
ENDBRANCH   1  26
TORSDOF 19
ENDMDL
MODEL 3
REMARK VINA RESULT:     -12.5      3.875     10.058
REMARK SMILES Cc1ccc(OCCC(=O)N2C[C@H](O)C[C@@H]2C(=O)NCCCCCCNC(=O)c2ccc(-c3c4nc(c(-c5c(F)c(F)c(F)c(F)c5F)c5ccc([nH]5)c(-c5c(F)c(F)c(F)c(F)c5F)c5nc(c(-c6c(F)c(F)c(F)c(F)c6F)c6ccc3[nH]6)C=C5)C=C4)cc2)cc1
REMARK SMILES IDX 21 1 20 2 19 3 17 4 18 5 16 7 11 8 12 9 13 10 15 11 9 12
REMARK SMILES IDX 10 13 8 14 7 15 6 16 5 17 1 18 2 19 3 20 93 21 4 22 92 23
REMARK SMILES IDX 14 24 22 26 23 27 24 28 25 29 26 30 27 31 28 33 29 34 30 35
REMARK SMILES IDX 91 36 31 37 90 38 32 39 33 40 34 41 84 42 35 43 89 44 83 45
REMARK SMILES IDX 85 46 36 47 88 48 82 49 81 50 37 52 69 53 49 54 68 55 50 56
REMARK SMILES IDX 53 57 67 58 86 59 51 60 52 61 66 63 87 64 54 65 38 66 39 67
REMARK SMILES IDX 47 68 40 69 41 70 45 71 48 72 42 73 43 74 46 75 44 76 70 77
REMARK SMILES IDX 71 78 79 79 72 80 73 81 77 82 80 83 74 84 75 85 78 86 76 87
REMARK SMILES IDX 55 88 56 89 64 90 57 91 58 92 62 93 65 94 59 95 60 96 63 97
REMARK SMILES IDX 61 98
REMARK H PARENT 19 6 14 25 26 32 85 51 53 62
REMARK Flexibility Score: inf
ROOT
ATOM      1  C   UNL A   1      34.292  23.403  22.759  1.00  0.00     0.021 C 
ENDROOT
BRANCH   1   2
ATOM      2  C   UNL A   1      32.895  24.003  22.593  1.00  0.00     0.116 C 
BRANCH   2   3
ATOM      3  N   UNL A   1      32.867  25.261  21.874  1.00  0.00    -0.354 N 
ATOM      4  C   UNL A   1      33.204  26.499  22.367  1.00  0.00     0.242 C 
ATOM      5  O   UNL A   1      33.765  27.267  21.578  1.00  0.00    -0.273 OA
ATOM      6  H   UNL A   1      32.574  25.226  20.934  1.00  0.00     0.163 HD
BRANCH   4   7
ATOM      7  C   UNL A   1      32.650  27.032  23.720  1.00  0.00     0.177 C 
ATOM      8  N   UNL A   1      31.200  27.060  23.895  1.00  0.00    -0.328 N 
ATOM      9  C   UNL A   1      30.657  28.359  23.518  1.00  0.00     0.152 C 
ATOM     10  C   UNL A   1      31.863  29.256  23.236  1.00  0.00     0.136 C 
ATOM     11  C   UNL A   1      33.048  28.510  23.843  1.00  0.00     0.069 C 
BRANCH   8  12
ATOM     12  C   UNL A   1      30.514  26.030  24.510  1.00  0.00     0.226 C 
ATOM     13  O   UNL A   1      29.769  25.275  23.886  1.00  0.00    -0.275 OA
BRANCH  12  14
ATOM     14  C   UNL A   1      30.581  25.955  26.030  1.00  0.00     0.141 C 
BRANCH  14  15
ATOM     15  C   UNL A   1      31.779  25.200  26.597  1.00  0.00     0.239 C 
BRANCH  15  16
ATOM     16  O   UNL A   1      31.418  23.998  27.293  1.00  0.00    -0.493 OA
BRANCH  16  17
ATOM     17  C   UNL A   1      31.875  22.822  26.764  1.00  0.00     0.119 A 
ATOM     18  C   UNL A   1      34.071  19.641  24.893  1.00  0.00     0.044 C 
ATOM     19  C   UNL A   1      33.253  20.683  25.598  1.00  0.00    -0.051 A 
ATOM     20  C   UNL A   1      33.662  21.190  26.836  1.00  0.00     0.007 A 
ATOM     21  C   UNL A   1      32.082  21.171  25.016  1.00  0.00     0.007 A 
ATOM     22  C   UNL A   1      32.963  22.246  27.426  1.00  0.00     0.046 A 
ATOM     23  C   UNL A   1      31.388  22.228  25.603  1.00  0.00     0.046 A 
ENDBRANCH  16  17
ENDBRANCH  15  16
ENDBRANCH  14  15
ENDBRANCH  12  14
ENDBRANCH   8  12
BRANCH  10  24
ATOM     24  O   UNL A   1      32.042  29.451  21.836  1.00  0.00    -0.391 OA
ATOM     25  H   UNL A   1      31.583  30.260  21.560  1.00  0.00     0.211 HD
ENDBRANCH  10  24
ENDBRANCH   4   7
ENDBRANCH   2   3
ENDBRANCH   1   2
BRANCH   1  26
ATOM     26  C   UNL A   1      35.132  24.003  23.892  1.00  0.00     0.002 C 
BRANCH  26  27
ATOM     27  C   UNL A   1      35.871  23.006  24.804  1.00  0.00     0.002 C 
BRANCH  27  28
ATOM     28  C   UNL A   1      37.399  23.097  24.805  1.00  0.00     0.021 C 
BRANCH  28  29
ATOM     29  C   UNL A   1      38.003  23.249  26.192  1.00  0.00     0.116 C 
BRANCH  29  30
ATOM     30  N   UNL A   1      39.450  23.084  26.214  1.00  0.00    -0.352 N 
ATOM     31  C   UNL A   1      40.423  24.010  26.563  1.00  0.00     0.251 C 
ATOM     32  H   UNL A   1      39.783  22.197  25.945  1.00  0.00     0.163 HD
ATOM     33  O   UNL A   1      41.599  23.742  26.518  1.00  0.00    -0.269 OA
BRANCH  31  34
ATOM     34  C   UNL A   1      39.962  25.308  27.111  1.00  0.00     0.039 A 
ATOM     35  C   UNL A   1      40.361  26.470  26.444  1.00  0.00     0.014 A 
ATOM     36  C   UNL A   1      39.379  25.368  28.376  1.00  0.00     0.014 A 
ATOM     37  C   UNL A   1      40.394  27.670  27.144  1.00  0.00     0.010 A 
ATOM     38  C   UNL A   1      39.490  26.539  29.097  1.00  0.00     0.010 A 
ATOM     39  C   UNL A   1      40.066  27.667  28.501  1.00  0.00    -0.014 A 
BRANCH  39  40
ATOM     40  C   UNL A   1      40.394  28.776  29.387  1.00  0.00     0.031 A 
ATOM     41  C   UNL A   1      39.394  29.822  29.667  1.00  0.00     0.074 A 
ATOM     42  C   UNL A   1      41.613  28.825  29.969  1.00  0.00     0.049 A 
ATOM     43  N   UNL A   1      39.678  31.023  30.043  1.00  0.00    -0.248 NA
ATOM     44  C   UNL A   1      37.969  29.602  29.473  1.00  0.00     0.031 C 
ATOM     45  C   UNL A   1      42.052  29.719  31.037  1.00  0.00     0.029 A 
ATOM     46  N   UNL A   1      42.792  28.201  29.526  1.00  0.00    -0.354 N 
ATOM     47  C   UNL A   1      38.503  31.644  30.402  1.00  0.00     0.074 A 
ATOM     48  C   UNL A   1      37.467  30.748  29.942  1.00  0.00     0.031 C 
ATOM     49  C   UNL A   1      43.388  29.836  30.976  1.00  0.00     0.029 A 
ATOM     50  C   UNL A   1      43.823  29.134  29.781  1.00  0.00     0.049 A 
ATOM     51  H   UNL A   1      42.880  27.306  29.124  1.00  0.00     0.167 HD
ATOM     52  C   UNL A   1      38.563  32.773  31.170  1.00  0.00     0.037 A 
ATOM     53  C   UNL A   1      44.557  29.686  28.773  1.00  0.00     0.037 A 
ATOM     54  C   UNL A   1      39.947  33.233  31.310  1.00  0.00     0.049 A 
ATOM     55  C   UNL A   1      44.519  31.194  28.740  1.00  0.00     0.074 A 
ATOM     56  C   UNL A   1      40.884  33.109  32.324  1.00  0.00     0.029 A 
ATOM     57  N   UNL A   1      40.643  33.672  30.188  1.00  0.00    -0.354 N 
ATOM     58  N   UNL A   1      43.576  31.910  29.287  1.00  0.00    -0.248 NA
ATOM     59  C   UNL A   1      45.518  32.007  28.056  1.00  0.00     0.031 C 
ATOM     60  C   UNL A   1      42.156  33.437  31.794  1.00  0.00     0.029 A 
ATOM     61  C   UNL A   1      41.992  33.775  30.462  1.00  0.00     0.049 A 
ATOM     62  H   UNL A   1      40.231  33.881  29.318  1.00  0.00     0.167 HD
ATOM     63  C   UNL A   1      43.805  33.238  29.026  1.00  0.00     0.074 A 
ATOM     64  C   UNL A   1      45.046  33.247  28.275  1.00  0.00     0.031 C 
ATOM     65  C   UNL A   1      42.939  34.210  29.444  1.00  0.00     0.037 A 
BRANCH  52  66
ATOM     66  C   UNL A   1      37.425  33.277  32.047  1.00  0.00     0.064 A 
ATOM     67  C   UNL A   1      36.350  34.005  31.483  1.00  0.00     0.173 A 
ATOM     68  C   UNL A   1      37.369  33.167  33.448  1.00  0.00     0.173 A 
ATOM     69  F   UNL A   1      36.179  34.091  30.158  1.00  0.00    -0.203 F 
ATOM     70  C   UNL A   1      35.399  34.676  32.260  1.00  0.00     0.198 A 
ATOM     71  C   UNL A   1      36.448  33.876  34.230  1.00  0.00     0.198 A 
ATOM     72  F   UNL A   1      38.152  32.319  34.118  1.00  0.00    -0.203 F 
ATOM     73  F   UNL A   1      34.419  35.367  31.661  1.00  0.00    -0.200 F 
ATOM     74  C   UNL A   1      35.473  34.646  33.635  1.00  0.00     0.200 A 
ATOM     75  F   UNL A   1      36.516  33.799  35.566  1.00  0.00    -0.200 F 
ATOM     76  F   UNL A   1      34.591  35.324  34.382  1.00  0.00    -0.200 F 
ENDBRANCH  52  66
BRANCH  53  77
ATOM     77  C   UNL A   1      44.665  28.818  27.571  1.00  0.00     0.064 A 
ATOM     78  C   UNL A   1      45.469  27.662  27.641  1.00  0.00     0.173 A 
ATOM     79  C   UNL A   1      43.747  28.901  26.518  1.00  0.00     0.173 A 
ATOM     80  F   UNL A   1      46.365  27.529  28.634  1.00  0.00    -0.203 F 
ATOM     81  C   UNL A   1      45.280  26.591  26.772  1.00  0.00     0.198 A 
ATOM     82  C   UNL A   1      43.573  27.831  25.635  1.00  0.00     0.198 A 
ATOM     83  F   UNL A   1      42.938  29.964  26.403  1.00  0.00    -0.203 F 
ATOM     84  F   UNL A   1      45.981  25.461  26.943  1.00  0.00    -0.200 F 
ATOM     85  C   UNL A   1      44.314  26.667  25.784  1.00  0.00     0.200 A 
ATOM     86  F   UNL A   1      42.617  27.891  24.697  1.00  0.00    -0.200 F 
ATOM     87  F   UNL A   1      44.068  25.607  25.004  1.00  0.00    -0.200 F 
ENDBRANCH  53  77
BRANCH  65  88
ATOM     88  C   UNL A   1      42.949  35.666  29.029  1.00  0.00     0.064 A 
ATOM     89  C   UNL A   1      42.250  36.181  27.923  1.00  0.00     0.173 A 
ATOM     90  C   UNL A   1      43.576  36.639  29.849  1.00  0.00     0.173 A 
ATOM     91  F   UNL A   1      41.503  35.394  27.140  1.00  0.00    -0.203 F 
ATOM     92  C   UNL A   1      42.242  37.546  27.619  1.00  0.00     0.198 A 
ATOM     93  C   UNL A   1      43.513  38.006  29.576  1.00  0.00     0.198 A 
ATOM     94  F   UNL A   1      44.247  36.297  30.958  1.00  0.00    -0.203 F 
ATOM     95  F   UNL A   1      41.598  37.977  26.525  1.00  0.00    -0.200 F 
ATOM     96  C   UNL A   1      42.862  38.459  28.450  1.00  0.00     0.200 A 
ATOM     97  F   UNL A   1      44.072  38.880  30.427  1.00  0.00    -0.200 F 
ATOM     98  F   UNL A   1      42.809  39.770  28.180  1.00  0.00    -0.200 F 
ENDBRANCH  65  88
ENDBRANCH  39  40
ENDBRANCH  31  34
ENDBRANCH  29  30
ENDBRANCH  28  29
ENDBRANCH  27  28
ENDBRANCH  26  27
ENDBRANCH   1  26
TORSDOF 19
ENDMDL
