MODEL 1
REMARK VINA RESULT:     -11.9      0.000      0.000
REMARK SMILES CN1CC[N@H+](CC(=O)NCCCCCCNC(=O)c2ccc(-c3c4nc(c(-c5c(F)c(F)c(F)c(F)c5F)c5ccc([nH]5)c(-c5c(F)c(F)c(F)c(F)c5F)c5nc(c(-c6c(F)c(F)c(F)c(F)c6F)c6ccc3[nH]6)C=C5)C=C4)cc2)C(C)(C)C1=O
REMARK SMILES IDX 13 1 12 2 11 3 10 4 9 5 7 6 8 7 6 9 5 10 1 11 2 12 3 13
REMARK SMILES IDX 85 14 4 15 82 16 86 17 83 18 84 19 14 21 15 22 16 23 17 24
REMARK SMILES IDX 18 26 19 27 20 28 81 29 21 30 80 31 22 32 23 33 24 34 74 35
REMARK SMILES IDX 25 36 79 37 73 38 75 39 26 40 78 41 72 42 71 43 27 45 59 46
REMARK SMILES IDX 39 47 58 48 40 49 43 50 57 51 76 52 41 53 42 54 56 56 77 57
REMARK SMILES IDX 44 58 28 59 29 60 37 61 30 62 31 63 35 64 38 65 32 66 33 67
REMARK SMILES IDX 36 68 34 69 60 70 61 71 69 72 62 73 63 74 67 75 70 76 64 77
REMARK SMILES IDX 65 78 68 79 66 80 45 81 46 82 54 83 47 84 48 85 52 86 55 87
REMARK SMILES IDX 49 88 50 89 53 90 51 91
REMARK H PARENT 9 8 5 20 16 25 75 44 43 55
REMARK Flexibility Score: inf
ROOT
ATOM      1  C   UNL A   1      31.636  30.647  26.120  1.00  0.00     0.002 C 
ENDROOT
BRANCH   1   2
ATOM      2  C   UNL A   1      32.474  29.749  27.028  1.00  0.00     0.002 C 
BRANCH   2   3
ATOM      3  C   UNL A   1      31.764  28.450  27.429  1.00  0.00     0.021 C 
BRANCH   3   4
ATOM      4  C   UNL A   1      31.741  27.357  26.356  1.00  0.00     0.116 C 
BRANCH   4   5
ATOM      5  N   UNL A   1      31.372  26.045  26.864  1.00  0.00    -0.351 N 
ATOM      6  C   UNL A   1      31.865  24.788  26.693  1.00  0.00     0.275 C 
ATOM      7  O   UNL A   1      31.381  23.907  27.413  1.00  0.00    -0.269 OA
ATOM      8  H   UNL A   1      30.592  26.071  27.466  1.00  0.00     0.163 HD
BRANCH   6   9
ATOM      9  C   UNL A   1      32.991  24.450  25.709  1.00  0.00     0.364 C 
BRANCH   9  10
ATOM     10  N   UNL A   1      32.618  23.712  24.469  1.00  0.00    -0.314 N 
ATOM     11  C   UNL A   1      31.350  26.563  21.464  1.00  0.00     0.147 C 
ATOM     12  N   UNL A   1      31.790  25.594  22.449  1.00  0.00    -0.335 N 
ATOM     13  C   UNL A   1      30.765  25.021  23.320  1.00  0.00     0.180 C 
ATOM     14  C   UNL A   1      33.149  25.290  22.578  1.00  0.00     0.283 C 
ATOM     15  C   UNL A   1      31.192  23.793  24.133  1.00  0.00     0.285 C 
ATOM     16  C   UNL A   1      33.470  23.924  23.270  1.00  0.00     0.172 C 
ATOM     17  O   UNL A   1      34.013  25.948  21.997  1.00  0.00    -0.268 OA
ATOM     18  C   UNL A   1      33.188  22.917  22.118  1.00  0.00     0.090 C 
ATOM     19  C   UNL A   1      34.939  23.624  23.622  1.00  0.00     0.090 C 
ATOM     20  H   UNL A   1      32.823  22.753  24.750  1.00  0.00     0.349 HD
ENDBRANCH   9  10
ENDBRANCH   6   9
ENDBRANCH   4   5
ENDBRANCH   3   4
ENDBRANCH   2   3
ENDBRANCH   1   2
BRANCH   1  21
ATOM     21  C   UNL A   1      31.423  32.073  26.641  1.00  0.00     0.021 C 
BRANCH  21  22
ATOM     22  C   UNL A   1      32.630  32.672  27.357  1.00  0.00     0.116 C 
BRANCH  22  23
ATOM     23  N   UNL A   1      32.458  34.105  27.555  1.00  0.00    -0.352 N 
ATOM     24  C   UNL A   1      32.986  34.881  28.553  1.00  0.00     0.251 C 
ATOM     25  H   UNL A   1      31.896  34.570  26.895  1.00  0.00     0.163 HD
ATOM     26  O   UNL A   1      32.516  35.989  28.818  1.00  0.00    -0.269 OA
BRANCH  24  27
ATOM     27  C   UNL A   1      34.137  34.367  29.317  1.00  0.00     0.039 A 
ATOM     28  C   UNL A   1      33.927  33.693  30.520  1.00  0.00     0.014 A 
ATOM     29  C   UNL A   1      35.430  34.534  28.810  1.00  0.00     0.014 A 
ATOM     30  C   UNL A   1      35.017  33.136  31.192  1.00  0.00     0.010 A 
ATOM     31  C   UNL A   1      36.503  33.917  29.442  1.00  0.00     0.010 A 
ATOM     32  C   UNL A   1      36.308  33.218  30.643  1.00  0.00    -0.014 A 
BRANCH  32  33
ATOM     33  C   UNL A   1      37.467  32.571  31.307  1.00  0.00     0.031 A 
ATOM     34  C   UNL A   1      38.174  31.423  30.643  1.00  0.00     0.074 A 
ATOM     35  C   UNL A   1      37.841  32.977  32.535  1.00  0.00     0.049 A 
ATOM     36  N   UNL A   1      39.174  30.701  31.081  1.00  0.00    -0.248 NA
ATOM     37  C   UNL A   1      37.671  31.013  29.322  1.00  0.00     0.031 C 
ATOM     38  C   UNL A   1      37.196  34.043  33.303  1.00  0.00     0.029 A 
ATOM     39  N   UNL A   1      38.847  32.536  33.358  1.00  0.00    -0.354 N 
ATOM     40  C   UNL A   1      39.411  29.750  30.097  1.00  0.00     0.074 A 
ATOM     41  C   UNL A   1      38.415  29.947  29.068  1.00  0.00     0.031 C 
ATOM     42  C   UNL A   1      37.836  34.191  34.473  1.00  0.00     0.029 A 
ATOM     43  C   UNL A   1      38.910  33.204  34.556  1.00  0.00     0.049 A 
ATOM     44  H   UNL A   1      39.464  31.810  33.112  1.00  0.00     0.167 HD
ATOM     45  C   UNL A   1      40.389  28.813  30.047  1.00  0.00     0.037 A 
ATOM     46  C   UNL A   1      39.736  33.035  35.605  1.00  0.00     0.037 A 
ATOM     47  C   UNL A   1      41.386  28.634  31.069  1.00  0.00     0.049 A 
ATOM     48  C   UNL A   1      40.805  31.979  35.531  1.00  0.00     0.074 A 
ATOM     49  C   UNL A   1      42.461  27.762  31.083  1.00  0.00     0.029 A 
ATOM     50  N   UNL A   1      41.423  29.333  32.268  1.00  0.00    -0.354 N 
ATOM     51  N   UNL A   1      41.077  31.143  34.559  1.00  0.00    -0.248 NA
ATOM     52  C   UNL A   1      41.686  31.846  36.700  1.00  0.00     0.031 C 
ATOM     53  C   UNL A   1      43.112  27.891  32.315  1.00  0.00     0.029 A 
ATOM     54  C   UNL A   1      42.481  28.887  33.044  1.00  0.00     0.049 A 
ATOM     55  H   UNL A   1      40.791  30.041  32.529  1.00  0.00     0.167 HD
ATOM     56  C   UNL A   1      42.169  30.400  34.987  1.00  0.00     0.074 A 
ATOM     57  C   UNL A   1      42.524  30.901  36.298  1.00  0.00     0.031 C 
ATOM     58  C   UNL A   1      42.818  29.392  34.351  1.00  0.00     0.037 A 
BRANCH  45  59
ATOM     59  C   UNL A   1      40.422  27.907  28.849  1.00  0.00     0.064 A 
ATOM     60  C   UNL A   1      41.170  28.223  27.704  1.00  0.00     0.173 A 
ATOM     61  C   UNL A   1      39.720  26.692  28.855  1.00  0.00     0.173 A 
ATOM     62  F   UNL A   1      41.853  29.377  27.641  1.00  0.00    -0.203 F 
ATOM     63  C   UNL A   1      41.186  27.375  26.600  1.00  0.00     0.198 A 
ATOM     64  C   UNL A   1      39.766  25.831  27.762  1.00  0.00     0.198 A 
ATOM     65  F   UNL A   1      38.994  26.335  29.925  1.00  0.00    -0.203 F 
ATOM     66  F   UNL A   1      41.863  27.727  25.497  1.00  0.00    -0.200 F 
ATOM     67  C   UNL A   1      40.490  26.178  26.631  1.00  0.00     0.200 A 
ATOM     68  F   UNL A   1      39.104  24.665  27.801  1.00  0.00    -0.200 F 
ATOM     69  F   UNL A   1      40.511  25.359  25.571  1.00  0.00    -0.200 F 
ENDBRANCH  45  59
BRANCH  46  70
ATOM     70  C   UNL A   1      39.595  33.900  36.806  1.00  0.00     0.064 A 
ATOM     71  C   UNL A   1      40.224  35.151  36.874  1.00  0.00     0.173 A 
ATOM     72  C   UNL A   1      38.823  33.499  37.907  1.00  0.00     0.173 A 
ATOM     73  F   UNL A   1      40.988  35.570  35.856  1.00  0.00    -0.203 F 
ATOM     74  C   UNL A   1      40.101  35.958  38.003  1.00  0.00     0.198 A 
ATOM     75  C   UNL A   1      38.676  34.321  39.023  1.00  0.00     0.198 A 
ATOM     76  F   UNL A   1      38.195  32.313  37.892  1.00  0.00    -0.203 F 
ATOM     77  F   UNL A   1      40.749  37.130  38.058  1.00  0.00    -0.200 F 
ATOM     78  C   UNL A   1      39.322  35.547  39.072  1.00  0.00     0.200 A 
ATOM     79  F   UNL A   1      37.908  33.926  40.047  1.00  0.00    -0.200 F 
ATOM     80  F   UNL A   1      39.197  36.328  40.155  1.00  0.00    -0.200 F 
ENDBRANCH  46  70
BRANCH  58  81
ATOM     81  C   UNL A   1      43.989  28.774  35.061  1.00  0.00     0.064 A 
ATOM     82  C   UNL A   1      43.839  27.655  35.892  1.00  0.00     0.173 A 
ATOM     83  C   UNL A   1      45.283  29.286  34.875  1.00  0.00     0.173 A 
ATOM     84  F   UNL A   1      42.622  27.137  36.116  1.00  0.00    -0.203 F 
ATOM     85  C   UNL A   1      44.938  27.087  36.533  1.00  0.00     0.198 A 
ATOM     86  C   UNL A   1      46.383  28.694  35.490  1.00  0.00     0.198 A 
ATOM     87  F   UNL A   1      45.483  30.351  34.084  1.00  0.00    -0.203 F 
ATOM     88  F   UNL A   1      44.763  26.050  37.364  1.00  0.00    -0.200 F 
ATOM     89  C   UNL A   1      46.208  27.601  36.325  1.00  0.00     0.200 A 
ATOM     90  F   UNL A   1      47.612  29.184  35.274  1.00  0.00    -0.200 F 
ATOM     91  F   UNL A   1      47.265  27.048  36.935  1.00  0.00    -0.200 F 
ENDBRANCH  58  81
ENDBRANCH  32  33
ENDBRANCH  24  27
ENDBRANCH  22  23
ENDBRANCH  21  22
ENDBRANCH   1  21
TORSDOF 14
ENDMDL
MODEL 2
REMARK VINA RESULT:     -11.8      0.975      2.189
REMARK SMILES CN1CC[N@H+](CC(=O)NCCCCCCNC(=O)c2ccc(-c3c4nc(c(-c5c(F)c(F)c(F)c(F)c5F)c5ccc([nH]5)c(-c5c(F)c(F)c(F)c(F)c5F)c5nc(c(-c6c(F)c(F)c(F)c(F)c6F)c6ccc3[nH]6)C=C5)C=C4)cc2)C(C)(C)C1=O
REMARK SMILES IDX 13 1 12 2 11 3 10 4 9 5 7 6 8 7 6 9 5 10 1 11 2 12 3 13
REMARK SMILES IDX 85 14 4 15 82 16 86 17 83 18 84 19 14 21 15 22 16 23 17 24
REMARK SMILES IDX 18 26 19 27 20 28 81 29 21 30 80 31 22 32 23 33 24 34 74 35
REMARK SMILES IDX 25 36 79 37 73 38 75 39 26 40 78 41 72 42 71 43 27 45 59 46
REMARK SMILES IDX 39 47 58 48 40 49 43 50 57 51 76 52 41 53 42 54 56 56 77 57
REMARK SMILES IDX 44 58 28 59 29 60 37 61 30 62 31 63 35 64 38 65 32 66 33 67
REMARK SMILES IDX 36 68 34 69 60 70 61 71 69 72 62 73 63 74 67 75 70 76 64 77
REMARK SMILES IDX 65 78 68 79 66 80 45 81 46 82 54 83 47 84 48 85 52 86 55 87
REMARK SMILES IDX 49 88 50 89 53 90 51 91
REMARK H PARENT 9 8 5 20 16 25 75 44 43 55
REMARK Flexibility Score: inf
ROOT
ATOM      1  C   UNL A   1      31.637  30.754  26.119  1.00  0.00     0.002 C 
ENDROOT
BRANCH   1   2
ATOM      2  C   UNL A   1      32.608  29.927  26.960  1.00  0.00     0.002 C 
BRANCH   2   3
ATOM      3  C   UNL A   1      32.060  28.549  27.348  1.00  0.00     0.021 C 
BRANCH   3   4
ATOM      4  C   UNL A   1      31.679  27.640  26.176  1.00  0.00     0.116 C 
BRANCH   4   5
ATOM      5  N   UNL A   1      30.653  26.661  26.501  1.00  0.00    -0.351 N 
ATOM      6  C   UNL A   1      30.508  25.327  26.272  1.00  0.00     0.275 C 
ATOM      7  O   UNL A   1      29.554  24.776  26.835  1.00  0.00    -0.269 OA
ATOM      8  H   UNL A   1      29.896  27.049  26.998  1.00  0.00     0.163 HD
BRANCH   6   9
ATOM      9  C   UNL A   1      31.477  24.509  25.412  1.00  0.00     0.364 C 
BRANCH   9  10
ATOM     10  N   UNL A   1      32.818  24.209  25.989  1.00  0.00    -0.314 N 
ATOM     11  C   UNL A   1      34.092  20.299  24.626  1.00  0.00     0.147 C 
ATOM     12  N   UNL A   1      33.693  21.619  25.077  1.00  0.00    -0.335 N 
ATOM     13  C   UNL A   1      32.963  21.694  26.341  1.00  0.00     0.180 C 
ATOM     14  C   UNL A   1      33.955  22.741  24.285  1.00  0.00     0.283 C 
ATOM     15  C   UNL A   1      32.821  23.097  26.947  1.00  0.00     0.285 C 
ATOM     16  C   UNL A   1      33.958  24.111  25.041  1.00  0.00     0.172 C 
ATOM     17  O   UNL A   1      34.362  22.631  23.128  1.00  0.00    -0.268 OA
ATOM     18  C   UNL A   1      35.349  24.079  25.739  1.00  0.00     0.090 C 
ATOM     19  C   UNL A   1      34.040  25.397  24.197  1.00  0.00     0.090 C 
ATOM     20  H   UNL A   1      33.000  25.070  26.504  1.00  0.00     0.349 HD
ENDBRANCH   9  10
ENDBRANCH   6   9
ENDBRANCH   4   5
ENDBRANCH   3   4
ENDBRANCH   2   3
ENDBRANCH   1   2
BRANCH   1  21
ATOM     21  C   UNL A   1      31.410  32.186  26.617  1.00  0.00     0.021 C 
BRANCH  21  22
ATOM     22  C   UNL A   1      32.543  32.747  27.471  1.00  0.00     0.116 C 
BRANCH  22  23
ATOM     23  N   UNL A   1      32.412  34.189  27.626  1.00  0.00    -0.352 N 
ATOM     24  C   UNL A   1      32.965  34.979  28.598  1.00  0.00     0.251 C 
ATOM     25  H   UNL A   1      31.862  34.650  26.953  1.00  0.00     0.163 HD
ATOM     26  O   UNL A   1      32.528  36.109  28.831  1.00  0.00    -0.269 OA
BRANCH  24  27
ATOM     27  C   UNL A   1      34.104  34.456  29.375  1.00  0.00     0.039 A 
ATOM     28  C   UNL A   1      33.886  33.884  30.628  1.00  0.00     0.014 A 
ATOM     29  C   UNL A   1      35.392  34.512  28.831  1.00  0.00     0.014 A 
ATOM     30  C   UNL A   1      34.958  33.315  31.317  1.00  0.00     0.010 A 
ATOM     31  C   UNL A   1      36.444  33.881  29.485  1.00  0.00     0.010 A 
ATOM     32  C   UNL A   1      36.238  33.282  30.738  1.00  0.00    -0.014 A 
BRANCH  32  33
ATOM     33  C   UNL A   1      37.375  32.619  31.425  1.00  0.00     0.031 A 
ATOM     34  C   UNL A   1      38.078  31.462  30.774  1.00  0.00     0.074 A 
ATOM     35  C   UNL A   1      37.731  33.020  32.660  1.00  0.00     0.049 A 
ATOM     36  N   UNL A   1      39.059  30.725  31.232  1.00  0.00    -0.248 NA
ATOM     37  C   UNL A   1      37.595  31.058  29.445  1.00  0.00     0.031 C 
ATOM     38  C   UNL A   1      37.086  34.095  33.416  1.00  0.00     0.029 A 
ATOM     39  N   UNL A   1      38.714  32.565  33.502  1.00  0.00    -0.354 N 
ATOM     40  C   UNL A   1      39.301  29.771  30.253  1.00  0.00     0.074 A 
ATOM     41  C   UNL A   1      38.328  29.982  29.204  1.00  0.00     0.031 C 
ATOM     42  C   UNL A   1      37.706  34.234  34.598  1.00  0.00     0.029 A 
ATOM     43  C   UNL A   1      38.763  33.233  34.701  1.00  0.00     0.049 A 
ATOM     44  H   UNL A   1      39.326  31.830  33.268  1.00  0.00     0.167 HD
ATOM     45  C   UNL A   1      40.266  28.820  30.222  1.00  0.00     0.037 A 
ATOM     46  C   UNL A   1      39.566  33.052  35.766  1.00  0.00     0.037 A 
ATOM     47  C   UNL A   1      41.241  28.626  31.264  1.00  0.00     0.049 A 
ATOM     48  C   UNL A   1      40.621  31.980  35.713  1.00  0.00     0.074 A 
ATOM     49  C   UNL A   1      42.303  27.740  31.299  1.00  0.00     0.029 A 
ATOM     50  N   UNL A   1      41.264  29.325  32.463  1.00  0.00    -0.354 N 
ATOM     51  N   UNL A   1      40.900  31.140  34.747  1.00  0.00    -0.248 NA
ATOM     52  C   UNL A   1      41.477  31.836  36.899  1.00  0.00     0.031 C 
ATOM     53  C   UNL A   1      42.932  27.859  32.542  1.00  0.00     0.029 A 
ATOM     54  C   UNL A   1      42.301  28.864  33.259  1.00  0.00     0.049 A 
ATOM     55  H   UNL A   1      40.638  30.043  32.711  1.00  0.00     0.167 HD
ATOM     56  C   UNL A   1      41.973  30.382  35.195  1.00  0.00     0.074 A 
ATOM     57  C   UNL A   1      42.310  30.878  36.514  1.00  0.00     0.031 C 
ATOM     58  C   UNL A   1      42.619  29.365  34.573  1.00  0.00     0.037 A 
BRANCH  45  59
ATOM     59  C   UNL A   1      40.310  27.913  29.025  1.00  0.00     0.064 A 
ATOM     60  C   UNL A   1      41.053  28.237  27.879  1.00  0.00     0.173 A 
ATOM     61  C   UNL A   1      39.623  26.689  29.033  1.00  0.00     0.173 A 
ATOM     62  F   UNL A   1      41.722  29.399  27.814  1.00  0.00    -0.203 F 
ATOM     63  C   UNL A   1      41.079  27.389  26.775  1.00  0.00     0.198 A 
ATOM     64  C   UNL A   1      39.679  25.827  27.940  1.00  0.00     0.198 A 
ATOM     65  F   UNL A   1      38.903  26.324  30.104  1.00  0.00    -0.203 F 
ATOM     66  F   UNL A   1      41.750  27.747  25.672  1.00  0.00    -0.200 F 
ATOM     67  C   UNL A   1      40.398  26.182  26.809  1.00  0.00     0.200 A 
ATOM     68  F   UNL A   1      39.032  24.653  27.982  1.00  0.00    -0.200 F 
ATOM     69  F   UNL A   1      40.428  25.362  25.749  1.00  0.00    -0.200 F 
ENDBRANCH  45  59
BRANCH  46  70
ATOM     70  C   UNL A   1      39.414  33.919  36.964  1.00  0.00     0.064 A 
ATOM     71  C   UNL A   1      38.682  33.487  38.079  1.00  0.00     0.173 A 
ATOM     72  C   UNL A   1      40.003  35.191  37.024  1.00  0.00     0.173 A 
ATOM     73  F   UNL A   1      38.083  32.288  38.063  1.00  0.00    -0.203 F 
ATOM     74  C   UNL A   1      38.529  34.302  39.199  1.00  0.00     0.198 A 
ATOM     75  C   UNL A   1      39.874  35.992  38.158  1.00  0.00     0.198 A 
ATOM     76  F   UNL A   1      40.719  35.650  35.987  1.00  0.00    -0.203 F 
ATOM     77  F   UNL A   1      37.786  33.882  40.233  1.00  0.00    -0.200 F 
ATOM     78  C   UNL A   1      39.131  35.550  39.241  1.00  0.00     0.200 A 
ATOM     79  F   UNL A   1      40.473  37.190  38.200  1.00  0.00    -0.200 F 
ATOM     80  F   UNL A   1      38.990  36.330  40.322  1.00  0.00    -0.200 F 
ENDBRANCH  46  70
BRANCH  58  81
ATOM     81  C   UNL A   1      43.767  28.731  35.305  1.00  0.00     0.064 A 
ATOM     82  C   UNL A   1      45.082  29.196  35.156  1.00  0.00     0.173 A 
ATOM     83  C   UNL A   1      43.543  27.670  36.196  1.00  0.00     0.173 A 
ATOM     84  F   UNL A   1      45.353  30.197  34.305  1.00  0.00    -0.203 F 
ATOM     85  C   UNL A   1      46.134  28.605  35.852  1.00  0.00     0.198 A 
ATOM     86  C   UNL A   1      44.592  27.104  36.916  1.00  0.00     0.198 A 
ATOM     87  F   UNL A   1      42.303  27.191  36.381  1.00  0.00    -0.203 F 
ATOM     88  F   UNL A   1      47.389  29.032  35.655  1.00  0.00    -0.200 F 
ATOM     89  C   UNL A   1      45.887  27.566  36.737  1.00  0.00     0.200 A 
ATOM     90  F   UNL A   1      44.349  26.111  37.783  1.00  0.00    -0.200 F 
ATOM     91  F   UNL A   1      46.899  27.005  37.412  1.00  0.00    -0.200 F 
ENDBRANCH  58  81
ENDBRANCH  32  33
ENDBRANCH  24  27
ENDBRANCH  22  23
ENDBRANCH  21  22
ENDBRANCH   1  21
TORSDOF 14
ENDMDL
MODEL 3
REMARK VINA RESULT:     -11.7      0.981      7.746
REMARK SMILES CN1CC[N@H+](CC(=O)NCCCCCCNC(=O)c2ccc(-c3c4nc(c(-c5c(F)c(F)c(F)c(F)c5F)c5ccc([nH]5)c(-c5c(F)c(F)c(F)c(F)c5F)c5nc(c(-c6c(F)c(F)c(F)c(F)c6F)c6ccc3[nH]6)C=C5)C=C4)cc2)C(C)(C)C1=O
REMARK SMILES IDX 13 1 12 2 11 3 10 4 9 5 7 6 8 7 6 9 5 10 1 11 2 12 3 13
REMARK SMILES IDX 85 14 4 15 82 16 86 17 83 18 84 19 14 21 15 22 16 23 17 24
REMARK SMILES IDX 18 26 19 27 20 28 81 29 21 30 80 31 22 32 23 33 24 34 74 35
REMARK SMILES IDX 25 36 79 37 73 38 75 39 26 40 78 41 72 42 71 43 27 45 59 46
REMARK SMILES IDX 39 47 58 48 40 49 43 50 57 51 76 52 41 53 42 54 56 56 77 57
REMARK SMILES IDX 44 58 28 59 29 60 37 61 30 62 31 63 35 64 38 65 32 66 33 67
REMARK SMILES IDX 36 68 34 69 60 70 61 71 69 72 62 73 63 74 67 75 70 76 64 77
REMARK SMILES IDX 65 78 68 79 66 80 45 81 46 82 54 83 47 84 48 85 52 86 55 87
REMARK SMILES IDX 49 88 50 89 53 90 51 91
REMARK H PARENT 9 8 5 20 16 25 75 44 43 55
REMARK Flexibility Score: inf
ROOT
ATOM      1  C   UNL A   1      31.521  30.833  25.983  1.00  0.00     0.002 C 
ENDROOT
BRANCH   1   2
ATOM      2  C   UNL A   1      32.451  29.932  26.793  1.00  0.00     0.002 C 
BRANCH   2   3
ATOM      3  C   UNL A   1      31.776  28.649  27.294  1.00  0.00     0.021 C 
BRANCH   3   4
ATOM      4  C   UNL A   1      32.154  27.372  26.538  1.00  0.00     0.116 C 
BRANCH   4   5
ATOM      5  N   UNL A   1      31.311  26.229  26.859  1.00  0.00    -0.351 N 
ATOM      6  C   UNL A   1      31.018  25.059  26.227  1.00  0.00     0.275 C 
ATOM      7  O   UNL A   1      30.361  24.237  26.877  1.00  0.00    -0.269 OA
ATOM      8  H   UNL A   1      30.852  26.322  27.725  1.00  0.00     0.163 HD
BRANCH   6   9
ATOM      9  C   UNL A   1      31.496  24.723  24.811  1.00  0.00     0.364 C 
BRANCH   9  10
ATOM     10  N   UNL A   1      32.861  24.141  24.670  1.00  0.00    -0.314 N 
ATOM     11  C   UNL A   1      32.534  19.826  24.466  1.00  0.00     0.147 C 
ATOM     12  N   UNL A   1      32.663  21.269  24.512  1.00  0.00    -0.335 N 
ATOM     13  C   UNL A   1      32.857  21.876  25.827  1.00  0.00     0.180 C 
ATOM     14  C   UNL A   1      32.540  22.024  23.341  1.00  0.00     0.283 C 
ATOM     15  C   UNL A   1      33.294  23.347  25.826  1.00  0.00     0.285 C 
ATOM     16  C   UNL A   1      33.176  23.452  23.391  1.00  0.00     0.172 C 
ATOM     17  O   UNL A   1      32.151  21.518  22.288  1.00  0.00    -0.268 OA
ATOM     18  C   UNL A   1      34.688  23.126  23.214  1.00  0.00     0.090 C 
ATOM     19  C   UNL A   1      32.901  24.404  22.211  1.00  0.00     0.090 C 
ATOM     20  H   UNL A   1      33.426  24.988  24.638  1.00  0.00     0.349 HD
ENDBRANCH   9  10
ENDBRANCH   6   9
ENDBRANCH   4   5
ENDBRANCH   3   4
ENDBRANCH   2   3
ENDBRANCH   1   2
BRANCH   1  21
ATOM     21  C   UNL A   1      31.400  32.270  26.503  1.00  0.00     0.021 C 
BRANCH  21  22
ATOM     22  C   UNL A   1      32.630  32.779  27.249  1.00  0.00     0.116 C 
BRANCH  22  23
ATOM     23  N   UNL A   1      32.496  34.194  27.567  1.00  0.00    -0.352 N 
ATOM     24  C   UNL A   1      33.041  34.868  28.628  1.00  0.00     0.251 C 
ATOM     25  H   UNL A   1      31.950  34.729  26.947  1.00  0.00     0.163 HD
ATOM     26  O   UNL A   1      32.600  35.963  28.985  1.00  0.00    -0.269 OA
BRANCH  24  27
ATOM     27  C   UNL A   1      34.174  34.260  29.348  1.00  0.00     0.039 A 
ATOM     28  C   UNL A   1      33.936  33.426  30.440  1.00  0.00     0.014 A 
ATOM     29  C   UNL A   1      35.480  34.503  28.908  1.00  0.00     0.014 A 
ATOM     30  C   UNL A   1      35.011  32.787  31.061  1.00  0.00     0.010 A 
ATOM     31  C   UNL A   1      36.540  33.811  29.481  1.00  0.00     0.010 A 
ATOM     32  C   UNL A   1      36.317  32.951  30.568  1.00  0.00    -0.014 A 
BRANCH  32  33
ATOM     33  C   UNL A   1      37.462  32.226  31.171  1.00  0.00     0.031 A 
ATOM     34  C   UNL A   1      37.943  32.586  32.548  1.00  0.00     0.074 A 
ATOM     35  C   UNL A   1      38.107  31.287  30.453  1.00  0.00     0.049 A 
ATOM     36  N   UNL A   1      38.952  32.100  33.227  1.00  0.00    -0.248 NA
ATOM     37  C   UNL A   1      37.211  33.655  33.245  1.00  0.00     0.031 C 
ATOM     38  C   UNL A   1      37.767  30.891  29.085  1.00  0.00     0.029 A 
ATOM     39  N   UNL A   1      39.187  30.502  30.767  1.00  0.00    -0.354 N 
ATOM     40  C   UNL A   1      38.979  32.809  34.420  1.00  0.00     0.074 A 
ATOM     41  C   UNL A   1      37.926  33.798  34.351  1.00  0.00     0.031 C 
ATOM     42  C   UNL A   1      38.605  29.921  28.687  1.00  0.00     0.029 A 
ATOM     43  C   UNL A   1      39.566  29.655  29.754  1.00  0.00     0.049 A 
ATOM     44  H   UNL A   1      39.647  30.542  31.637  1.00  0.00     0.167 HD
ATOM     45  C   UNL A   1      39.794  32.633  35.488  1.00  0.00     0.037 A 
ATOM     46  C   UNL A   1      40.578  28.770  29.691  1.00  0.00     0.037 A 
ATOM     47  C   UNL A   1      40.831  31.636  35.556  1.00  0.00     0.049 A 
ATOM     48  C   UNL A   1      41.479  28.603  30.885  1.00  0.00     0.074 A 
ATOM     49  C   UNL A   1      41.665  31.328  36.616  1.00  0.00     0.029 A 
ATOM     50  N   UNL A   1      41.182  30.791  34.511  1.00  0.00    -0.354 N 
ATOM     51  N   UNL A   1      41.442  29.216  32.042  1.00  0.00    -0.248 NA
ATOM     52  C   UNL A   1      42.559  27.614  30.765  1.00  0.00     0.031 C 
ATOM     53  C   UNL A   1      42.561  30.339  36.195  1.00  0.00     0.029 A 
ATOM     54  C   UNL A   1      42.245  29.987  34.891  1.00  0.00     0.049 A 
ATOM     55  H   UNL A   1      40.742  30.767  33.631  1.00  0.00     0.167 HD
ATOM     56  C   UNL A   1      42.476  28.678  32.795  1.00  0.00     0.074 A 
ATOM     57  C   UNL A   1      43.109  27.670  31.970  1.00  0.00     0.031 C 
ATOM     58  C   UNL A   1      42.868  28.992  34.056  1.00  0.00     0.037 A 
BRANCH  45  59
ATOM     59  C   UNL A   1      39.601  33.543  36.668  1.00  0.00     0.064 A 
ATOM     60  C   UNL A   1      38.779  33.187  37.749  1.00  0.00     0.173 A 
ATOM     61  C   UNL A   1      40.267  34.776  36.733  1.00  0.00     0.173 A 
ATOM     62  F   UNL A   1      38.111  32.023  37.735  1.00  0.00    -0.203 F 
ATOM     63  C   UNL A   1      38.605  34.044  38.832  1.00  0.00     0.198 A 
ATOM     64  C   UNL A   1      40.118  35.616  37.834  1.00  0.00     0.198 A 
ATOM     65  F   UNL A   1      41.071  35.166  35.732  1.00  0.00    -0.203 F 
ATOM     66  F   UNL A   1      37.772  33.705  39.826  1.00  0.00    -0.200 F 
ATOM     67  C   UNL A   1      39.279  35.254  38.878  1.00  0.00     0.200 A 
ATOM     68  F   UNL A   1      40.783  36.779  37.883  1.00  0.00    -0.200 F 
ATOM     69  F   UNL A   1      39.117  36.076  39.924  1.00  0.00    -0.200 F 
ENDBRANCH  45  59
BRANCH  46  70
ATOM     70  C   UNL A   1      40.781  27.963  28.459  1.00  0.00     0.064 A 
ATOM     71  C   UNL A   1      40.173  26.709  28.310  1.00  0.00     0.173 A 
ATOM     72  C   UNL A   1      41.578  28.431  27.403  1.00  0.00     0.173 A 
ATOM     73  F   UNL A   1      39.419  26.209  29.298  1.00  0.00    -0.203 F 
ATOM     74  C   UNL A   1      40.370  25.946  27.160  1.00  0.00     0.198 A 
ATOM     75  C   UNL A   1      41.748  27.680  26.241  1.00  0.00     0.198 A 
ATOM     76  F   UNL A   1      42.177  29.628  27.493  1.00  0.00    -0.203 F 
ATOM     77  F   UNL A   1      39.813  24.731  27.063  1.00  0.00    -0.200 F 
ATOM     78  C   UNL A   1      41.150  26.435  26.125  1.00  0.00     0.200 A 
ATOM     79  F   UNL A   1      42.490  28.165  25.236  1.00  0.00    -0.200 F 
ATOM     80  F   UNL A   1      41.333  25.704  25.015  1.00  0.00    -0.200 F 
ENDBRANCH  46  70
BRANCH  58  81
ATOM     81  C   UNL A   1      44.027  28.224  34.625  1.00  0.00     0.064 A 
ATOM     82  C   UNL A   1      45.344  28.696  34.522  1.00  0.00     0.173 A 
ATOM     83  C   UNL A   1      43.812  27.022  35.317  1.00  0.00     0.173 A 
ATOM     84  F   UNL A   1      45.606  29.831  33.857  1.00  0.00    -0.203 F 
ATOM     85  C   UNL A   1      46.406  27.977  35.066  1.00  0.00     0.198 A 
ATOM     86  C   UNL A   1      44.872  26.324  35.889  1.00  0.00     0.198 A 
ATOM     87  F   UNL A   1      42.571  26.530  35.450  1.00  0.00    -0.203 F 
ATOM     88  F   UNL A   1      47.661  28.420  34.910  1.00  0.00    -0.200 F 
ATOM     89  C   UNL A   1      46.169  26.798  35.756  1.00  0.00     0.200 A 
ATOM     90  F   UNL A   1      44.639  25.193  36.569  1.00  0.00    -0.200 F 
ATOM     91  F   UNL A   1      47.191  26.114  36.286  1.00  0.00    -0.200 F 
ENDBRANCH  58  81
ENDBRANCH  32  33
ENDBRANCH  24  27
ENDBRANCH  22  23
ENDBRANCH  21  22
ENDBRANCH   1  21
TORSDOF 14
ENDMDL
