MODEL 1
REMARK VINA RESULT:     -12.5      0.000      0.000
REMARK SMILES C[C@@H](C(=O)NCCCCCCNC(=O)c1ccc(-c2c3nc(c(-c4c(F)c(F)c(F)c(F)c4F)c4ccc([nH]4)c(-c4c(F)c(F)c(F)c(F)c4F)c4nc(c(-c5c(F)c(F)c(F)c(F)c5F)c5ccc2[nH]5)C=C4)C=C3)cc1)c1ccc(C[C@H]2CCC[C@@H]2O)cc1Br
REMARK SMILES IDX 7 1 6 2 5 3 3 4 4 5 2 7 1 8 78 9 79 10 90 11 80 12 89 13
REMARK SMILES IDX 91 14 81 15 82 16 83 17 84 18 87 19 85 20 86 21 88 22 8 24
REMARK SMILES IDX 9 25 10 26 11 27 12 28 13 29 14 31 15 32 16 33 77 34 17 35
REMARK SMILES IDX 76 36 18 37 19 38 20 39 70 40 21 41 75 42 69 43 71 44 22 45
REMARK SMILES IDX 74 46 68 47 67 48 23 50 55 51 35 52 54 53 36 54 39 55 53 56
REMARK SMILES IDX 72 57 37 58 38 59 52 61 73 62 40 63 24 64 25 65 33 66 26 67
REMARK SMILES IDX 27 68 31 69 34 70 28 71 29 72 32 73 30 74 56 75 57 76 65 77
REMARK SMILES IDX 58 78 59 79 63 80 66 81 60 82 61 83 64 84 62 85 41 86 42 87
REMARK SMILES IDX 50 88 43 89 44 90 48 91 51 92 45 93 46 94 49 95 47 96
REMARK H PARENT 5 6 88 23 12 30 71 49 39 60
REMARK Flexibility Score: inf
ROOT
ATOM      1  C   UNL A   1      33.703  28.542  25.521  1.00  0.00     0.021 C 
ENDROOT
BRANCH   1   2
ATOM      2  C   UNL A   1      33.136  27.269  26.160  1.00  0.00     0.116 C 
BRANCH   2   3
ATOM      3  N   UNL A   1      31.990  26.814  25.400  1.00  0.00    -0.356 N 
ATOM      4  C   UNL A   1      31.950  26.321  24.126  1.00  0.00     0.227 C 
ATOM      5  O   UNL A   1      30.879  26.396  23.520  1.00  0.00    -0.274 OA
ATOM      6  H   UNL A   1      31.123  26.866  25.863  1.00  0.00     0.163 HD
BRANCH   4   7
ATOM      7  C   UNL A   1      33.220  25.692  23.522  1.00  0.00     0.106 C 
ATOM      8  C   UNL A   1      33.346  26.235  22.087  1.00  0.00     0.023 C 
BRANCH   7   9
ATOM      9  C   UNL A   1      33.209  24.158  23.604  1.00  0.00    -0.022 A 
ATOM     10  C   UNL A   1      32.362  23.408  22.769  1.00  0.00     0.006 A 
ATOM     11  C   UNL A   1      34.012  23.429  24.505  1.00  0.00     0.022 A 
ATOM     12  C   UNL A   1      32.198  22.034  22.932  1.00  0.00     0.004 A 
ATOM     13  C   UNL A   1      33.791  22.059  24.717  1.00  0.00     0.019 A 
ATOM     14  Br  UNL A   1      35.469  24.202  25.459  1.00  0.00    -0.051 Br
ATOM     15  C   UNL A   1      32.830  21.364  23.975  1.00  0.00    -0.047 A 
BRANCH  15  16
ATOM     16  C   UNL A   1      32.463  19.941  24.313  1.00  0.00     0.041 C 
BRANCH  16  17
ATOM     17  C   UNL A   1      33.374  18.852  23.708  1.00  0.00     0.022 C 
ATOM     18  C   UNL A   1      34.535  18.381  24.603  1.00  0.00     0.007 C 
ATOM     19  C   UNL A   1      32.690  17.554  23.262  1.00  0.00     0.117 C 
ATOM     20  C   UNL A   1      34.702  16.881  24.334  1.00  0.00     0.003 C 
ATOM     21  C   UNL A   1      33.855  16.590  23.106  1.00  0.00     0.032 C 
BRANCH  19  22
ATOM     22  O   UNL A   1      31.998  17.708  22.037  1.00  0.00    -0.393 OA
ATOM     23  H   UNL A   1      31.208  17.145  22.038  1.00  0.00     0.210 HD
ENDBRANCH  19  22
ENDBRANCH  16  17
ENDBRANCH  15  16
ENDBRANCH   7   9
ENDBRANCH   4   7
ENDBRANCH   2   3
ENDBRANCH   1   2
BRANCH   1  24
ATOM     24  C   UNL A   1      33.372  29.823  26.298  1.00  0.00     0.002 C 
BRANCH  24  25
ATOM     25  C   UNL A   1      31.885  30.187  26.332  1.00  0.00     0.002 C 
BRANCH  25  26
ATOM     26  C   UNL A   1      31.589  31.641  26.701  1.00  0.00     0.021 C 
BRANCH  26  27
ATOM     27  C   UNL A   1      32.788  32.405  27.248  1.00  0.00     0.116 C 
BRANCH  27  28
ATOM     28  N   UNL A   1      32.471  33.798  27.525  1.00  0.00    -0.352 N 
ATOM     29  C   UNL A   1      33.025  34.628  28.469  1.00  0.00     0.251 C 
ATOM     30  H   UNL A   1      31.768  34.196  26.964  1.00  0.00     0.163 HD
ATOM     31  O   UNL A   1      32.534  35.725  28.711  1.00  0.00    -0.269 OA
BRANCH  29  32
ATOM     32  C   UNL A   1      34.217  34.171  29.207  1.00  0.00     0.039 A 
ATOM     33  C   UNL A   1      34.056  33.365  30.336  1.00  0.00     0.014 A 
ATOM     34  C   UNL A   1      35.493  34.522  28.758  1.00  0.00     0.014 A 
ATOM     35  C   UNL A   1      35.183  32.855  30.985  1.00  0.00     0.010 A 
ATOM     36  C   UNL A   1      36.610  33.963  29.365  1.00  0.00     0.010 A 
ATOM     37  C   UNL A   1      36.466  33.127  30.485  1.00  0.00    -0.014 A 
BRANCH  37  38
ATOM     38  C   UNL A   1      37.689  32.577  31.117  1.00  0.00     0.031 A 
ATOM     39  C   UNL A   1      38.418  31.449  30.448  1.00  0.00     0.074 A 
ATOM     40  C   UNL A   1      38.068  33.003  32.335  1.00  0.00     0.049 A 
ATOM     41  N   UNL A   1      39.380  30.691  30.908  1.00  0.00    -0.248 NA
ATOM     42  C   UNL A   1      37.973  31.100  29.090  1.00  0.00     0.031 C 
ATOM     43  C   UNL A   1      37.417  34.065  33.100  1.00  0.00     0.029 A 
ATOM     44  N   UNL A   1      39.074  32.564  33.160  1.00  0.00    -0.354 N 
ATOM     45  C   UNL A   1      39.627  29.755  29.914  1.00  0.00     0.074 A 
ATOM     46  C   UNL A   1      38.690  30.015  28.843  1.00  0.00     0.031 C 
ATOM     47  C   UNL A   1      38.033  34.192  34.286  1.00  0.00     0.029 A 
ATOM     48  C   UNL A   1      39.094  33.192  34.380  1.00  0.00     0.049 A 
ATOM     49  H   UNL A   1      39.719  31.867  32.901  1.00  0.00     0.167 HD
ATOM     50  C   UNL A   1      40.562  28.775  29.894  1.00  0.00     0.037 A 
ATOM     51  C   UNL A   1      39.865  32.970  35.463  1.00  0.00     0.037 A 
ATOM     52  C   UNL A   1      41.514  28.549  30.947  1.00  0.00     0.049 A 
ATOM     53  C   UNL A   1      40.911  31.891  35.414  1.00  0.00     0.074 A 
ATOM     54  C   UNL A   1      42.552  27.635  30.991  1.00  0.00     0.029 A 
ATOM     55  N   UNL A   1      41.543  29.248  32.145  1.00  0.00    -0.354 N 
ATOM     56  N   UNL A   1      41.179  31.046  34.447  1.00  0.00    -0.248 NA
ATOM     57  C   UNL A   1      41.765  31.735  36.598  1.00  0.00     0.031 C 
ATOM     58  C   UNL A   1      43.183  27.753  32.235  1.00  0.00     0.029 A 
ATOM     59  C   UNL A   1      42.569  28.773  32.945  1.00  0.00     0.049 A 
ATOM     60  H   UNL A   1      40.925  29.975  32.391  1.00  0.00     0.167 HD
ATOM     61  C   UNL A   1      42.246  30.280  34.893  1.00  0.00     0.074 A 
ATOM     62  C   UNL A   1      42.579  30.759  36.219  1.00  0.00     0.031 C 
ATOM     63  C   UNL A   1      42.894  29.273  34.258  1.00  0.00     0.037 A 
BRANCH  50  64
ATOM     64  C   UNL A   1      40.582  27.868  28.698  1.00  0.00     0.064 A 
ATOM     65  C   UNL A   1      41.357  28.155  27.564  1.00  0.00     0.173 A 
ATOM     66  C   UNL A   1      39.813  26.694  28.686  1.00  0.00     0.173 A 
ATOM     67  F   UNL A   1      42.100  29.272  27.520  1.00  0.00    -0.203 F 
ATOM     68  C   UNL A   1      41.327  27.326  26.446  1.00  0.00     0.198 A 
ATOM     69  C   UNL A   1      39.811  25.849  27.579  1.00  0.00     0.198 A 
ATOM     70  F   UNL A   1      39.060  26.367  29.746  1.00  0.00    -0.203 F 
ATOM     71  F   UNL A   1      42.024  27.656  25.350  1.00  0.00    -0.200 F 
ATOM     72  C   UNL A   1      40.558  26.172  26.457  1.00  0.00     0.200 A 
ATOM     73  F   UNL A   1      39.078  24.728  27.595  1.00  0.00    -0.200 F 
ATOM     74  F   UNL A   1      40.528  25.376  25.378  1.00  0.00    -0.200 F 
ENDBRANCH  50  64
BRANCH  51  75
ATOM     75  C   UNL A   1      39.673  33.803  36.676  1.00  0.00     0.064 A 
ATOM     76  C   UNL A   1      40.281  35.060  36.787  1.00  0.00     0.173 A 
ATOM     77  C   UNL A   1      38.842  33.382  37.725  1.00  0.00     0.173 A 
ATOM     78  F   UNL A   1      41.097  35.497  35.818  1.00  0.00    -0.203 F 
ATOM     79  C   UNL A   1      40.069  35.865  37.906  1.00  0.00     0.198 A 
ATOM     80  C   UNL A   1      38.613  34.197  38.831  1.00  0.00     0.198 A 
ATOM     81  F   UNL A   1      38.230  32.190  37.661  1.00  0.00    -0.203 F 
ATOM     82  F   UNL A   1      40.681  37.053  37.999  1.00  0.00    -0.200 F 
ATOM     83  C   UNL A   1      39.228  35.436  38.922  1.00  0.00     0.200 A 
ATOM     84  F   UNL A   1      37.786  33.787  39.803  1.00  0.00    -0.200 F 
ATOM     85  F   UNL A   1      39.011  36.217  39.989  1.00  0.00    -0.200 F 
ENDBRANCH  51  75
BRANCH  63  86
ATOM     86  C   UNL A   1      44.058  28.642  34.960  1.00  0.00     0.064 A 
ATOM     87  C   UNL A   1      45.353  29.169  34.859  1.00  0.00     0.173 A 
ATOM     88  C   UNL A   1      43.857  27.548  35.816  1.00  0.00     0.173 A 
ATOM     89  F   UNL A   1      45.597  30.205  34.042  1.00  0.00    -0.203 F 
ATOM     90  C   UNL A   1      46.407  28.620  35.585  1.00  0.00     0.198 A 
ATOM     91  C   UNL A   1      44.907  27.017  36.559  1.00  0.00     0.198 A 
ATOM     92  F   UNL A   1      42.634  27.012  35.951  1.00  0.00    -0.203 F 
ATOM     93  F   UNL A   1      47.641  29.124  35.456  1.00  0.00    -0.200 F 
ATOM     94  C   UNL A   1      46.180  27.552  36.442  1.00  0.00     0.200 A 
ATOM     95  F   UNL A   1      44.684  25.994  37.396  1.00  0.00    -0.200 F 
ATOM     96  F   UNL A   1      47.192  27.038  37.155  1.00  0.00    -0.200 F 
ENDBRANCH  63  86
ENDBRANCH  37  38
ENDBRANCH  29  32
ENDBRANCH  27  28
ENDBRANCH  26  27
ENDBRANCH  25  26
ENDBRANCH  24  25
ENDBRANCH   1  24
TORSDOF 17
ENDMDL
MODEL 2
REMARK VINA RESULT:     -12.3      0.689      1.728
REMARK SMILES C[C@@H](C(=O)NCCCCCCNC(=O)c1ccc(-c2c3nc(c(-c4c(F)c(F)c(F)c(F)c4F)c4ccc([nH]4)c(-c4c(F)c(F)c(F)c(F)c4F)c4nc(c(-c5c(F)c(F)c(F)c(F)c5F)c5ccc2[nH]5)C=C4)C=C3)cc1)c1ccc(C[C@H]2CCC[C@@H]2O)cc1Br
REMARK SMILES IDX 7 1 6 2 5 3 3 4 4 5 2 7 1 8 78 9 79 10 90 11 80 12 89 13
REMARK SMILES IDX 91 14 81 15 82 16 83 17 84 18 87 19 85 20 86 21 88 22 8 24
REMARK SMILES IDX 9 25 10 26 11 27 12 28 13 29 14 31 15 32 16 33 77 34 17 35
REMARK SMILES IDX 76 36 18 37 19 38 20 39 70 40 21 41 75 42 69 43 71 44 22 45
REMARK SMILES IDX 74 46 68 47 67 48 23 50 55 51 35 52 54 53 36 54 39 55 53 56
REMARK SMILES IDX 72 57 37 58 38 59 52 61 73 62 40 63 24 64 25 65 33 66 26 67
REMARK SMILES IDX 27 68 31 69 34 70 28 71 29 72 32 73 30 74 56 75 57 76 65 77
REMARK SMILES IDX 58 78 59 79 63 80 66 81 60 82 61 83 64 84 62 85 41 86 42 87
REMARK SMILES IDX 50 88 43 89 44 90 48 91 51 92 45 93 46 94 49 95 47 96
REMARK H PARENT 5 6 88 23 12 30 71 49 39 60
REMARK Flexibility Score: inf
ROOT
ATOM      1  C   UNL A   1      33.789  28.933  27.133  1.00  0.00     0.021 C 
ENDROOT
BRANCH   1   2
ATOM      2  C   UNL A   1      34.008  27.812  26.109  1.00  0.00     0.116 C 
BRANCH   2   3
ATOM      3  N   UNL A   1      32.982  26.803  26.267  1.00  0.00    -0.356 N 
ATOM      4  C   UNL A   1      32.631  25.799  25.408  1.00  0.00     0.227 C 
ATOM      5  O   UNL A   1      31.494  25.334  25.511  1.00  0.00    -0.274 OA
ATOM      6  H   UNL A   1      32.467  26.845  27.105  1.00  0.00     0.163 HD
BRANCH   4   7
ATOM      7  C   UNL A   1      33.660  25.295  24.379  1.00  0.00     0.106 C 
ATOM      8  C   UNL A   1      33.543  26.211  23.147  1.00  0.00     0.023 C 
BRANCH   7   9
ATOM      9  C   UNL A   1      33.485  23.803  24.059  1.00  0.00    -0.022 A 
ATOM     10  C   UNL A   1      32.717  23.399  22.952  1.00  0.00     0.006 A 
ATOM     11  C   UNL A   1      34.053  22.776  24.840  1.00  0.00     0.022 A 
ATOM     12  C   UNL A   1      32.395  22.062  22.730  1.00  0.00     0.004 A 
ATOM     13  C   UNL A   1      33.667  21.438  24.658  1.00  0.00     0.019 A 
ATOM     14  Br  UNL A   1      35.402  23.089  26.148  1.00  0.00    -0.051 Br
ATOM     15  C   UNL A   1      32.777  21.081  23.640  1.00  0.00    -0.047 A 
BRANCH  15  16
ATOM     16  C   UNL A   1      32.222  19.682  23.544  1.00  0.00     0.041 C 
BRANCH  16  17
ATOM     17  C   UNL A   1      33.066  18.577  24.216  1.00  0.00     0.022 C 
ATOM     18  C   UNL A   1      32.673  18.223  25.661  1.00  0.00     0.007 C 
ATOM     19  C   UNL A   1      33.122  17.224  23.497  1.00  0.00     0.117 C 
ATOM     20  C   UNL A   1      32.889  16.713  25.806  1.00  0.00     0.003 C 
ATOM     21  C   UNL A   1      33.663  16.291  24.568  1.00  0.00     0.032 C 
BRANCH  19  22
ATOM     22  O   UNL A   1      33.983  17.251  22.373  1.00  0.00    -0.393 OA
ATOM     23  H   UNL A   1      34.501  18.070  22.382  1.00  0.00     0.210 HD
ENDBRANCH  19  22
ENDBRANCH  16  17
ENDBRANCH  15  16
ENDBRANCH   7   9
ENDBRANCH   4   7
ENDBRANCH   2   3
ENDBRANCH   1   2
BRANCH   1  24
ATOM     24  C   UNL A   1      32.330  29.398  27.234  1.00  0.00     0.002 C 
BRANCH  24  25
ATOM     25  C   UNL A   1      31.912  30.435  26.188  1.00  0.00     0.002 C 
BRANCH  25  26
ATOM     26  C   UNL A   1      31.580  31.818  26.753  1.00  0.00     0.021 C 
BRANCH  26  27
ATOM     27  C   UNL A   1      32.783  32.575  27.302  1.00  0.00     0.116 C 
BRANCH  27  28
ATOM     28  N   UNL A   1      32.475  33.972  27.568  1.00  0.00    -0.352 N 
ATOM     29  C   UNL A   1      33.019  34.799  28.520  1.00  0.00     0.251 C 
ATOM     30  H   UNL A   1      31.787  34.376  26.993  1.00  0.00     0.163 HD
ATOM     31  O   UNL A   1      32.535  35.902  28.750  1.00  0.00    -0.269 OA
BRANCH  29  32
ATOM     32  C   UNL A   1      34.193  34.332  29.282  1.00  0.00     0.039 A 
ATOM     33  C   UNL A   1      33.999  33.631  30.475  1.00  0.00     0.014 A 
ATOM     34  C   UNL A   1      35.481  34.566  28.794  1.00  0.00     0.014 A 
ATOM     35  C   UNL A   1      35.102  33.108  31.154  1.00  0.00     0.010 A 
ATOM     36  C   UNL A   1      36.571  33.991  29.435  1.00  0.00     0.010 A 
ATOM     37  C   UNL A   1      36.392  33.259  30.622  1.00  0.00    -0.014 A 
BRANCH  37  38
ATOM     38  C   UNL A   1      37.589  32.689  31.284  1.00  0.00     0.031 A 
ATOM     39  C   UNL A   1      38.305  31.536  30.644  1.00  0.00     0.074 A 
ATOM     40  C   UNL A   1      37.952  33.121  32.506  1.00  0.00     0.049 A 
ATOM     41  N   UNL A   1      39.239  30.762  31.133  1.00  0.00    -0.248 NA
ATOM     42  C   UNL A   1      37.879  31.181  29.282  1.00  0.00     0.031 C 
ATOM     43  C   UNL A   1      37.311  34.207  33.245  1.00  0.00     0.029 A 
ATOM     44  N   UNL A   1      38.931  32.669  33.356  1.00  0.00    -0.354 N 
ATOM     45  C   UNL A   1      39.485  29.809  30.155  1.00  0.00     0.074 A 
ATOM     46  C   UNL A   1      38.576  30.077  29.062  1.00  0.00     0.031 C 
ATOM     47  C   UNL A   1      37.906  34.334  34.442  1.00  0.00     0.029 A 
ATOM     48  C   UNL A   1      38.941  33.311  34.569  1.00  0.00     0.049 A 
ATOM     49  H   UNL A   1      39.564  31.954  33.119  1.00  0.00     0.167 HD
ATOM     50  C   UNL A   1      40.396  28.807  30.166  1.00  0.00     0.037 A 
ATOM     51  C   UNL A   1      39.683  33.084  35.670  1.00  0.00     0.037 A 
ATOM     52  C   UNL A   1      41.322  28.572  31.241  1.00  0.00     0.049 A 
ATOM     53  C   UNL A   1      40.705  31.981  35.655  1.00  0.00     0.074 A 
ATOM     54  C   UNL A   1      42.336  27.635  31.318  1.00  0.00     0.029 A 
ATOM     55  N   UNL A   1      41.342  29.285  32.432  1.00  0.00    -0.354 N 
ATOM     56  N   UNL A   1      40.972  31.118  34.705  1.00  0.00    -0.248 NA
ATOM     57  C   UNL A   1      41.530  31.819  36.860  1.00  0.00     0.031 C 
ATOM     58  C   UNL A   1      42.945  27.753  32.573  1.00  0.00     0.029 A 
ATOM     59  C   UNL A   1      42.340  28.795  33.258  1.00  0.00     0.049 A 
ATOM     60  H   UNL A   1      40.736  30.028  32.656  1.00  0.00     0.167 HD
ATOM     61  C   UNL A   1      42.012  30.332  35.181  1.00  0.00     0.074 A 
ATOM     62  C   UNL A   1      42.328  30.820  36.509  1.00  0.00     0.031 C 
ATOM     63  C   UNL A   1      42.649  29.304  34.572  1.00  0.00     0.037 A 
BRANCH  50  64
ATOM     64  C   UNL A   1      40.420  27.885  28.981  1.00  0.00     0.064 A 
ATOM     65  C   UNL A   1      41.197  28.160  27.846  1.00  0.00     0.173 A 
ATOM     66  C   UNL A   1      39.653  26.710  28.982  1.00  0.00     0.173 A 
ATOM     67  F   UNL A   1      41.938  29.277  27.790  1.00  0.00    -0.203 F 
ATOM     68  C   UNL A   1      41.170  27.317  26.738  1.00  0.00     0.198 A 
ATOM     69  C   UNL A   1      39.654  25.852  27.886  1.00  0.00     0.198 A 
ATOM     70  F   UNL A   1      38.898  26.396  30.045  1.00  0.00    -0.203 F 
ATOM     71  F   UNL A   1      41.869  27.635  25.639  1.00  0.00    -0.200 F 
ATOM     72  C   UNL A   1      40.402  26.162  26.761  1.00  0.00     0.200 A 
ATOM     73  F   UNL A   1      38.921  24.731  27.914  1.00  0.00    -0.200 F 
ATOM     74  F   UNL A   1      40.375  25.353  25.692  1.00  0.00    -0.200 F 
ENDBRANCH  50  64
BRANCH  51  75
ATOM     75  C   UNL A   1      39.486  33.936  36.869  1.00  0.00     0.064 A 
ATOM     76  C   UNL A   1      38.704  33.494  37.944  1.00  0.00     0.173 A 
ATOM     77  C   UNL A   1      40.112  35.186  36.985  1.00  0.00     0.173 A 
ATOM     78  F   UNL A   1      38.072  32.314  37.870  1.00  0.00    -0.203 F 
ATOM     79  C   UNL A   1      38.551  34.272  39.090  1.00  0.00     0.198 A 
ATOM     80  C   UNL A   1      39.976  35.953  38.141  1.00  0.00     0.198 A 
ATOM     81  F   UNL A   1      40.878  35.650  35.987  1.00  0.00    -0.203 F 
ATOM     82  F   UNL A   1      37.778  33.836  40.094  1.00  0.00    -0.200 F 
ATOM     83  C   UNL A   1      39.194  35.497  39.191  1.00  0.00     0.200 A 
ATOM     84  F   UNL A   1      40.613  37.128  38.241  1.00  0.00    -0.200 F 
ATOM     85  F   UNL A   1      39.060  36.237  40.300  1.00  0.00    -0.200 F 
ENDBRANCH  51  75
BRANCH  63  86
ATOM     86  C   UNL A   1      43.784  28.655  35.306  1.00  0.00     0.064 A 
ATOM     87  C   UNL A   1      43.576  27.574  36.173  1.00  0.00     0.173 A 
ATOM     88  C   UNL A   1      45.105  29.065  35.068  1.00  0.00     0.173 A 
ATOM     89  F   UNL A   1      42.330  27.155  36.443  1.00  0.00    -0.203 F 
ATOM     90  C   UNL A   1      44.651  26.930  36.782  1.00  0.00     0.198 A 
ATOM     91  C   UNL A   1      46.177  28.404  35.658  1.00  0.00     0.198 A 
ATOM     92  F   UNL A   1      45.354  30.092  34.241  1.00  0.00    -0.203 F 
ATOM     93  F   UNL A   1      44.429  25.913  37.626  1.00  0.00    -0.200 F 
ATOM     94  C   UNL A   1      45.949  27.339  36.515  1.00  0.00     0.200 A 
ATOM     95  F   UNL A   1      47.432  28.792  35.389  1.00  0.00    -0.200 F 
ATOM     96  F   UNL A   1      46.983  26.704  37.086  1.00  0.00    -0.200 F 
ENDBRANCH  63  86
ENDBRANCH  37  38
ENDBRANCH  29  32
ENDBRANCH  27  28
ENDBRANCH  26  27
ENDBRANCH  25  26
ENDBRANCH  24  25
ENDBRANCH   1  24
TORSDOF 17
ENDMDL
MODEL 3
REMARK VINA RESULT:     -12.2      3.649      8.451
REMARK SMILES C[C@@H](C(=O)NCCCCCCNC(=O)c1ccc(-c2c3nc(c(-c4c(F)c(F)c(F)c(F)c4F)c4ccc([nH]4)c(-c4c(F)c(F)c(F)c(F)c4F)c4nc(c(-c5c(F)c(F)c(F)c(F)c5F)c5ccc2[nH]5)C=C4)C=C3)cc1)c1ccc(C[C@H]2CCC[C@@H]2O)cc1Br
REMARK SMILES IDX 7 1 6 2 5 3 3 4 4 5 2 7 1 8 78 9 79 10 90 11 80 12 89 13
REMARK SMILES IDX 91 14 81 15 82 16 83 17 84 18 87 19 85 20 86 21 88 22 8 24
REMARK SMILES IDX 9 25 10 26 11 27 12 28 13 29 14 31 15 32 16 33 77 34 17 35
REMARK SMILES IDX 76 36 18 37 19 38 20 39 70 40 21 41 75 42 69 43 71 44 22 45
REMARK SMILES IDX 74 46 68 47 67 48 23 50 55 51 35 52 54 53 36 54 39 55 53 56
REMARK SMILES IDX 72 57 37 58 38 59 52 61 73 62 40 63 24 64 25 65 33 66 26 67
REMARK SMILES IDX 27 68 31 69 34 70 28 71 29 72 32 73 30 74 56 75 57 76 65 77
REMARK SMILES IDX 58 78 59 79 63 80 66 81 60 82 61 83 64 84 62 85 41 86 42 87
REMARK SMILES IDX 50 88 43 89 44 90 48 91 51 92 45 93 46 94 49 95 47 96
REMARK H PARENT 5 6 88 23 12 30 71 49 39 60
REMARK Flexibility Score: inf
ROOT
ATOM      1  C   UNL A   1      30.651  28.739  23.882  1.00  0.00     0.021 C 
ENDROOT
BRANCH   1   2
ATOM      2  C   UNL A   1      30.080  27.318  23.951  1.00  0.00     0.116 C 
BRANCH   2   3
ATOM      3  N   UNL A   1      30.392  26.609  22.728  1.00  0.00    -0.356 N 
ATOM      4  C   UNL A   1      31.600  26.131  22.301  1.00  0.00     0.227 C 
ATOM      5  O   UNL A   1      31.745  25.953  21.090  1.00  0.00    -0.274 OA
ATOM      6  H   UNL A   1      29.633  26.449  22.121  1.00  0.00     0.163 HD
BRANCH   4   7
ATOM      7  C   UNL A   1      32.698  25.827  23.338  1.00  0.00     0.106 C 
ATOM      8  C   UNL A   1      34.022  26.346  22.747  1.00  0.00     0.023 C 
BRANCH   7   9
ATOM      9  C   UNL A   1      32.736  24.344  23.733  1.00  0.00    -0.022 A 
ATOM     10  C   UNL A   1      33.308  23.393  22.869  1.00  0.00     0.006 A 
ATOM     11  C   UNL A   1      32.202  23.855  24.943  1.00  0.00     0.022 A 
ATOM     12  C   UNL A   1      33.208  22.025  23.113  1.00  0.00     0.004 A 
ATOM     13  C   UNL A   1      32.037  22.477  25.150  1.00  0.00     0.019 A 
ATOM     14  Br  UNL A   1      31.713  24.986  26.396  1.00  0.00    -0.051 Br
ATOM     15  C   UNL A   1      32.480  21.550  24.200  1.00  0.00    -0.047 A 
BRANCH  15  16
ATOM     16  C   UNL A   1      32.153  20.083  24.328  1.00  0.00     0.041 C 
BRANCH  16  17
ATOM     17  C   UNL A   1      33.191  19.110  23.729  1.00  0.00     0.022 C 
ATOM     18  C   UNL A   1      34.399  18.787  24.626  1.00  0.00     0.007 C 
ATOM     19  C   UNL A   1      32.669  17.737  23.289  1.00  0.00     0.117 C 
ATOM     20  C   UNL A   1      34.747  17.318  24.364  1.00  0.00     0.003 C 
ATOM     21  C   UNL A   1      33.942  16.921  23.137  1.00  0.00     0.032 C 
BRANCH  19  22
ATOM     22  O   UNL A   1      31.964  17.800  22.063  1.00  0.00    -0.393 OA
ATOM     23  H   UNL A   1      31.379  17.031  21.986  1.00  0.00     0.210 HD
ENDBRANCH  19  22
ENDBRANCH  16  17
ENDBRANCH  15  16
ENDBRANCH   7   9
ENDBRANCH   4   7
ENDBRANCH   2   3
ENDBRANCH   1   2
BRANCH   1  24
ATOM     24  C   UNL A   1      31.404  29.164  25.149  1.00  0.00     0.002 C 
BRANCH  24  25
ATOM     25  C   UNL A   1      32.914  29.343  24.969  1.00  0.00     0.002 C 
BRANCH  25  26
ATOM     26  C   UNL A   1      33.775  28.346  25.745  1.00  0.00     0.021 C 
BRANCH  26  27
ATOM     27  C   UNL A   1      33.800  28.578  27.251  1.00  0.00     0.116 C 
BRANCH  27  28
ATOM     28  N   UNL A   1      33.723  29.991  27.589  1.00  0.00    -0.352 N 
ATOM     29  C   UNL A   1      34.650  30.762  28.247  1.00  0.00     0.251 C 
ATOM     30  H   UNL A   1      32.900  30.454  27.311  1.00  0.00     0.163 HD
ATOM     31  O   UNL A   1      34.375  31.897  28.623  1.00  0.00    -0.269 OA
BRANCH  29  32
ATOM     32  C   UNL A   1      35.986  30.197  28.514  1.00  0.00     0.039 A 
ATOM     33  C   UNL A   1      36.949  30.208  27.502  1.00  0.00     0.014 A 
ATOM     34  C   UNL A   1      36.287  29.683  29.778  1.00  0.00     0.014 A 
ATOM     35  C   UNL A   1      38.242  29.758  27.776  1.00  0.00     0.010 A 
ATOM     36  C   UNL A   1      37.589  29.295  30.067  1.00  0.00     0.010 A 
ATOM     37  C   UNL A   1      38.577  29.326  29.069  1.00  0.00    -0.014 A 
BRANCH  37  38
ATOM     38  C   UNL A   1      39.946  28.876  29.419  1.00  0.00     0.031 A 
ATOM     39  C   UNL A   1      40.867  29.815  30.140  1.00  0.00     0.074 A 
ATOM     40  C   UNL A   1      40.394  27.684  28.983  1.00  0.00     0.049 A 
ATOM     41  N   UNL A   1      42.151  29.709  30.368  1.00  0.00    -0.248 NA
ATOM     42  C   UNL A   1      40.268  31.064  30.634  1.00  0.00     0.031 C 
ATOM     43  C   UNL A   1      39.604  26.703  28.241  1.00  0.00     0.029 A 
ATOM     44  N   UNL A   1      41.640  27.114  29.073  1.00  0.00    -0.354 N 
ATOM     45  C   UNL A   1      42.518  30.890  30.996  1.00  0.00     0.074 A 
ATOM     46  C   UNL A   1      41.332  31.714  31.079  1.00  0.00     0.031 C 
ATOM     47  C   UNL A   1      40.385  25.654  27.934  1.00  0.00     0.029 A 
ATOM     48  C   UNL A   1      41.738  25.910  28.422  1.00  0.00     0.049 A 
ATOM     49  H   UNL A   1      42.389  27.529  29.557  1.00  0.00     0.167 HD
ATOM     50  C   UNL A   1      43.735  31.248  31.472  1.00  0.00     0.037 A 
ATOM     51  C   UNL A   1      42.805  25.112  28.219  1.00  0.00     0.037 A 
ATOM     52  C   UNL A   1      44.900  30.407  31.419  1.00  0.00     0.049 A 
ATOM     53  C   UNL A   1      44.143  25.517  28.772  1.00  0.00     0.074 A 
ATOM     54  C   UNL A   1      46.159  30.641  31.941  1.00  0.00     0.029 A 
ATOM     55  N   UNL A   1      44.945  29.164  30.804  1.00  0.00    -0.354 N 
ATOM     56  N   UNL A   1      44.471  26.610  29.417  1.00  0.00    -0.248 NA
ATOM     57  C   UNL A   1      45.257  24.580  28.577  1.00  0.00     0.031 C 
ATOM     58  C   UNL A   1      46.978  29.558  31.605  1.00  0.00     0.029 A 
ATOM     59  C   UNL A   1      46.216  28.627  30.916  1.00  0.00     0.049 A 
ATOM     60  H   UNL A   1      44.185  28.727  30.353  1.00  0.00     0.167 HD
ATOM     61  C   UNL A   1      45.817  26.482  29.730  1.00  0.00     0.074 A 
ATOM     62  C   UNL A   1      46.247  25.203  29.202  1.00  0.00     0.031 C 
ATOM     63  C   UNL A   1      46.622  27.344  30.396  1.00  0.00     0.037 A 
BRANCH  50  64
ATOM     64  C   UNL A   1      43.862  32.617  32.075  1.00  0.00     0.064 A 
ATOM     65  C   UNL A   1      44.195  33.739  31.301  1.00  0.00     0.173 A 
ATOM     66  C   UNL A   1      43.650  32.808  33.449  1.00  0.00     0.173 A 
ATOM     67  F   UNL A   1      44.421  33.607  29.985  1.00  0.00    -0.203 F 
ATOM     68  C   UNL A   1      44.355  34.992  31.887  1.00  0.00     0.198 A 
ATOM     69  C   UNL A   1      43.777  34.069  34.026  1.00  0.00     0.198 A 
ATOM     70  F   UNL A   1      43.322  31.771  34.234  1.00  0.00    -0.203 F 
ATOM     71  F   UNL A   1      44.738  36.035  31.138  1.00  0.00    -0.200 F 
ATOM     72  C   UNL A   1      44.142  35.156  33.247  1.00  0.00     0.200 A 
ATOM     73  F   UNL A   1      43.559  34.229  35.338  1.00  0.00    -0.200 F 
ATOM     74  F   UNL A   1      44.299  36.363  33.810  1.00  0.00    -0.200 F 
ENDBRANCH  50  64
BRANCH  51  75
ATOM     75  C   UNL A   1      42.633  23.846  27.464  1.00  0.00     0.064 A 
ATOM     76  C   UNL A   1      42.943  23.776  26.099  1.00  0.00     0.173 A 
ATOM     77  C   UNL A   1      42.203  22.672  28.099  1.00  0.00     0.173 A 
ATOM     78  F   UNL A   1      43.341  24.877  25.446  1.00  0.00    -0.203 F 
ATOM     79  C   UNL A   1      42.825  22.578  25.396  1.00  0.00     0.198 A 
ATOM     80  C   UNL A   1      42.107  21.470  27.400  1.00  0.00     0.198 A 
ATOM     81  F   UNL A   1      41.903  22.685  29.406  1.00  0.00    -0.203 F 
ATOM     82  F   UNL A   1      43.105  22.543  24.086  1.00  0.00    -0.200 F 
ATOM     83  C   UNL A   1      42.416  21.425  26.049  1.00  0.00     0.200 A 
ATOM     84  F   UNL A   1      41.728  20.355  28.038  1.00  0.00    -0.200 F 
ATOM     85  F   UNL A   1      42.319  20.271  25.376  1.00  0.00    -0.200 F 
ENDBRANCH  51  75
BRANCH  63  86
ATOM     86  C   UNL A   1      48.041  26.927  30.638  1.00  0.00     0.064 A 
ATOM     87  C   UNL A   1      48.387  26.073  31.694  1.00  0.00     0.173 A 
ATOM     88  C   UNL A   1      49.053  27.317  29.747  1.00  0.00     0.173 A 
ATOM     89  F   UNL A   1      47.457  25.685  32.581  1.00  0.00    -0.203 F 
ATOM     90  C   UNL A   1      49.697  25.629  31.854  1.00  0.00     0.198 A 
ATOM     91  C   UNL A   1      50.356  26.852  29.895  1.00  0.00     0.198 A 
ATOM     92  F   UNL A   1      48.769  28.129  28.717  1.00  0.00    -0.203 F 
ATOM     93  F   UNL A   1      50.012  24.832  32.884  1.00  0.00    -0.200 F 
ATOM     94  C   UNL A   1      50.677  26.010  30.948  1.00  0.00     0.200 A 
ATOM     95  F   UNL A   1      51.298  27.210  29.011  1.00  0.00    -0.200 F 
ATOM     96  F   UNL A   1      51.933  25.565  31.092  1.00  0.00    -0.200 F 
ENDBRANCH  63  86
ENDBRANCH  37  38
ENDBRANCH  29  32
ENDBRANCH  27  28
ENDBRANCH  26  27
ENDBRANCH  25  26
ENDBRANCH  24  25
ENDBRANCH   1  24
TORSDOF 17
ENDMDL
