MODEL 1
REMARK VINA RESULT:     -11.6      0.000      0.000
REMARK SMILES CCOc1cccc(-c2ccc([C@@H](C)C(=O)NCCCCCCNC(=O)c3ccc(-c4c5nc(c(-c6c(F)c(F)c(F)c(F)c6F)c6ccc([nH]6)c(-c6c(F)c(F)c(F)c(F)c6F)c6nc(c(-c7c(F)c(F)c(F)c(F)c7F)c7ccc4[nH]7)C=C6)C=C5)cc3)cc2F)c1
REMARK SMILES IDX 19 1 18 2 17 3 15 4 16 5 13 7 14 8 12 9 9 10 10 11 91 12
REMARK SMILES IDX 11 13 90 14 92 15 8 16 4 17 5 18 93 19 6 20 7 21 3 22 2 23
REMARK SMILES IDX 1 24 20 25 21 26 22 27 23 28 24 29 25 30 26 32 27 33 28 34
REMARK SMILES IDX 89 35 29 36 88 37 30 38 31 39 32 40 82 41 33 42 87 43 81 44
REMARK SMILES IDX 83 45 34 46 86 47 80 48 79 49 35 51 67 52 47 53 66 54 48 55
REMARK SMILES IDX 51 56 65 57 84 58 49 59 50 60 64 62 85 63 52 64 36 65 37 66
REMARK SMILES IDX 45 67 38 68 39 69 43 70 46 71 40 72 41 73 44 74 42 75 68 76
REMARK SMILES IDX 69 77 77 78 70 79 71 80 75 81 78 82 72 83 73 84 76 85 74 86
REMARK SMILES IDX 53 87 54 88 62 89 55 90 56 91 60 92 63 93 57 94 58 95 61 96
REMARK SMILES IDX 59 97
REMARK H PARENT 17 6 24 31 83 50 51 61
REMARK Flexibility Score: inf
ROOT
ATOM      1  C   UNL A   1      33.811  26.689  25.766  1.00  0.00     0.021 C 
ENDROOT
BRANCH   1   2
ATOM      2  C   UNL A   1      32.359  27.149  25.616  1.00  0.00     0.116 C 
BRANCH   2   3
ATOM      3  N   UNL A   1      31.992  27.321  24.227  1.00  0.00    -0.356 N 
ATOM      4  C   UNL A   1      31.113  26.648  23.436  1.00  0.00     0.227 C 
ATOM      5  O   UNL A   1      31.091  26.970  22.242  1.00  0.00    -0.274 OA
ATOM      6  H   UNL A   1      32.462  28.057  23.773  1.00  0.00     0.163 HD
BRANCH   4   7
ATOM      7  C   UNL A   1      30.174  25.545  23.949  1.00  0.00     0.105 C 
ATOM      8  C   UNL A   1      29.277  25.971  25.110  1.00  0.00     0.023 C 
BRANCH   7   9
ATOM      9  C   UNL A   1      30.850  24.190  24.087  1.00  0.00    -0.033 A 
ATOM     10  C   UNL A   1      32.305  21.722  24.265  1.00  0.00     0.018 A 
ATOM     11  C   UNL A   1      31.675  22.295  25.384  1.00  0.00     0.012 A 
ATOM     12  C   UNL A   1      32.129  22.399  23.046  1.00  0.00     0.131 A 
ATOM     13  C   UNL A   1      30.939  23.487  25.291  1.00  0.00     0.005 A 
ATOM     14  C   UNL A   1      31.445  23.613  22.958  1.00  0.00     0.044 A 
ATOM     15  F   UNL A   1      32.626  21.900  21.904  1.00  0.00    -0.206 F 
BRANCH  10  16
ATOM     16  C   UNL A   1      33.145  20.504  24.394  1.00  0.00    -0.012 A 
ATOM     17  C   UNL A   1      33.413  18.080  24.153  1.00  0.00     0.119 A 
ATOM     18  C   UNL A   1      34.739  18.159  24.560  1.00  0.00     0.046 A 
ATOM     19  C   UNL A   1      32.628  19.231  24.087  1.00  0.00     0.055 A 
ATOM     20  C   UNL A   1      35.283  19.401  24.873  1.00  0.00     0.004 A 
ATOM     21  C   UNL A   1      34.494  20.557  24.793  1.00  0.00     0.009 A 
BRANCH  17  22
ATOM     22  O   UNL A   1      32.868  16.845  23.936  1.00  0.00    -0.494 OA
BRANCH  22  23
ATOM     23  C   UNL A   1      33.462  15.816  24.736  1.00  0.00     0.226 C 
ATOM     24  C   UNL A   1      32.431  15.088  25.585  1.00  0.00     0.049 C 
ENDBRANCH  22  23
ENDBRANCH  17  22
ENDBRANCH  10  16
ENDBRANCH   7   9
ENDBRANCH   4   7
ENDBRANCH   2   3
ENDBRANCH   1   2
BRANCH   1  25
ATOM     25  C   UNL A   1      34.005  25.179  25.590  1.00  0.00     0.002 C 
BRANCH  25  26
ATOM     26  C   UNL A   1      34.692  24.756  24.283  1.00  0.00     0.002 C 
BRANCH  26  27
ATOM     27  C   UNL A   1      35.903  23.829  24.439  1.00  0.00     0.021 C 
BRANCH  27  28
ATOM     28  C   UNL A   1      36.434  23.687  25.864  1.00  0.00     0.116 C 
BRANCH  28  29
ATOM     29  N   UNL A   1      37.517  22.723  25.949  1.00  0.00    -0.352 N 
ATOM     30  C   UNL A   1      38.832  22.893  26.298  1.00  0.00     0.251 C 
ATOM     31  H   UNL A   1      37.267  21.799  25.719  1.00  0.00     0.163 HD
ATOM     32  O   UNL A   1      39.635  21.985  26.101  1.00  0.00    -0.269 OA
BRANCH  30  33
ATOM     33  C   UNL A   1      39.302  24.159  26.903  1.00  0.00     0.039 A 
ATOM     34  C   UNL A   1      39.948  25.090  26.084  1.00  0.00     0.014 A 
ATOM     35  C   UNL A   1      39.171  24.410  28.272  1.00  0.00     0.014 A 
ATOM     36  C   UNL A   1      40.418  26.289  26.626  1.00  0.00     0.010 A 
ATOM     37  C   UNL A   1      39.588  25.630  28.803  1.00  0.00     0.010 A 
ATOM     38  C   UNL A   1      40.220  26.580  27.985  1.00  0.00    -0.014 A 
BRANCH  38  39
ATOM     39  C   UNL A   1      40.666  27.877  28.555  1.00  0.00     0.031 A 
ATOM     40  C   UNL A   1      42.107  28.101  28.917  1.00  0.00     0.074 A 
ATOM     41  C   UNL A   1      39.755  28.842  28.788  1.00  0.00     0.049 A 
ATOM     42  N   UNL A   1      42.673  29.160  29.439  1.00  0.00    -0.248 NA
ATOM     43  C   UNL A   1      43.031  26.980  28.682  1.00  0.00     0.031 C 
ATOM     44  C   UNL A   1      38.318  28.725  28.532  1.00  0.00     0.029 A 
ATOM     45  N   UNL A   1      39.900  30.107  29.298  1.00  0.00    -0.354 N 
ATOM     46  C   UNL A   1      44.012  28.830  29.606  1.00  0.00     0.074 A 
ATOM     47  C   UNL A   1      44.166  27.458  29.173  1.00  0.00     0.031 C 
ATOM     48  C   UNL A   1      37.718  29.878  28.867  1.00  0.00     0.029 A 
ATOM     49  C   UNL A   1      38.721  30.805  29.383  1.00  0.00     0.049 A 
ATOM     50  H   UNL A   1      40.768  30.480  29.577  1.00  0.00     0.167 HD
ATOM     51  C   UNL A   1      45.024  29.609  30.060  1.00  0.00     0.037 A 
ATOM     52  C   UNL A   1      38.475  32.052  29.826  1.00  0.00     0.037 A 
ATOM     53  C   UNL A   1      44.874  30.984  30.462  1.00  0.00     0.049 A 
ATOM     54  C   UNL A   1      39.620  32.903  30.302  1.00  0.00     0.074 A 
ATOM     55  C   UNL A   1      45.852  31.876  30.866  1.00  0.00     0.029 A 
ATOM     56  N   UNL A   1      43.667  31.664  30.511  1.00  0.00    -0.354 N 
ATOM     57  N   UNL A   1      40.894  32.605  30.381  1.00  0.00    -0.248 NA
ATOM     58  C   UNL A   1      39.294  34.267  30.739  1.00  0.00     0.031 C 
ATOM     59  C   UNL A   1      45.231  33.086  31.198  1.00  0.00     0.029 A 
ATOM     60  C   UNL A   1      43.872  32.960  30.960  1.00  0.00     0.049 A 
ATOM     61  H   UNL A   1      42.793  31.284  30.264  1.00  0.00     0.167 HD
ATOM     62  C   UNL A   1      41.523  33.748  30.857  1.00  0.00     0.074 A 
ATOM     63  C   UNL A   1      40.493  34.751  31.030  1.00  0.00     0.031 C 
ATOM     64  C   UNL A   1      42.836  33.946  31.128  1.00  0.00     0.037 A 
BRANCH  51  65
ATOM     65  C   UNL A   1      46.391  28.995  30.141  1.00  0.00     0.064 A 
ATOM     66  C   UNL A   1      46.846  28.366  31.309  1.00  0.00     0.173 A 
ATOM     67  C   UNL A   1      47.237  28.993  29.021  1.00  0.00     0.173 A 
ATOM     68  F   UNL A   1      46.079  28.349  32.409  1.00  0.00    -0.203 F 
ATOM     69  C   UNL A   1      48.108  27.780  31.361  1.00  0.00     0.198 A 
ATOM     70  C   UNL A   1      48.488  28.383  29.070  1.00  0.00     0.198 A 
ATOM     71  F   UNL A   1      46.848  29.576  27.878  1.00  0.00    -0.203 F 
ATOM     72  F   UNL A   1      48.539  27.222  32.502  1.00  0.00    -0.200 F 
ATOM     73  C   UNL A   1      48.925  27.782  30.241  1.00  0.00     0.200 A 
ATOM     74  F   UNL A   1      49.271  28.376  27.983  1.00  0.00    -0.200 F 
ATOM     75  F   UNL A   1      50.136  27.211  30.291  1.00  0.00    -0.200 F 
ENDBRANCH  51  65
BRANCH  52  76
ATOM     76  C   UNL A   1      37.089  32.583  29.807  1.00  0.00     0.064 A 
ATOM     77  C   UNL A   1      36.236  32.406  30.904  1.00  0.00     0.173 A 
ATOM     78  C   UNL A   1      36.591  33.281  28.697  1.00  0.00     0.173 A 
ATOM     79  F   UNL A   1      36.662  31.727  31.980  1.00  0.00    -0.203 F 
ATOM     80  C   UNL A   1      34.930  32.891  30.886  1.00  0.00     0.198 A 
ATOM     81  C   UNL A   1      35.293  33.788  28.690  1.00  0.00     0.198 A 
ATOM     82  F   UNL A   1      37.371  33.483  27.625  1.00  0.00    -0.203 F 
ATOM     83  F   UNL A   1      34.121  32.671  31.932  1.00  0.00    -0.200 F 
ATOM     84  C   UNL A   1      34.461  33.586  29.781  1.00  0.00     0.200 A 
ATOM     85  F   UNL A   1      34.849  34.471  27.627  1.00  0.00    -0.200 F 
ATOM     86  F   UNL A   1      33.207  34.057  29.766  1.00  0.00    -0.200 F 
ENDBRANCH  52  76
BRANCH  64  87
ATOM     87  C   UNL A   1      43.234  35.304  31.624  1.00  0.00     0.064 A 
ATOM     88  C   UNL A   1      43.214  35.620  32.990  1.00  0.00     0.173 A 
ATOM     89  C   UNL A   1      43.662  36.293  30.725  1.00  0.00     0.173 A 
ATOM     90  F   UNL A   1      42.795  34.714  33.886  1.00  0.00    -0.203 F 
ATOM     91  C   UNL A   1      43.586  36.885  33.437  1.00  0.00     0.198 A 
ATOM     92  C   UNL A   1      44.060  37.548  31.178  1.00  0.00     0.198 A 
ATOM     93  F   UNL A   1      43.703  36.039  29.410  1.00  0.00    -0.203 F 
ATOM     94  F   UNL A   1      43.515  37.180  34.743  1.00  0.00    -0.200 F 
ATOM     95  C   UNL A   1      44.014  37.845  32.532  1.00  0.00     0.200 A 
ATOM     96  F   UNL A   1      44.481  38.472  30.304  1.00  0.00    -0.200 F 
ATOM     97  F   UNL A   1      44.373  39.062  32.964  1.00  0.00    -0.200 F 
ENDBRANCH  64  87
ENDBRANCH  38  39
ENDBRANCH  30  33
ENDBRANCH  28  29
ENDBRANCH  27  28
ENDBRANCH  26  27
ENDBRANCH  25  26
ENDBRANCH   1  25
TORSDOF 17
ENDMDL
MODEL 2
REMARK VINA RESULT:     -11.2      1.642      4.602
REMARK SMILES CCOc1cccc(-c2ccc([C@@H](C)C(=O)NCCCCCCNC(=O)c3ccc(-c4c5nc(c(-c6c(F)c(F)c(F)c(F)c6F)c6ccc([nH]6)c(-c6c(F)c(F)c(F)c(F)c6F)c6nc(c(-c7c(F)c(F)c(F)c(F)c7F)c7ccc4[nH]7)C=C6)C=C5)cc3)cc2F)c1
REMARK SMILES IDX 19 1 18 2 17 3 15 4 16 5 13 7 14 8 12 9 9 10 10 11 91 12
REMARK SMILES IDX 11 13 90 14 92 15 8 16 4 17 5 18 93 19 6 20 7 21 3 22 2 23
REMARK SMILES IDX 1 24 20 25 21 26 22 27 23 28 24 29 25 30 26 32 27 33 28 34
REMARK SMILES IDX 89 35 29 36 88 37 30 38 31 39 32 40 82 41 33 42 87 43 81 44
REMARK SMILES IDX 83 45 34 46 86 47 80 48 79 49 35 51 67 52 47 53 66 54 48 55
REMARK SMILES IDX 51 56 65 57 84 58 49 59 50 60 64 62 85 63 52 64 36 65 37 66
REMARK SMILES IDX 45 67 38 68 39 69 43 70 46 71 40 72 41 73 44 74 42 75 68 76
REMARK SMILES IDX 69 77 77 78 70 79 71 80 75 81 78 82 72 83 73 84 76 85 74 86
REMARK SMILES IDX 53 87 54 88 62 89 55 90 56 91 60 92 63 93 57 94 58 95 61 96
REMARK SMILES IDX 59 97
REMARK H PARENT 17 6 24 31 83 50 51 61
REMARK Flexibility Score: inf
ROOT
ATOM      1  C   UNL A   1      34.218  22.574  27.451  1.00  0.00     0.021 C 
ENDROOT
BRANCH   1   2
ATOM      2  C   UNL A   1      33.422  21.325  27.065  1.00  0.00     0.116 C 
BRANCH   2   3
ATOM      3  N   UNL A   1      34.167  20.472  26.165  1.00  0.00    -0.356 N 
ATOM      4  C   UNL A   1      33.841  19.925  24.963  1.00  0.00     0.227 C 
ATOM      5  O   UNL A   1      34.665  19.145  24.472  1.00  0.00    -0.274 OA
ATOM      6  H   UNL A   1      35.073  20.248  26.477  1.00  0.00     0.163 HD
BRANCH   4   7
ATOM      7  C   UNL A   1      32.535  20.231  24.212  1.00  0.00     0.105 C 
ATOM      8  C   UNL A   1      32.159  19.195  23.154  1.00  0.00     0.023 C 
BRANCH   7   9
ATOM      9  C   UNL A   1      32.400  21.688  23.801  1.00  0.00    -0.033 A 
ATOM     10  C   UNL A   1      32.177  24.494  23.232  1.00  0.00     0.018 A 
ATOM     11  C   UNL A   1      33.113  23.675  22.576  1.00  0.00     0.012 A 
ATOM     12  C   UNL A   1      31.320  23.844  24.137  1.00  0.00     0.131 A 
ATOM     13  C   UNL A   1      33.204  22.298  22.833  1.00  0.00     0.005 A 
ATOM     14  C   UNL A   1      31.441  22.485  24.437  1.00  0.00     0.044 A 
ATOM     15  F   UNL A   1      30.341  24.516  24.762  1.00  0.00    -0.206 F 
BRANCH  10  16
ATOM     16  C   UNL A   1      32.145  25.961  23.008  1.00  0.00    -0.012 A 
ATOM     17  C   UNL A   1      30.905  27.985  22.399  1.00  0.00     0.119 A 
ATOM     18  C   UNL A   1      32.024  28.774  22.635  1.00  0.00     0.046 A 
ATOM     19  C   UNL A   1      30.972  26.603  22.568  1.00  0.00     0.055 A 
ATOM     20  C   UNL A   1      33.202  28.173  23.069  1.00  0.00     0.004 A 
ATOM     21  C   UNL A   1      33.261  26.785  23.250  1.00  0.00     0.009 A 
BRANCH  17  22
ATOM     22  O   UNL A   1      29.785  28.577  21.887  1.00  0.00    -0.494 OA
BRANCH  22  23
ATOM     23  C   UNL A   1      29.791  30.004  22.010  1.00  0.00     0.226 C 
ATOM     24  C   UNL A   1      28.528  30.632  21.440  1.00  0.00     0.049 C 
ENDBRANCH  22  23
ENDBRANCH  17  22
ENDBRANCH  10  16
ENDBRANCH   7   9
ENDBRANCH   4   7
ENDBRANCH   2   3
ENDBRANCH   1   2
BRANCH   1  25
ATOM     25  C   UNL A   1      33.745  23.852  26.751  1.00  0.00     0.002 C 
BRANCH  25  26
ATOM     26  C   UNL A   1      34.701  24.408  25.686  1.00  0.00     0.002 C 
BRANCH  26  27
ATOM     27  C   UNL A   1      35.791  23.445  25.202  1.00  0.00     0.021 C 
BRANCH  27  28
ATOM     28  C   UNL A   1      37.211  24.011  25.216  1.00  0.00     0.116 C 
BRANCH  28  29
ATOM     29  N   UNL A   1      38.196  23.003  25.572  1.00  0.00    -0.352 N 
ATOM     30  C   UNL A   1      39.385  23.123  26.243  1.00  0.00     0.251 C 
ATOM     31  H   UNL A   1      37.973  22.088  25.286  1.00  0.00     0.163 HD
ATOM     32  O   UNL A   1      40.173  22.181  26.255  1.00  0.00    -0.269 OA
BRANCH  30  33
ATOM     33  C   UNL A   1      39.739  24.375  26.947  1.00  0.00     0.039 A 
ATOM     34  C   UNL A   1      39.300  24.548  28.264  1.00  0.00     0.014 A 
ATOM     35  C   UNL A   1      40.440  25.403  26.307  1.00  0.00     0.014 A 
ATOM     36  C   UNL A   1      39.604  25.725  28.952  1.00  0.00     0.010 A 
ATOM     37  C   UNL A   1      40.793  26.553  27.013  1.00  0.00     0.010 A 
ATOM     38  C   UNL A   1      40.373  26.727  28.341  1.00  0.00    -0.014 A 
BRANCH  38  39
ATOM     39  C   UNL A   1      40.749  27.956  29.086  1.00  0.00     0.031 A 
ATOM     40  C   UNL A   1      42.129  28.114  29.659  1.00  0.00     0.074 A 
ATOM     41  C   UNL A   1      39.824  28.915  29.284  1.00  0.00     0.049 A 
ATOM     42  N   UNL A   1      42.628  29.108  30.351  1.00  0.00    -0.248 NA
ATOM     43  C   UNL A   1      43.066  27.000  29.447  1.00  0.00     0.031 C 
ATOM     44  C   UNL A   1      38.435  28.854  28.826  1.00  0.00     0.029 A 
ATOM     45  N   UNL A   1      39.909  30.124  29.927  1.00  0.00    -0.354 N 
ATOM     46  C   UNL A   1      43.928  28.734  30.666  1.00  0.00     0.074 A 
ATOM     47  C   UNL A   1      44.128  27.405  30.130  1.00  0.00     0.031 C 
ATOM     48  C   UNL A   1      37.804  29.984  29.184  1.00  0.00     0.029 A 
ATOM     49  C   UNL A   1      38.735  30.837  29.917  1.00  0.00     0.049 A 
ATOM     50  H   UNL A   1      40.734  30.450  30.354  1.00  0.00     0.167 HD
ATOM     51  C   UNL A   1      44.875  29.445  31.325  1.00  0.00     0.037 A 
ATOM     52  C   UNL A   1      38.444  32.043  30.438  1.00  0.00     0.037 A 
ATOM     53  C   UNL A   1      44.685  30.780  31.831  1.00  0.00     0.049 A 
ATOM     54  C   UNL A   1      39.520  32.820  31.143  1.00  0.00     0.074 A 
ATOM     55  C   UNL A   1      45.606  31.609  32.447  1.00  0.00     0.029 A 
ATOM     56  N   UNL A   1      43.489  31.479  31.781  1.00  0.00    -0.354 N 
ATOM     57  N   UNL A   1      40.768  32.489  31.366  1.00  0.00    -0.248 NA
ATOM     58  C   UNL A   1      39.149  34.146  31.660  1.00  0.00     0.031 C 
ATOM     59  C   UNL A   1      44.957  32.796  32.805  1.00  0.00     0.029 A 
ATOM     60  C   UNL A   1      43.642  32.723  32.373  1.00  0.00     0.049 A 
ATOM     61  H   UNL A   1      42.653  31.143  31.383  1.00  0.00     0.167 HD
ATOM     62  C   UNL A   1      41.337  33.568  32.029  1.00  0.00     0.074 A 
ATOM     63  C   UNL A   1      40.302  34.573  32.155  1.00  0.00     0.031 C 
ATOM     64  C   UNL A   1      42.602  33.711  32.493  1.00  0.00     0.037 A 
BRANCH  51  65
ATOM     65  C   UNL A   1      46.213  28.797  31.531  1.00  0.00     0.064 A 
ATOM     66  C   UNL A   1      47.241  28.917  30.585  1.00  0.00     0.173 A 
ATOM     67  C   UNL A   1      46.486  28.087  32.711  1.00  0.00     0.173 A 
ATOM     68  F   UNL A   1      47.028  29.577  29.437  1.00  0.00    -0.203 F 
ATOM     69  C   UNL A   1      48.485  28.330  30.801  1.00  0.00     0.198 A 
ATOM     70  C   UNL A   1      47.740  27.524  32.935  1.00  0.00     0.198 A 
ATOM     71  F   UNL A   1      45.539  27.947  33.651  1.00  0.00    -0.203 F 
ATOM     72  F   UNL A   1      49.440  28.422  29.863  1.00  0.00    -0.200 F 
ATOM     73  C   UNL A   1      48.736  27.640  31.977  1.00  0.00     0.200 A 
ATOM     74  F   UNL A   1      47.984  26.868  34.077  1.00  0.00    -0.200 F 
ATOM     75  F   UNL A   1      49.937  27.082  32.186  1.00  0.00    -0.200 F 
ENDBRANCH  51  65
BRANCH  52  76
ATOM     76  C   UNL A   1      37.078  32.604  30.282  1.00  0.00     0.064 A 
ATOM     77  C   UNL A   1      36.721  33.321  29.133  1.00  0.00     0.173 A 
ATOM     78  C   UNL A   1      36.101  32.431  31.274  1.00  0.00     0.173 A 
ATOM     79  F   UNL A   1      37.628  33.530  28.166  1.00  0.00    -0.203 F 
ATOM     80  C   UNL A   1      35.445  33.861  28.988  1.00  0.00     0.198 A 
ATOM     81  C   UNL A   1      34.818  32.949  31.117  1.00  0.00     0.198 A 
ATOM     82  F   UNL A   1      36.392  31.745  32.390  1.00  0.00    -0.203 F 
ATOM     83  F   UNL A   1      35.143  34.579  27.897  1.00  0.00    -0.200 F 
ATOM     84  C   UNL A   1      34.492  33.670  29.978  1.00  0.00     0.200 A 
ATOM     85  F   UNL A   1      33.896  32.750  32.069  1.00  0.00    -0.200 F 
ATOM     86  F   UNL A   1      33.263  34.184  29.836  1.00  0.00    -0.200 F 
ENDBRANCH  52  76
BRANCH  64  87
ATOM     87  C   UNL A   1      42.940  35.009  33.165  1.00  0.00     0.064 A 
ATOM     88  C   UNL A   1      43.408  36.111  32.435  1.00  0.00     0.173 A 
ATOM     89  C   UNL A   1      42.769  35.160  34.549  1.00  0.00     0.173 A 
ATOM     90  F   UNL A   1      43.604  36.011  31.112  1.00  0.00    -0.203 F 
ATOM     91  C   UNL A   1      43.717  37.310  33.071  1.00  0.00     0.198 A 
ATOM     92  C   UNL A   1      43.053  36.369  35.178  1.00  0.00     0.198 A 
ATOM     93  F   UNL A   1      42.320  34.137  35.290  1.00  0.00    -0.203 F 
ATOM     94  F   UNL A   1      44.209  38.336  32.361  1.00  0.00    -0.200 F 
ATOM     95  C   UNL A   1      43.534  37.440  34.440  1.00  0.00     0.200 A 
ATOM     96  F   UNL A   1      42.867  36.496  36.499  1.00  0.00    -0.200 F 
ATOM     97  F   UNL A   1      43.831  38.595  35.051  1.00  0.00    -0.200 F 
ENDBRANCH  64  87
ENDBRANCH  38  39
ENDBRANCH  30  33
ENDBRANCH  28  29
ENDBRANCH  27  28
ENDBRANCH  26  27
ENDBRANCH  25  26
ENDBRANCH   1  25
TORSDOF 17
ENDMDL
MODEL 3
REMARK VINA RESULT:     -11.0      3.648      6.719
REMARK SMILES CCOc1cccc(-c2ccc([C@@H](C)C(=O)NCCCCCCNC(=O)c3ccc(-c4c5nc(c(-c6c(F)c(F)c(F)c(F)c6F)c6ccc([nH]6)c(-c6c(F)c(F)c(F)c(F)c6F)c6nc(c(-c7c(F)c(F)c(F)c(F)c7F)c7ccc4[nH]7)C=C6)C=C5)cc3)cc2F)c1
REMARK SMILES IDX 19 1 18 2 17 3 15 4 16 5 13 7 14 8 12 9 9 10 10 11 91 12
REMARK SMILES IDX 11 13 90 14 92 15 8 16 4 17 5 18 93 19 6 20 7 21 3 22 2 23
REMARK SMILES IDX 1 24 20 25 21 26 22 27 23 28 24 29 25 30 26 32 27 33 28 34
REMARK SMILES IDX 89 35 29 36 88 37 30 38 31 39 32 40 82 41 33 42 87 43 81 44
REMARK SMILES IDX 83 45 34 46 86 47 80 48 79 49 35 51 67 52 47 53 66 54 48 55
REMARK SMILES IDX 51 56 65 57 84 58 49 59 50 60 64 62 85 63 52 64 36 65 37 66
REMARK SMILES IDX 45 67 38 68 39 69 43 70 46 71 40 72 41 73 44 74 42 75 68 76
REMARK SMILES IDX 69 77 77 78 70 79 71 80 75 81 78 82 72 83 73 84 76 85 74 86
REMARK SMILES IDX 53 87 54 88 62 89 55 90 56 91 60 92 63 93 57 94 58 95 61 96
REMARK SMILES IDX 59 97
REMARK H PARENT 17 6 24 31 83 50 51 61
REMARK Flexibility Score: inf
ROOT
ATOM      1  C   UNL A   1      39.368  22.866  26.453  1.00  0.00     0.021 C 
ENDROOT
BRANCH   1   2
ATOM      2  C   UNL A   1      38.108  22.163  25.945  1.00  0.00     0.116 C 
BRANCH   2   3
ATOM      3  N   UNL A   1      37.772  22.571  24.598  1.00  0.00    -0.356 N 
ATOM      4  C   UNL A   1      36.577  22.663  23.955  1.00  0.00     0.227 C 
ATOM      5  O   UNL A   1      36.620  22.953  22.753  1.00  0.00    -0.274 OA
ATOM      6  H   UNL A   1      38.547  22.830  24.049  1.00  0.00     0.163 HD
BRANCH   4   7
ATOM      7  C   UNL A   1      35.220  22.434  24.638  1.00  0.00     0.105 C 
ATOM      8  C   UNL A   1      34.568  21.092  24.311  1.00  0.00     0.023 C 
BRANCH   7   9
ATOM      9  C   UNL A   1      34.308  23.650  24.595  1.00  0.00    -0.033 A 
ATOM     10  C   UNL A   1      32.759  26.064  24.455  1.00  0.00     0.018 A 
ATOM     11  C   UNL A   1      32.409  24.913  23.726  1.00  0.00     0.012 A 
ATOM     12  C   UNL A   1      33.875  25.941  25.299  1.00  0.00     0.131 A 
ATOM     13  C   UNL A   1      33.150  23.724  23.816  1.00  0.00     0.005 A 
ATOM     14  C   UNL A   1      34.648  24.778  25.352  1.00  0.00     0.044 A 
ATOM     15  F   UNL A   1      34.252  26.954  26.095  1.00  0.00    -0.206 F 
BRANCH  10  16
ATOM     16  C   UNL A   1      32.013  27.337  24.289  1.00  0.00    -0.012 A 
ATOM     17  C   UNL A   1      30.358  28.682  23.082  1.00  0.00     0.119 A 
ATOM     18  C   UNL A   1      30.516  29.731  23.979  1.00  0.00     0.046 A 
ATOM     19  C   UNL A   1      31.106  27.514  23.228  1.00  0.00     0.055 A 
ATOM     20  C   UNL A   1      31.407  29.592  25.039  1.00  0.00     0.004 A 
ATOM     21  C   UNL A   1      32.147  28.412  25.190  1.00  0.00     0.009 A 
BRANCH  17  22
ATOM     22  O   UNL A   1      29.548  28.867  21.996  1.00  0.00    -0.494 OA
BRANCH  22  23
ATOM     23  C   UNL A   1      28.369  29.624  22.291  1.00  0.00     0.226 C 
ATOM     24  C   UNL A   1      28.131  30.729  21.273  1.00  0.00     0.049 C 
ENDBRANCH  22  23
ENDBRANCH  17  22
ENDBRANCH  10  16
ENDBRANCH   7   9
ENDBRANCH   4   7
ENDBRANCH   2   3
ENDBRANCH   1   2
BRANCH   1  25
ATOM     25  C   UNL A   1      40.662  22.088  26.192  1.00  0.00     0.002 C 
BRANCH  25  26
ATOM     26  C   UNL A   1      40.794  20.763  26.956  1.00  0.00     0.002 C 
BRANCH  26  27
ATOM     27  C   UNL A   1      41.221  19.552  26.119  1.00  0.00     0.021 C 
BRANCH  27  28
ATOM     28  C   UNL A   1      42.562  18.932  26.511  1.00  0.00     0.116 C 
BRANCH  28  29
ATOM     29  N   UNL A   1      43.415  18.703  25.357  1.00  0.00    -0.352 N 
ATOM     30  C   UNL A   1      44.119  19.589  24.584  1.00  0.00     0.251 C 
ATOM     31  H   UNL A   1      43.500  17.759  25.087  1.00  0.00     0.163 HD
ATOM     32  O   UNL A   1      44.609  19.213  23.522  1.00  0.00    -0.269 OA
BRANCH  30  33
ATOM     33  C   UNL A   1      44.290  20.997  25.004  1.00  0.00     0.039 A 
ATOM     34  C   UNL A   1      44.852  21.255  26.259  1.00  0.00     0.014 A 
ATOM     35  C   UNL A   1      43.849  22.058  24.209  1.00  0.00     0.014 A 
ATOM     36  C   UNL A   1      45.014  22.573  26.693  1.00  0.00     0.010 A 
ATOM     37  C   UNL A   1      44.063  23.375  24.617  1.00  0.00     0.010 A 
ATOM     38  C   UNL A   1      44.643  23.644  25.866  1.00  0.00    -0.014 A 
BRANCH  38  39
ATOM     39  C   UNL A   1      44.865  25.048  26.298  1.00  0.00     0.031 A 
ATOM     40  C   UNL A   1      46.228  25.674  26.199  1.00  0.00     0.074 A 
ATOM     41  C   UNL A   1      43.840  25.747  26.821  1.00  0.00     0.049 A 
ATOM     42  N   UNL A   1      46.612  26.878  26.543  1.00  0.00    -0.248 NA
ATOM     43  C   UNL A   1      47.308  24.829  25.667  1.00  0.00     0.031 C 
ATOM     44  C   UNL A   1      42.484  25.232  27.021  1.00  0.00     0.029 A 
ATOM     45  N   UNL A   1      43.779  27.035  27.289  1.00  0.00    -0.354 N 
ATOM     46  C   UNL A   1      47.974  26.931  26.280  1.00  0.00     0.074 A 
ATOM     47  C   UNL A   1      48.362  25.625  25.791  1.00  0.00     0.031 C 
ATOM     48  C   UNL A   1      41.720  26.201  27.550  1.00  0.00     0.029 A 
ATOM     49  C   UNL A   1      42.537  27.395  27.750  1.00  0.00     0.049 A 
ATOM     50  H   UNL A   1      44.552  27.644  27.293  1.00  0.00     0.167 HD
ATOM     51  C   UNL A   1      48.821  27.980  26.415  1.00  0.00     0.037 A 
ATOM     52  C   UNL A   1      42.104  28.557  28.273  1.00  0.00     0.037 A 
ATOM     53  C   UNL A   1      48.428  29.288  26.873  1.00  0.00     0.049 A 
ATOM     54  C   UNL A   1      43.059  29.713  28.389  1.00  0.00     0.074 A 
ATOM     55  C   UNL A   1      49.197  30.434  26.973  1.00  0.00     0.029 A 
ATOM     56  N   UNL A   1      47.155  29.622  27.308  1.00  0.00    -0.354 N 
ATOM     57  N   UNL A   1      44.327  29.774  28.063  1.00  0.00    -0.248 NA
ATOM     58  C   UNL A   1      42.518  30.966  28.935  1.00  0.00     0.031 C 
ATOM     59  C   UNL A   1      48.399  31.453  27.507  1.00  0.00     0.029 A 
ATOM     60  C   UNL A   1      47.121  30.952  27.698  1.00  0.00     0.049 A 
ATOM     61  H   UNL A   1      46.387  29.006  27.336  1.00  0.00     0.167 HD
ATOM     62  C   UNL A   1      44.730  31.072  28.346  1.00  0.00     0.074 A 
ATOM     63  C   UNL A   1      43.567  31.771  28.850  1.00  0.00     0.031 C 
ATOM     64  C   UNL A   1      45.956  31.632  28.201  1.00  0.00     0.037 A 
BRANCH  51  65
ATOM     65  C   UNL A   1      50.261  27.762  26.055  1.00  0.00     0.064 A 
ATOM     66  C   UNL A   1      50.700  27.802  24.723  1.00  0.00     0.173 A 
ATOM     67  C   UNL A   1      51.223  27.559  27.057  1.00  0.00     0.173 A 
ATOM     68  F   UNL A   1      49.819  27.984  23.729  1.00  0.00    -0.203 F 
ATOM     69  C   UNL A   1      52.043  27.622  24.406  1.00  0.00     0.198 A 
ATOM     70  C   UNL A   1      52.570  27.406  26.737  1.00  0.00     0.198 A 
ATOM     71  F   UNL A   1      50.858  27.518  28.347  1.00  0.00    -0.203 F 
ATOM     72  F   UNL A   1      52.433  27.622  23.122  1.00  0.00    -0.200 F 
ATOM     73  C   UNL A   1      52.978  27.431  25.412  1.00  0.00     0.200 A 
ATOM     74  F   UNL A   1      53.473  27.232  27.711  1.00  0.00    -0.200 F 
ATOM     75  F   UNL A   1      54.272  27.265  25.105  1.00  0.00    -0.200 F 
ENDBRANCH  51  65
BRANCH  52  76
ATOM     76  C   UNL A   1      40.687  28.695  28.696  1.00  0.00     0.064 A 
ATOM     77  C   UNL A   1      39.695  29.065  27.778  1.00  0.00     0.173 A 
ATOM     78  C   UNL A   1      40.296  28.456  30.022  1.00  0.00     0.173 A 
ATOM     79  F   UNL A   1      40.025  29.324  26.504  1.00  0.00    -0.203 F 
ATOM     80  C   UNL A   1      38.367  29.208  28.174  1.00  0.00     0.198 A 
ATOM     81  C   UNL A   1      38.964  28.574  30.410  1.00  0.00     0.198 A 
ATOM     82  F   UNL A   1      41.208  28.092  30.936  1.00  0.00    -0.203 F 
ATOM     83  F   UNL A   1      37.444  29.603  27.286  1.00  0.00    -0.200 F 
ATOM     84  C   UNL A   1      38.001  28.958  29.488  1.00  0.00     0.200 A 
ATOM     85  F   UNL A   1      38.612  28.317  31.678  1.00  0.00    -0.200 F 
ATOM     86  F   UNL A   1      36.723  29.090  29.867  1.00  0.00    -0.200 F 
ENDBRANCH  52  76
BRANCH  64  87
ATOM     87  C   UNL A   1      46.095  33.077  28.578  1.00  0.00     0.064 A 
ATOM     88  C   UNL A   1      46.479  33.463  29.870  1.00  0.00     0.173 A 
ATOM     89  C   UNL A   1      45.866  34.086  27.630  1.00  0.00     0.173 A 
ATOM     90  F   UNL A   1      46.692  32.536  30.816  1.00  0.00    -0.203 F 
ATOM     91  C   UNL A   1      46.604  34.808  30.207  1.00  0.00     0.198 A 
ATOM     92  C   UNL A   1      46.020  35.429  27.962  1.00  0.00     0.198 A 
ATOM     93  F   UNL A   1      45.502  33.768  26.379  1.00  0.00    -0.203 F 
ATOM     94  F   UNL A   1      46.926  35.155  31.461  1.00  0.00    -0.200 F 
ATOM     95  C   UNL A   1      46.381  35.789  29.252  1.00  0.00     0.200 A 
ATOM     96  F   UNL A   1      45.812  36.376  27.036  1.00  0.00    -0.200 F 
ATOM     97  F   UNL A   1      46.504  37.083  29.578  1.00  0.00    -0.200 F 
ENDBRANCH  64  87
ENDBRANCH  38  39
ENDBRANCH  30  33
ENDBRANCH  28  29
ENDBRANCH  27  28
ENDBRANCH  26  27
ENDBRANCH  25  26
ENDBRANCH   1  25
TORSDOF 17
ENDMDL
