MODEL 1
REMARK VINA RESULT:     -13.1      0.000      0.000
REMARK SMILES O=C(NCCCCCCNC(=O)c1ccc(-n2cc(CSc3nc4ccccc4c(=O)n3-c3ccc(Cl)cc3)nn2)cc1)c1ccc(-c2c3nc(c(-c4c(F)c(F)c(F)c(F)c4F)c4ccc([nH]4)c(-c4c(F)c(F)c(F)c(F)c4F)c4nc(c(-c5c(F)c(F)c(F)c(F)c5F)c5ccc2[nH]5)C=C4)C=C3)cc1
REMARK SMILES IDX 8 1 7 2 6 3 5 4 4 5 3 6 1 7 2 8 44 10 45 11 106 12 46 13
REMARK SMILES IDX 105 14 47 15 48 16 49 17 99 18 50 19 104 20 98 21 100 22
REMARK SMILES IDX 51 23 103 24 97 25 96 26 52 28 84 29 64 30 83 31 65 32 68 33
REMARK SMILES IDX 82 34 101 35 66 36 67 37 81 39 102 40 69 41 53 42 54 43
REMARK SMILES IDX 62 44 55 45 56 46 60 47 63 48 57 49 58 50 61 51 59 52 85 53
REMARK SMILES IDX 86 54 94 55 87 56 88 57 92 58 95 59 89 60 90 61 93 62 91 63
REMARK SMILES IDX 70 64 71 65 79 66 72 67 73 68 77 69 80 70 74 71 75 72 78 73
REMARK SMILES IDX 76 74 9 75 10 76 11 77 12 79 13 80 14 81 43 82 15 83 42 84
REMARK SMILES IDX 16 85 17 86 18 87 41 88 19 89 40 90 20 91 21 92 22 93 23 94
REMARK SMILES IDX 32 95 24 96 30 97 25 98 29 99 31 100 26 101 28 102 27 103
REMARK SMILES IDX 33 104 34 105 39 106 35 107 38 108 36 109 37 110
REMARK H PARENT 3 9 100 27 68 38 10 78
REMARK Flexibility Score: inf
ROOT
ATOM      1  C   UNL A   1      31.410  26.507  24.998  1.00  0.00     0.021 C 
ENDROOT
BRANCH   1   2
ATOM      2  C   UNL A   1      32.909  26.342  24.739  1.00  0.00     0.002 C 
BRANCH   2   3
ATOM      3  C   UNL A   1      33.840  26.970  25.783  1.00  0.00     0.002 C 
BRANCH   3   4
ATOM      4  C   UNL A   1      33.190  27.952  26.770  1.00  0.00     0.021 C 
BRANCH   4   5
ATOM      5  C   UNL A   1      34.130  29.017  27.331  1.00  0.00     0.116 C 
BRANCH   5   6
ATOM      6  N   UNL A   1      33.535  30.334  27.411  1.00  0.00    -0.352 N 
ATOM      7  O   UNL A   1      33.144  32.488  27.648  1.00  0.00    -0.269 OA
ATOM      8  C   UNL A   1      33.921  31.557  27.882  1.00  0.00     0.251 C 
ATOM      9  H   UNL A   1      32.627  30.354  27.031  1.00  0.00     0.163 HD
BRANCH   8  10
ATOM     10  C   UNL A   1      35.141  31.843  28.687  1.00  0.00     0.039 A 
ATOM     11  C   UNL A   1      36.389  31.235  28.551  1.00  0.00     0.014 A 
ATOM     12  C   UNL A   1      34.982  32.817  29.696  1.00  0.00     0.014 A 
ATOM     13  C   UNL A   1      37.419  31.535  29.447  1.00  0.00     0.010 A 
ATOM     14  C   UNL A   1      36.006  33.124  30.585  1.00  0.00     0.010 A 
ATOM     15  C   UNL A   1      37.217  32.452  30.486  1.00  0.00    -0.014 A 
BRANCH  15  16
ATOM     16  C   UNL A   1      38.346  32.798  31.353  1.00  0.00     0.031 A 
ATOM     17  C   UNL A   1      39.488  33.454  30.646  1.00  0.00     0.074 A 
ATOM     18  C   UNL A   1      38.337  32.684  32.699  1.00  0.00     0.049 A 
ATOM     19  N   UNL A   1      40.713  33.047  30.555  1.00  0.00    -0.248 NA
ATOM     20  C   UNL A   1      39.206  34.669  29.864  1.00  0.00     0.031 C 
ATOM     21  C   UNL A   1      37.218  32.345  33.581  1.00  0.00     0.029 A 
ATOM     22  N   UNL A   1      39.349  32.931  33.585  1.00  0.00    -0.354 N 
ATOM     23  C   UNL A   1      41.397  34.023  29.830  1.00  0.00     0.074 A 
ATOM     24  C   UNL A   1      40.400  34.938  29.336  1.00  0.00     0.031 C 
ATOM     25  C   UNL A   1      37.554  32.613  34.866  1.00  0.00     0.029 A 
ATOM     26  C   UNL A   1      38.953  33.004  34.916  1.00  0.00     0.049 A 
ATOM     27  H   UNL A   1      40.285  33.046  33.302  1.00  0.00     0.167 HD
ATOM     28  C   UNL A   1      42.756  34.105  29.839  1.00  0.00     0.037 A 
ATOM     29  C   UNL A   1      39.713  33.393  35.973  1.00  0.00     0.037 A 
ATOM     30  C   UNL A   1      43.354  32.867  30.260  1.00  0.00     0.049 A 
ATOM     31  C   UNL A   1      41.135  33.270  35.572  1.00  0.00     0.074 A 
ATOM     32  C   UNL A   1      43.366  31.580  29.758  1.00  0.00     0.029 A 
ATOM     33  N   UNL A   1      43.778  32.756  31.560  1.00  0.00    -0.354 N 
ATOM     34  N   UNL A   1      41.731  32.132  35.354  1.00  0.00    -0.248 NA
ATOM     35  C   UNL A   1      41.764  34.436  34.974  1.00  0.00     0.031 C 
ATOM     36  C   UNL A   1      43.285  30.738  30.906  1.00  0.00     0.029 A 
ATOM     37  C   UNL A   1      43.303  31.560  32.034  1.00  0.00     0.049 A 
ATOM     38  H   UNL A   1      44.319  33.410  32.058  1.00  0.00     0.167 HD
ATOM     39  C   UNL A   1      42.533  32.369  34.249  1.00  0.00     0.074 A 
ATOM     40  C   UNL A   1      42.567  33.822  34.103  1.00  0.00     0.031 C 
ATOM     41  C   UNL A   1      42.865  31.360  33.393  1.00  0.00     0.037 A 
BRANCH  28  42
ATOM     42  C   UNL A   1      43.536  35.395  29.779  1.00  0.00     0.064 A 
ATOM     43  C   UNL A   1      43.474  36.299  30.859  1.00  0.00     0.173 A 
ATOM     44  C   UNL A   1      44.090  35.910  28.588  1.00  0.00     0.173 A 
ATOM     45  F   UNL A   1      42.945  35.925  32.035  1.00  0.00    -0.203 F 
ATOM     46  C   UNL A   1      43.867  37.634  30.729  1.00  0.00     0.198 A 
ATOM     47  C   UNL A   1      44.528  37.228  28.476  1.00  0.00     0.198 A 
ATOM     48  F   UNL A   1      44.126  35.194  27.457  1.00  0.00    -0.203 F 
ATOM     49  F   UNL A   1      43.676  38.487  31.746  1.00  0.00    -0.200 F 
ATOM     50  C   UNL A   1      44.387  38.099  29.536  1.00  0.00     0.200 A 
ATOM     51  F   UNL A   1      45.010  37.666  27.305  1.00  0.00    -0.200 F 
ATOM     52  F   UNL A   1      44.706  39.392  29.389  1.00  0.00    -0.200 F 
ENDBRANCH  28  42
BRANCH  29  53
ATOM     53  C   UNL A   1      39.316  34.176  37.172  1.00  0.00     0.064 A 
ATOM     54  C   UNL A   1      38.960  33.544  38.376  1.00  0.00     0.173 A 
ATOM     55  C   UNL A   1      39.579  35.556  37.246  1.00  0.00     0.173 A 
ATOM     56  F   UNL A   1      38.745  32.220  38.406  1.00  0.00    -0.203 F 
ATOM     57  C   UNL A   1      38.895  34.247  39.586  1.00  0.00     0.198 A 
ATOM     58  C   UNL A   1      39.513  36.257  38.452  1.00  0.00     0.198 A 
ATOM     59  F   UNL A   1      40.008  36.229  36.169  1.00  0.00    -0.203 F 
ATOM     60  F   UNL A   1      38.615  33.599  40.725  1.00  0.00    -0.200 F 
ATOM     61  C   UNL A   1      39.183  35.602  39.624  1.00  0.00     0.200 A 
ATOM     62  F   UNL A   1      39.838  37.558  38.484  1.00  0.00    -0.200 F 
ATOM     63  F   UNL A   1      39.188  36.262  40.790  1.00  0.00    -0.200 F 
ENDBRANCH  29  53
BRANCH  41  64
ATOM     64  C   UNL A   1      42.536  29.951  33.803  1.00  0.00     0.064 A 
ATOM     65  C   UNL A   1      41.358  29.277  33.437  1.00  0.00     0.173 A 
ATOM     66  C   UNL A   1      43.521  29.211  34.469  1.00  0.00     0.173 A 
ATOM     67  F   UNL A   1      40.410  29.883  32.713  1.00  0.00    -0.203 F 
ATOM     68  C   UNL A   1      41.164  27.934  33.759  1.00  0.00     0.198 A 
ATOM     69  C   UNL A   1      43.340  27.861  34.756  1.00  0.00     0.198 A 
ATOM     70  F   UNL A   1      44.689  29.786  34.794  1.00  0.00    -0.203 F 
ATOM     71  F   UNL A   1      40.027  27.313  33.404  1.00  0.00    -0.200 F 
ATOM     72  C   UNL A   1      42.158  27.225  34.410  1.00  0.00     0.200 A 
ATOM     73  F   UNL A   1      44.327  27.167  35.340  1.00  0.00    -0.200 F 
ATOM     74  F   UNL A   1      41.992  25.923  34.680  1.00  0.00    -0.200 F 
ENDBRANCH  41  64
ENDBRANCH  15  16
ENDBRANCH   8  10
ENDBRANCH   5   6
ENDBRANCH   4   5
ENDBRANCH   3   4
ENDBRANCH   2   3
ENDBRANCH   1   2
BRANCH   1  75
ATOM     75  C   UNL A   1      30.553  25.299  24.627  1.00  0.00     0.116 C 
BRANCH  75  76
ATOM     76  N   UNL A   1      29.985  24.640  25.791  1.00  0.00    -0.352 N 
ATOM     77  C   UNL A   1      30.503  23.619  26.555  1.00  0.00     0.251 C 
ATOM     78  H   UNL A   1      29.103  24.972  26.075  1.00  0.00     0.163 HD
ATOM     79  O   UNL A   1      29.838  23.095  27.433  1.00  0.00    -0.269 OA
BRANCH  77  80
ATOM     80  C   UNL A   1      31.871  23.136  26.280  1.00  0.00     0.039 A 
ATOM     81  C   UNL A   1      32.915  23.590  27.093  1.00  0.00     0.016 A 
ATOM     82  C   UNL A   1      32.118  22.245  25.231  1.00  0.00     0.016 A 
ATOM     83  C   UNL A   1      34.204  23.086  26.915  1.00  0.00     0.029 A 
ATOM     84  C   UNL A   1      33.411  21.765  25.029  1.00  0.00     0.029 A 
ATOM     85  C   UNL A   1      34.452  22.182  25.877  1.00  0.00     0.066 A 
BRANCH  85  86
ATOM     86  N   UNL A   1      35.774  21.754  25.638  1.00  0.00    -0.220 N 
ATOM     87  C   UNL A   1      36.915  22.389  26.043  1.00  0.00     0.141 A 
ATOM     88  N   UNL A   1      36.101  20.618  24.985  1.00  0.00    -0.062 NA
ATOM     89  C   UNL A   1      37.954  21.577  25.660  1.00  0.00     0.093 A 
ATOM     90  N   UNL A   1      37.429  20.528  24.949  1.00  0.00    -0.134 NA
BRANCH  89  91
ATOM     91  C   UNL A   1      39.408  21.841  25.724  1.00  0.00     0.138 C 
BRANCH  91  92
ATOM     92  S   UNL A   1      40.247  22.389  27.211  1.00  0.00    -0.081 SA
BRANCH  92  93
ATOM     93  C   UNL A   1      40.623  24.093  27.229  1.00  0.00     0.176 A 
ATOM     94  N   UNL A   1      39.878  24.730  28.085  1.00  0.00    -0.223 NA
ATOM     95  N   UNL A   1      41.593  24.748  26.479  1.00  0.00    -0.255 N 
ATOM     96  C   UNL A   1      39.954  26.123  28.144  1.00  0.00     0.079 A 
ATOM     97  C   UNL A   1      41.239  26.052  26.092  1.00  0.00     0.266 A 
ATOM     98  C   UNL A   1      39.399  26.826  29.215  1.00  0.00     0.029 A 
ATOM     99  C   UNL A   1      40.459  26.833  27.067  1.00  0.00     0.066 A 
ATOM    100  O   UNL A   1      41.507  26.584  25.016  1.00  0.00    -0.268 OA
ATOM    101  C   UNL A   1      39.276  28.218  29.157  1.00  0.00     0.002 A 
ATOM    102  C   UNL A   1      40.291  28.218  26.965  1.00  0.00     0.016 A 
ATOM    103  C   UNL A   1      39.681  28.909  28.012  1.00  0.00     0.001 A 
BRANCH  95 104
ATOM    104  C   UNL A   1      42.873  24.218  26.036  1.00  0.00     0.051 A 
ATOM    105  C   UNL A   1      44.078  24.709  26.586  1.00  0.00     0.028 A 
ATOM    106  C   UNL A   1      43.024  23.212  25.075  1.00  0.00     0.028 A 
ATOM    107  C   UNL A   1      45.329  24.422  26.026  1.00  0.00     0.022 A 
ATOM    108  C   UNL A   1      44.261  22.972  24.453  1.00  0.00     0.022 A 
ATOM    109  C   UNL A   1      45.403  23.616  24.903  1.00  0.00     0.041 A 
ATOM    110  Cl  UNL A   1      46.888  23.438  24.063  1.00  0.00    -0.084 Cl
ENDBRANCH  95 104
ENDBRANCH  92  93
ENDBRANCH  91  92
ENDBRANCH  89  91
ENDBRANCH  85  86
ENDBRANCH  77  80
ENDBRANCH  75  76
ENDBRANCH   1  75
TORSDOF 18
ENDMDL
MODEL 2
REMARK VINA RESULT:     -13.0      5.132     12.529
REMARK SMILES O=C(NCCCCCCNC(=O)c1ccc(-n2cc(CSc3nc4ccccc4c(=O)n3-c3ccc(Cl)cc3)nn2)cc1)c1ccc(-c2c3nc(c(-c4c(F)c(F)c(F)c(F)c4F)c4ccc([nH]4)c(-c4c(F)c(F)c(F)c(F)c4F)c4nc(c(-c5c(F)c(F)c(F)c(F)c5F)c5ccc2[nH]5)C=C4)C=C3)cc1
REMARK SMILES IDX 8 1 7 2 6 3 5 4 4 5 3 6 1 7 2 8 44 10 45 11 106 12 46 13
REMARK SMILES IDX 105 14 47 15 48 16 49 17 99 18 50 19 104 20 98 21 100 22
REMARK SMILES IDX 51 23 103 24 97 25 96 26 52 28 84 29 64 30 83 31 65 32 68 33
REMARK SMILES IDX 82 34 101 35 66 36 67 37 81 39 102 40 69 41 53 42 54 43
REMARK SMILES IDX 62 44 55 45 56 46 60 47 63 48 57 49 58 50 61 51 59 52 85 53
REMARK SMILES IDX 86 54 94 55 87 56 88 57 92 58 95 59 89 60 90 61 93 62 91 63
REMARK SMILES IDX 70 64 71 65 79 66 72 67 73 68 77 69 80 70 74 71 75 72 78 73
REMARK SMILES IDX 76 74 9 75 10 76 11 77 12 79 13 80 14 81 43 82 15 83 42 84
REMARK SMILES IDX 16 85 17 86 18 87 41 88 19 89 40 90 20 91 21 92 22 93 23 94
REMARK SMILES IDX 32 95 24 96 30 97 25 98 29 99 31 100 26 101 28 102 27 103
REMARK SMILES IDX 33 104 34 105 39 106 35 107 38 108 36 109 37 110
REMARK H PARENT 3 9 100 27 68 38 10 78
REMARK Flexibility Score: inf
ROOT
ATOM      1  C   UNL A   1      36.672  33.536  34.888  1.00  0.00     0.021 C 
ENDROOT
BRANCH   1   2
ATOM      2  C   UNL A   1      36.646  33.566  33.358  1.00  0.00     0.002 C 
BRANCH   2   3
ATOM      3  C   UNL A   1      36.266  32.249  32.671  1.00  0.00     0.002 C 
BRANCH   3   4
ATOM      4  C   UNL A   1      34.944  32.250  31.886  1.00  0.00     0.021 C 
BRANCH   4   5
ATOM      5  C   UNL A   1      34.754  33.440  30.948  1.00  0.00     0.116 C 
BRANCH   5   6
ATOM      6  N   UNL A   1      34.397  33.064  29.596  1.00  0.00    -0.352 N 
ATOM      7  O   UNL A   1      34.169  32.058  27.651  1.00  0.00    -0.269 OA
ATOM      8  C   UNL A   1      34.839  32.148  28.684  1.00  0.00     0.251 C 
ATOM      9  H   UNL A   1      33.649  33.601  29.248  1.00  0.00     0.163 HD
BRANCH   8  10
ATOM     10  C   UNL A   1      36.067  31.313  28.803  1.00  0.00     0.039 A 
ATOM     11  C   UNL A   1      36.131  29.921  28.796  1.00  0.00     0.014 A 
ATOM     12  C   UNL A   1      37.271  32.033  28.959  1.00  0.00     0.014 A 
ATOM     13  C   UNL A   1      37.348  29.270  29.017  1.00  0.00     0.010 A 
ATOM     14  C   UNL A   1      38.486  31.391  29.172  1.00  0.00     0.010 A 
ATOM     15  C   UNL A   1      38.520  30.005  29.241  1.00  0.00    -0.014 A 
BRANCH  15  16
ATOM     16  C   UNL A   1      39.787  29.286  29.388  1.00  0.00     0.031 A 
ATOM     17  C   UNL A   1      40.166  28.988  30.803  1.00  0.00     0.074 A 
ATOM     18  C   UNL A   1      40.508  28.792  28.358  1.00  0.00     0.049 A 
ATOM     19  N   UNL A   1      41.223  29.366  31.446  1.00  0.00    -0.248 NA
ATOM     20  C   UNL A   1      39.198  28.252  31.632  1.00  0.00     0.031 C 
ATOM     21  C   UNL A   1      40.152  28.729  26.939  1.00  0.00     0.029 A 
ATOM     22  N   UNL A   1      41.718  28.157  28.389  1.00  0.00    -0.354 N 
ATOM     23  C   UNL A   1      41.132  28.799  32.717  1.00  0.00     0.074 A 
ATOM     24  C   UNL A   1      39.817  28.219  32.813  1.00  0.00     0.031 C 
ATOM     25  C   UNL A   1      41.015  27.911  26.290  1.00  0.00     0.029 A 
ATOM     26  C   UNL A   1      42.067  27.509  27.209  1.00  0.00     0.049 A 
ATOM     27  H   UNL A   1      42.298  28.158  29.185  1.00  0.00     0.167 HD
ATOM     28  C   UNL A   1      42.216  28.693  33.536  1.00  0.00     0.037 A 
ATOM     29  C   UNL A   1      43.122  26.675  27.016  1.00  0.00     0.037 A 
ATOM     30  C   UNL A   1      43.259  29.602  33.147  1.00  0.00     0.049 A 
ATOM     31  C   UNL A   1      44.100  26.933  28.100  1.00  0.00     0.074 A 
ATOM     32  C   UNL A   1      43.364  30.978  33.073  1.00  0.00     0.029 A 
ATOM     33  N   UNL A   1      44.306  29.116  32.405  1.00  0.00    -0.354 N 
ATOM     34  N   UNL A   1      44.784  28.037  28.212  1.00  0.00    -0.248 NA
ATOM     35  C   UNL A   1      43.979  26.140  29.312  1.00  0.00     0.031 C 
ATOM     36  C   UNL A   1      44.124  31.224  31.893  1.00  0.00     0.029 A 
ATOM     37  C   UNL A   1      44.496  29.988  31.364  1.00  0.00     0.049 A 
ATOM     38  H   UNL A   1      44.822  28.297  32.586  1.00  0.00     0.167 HD
ATOM     39  C   UNL A   1      44.796  28.297  29.573  1.00  0.00     0.074 A 
ATOM     40  C   UNL A   1      44.347  27.060  30.206  1.00  0.00     0.031 C 
ATOM     41  C   UNL A   1      44.900  29.574  30.043  1.00  0.00     0.037 A 
BRANCH  28  42
ATOM     42  C   UNL A   1      42.461  27.547  34.485  1.00  0.00     0.064 A 
ATOM     43  C   UNL A   1      43.031  26.350  34.003  1.00  0.00     0.173 A 
ATOM     44  C   UNL A   1      41.883  27.469  35.770  1.00  0.00     0.173 A 
ATOM     45  F   UNL A   1      43.588  26.301  32.784  1.00  0.00    -0.203 F 
ATOM     46  C   UNL A   1      42.957  25.154  34.723  1.00  0.00     0.198 A 
ATOM     47  C   UNL A   1      41.857  26.287  36.507  1.00  0.00     0.198 A 
ATOM     48  F   UNL A   1      41.225  28.500  36.314  1.00  0.00    -0.203 F 
ATOM     49  F   UNL A   1      43.404  24.016  34.173  1.00  0.00    -0.200 F 
ATOM     50  C   UNL A   1      42.364  25.122  35.972  1.00  0.00     0.200 A 
ATOM     51  F   UNL A   1      41.258  26.271  37.707  1.00  0.00    -0.200 F 
ATOM     52  F   UNL A   1      42.237  23.966  36.637  1.00  0.00    -0.200 F 
ENDBRANCH  28  42
BRANCH  29  53
ATOM     53  C   UNL A   1      43.205  25.451  26.179  1.00  0.00     0.064 A 
ATOM     54  C   UNL A   1      44.292  25.225  25.315  1.00  0.00     0.173 A 
ATOM     55  C   UNL A   1      42.379  24.343  26.444  1.00  0.00     0.173 A 
ATOM     56  F   UNL A   1      45.161  26.211  25.052  1.00  0.00    -0.203 F 
ATOM     57  C   UNL A   1      44.548  23.960  24.770  1.00  0.00     0.198 A 
ATOM     58  C   UNL A   1      42.634  23.083  25.899  1.00  0.00     0.198 A 
ATOM     59  F   UNL A   1      41.368  24.439  27.320  1.00  0.00    -0.203 F 
ATOM     60  F   UNL A   1      45.630  23.767  24.002  1.00  0.00    -0.200 F 
ATOM     61  C   UNL A   1      43.725  22.888  25.072  1.00  0.00     0.200 A 
ATOM     62  F   UNL A   1      41.856  22.044  26.234  1.00  0.00    -0.200 F 
ATOM     63  F   UNL A   1      44.006  21.664  24.606  1.00  0.00    -0.200 F 
ENDBRANCH  29  53
BRANCH  41  64
ATOM     64  C   UNL A   1      45.234  30.661  29.060  1.00  0.00     0.064 A 
ATOM     65  C   UNL A   1      44.277  31.378  28.319  1.00  0.00     0.173 A 
ATOM     66  C   UNL A   1      46.564  31.091  28.978  1.00  0.00     0.173 A 
ATOM     67  F   UNL A   1      42.973  31.096  28.419  1.00  0.00    -0.203 F 
ATOM     68  C   UNL A   1      44.646  32.448  27.506  1.00  0.00     0.198 A 
ATOM     69  C   UNL A   1      46.924  32.183  28.194  1.00  0.00     0.198 A 
ATOM     70  F   UNL A   1      47.513  30.480  29.705  1.00  0.00    -0.203 F 
ATOM     71  F   UNL A   1      43.714  33.113  26.804  1.00  0.00    -0.200 F 
ATOM     72  C   UNL A   1      45.968  32.855  27.451  1.00  0.00     0.200 A 
ATOM     73  F   UNL A   1      48.197  32.605  28.184  1.00  0.00    -0.200 F 
ATOM     74  F   UNL A   1      46.317  33.913  26.705  1.00  0.00    -0.200 F 
ENDBRANCH  41  64
ENDBRANCH  15  16
ENDBRANCH   8  10
ENDBRANCH   5   6
ENDBRANCH   4   5
ENDBRANCH   3   4
ENDBRANCH   2   3
ENDBRANCH   1   2
BRANCH   1  75
ATOM     75  C   UNL A   1      38.002  33.939  35.521  1.00  0.00     0.116 C 
BRANCH  75  76
ATOM     76  N   UNL A   1      38.810  32.792  35.898  1.00  0.00    -0.352 N 
ATOM     77  C   UNL A   1      39.864  32.209  35.232  1.00  0.00     0.251 C 
ATOM     78  H   UNL A   1      38.568  32.370  36.755  1.00  0.00     0.163 HD
ATOM     79  O   UNL A   1      40.359  31.169  35.633  1.00  0.00    -0.269 OA
BRANCH  77  80
ATOM     80  C   UNL A   1      40.375  32.841  33.999  1.00  0.00     0.039 A 
ATOM     81  C   UNL A   1      41.255  33.922  34.119  1.00  0.00     0.016 A 
ATOM     82  C   UNL A   1      39.987  32.372  32.741  1.00  0.00     0.016 A 
ATOM     83  C   UNL A   1      41.824  34.485  32.976  1.00  0.00     0.029 A 
ATOM     84  C   UNL A   1      40.527  32.954  31.594  1.00  0.00     0.029 A 
ATOM     85  C   UNL A   1      41.452  34.007  31.715  1.00  0.00     0.066 A 
BRANCH  85  86
ATOM     86  N   UNL A   1      41.951  34.646  30.562  1.00  0.00    -0.220 N 
ATOM     87  C   UNL A   1      43.252  34.992  30.328  1.00  0.00     0.141 A 
ATOM     88  N   UNL A   1      41.197  34.987  29.494  1.00  0.00    -0.062 NA
ATOM     89  C   UNL A   1      43.282  35.512  29.057  1.00  0.00     0.093 A 
ATOM     90  N   UNL A   1      41.991  35.562  28.593  1.00  0.00    -0.134 NA
BRANCH  89  91
ATOM     91  C   UNL A   1      44.404  36.166  28.350  1.00  0.00     0.138 C 
BRANCH  91  92
ATOM     92  S   UNL A   1      44.236  37.702  27.441  1.00  0.00    -0.081 SA
BRANCH  92  93
ATOM     93  C   UNL A   1      43.727  39.056  28.417  1.00  0.00     0.176 A 
ATOM     94  N   UNL A   1      44.212  38.975  29.622  1.00  0.00    -0.223 NA
ATOM     95  N   UNL A   1      42.936  40.127  28.021  1.00  0.00    -0.255 N 
ATOM     96  C   UNL A   1      43.806  39.907  30.579  1.00  0.00     0.079 A 
ATOM     97  C   UNL A   1      42.087  40.620  29.029  1.00  0.00     0.266 A 
ATOM     98  C   UNL A   1      44.494  40.040  31.787  1.00  0.00     0.029 A 
ATOM     99  C   UNL A   1      42.629  40.615  30.398  1.00  0.00     0.066 A 
ATOM    100  O   UNL A   1      40.940  41.034  28.868  1.00  0.00    -0.268 OA
ATOM    101  C   UNL A   1      43.953  40.805  32.826  1.00  0.00     0.002 A 
ATOM    102  C   UNL A   1      42.045  41.335  31.445  1.00  0.00     0.016 A 
ATOM    103  C   UNL A   1      42.706  41.415  32.670  1.00  0.00     0.001 A 
BRANCH  95 104
ATOM    104  C   UNL A   1      42.870  40.738  26.702  1.00  0.00     0.051 A 
ATOM    105  C   UNL A   1      43.932  41.543  26.234  1.00  0.00     0.028 A 
ATOM    106  C   UNL A   1      41.802  40.582  25.811  1.00  0.00     0.028 A 
ATOM    107  C   UNL A   1      43.815  42.349  25.096  1.00  0.00     0.022 A 
ATOM    108  C   UNL A   1      41.638  41.439  24.709  1.00  0.00     0.022 A 
ATOM    109  C   UNL A   1      42.628  42.353  24.384  1.00  0.00     0.041 A 
ATOM    110  Cl  UNL A   1      42.376  43.497  23.129  1.00  0.00    -0.084 Cl
ENDBRANCH  95 104
ENDBRANCH  92  93
ENDBRANCH  91  92
ENDBRANCH  89  91
ENDBRANCH  85  86
ENDBRANCH  77  80
ENDBRANCH  75  76
ENDBRANCH   1  75
TORSDOF 18
ENDMDL
MODEL 3
REMARK VINA RESULT:     -13.0      3.743      9.400
REMARK SMILES O=C(NCCCCCCNC(=O)c1ccc(-n2cc(CSc3nc4ccccc4c(=O)n3-c3ccc(Cl)cc3)nn2)cc1)c1ccc(-c2c3nc(c(-c4c(F)c(F)c(F)c(F)c4F)c4ccc([nH]4)c(-c4c(F)c(F)c(F)c(F)c4F)c4nc(c(-c5c(F)c(F)c(F)c(F)c5F)c5ccc2[nH]5)C=C4)C=C3)cc1
REMARK SMILES IDX 8 1 7 2 6 3 5 4 4 5 3 6 1 7 2 8 44 10 45 11 106 12 46 13
REMARK SMILES IDX 105 14 47 15 48 16 49 17 99 18 50 19 104 20 98 21 100 22
REMARK SMILES IDX 51 23 103 24 97 25 96 26 52 28 84 29 64 30 83 31 65 32 68 33
REMARK SMILES IDX 82 34 101 35 66 36 67 37 81 39 102 40 69 41 53 42 54 43
REMARK SMILES IDX 62 44 55 45 56 46 60 47 63 48 57 49 58 50 61 51 59 52 85 53
REMARK SMILES IDX 86 54 94 55 87 56 88 57 92 58 95 59 89 60 90 61 93 62 91 63
REMARK SMILES IDX 70 64 71 65 79 66 72 67 73 68 77 69 80 70 74 71 75 72 78 73
REMARK SMILES IDX 76 74 9 75 10 76 11 77 12 79 13 80 14 81 43 82 15 83 42 84
REMARK SMILES IDX 16 85 17 86 18 87 41 88 19 89 40 90 20 91 21 92 22 93 23 94
REMARK SMILES IDX 32 95 24 96 30 97 25 98 29 99 31 100 26 101 28 102 27 103
REMARK SMILES IDX 33 104 34 105 39 106 35 107 38 108 36 109 37 110
REMARK H PARENT 3 9 100 27 68 38 10 78
REMARK Flexibility Score: inf
ROOT
ATOM      1  C   UNL A   1      35.477  32.603  27.993  1.00  0.00     0.021 C 
ENDROOT
BRANCH   1   2
ATOM      2  C   UNL A   1      34.965  33.529  29.100  1.00  0.00     0.002 C 
BRANCH   2   3
ATOM      3  C   UNL A   1      34.619  34.959  28.666  1.00  0.00     0.002 C 
BRANCH   3   4
ATOM      4  C   UNL A   1      33.673  35.740  29.591  1.00  0.00     0.021 C 
BRANCH   4   5
ATOM      5  C   UNL A   1      33.071  34.923  30.733  1.00  0.00     0.116 C 
BRANCH   5   6
ATOM      6  N   UNL A   1      33.431  35.408  32.048  1.00  0.00    -0.352 N 
ATOM      7  O   UNL A   1      34.484  36.009  33.886  1.00  0.00    -0.269 OA
ATOM      8  C   UNL A   1      34.535  35.340  32.850  1.00  0.00     0.251 C 
ATOM      9  H   UNL A   1      32.699  35.913  32.470  1.00  0.00     0.163 HD
BRANCH   8  10
ATOM     10  C   UNL A   1      35.741  34.498  32.613  1.00  0.00     0.039 A 
ATOM     11  C   UNL A   1      37.034  34.951  32.350  1.00  0.00     0.014 A 
ATOM     12  C   UNL A   1      35.518  33.105  32.645  1.00  0.00     0.014 A 
ATOM     13  C   UNL A   1      38.051  34.041  32.049  1.00  0.00     0.010 A 
ATOM     14  C   UNL A   1      36.528  32.195  32.353  1.00  0.00     0.010 A 
ATOM     15  C   UNL A   1      37.791  32.664  32.015  1.00  0.00    -0.014 A 
BRANCH  15  16
ATOM     16  C   UNL A   1      38.901  31.740  31.775  1.00  0.00     0.031 A 
ATOM     17  C   UNL A   1      39.659  31.354  33.005  1.00  0.00     0.074 A 
ATOM     18  C   UNL A   1      39.162  31.153  30.587  1.00  0.00     0.049 A 
ATOM     19  N   UNL A   1      40.913  31.536  33.263  1.00  0.00    -0.248 NA
ATOM     20  C   UNL A   1      38.899  30.774  34.125  1.00  0.00     0.031 C 
ATOM     21  C   UNL A   1      38.364  31.180  29.359  1.00  0.00     0.029 A 
ATOM     22  N   UNL A   1      40.195  30.323  30.252  1.00  0.00    -0.354 N 
ATOM     23  C   UNL A   1      41.142  30.966  34.516  1.00  0.00     0.074 A 
ATOM     24  C   UNL A   1      39.850  30.613  35.046  1.00  0.00     0.031 C 
ATOM     25  C   UNL A   1      38.826  30.243  28.496  1.00  0.00     0.029 A 
ATOM     26  C   UNL A   1      40.035  29.651  29.045  1.00  0.00     0.049 A 
ATOM     27  H   UNL A   1      40.991  30.211  30.820  1.00  0.00     0.167 HD
ATOM     28  C   UNL A   1      42.397  30.663  34.948  1.00  0.00     0.037 A 
ATOM     29  C   UNL A   1      40.819  28.656  28.555  1.00  0.00     0.037 A 
ATOM     30  C   UNL A   1      43.396  31.392  34.215  1.00  0.00     0.049 A 
ATOM     31  C   UNL A   1      42.121  28.724  29.260  1.00  0.00     0.074 A 
ATOM     32  C   UNL A   1      43.698  32.732  34.065  1.00  0.00     0.029 A 
ATOM     33  N   UNL A   1      44.054  30.752  33.196  1.00  0.00    -0.354 N 
ATOM     34  N   UNL A   1      42.978  29.694  29.110  1.00  0.00    -0.248 NA
ATOM     35  C   UNL A   1      42.265  27.937  30.474  1.00  0.00     0.031 C 
ATOM     36  C   UNL A   1      44.070  32.871  32.696  1.00  0.00     0.029 A 
ATOM     37  C   UNL A   1      44.042  31.601  32.119  1.00  0.00     0.049 A 
ATOM     38  H   UNL A   1      44.458  29.855  33.230  1.00  0.00     0.167 HD
ATOM     39  C   UNL A   1      43.469  29.921  30.386  1.00  0.00     0.074 A 
ATOM     40  C   UNL A   1      43.048  28.763  31.171  1.00  0.00     0.031 C 
ATOM     41  C   UNL A   1      43.927  31.152  30.754  1.00  0.00     0.037 A 
BRANCH  28  42
ATOM     42  C   UNL A   1      42.740  29.472  35.809  1.00  0.00     0.064 A 
ATOM     43  C   UNL A   1      43.712  29.601  36.823  1.00  0.00     0.173 A 
ATOM     44  C   UNL A   1      42.379  28.149  35.479  1.00  0.00     0.173 A 
ATOM     45  F   UNL A   1      44.149  30.812  37.202  1.00  0.00    -0.203 F 
ATOM     46  C   UNL A   1      44.325  28.488  37.405  1.00  0.00     0.198 A 
ATOM     47  C   UNL A   1      42.956  27.041  36.097  1.00  0.00     0.198 A 
ATOM     48  F   UNL A   1      41.540  27.874  34.473  1.00  0.00    -0.203 F 
ATOM     49  F   UNL A   1      45.330  28.659  38.276  1.00  0.00    -0.200 F 
ATOM     50  C   UNL A   1      43.952  27.209  37.036  1.00  0.00     0.200 A 
ATOM     51  F   UNL A   1      42.595  25.809  35.712  1.00  0.00    -0.200 F 
ATOM     52  F   UNL A   1      44.581  26.141  37.546  1.00  0.00    -0.200 F 
ENDBRANCH  28  42
BRANCH  29  53
ATOM     53  C   UNL A   1      40.426  27.453  27.777  1.00  0.00     0.064 A 
ATOM     54  C   UNL A   1      41.127  27.063  26.622  1.00  0.00     0.173 A 
ATOM     55  C   UNL A   1      39.554  26.495  28.330  1.00  0.00     0.173 A 
ATOM     56  F   UNL A   1      42.018  27.894  26.062  1.00  0.00    -0.203 F 
ATOM     57  C   UNL A   1      40.981  25.785  26.068  1.00  0.00     0.198 A 
ATOM     58  C   UNL A   1      39.408  25.222  27.776  1.00  0.00     0.198 A 
ATOM     59  F   UNL A   1      38.907  26.743  29.477  1.00  0.00    -0.203 F 
ATOM     60  F   UNL A   1      41.713  25.427  25.004  1.00  0.00    -0.200 F 
ATOM     61  C   UNL A   1      40.130  24.861  26.653  1.00  0.00     0.200 A 
ATOM     62  F   UNL A   1      38.616  24.322  28.377  1.00  0.00    -0.200 F 
ATOM     63  F   UNL A   1      40.040  23.617  26.165  1.00  0.00    -0.200 F 
ENDBRANCH  29  53
BRANCH  41  64
ATOM     64  C   UNL A   1      44.104  32.188  29.678  1.00  0.00     0.064 A 
ATOM     65  C   UNL A   1      43.113  33.112  29.302  1.00  0.00     0.173 A 
ATOM     66  C   UNL A   1      45.376  32.342  29.113  1.00  0.00     0.173 A 
ATOM     67  F   UNL A   1      41.901  33.097  29.869  1.00  0.00    -0.203 F 
ATOM     68  C   UNL A   1      43.379  34.118  28.373  1.00  0.00     0.198 A 
ATOM     69  C   UNL A   1      45.647  33.369  28.214  1.00  0.00     0.198 A 
ATOM     70  F   UNL A   1      46.375  31.523  29.475  1.00  0.00    -0.203 F 
ATOM     71  F   UNL A   1      42.415  34.985  28.025  1.00  0.00    -0.200 F 
ATOM     72  C   UNL A   1      44.648  34.250  27.837  1.00  0.00     0.200 A 
ATOM     73  F   UNL A   1      46.891  33.524  27.737  1.00  0.00    -0.200 F 
ATOM     74  F   UNL A   1      44.916  35.245  26.978  1.00  0.00    -0.200 F 
ENDBRANCH  41  64
ENDBRANCH  15  16
ENDBRANCH   8  10
ENDBRANCH   5   6
ENDBRANCH   4   5
ENDBRANCH   3   4
ENDBRANCH   2   3
ENDBRANCH   1   2
BRANCH   1  75
ATOM     75  C   UNL A   1      34.677  31.316  27.807  1.00  0.00     0.116 C 
BRANCH  75  76
ATOM     76  N   UNL A   1      33.251  31.560  27.676  1.00  0.00    -0.352 N 
ATOM     77  C   UNL A   1      32.314  30.883  26.929  1.00  0.00     0.251 C 
ATOM     78  H   UNL A   1      32.903  32.320  28.198  1.00  0.00     0.163 HD
ATOM     79  O   UNL A   1      31.170  31.296  26.835  1.00  0.00    -0.269 OA
BRANCH  77  80
ATOM     80  C   UNL A   1      32.716  29.659  26.207  1.00  0.00     0.039 A 
ATOM     81  C   UNL A   1      32.743  29.687  24.809  1.00  0.00     0.016 A 
ATOM     82  C   UNL A   1      33.060  28.497  26.905  1.00  0.00     0.016 A 
ATOM     83  C   UNL A   1      33.201  28.576  24.100  1.00  0.00     0.029 A 
ATOM     84  C   UNL A   1      33.486  27.373  26.199  1.00  0.00     0.029 A 
ATOM     85  C   UNL A   1      33.563  27.417  24.795  1.00  0.00     0.066 A 
BRANCH  85  86
ATOM     86  N   UNL A   1      33.928  26.265  24.070  1.00  0.00    -0.220 N 
ATOM     87  C   UNL A   1      34.807  25.300  24.473  1.00  0.00     0.141 A 
ATOM     88  N   UNL A   1      33.426  25.937  22.859  1.00  0.00    -0.062 NA
ATOM     89  C   UNL A   1      34.790  24.340  23.491  1.00  0.00     0.093 A 
ATOM     90  N   UNL A   1      33.984  24.791  22.476  1.00  0.00    -0.134 NA
BRANCH  89  91
ATOM     91  C   UNL A   1      35.650  23.145  23.348  1.00  0.00     0.138 C 
BRANCH  91  92
ATOM     92  S   UNL A   1      35.940  21.974  24.674  1.00  0.00    -0.081 SA
BRANCH  92  93
ATOM     93  C   UNL A   1      34.841  20.619  24.681  1.00  0.00     0.176 A 
ATOM     94  N   UNL A   1      35.475  19.500  24.877  1.00  0.00    -0.223 NA
ATOM     95  N   UNL A   1      33.460  20.657  24.531  1.00  0.00    -0.255 N 
ATOM     96  C   UNL A   1      34.771  18.298  24.787  1.00  0.00     0.079 A 
ATOM     97  C   UNL A   1      32.924  19.551  23.847  1.00  0.00     0.266 A 
ATOM     98  C   UNL A   1      35.325  17.106  25.258  1.00  0.00     0.029 A 
ATOM     99  C   UNL A   1      33.568  18.252  24.101  1.00  0.00     0.066 A 
ATOM    100  O   UNL A   1      31.986  19.580  23.051  1.00  0.00    -0.268 OA
ATOM    101  C   UNL A   1      34.718  15.880  24.961  1.00  0.00     0.002 A 
ATOM    102  C   UNL A   1      32.980  17.034  23.745  1.00  0.00     0.016 A 
ATOM    103  C   UNL A   1      33.570  15.843  24.165  1.00  0.00     0.001 A 
BRANCH  95 104
ATOM    104  C   UNL A   1      32.553  21.710  24.960  1.00  0.00     0.051 A 
ATOM    105  C   UNL A   1      31.746  22.386  24.018  1.00  0.00     0.028 A 
ATOM    106  C   UNL A   1      32.396  22.128  26.287  1.00  0.00     0.028 A 
ATOM    107  C   UNL A   1      31.053  23.561  24.331  1.00  0.00     0.022 A 
ATOM    108  C   UNL A   1      31.769  23.345  26.602  1.00  0.00     0.022 A 
ATOM    109  C   UNL A   1      31.139  24.081  25.610  1.00  0.00     0.041 A 
ATOM    110  Cl  UNL A   1      30.494  25.633  25.958  1.00  0.00    -0.084 Cl
ENDBRANCH  95 104
ENDBRANCH  92  93
ENDBRANCH  91  92
ENDBRANCH  89  91
ENDBRANCH  85  86
ENDBRANCH  77  80
ENDBRANCH  75  76
ENDBRANCH   1  75
TORSDOF 18
ENDMDL
