MODEL 1
REMARK VINA RESULT:     -12.3      0.000      0.000
REMARK SMILES Cc1ccc(Br)cc1C(=O)N1CCO[C@H](CC(=O)NCCCCCCNC(=O)c2ccc(-c3c4nc(c(-c5c(F)c(F)c(F)c(F)c5F)c5ccc([nH]5)c(-c5c(F)c(F)c(F)c(F)c5F)c5nc(c(-c6c(F)c(F)c(F)c(F)c6F)c6ccc3[nH]6)C=C5)C=C4)cc2)C1
REMARK SMILES IDX 22 1 21 2 20 3 19 4 17 5 18 6 16 8 15 9 11 10 12 11 92 12
REMARK SMILES IDX 13 13 14 14 9 15 10 16 8 17 1 18 2 19 3 20 4 21 7 22 5 23
REMARK SMILES IDX 6 24 23 25 24 26 25 27 26 28 27 29 28 31 29 32 30 33 91 34
REMARK SMILES IDX 31 35 90 36 32 37 33 38 34 39 84 40 35 41 89 42 83 43 85 44
REMARK SMILES IDX 36 45 88 46 82 47 81 48 37 50 69 51 49 52 68 53 50 54 53 55
REMARK SMILES IDX 67 56 86 57 51 58 52 59 66 61 87 62 54 63 38 64 39 65 47 66
REMARK SMILES IDX 40 67 41 68 45 69 48 70 42 71 43 72 46 73 44 74 70 75 71 76
REMARK SMILES IDX 79 77 72 78 73 79 77 80 80 81 74 82 75 83 78 84 76 85 55 86
REMARK SMILES IDX 56 87 64 88 57 89 58 90 62 91 65 92 59 93 60 94 63 95 61 96
REMARK H PARENT 19 7 26 30 85 49 53 60
REMARK Flexibility Score: inf
ROOT
ATOM      1  C   UNL A   1      32.160  29.512  27.147  1.00  0.00     0.002 C 
ENDROOT
BRANCH   1   2
ATOM      2  C   UNL A   1      32.591  28.180  26.525  1.00  0.00     0.021 C 
BRANCH   2   3
ATOM      3  C   UNL A   1      31.410  27.250  26.274  1.00  0.00     0.116 C 
BRANCH   3   4
ATOM      4  N   UNL A   1      31.570  26.044  27.058  1.00  0.00    -0.356 N 
ATOM      5  C   UNL A   1      31.570  24.760  26.606  1.00  0.00     0.222 C 
ATOM      6  O   UNL A   1      31.386  23.837  27.396  1.00  0.00    -0.275 OA
ATOM      7  H   UNL A   1      31.693  26.166  28.028  1.00  0.00     0.163 HD
BRANCH   5   8
ATOM      8  C   UNL A   1      31.908  24.515  25.162  1.00  0.00     0.133 C 
BRANCH   8   9
ATOM      9  C   UNL A   1      33.262  23.842  24.898  1.00  0.00     0.147 C 
ATOM     10  N   UNL A   1      33.130  24.390  22.540  1.00  0.00    -0.334 N 
ATOM     11  C   UNL A   1      33.039  22.999  22.120  1.00  0.00     0.148 C 
ATOM     12  C   UNL A   1      33.961  24.558  23.736  1.00  0.00     0.152 C 
ATOM     13  C   UNL A   1      32.653  22.077  23.299  1.00  0.00     0.182 C 
ATOM     14  O   UNL A   1      33.190  22.427  24.590  1.00  0.00    -0.374 OA
BRANCH  10  15
ATOM     15  C   UNL A   1      32.856  25.517  21.781  1.00  0.00     0.254 C 
ATOM     16  O   UNL A   1      33.189  25.511  20.591  1.00  0.00    -0.269 OA
BRANCH  15  17
ATOM     17  C   UNL A   1      32.326  26.825  22.342  1.00  0.00     0.044 A 
ATOM     18  C   UNL A   1      34.402  28.396  22.245  1.00  0.00     0.045 C 
ATOM     19  C   UNL A   1      32.958  28.086  22.455  1.00  0.00    -0.038 A 
ATOM     20  C   UNL A   1      32.191  29.227  22.801  1.00  0.00     0.005 A 
ATOM     21  C   UNL A   1      30.819  29.154  23.004  1.00  0.00     0.016 A 
ATOM     22  C   UNL A   1      30.931  26.782  22.594  1.00  0.00     0.029 A 
ATOM     23  C   UNL A   1      30.194  27.925  22.904  1.00  0.00     0.018 A 
ATOM     24  Br  UNL A   1      28.323  27.808  23.140  1.00  0.00    -0.051 Br
ENDBRANCH  15  17
ENDBRANCH  10  15
ENDBRANCH   8   9
ENDBRANCH   5   8
ENDBRANCH   3   4
ENDBRANCH   2   3
ENDBRANCH   1   2
BRANCH   1  25
ATOM     25  C   UNL A   1      31.684  30.553  26.127  1.00  0.00     0.002 C 
BRANCH  25  26
ATOM     26  C   UNL A   1      31.422  31.940  26.716  1.00  0.00     0.021 C 
BRANCH  26  27
ATOM     27  C   UNL A   1      32.669  32.616  27.275  1.00  0.00     0.116 C 
BRANCH  27  28
ATOM     28  N   UNL A   1      32.426  34.017  27.581  1.00  0.00    -0.352 N 
ATOM     29  C   UNL A   1      32.989  34.799  28.556  1.00  0.00     0.251 C 
ATOM     30  H   UNL A   1      31.765  34.467  27.007  1.00  0.00     0.163 HD
ATOM     31  O   UNL A   1      32.517  35.895  28.828  1.00  0.00    -0.269 OA
BRANCH  29  32
ATOM     32  C   UNL A   1      34.167  34.297  29.290  1.00  0.00     0.039 A 
ATOM     33  C   UNL A   1      33.973  33.588  30.477  1.00  0.00     0.014 A 
ATOM     34  C   UNL A   1      35.457  34.523  28.802  1.00  0.00     0.014 A 
ATOM     35  C   UNL A   1      35.075  33.055  31.148  1.00  0.00     0.010 A 
ATOM     36  C   UNL A   1      36.545  33.926  29.428  1.00  0.00     0.010 A 
ATOM     37  C   UNL A   1      36.366  33.191  30.609  1.00  0.00    -0.014 A 
BRANCH  37  38
ATOM     38  C   UNL A   1      37.543  32.575  31.268  1.00  0.00     0.031 A 
ATOM     39  C   UNL A   1      38.282  31.454  30.594  1.00  0.00     0.074 A 
ATOM     40  C   UNL A   1      37.902  32.978  32.502  1.00  0.00     0.049 A 
ATOM     41  N   UNL A   1      39.278  30.732  31.040  1.00  0.00    -0.248 NA
ATOM     42  C   UNL A   1      37.822  31.076  29.247  1.00  0.00     0.031 C 
ATOM     43  C   UNL A   1      37.235  34.028  33.276  1.00  0.00     0.029 A 
ATOM     44  N   UNL A   1      38.906  32.544  33.330  1.00  0.00    -0.354 N 
ATOM     45  C   UNL A   1      39.552  29.809  30.039  1.00  0.00     0.074 A 
ATOM     46  C   UNL A   1      38.584  30.024  28.987  1.00  0.00     0.031 C 
ATOM     47  C   UNL A   1      37.862  34.170  34.454  1.00  0.00     0.029 A 
ATOM     48  C   UNL A   1      38.944  33.194  34.539  1.00  0.00     0.049 A 
ATOM     49  H   UNL A   1      39.541  31.835  33.079  1.00  0.00     0.167 HD
ATOM     50  C   UNL A   1      40.538  28.882  29.993  1.00  0.00     0.037 A 
ATOM     51  C   UNL A   1      39.751  33.013  35.601  1.00  0.00     0.037 A 
ATOM     52  C   UNL A   1      41.511  28.687  31.035  1.00  0.00     0.049 A 
ATOM     53  C   UNL A   1      40.826  31.961  35.533  1.00  0.00     0.074 A 
ATOM     54  C   UNL A   1      42.584  27.815  31.061  1.00  0.00     0.029 A 
ATOM     55  N   UNL A   1      41.525  29.373  32.242  1.00  0.00    -0.354 N 
ATOM     56  N   UNL A   1      41.120  31.141  34.555  1.00  0.00    -0.248 NA
ATOM     57  C   UNL A   1      41.685  31.815  36.716  1.00  0.00     0.031 C 
ATOM     58  C   UNL A   1      43.214  27.933  32.304  1.00  0.00     0.029 A 
ATOM     59  C   UNL A   1      42.572  28.923  33.029  1.00  0.00     0.049 A 
ATOM     60  H   UNL A   1      40.885  30.077  32.499  1.00  0.00     0.167 HD
ATOM     61  C   UNL A   1      42.215  30.405  34.987  1.00  0.00     0.074 A 
ATOM     62  C   UNL A   1      42.541  30.886  36.314  1.00  0.00     0.031 C 
ATOM     63  C   UNL A   1      42.890  29.422  34.344  1.00  0.00     0.037 A 
BRANCH  50  64
ATOM     64  C   UNL A   1      40.614  28.005  28.776  1.00  0.00     0.064 A 
ATOM     65  C   UNL A   1      39.918  26.789  28.698  1.00  0.00     0.173 A 
ATOM     66  C   UNL A   1      41.361  28.404  27.658  1.00  0.00     0.173 A 
ATOM     67  F   UNL A   1      39.197  26.355  29.742  1.00  0.00    -0.203 F 
ATOM     68  C   UNL A   1      39.992  25.991  27.559  1.00  0.00     0.198 A 
ATOM     69  C   UNL A   1      41.406  27.621  26.507  1.00  0.00     0.198 A 
ATOM     70  F   UNL A   1      42.041  29.560  27.675  1.00  0.00    -0.203 F 
ATOM     71  F   UNL A   1      39.362  24.808  27.529  1.00  0.00    -0.200 F 
ATOM     72  C   UNL A   1      40.729  26.411  26.462  1.00  0.00     0.200 A 
ATOM     73  F   UNL A   1      42.106  28.035  25.443  1.00  0.00    -0.200 F 
ATOM     74  F   UNL A   1      40.792  25.647  25.363  1.00  0.00    -0.200 F 
ENDBRANCH  50  64
BRANCH  51  75
ATOM     75  C   UNL A   1      39.584  33.856  36.814  1.00  0.00     0.064 A 
ATOM     76  C   UNL A   1      38.806  33.417  37.895  1.00  0.00     0.173 A 
ATOM     77  C   UNL A   1      40.190  35.116  36.918  1.00  0.00     0.173 A 
ATOM     78  F   UNL A   1      38.191  32.226  37.838  1.00  0.00    -0.203 F 
ATOM     79  C   UNL A   1      38.622  34.216  39.022  1.00  0.00     0.198 A 
ATOM     80  C   UNL A   1      40.032  35.902  38.057  1.00  0.00     0.198 A 
ATOM     81  F   UNL A   1      40.951  35.581  35.915  1.00  0.00    -0.203 F 
ATOM     82  F   UNL A   1      37.833  33.793  40.018  1.00  0.00    -0.200 F 
ATOM     83  C   UNL A   1      39.239  35.456  39.105  1.00  0.00     0.200 A 
ATOM     84  F   UNL A   1      40.643  37.091  38.141  1.00  0.00    -0.200 F 
ATOM     85  F   UNL A   1      39.065  36.222  40.189  1.00  0.00    -0.200 F 
ENDBRANCH  51  75
BRANCH  63  86
ATOM     86  C   UNL A   1      44.078  28.826  35.044  1.00  0.00     0.064 A 
ATOM     87  C   UNL A   1      43.962  27.696  35.866  1.00  0.00     0.173 A 
ATOM     88  C   UNL A   1      45.359  29.367  34.847  1.00  0.00     0.173 A 
ATOM     89  F   UNL A   1      42.758  27.150  36.098  1.00  0.00    -0.203 F 
ATOM     90  C   UNL A   1      45.081  27.143  36.485  1.00  0.00     0.198 A 
ATOM     91  C   UNL A   1      46.479  28.791  35.440  1.00  0.00     0.198 A 
ATOM     92  F   UNL A   1      45.526  30.444  34.065  1.00  0.00    -0.203 F 
ATOM     93  F   UNL A   1      44.941  26.092  37.304  1.00  0.00    -0.200 F 
ATOM     94  C   UNL A   1      46.339  27.685  36.264  1.00  0.00     0.200 A 
ATOM     95  F   UNL A   1      47.694  29.308  35.212  1.00  0.00    -0.200 F 
ATOM     96  F   UNL A   1      47.415  27.145  36.850  1.00  0.00    -0.200 F 
ENDBRANCH  63  86
ENDBRANCH  37  38
ENDBRANCH  29  32
ENDBRANCH  27  28
ENDBRANCH  26  27
ENDBRANCH  25  26
ENDBRANCH   1  25
TORSDOF 16
ENDMDL
MODEL 2
REMARK VINA RESULT:     -12.1      0.534      7.296
REMARK SMILES Cc1ccc(Br)cc1C(=O)N1CCO[C@H](CC(=O)NCCCCCCNC(=O)c2ccc(-c3c4nc(c(-c5c(F)c(F)c(F)c(F)c5F)c5ccc([nH]5)c(-c5c(F)c(F)c(F)c(F)c5F)c5nc(c(-c6c(F)c(F)c(F)c(F)c6F)c6ccc3[nH]6)C=C5)C=C4)cc2)C1
REMARK SMILES IDX 22 1 21 2 20 3 19 4 17 5 18 6 16 8 15 9 11 10 12 11 92 12
REMARK SMILES IDX 13 13 14 14 9 15 10 16 8 17 1 18 2 19 3 20 4 21 7 22 5 23
REMARK SMILES IDX 6 24 23 25 24 26 25 27 26 28 27 29 28 31 29 32 30 33 91 34
REMARK SMILES IDX 31 35 90 36 32 37 33 38 34 39 84 40 35 41 89 42 83 43 85 44
REMARK SMILES IDX 36 45 88 46 82 47 81 48 37 50 69 51 49 52 68 53 50 54 53 55
REMARK SMILES IDX 67 56 86 57 51 58 52 59 66 61 87 62 54 63 38 64 39 65 47 66
REMARK SMILES IDX 40 67 41 68 45 69 48 70 42 71 43 72 46 73 44 74 70 75 71 76
REMARK SMILES IDX 79 77 72 78 73 79 77 80 80 81 74 82 75 83 78 84 76 85 55 86
REMARK SMILES IDX 56 87 64 88 57 89 58 90 62 91 65 92 59 93 60 94 63 95 61 96
REMARK H PARENT 19 7 26 30 85 49 53 60
REMARK Flexibility Score: inf
ROOT
ATOM      1  C   UNL A   1      32.071  29.412  27.158  1.00  0.00     0.002 C 
ENDROOT
BRANCH   1   2
ATOM      2  C   UNL A   1      32.567  28.133  26.477  1.00  0.00     0.021 C 
BRANCH   2   3
ATOM      3  C   UNL A   1      31.424  27.200  26.096  1.00  0.00     0.116 C 
BRANCH   3   4
ATOM      4  N   UNL A   1      31.467  26.018  26.929  1.00  0.00    -0.356 N 
ATOM      5  C   UNL A   1      31.412  24.720  26.523  1.00  0.00     0.222 C 
ATOM      6  O   UNL A   1      31.128  23.840  27.333  1.00  0.00    -0.275 OA
ATOM      7  H   UNL A   1      31.544  26.170  27.899  1.00  0.00     0.163 HD
BRANCH   5   8
ATOM      8  C   UNL A   1      31.811  24.400  25.109  1.00  0.00     0.133 C 
BRANCH   8   9
ATOM      9  C   UNL A   1      33.260  23.931  24.915  1.00  0.00     0.147 C 
ATOM     10  N   UNL A   1      33.177  24.489  22.557  1.00  0.00    -0.334 N 
ATOM     11  C   UNL A   1      33.308  23.105  22.124  1.00  0.00     0.148 C 
ATOM     12  C   UNL A   1      33.910  24.756  23.798  1.00  0.00     0.152 C 
ATOM     13  C   UNL A   1      32.996  22.120  23.273  1.00  0.00     0.182 C 
ATOM     14  O   UNL A   1      33.408  22.525  24.594  1.00  0.00    -0.374 OA
BRANCH  10  15
ATOM     15  C   UNL A   1      32.785  25.575  21.792  1.00  0.00     0.254 C 
ATOM     16  O   UNL A   1      32.987  25.532  20.574  1.00  0.00    -0.269 OA
BRANCH  15  17
ATOM     17  C   UNL A   1      32.276  26.889  22.360  1.00  0.00     0.044 A 
ATOM     18  C   UNL A   1      34.401  28.396  22.365  1.00  0.00     0.045 C 
ATOM     19  C   UNL A   1      32.941  28.128  22.518  1.00  0.00    -0.038 A 
ATOM     20  C   UNL A   1      32.198  29.285  22.859  1.00  0.00     0.005 A 
ATOM     21  C   UNL A   1      30.819  29.252  23.013  1.00  0.00     0.016 A 
ATOM     22  C   UNL A   1      30.872  26.885  22.561  1.00  0.00     0.029 A 
ATOM     23  C   UNL A   1      30.159  28.045  22.867  1.00  0.00     0.018 A 
ATOM     24  Br  UNL A   1      28.279  27.983  23.035  1.00  0.00    -0.051 Br
ENDBRANCH  15  17
ENDBRANCH  10  15
ENDBRANCH   8   9
ENDBRANCH   5   8
ENDBRANCH   3   4
ENDBRANCH   2   3
ENDBRANCH   1   2
BRANCH   1  25
ATOM     25  C   UNL A   1      31.662  30.522  26.183  1.00  0.00     0.002 C 
BRANCH  25  26
ATOM     26  C   UNL A   1      31.498  31.899  26.827  1.00  0.00     0.021 C 
BRANCH  26  27
ATOM     27  C   UNL A   1      32.818  32.602  27.122  1.00  0.00     0.116 C 
BRANCH  27  28
ATOM     28  N   UNL A   1      32.609  33.972  27.563  1.00  0.00    -0.352 N 
ATOM     29  C   UNL A   1      33.170  34.633  28.625  1.00  0.00     0.251 C 
ATOM     30  H   UNL A   1      31.975  34.497  27.025  1.00  0.00     0.163 HD
ATOM     31  O   UNL A   1      32.723  35.710  28.997  1.00  0.00    -0.269 OA
BRANCH  29  32
ATOM     32  C   UNL A   1      34.314  34.022  29.330  1.00  0.00     0.039 A 
ATOM     33  C   UNL A   1      34.068  33.102  30.350  1.00  0.00     0.014 A 
ATOM     34  C   UNL A   1      35.624  34.357  28.977  1.00  0.00     0.014 A 
ATOM     35  C   UNL A   1      35.142  32.472  30.981  1.00  0.00     0.010 A 
ATOM     36  C   UNL A   1      36.689  33.672  29.552  1.00  0.00     0.010 A 
ATOM     37  C   UNL A   1      36.458  32.727  30.563  1.00  0.00    -0.014 A 
BRANCH  37  38
ATOM     38  C   UNL A   1      37.611  32.019  31.172  1.00  0.00     0.031 A 
ATOM     39  C   UNL A   1      38.090  32.405  32.543  1.00  0.00     0.074 A 
ATOM     40  C   UNL A   1      38.266  31.081  30.463  1.00  0.00     0.049 A 
ATOM     41  N   UNL A   1      39.127  31.967  33.211  1.00  0.00    -0.248 NA
ATOM     42  C   UNL A   1      37.316  33.441  33.247  1.00  0.00     0.031 C 
ATOM     43  C   UNL A   1      37.920  30.652  29.106  1.00  0.00     0.029 A 
ATOM     44  N   UNL A   1      39.369  30.328  30.777  1.00  0.00    -0.354 N 
ATOM     45  C   UNL A   1      39.137  32.681  34.402  1.00  0.00     0.074 A 
ATOM     46  C   UNL A   1      38.039  33.620  34.342  1.00  0.00     0.031 C 
ATOM     47  C   UNL A   1      38.780  29.698  28.714  1.00  0.00     0.029 A 
ATOM     48  C   UNL A   1      39.763  29.480  29.771  1.00  0.00     0.049 A 
ATOM     49  H   UNL A   1      39.833  30.389  31.643  1.00  0.00     0.167 HD
ATOM     50  C   UNL A   1      39.975  32.549  35.458  1.00  0.00     0.037 A 
ATOM     51  C   UNL A   1      40.807  28.633  29.704  1.00  0.00     0.037 A 
ATOM     52  C   UNL A   1      41.053  31.598  35.518  1.00  0.00     0.049 A 
ATOM     53  C   UNL A   1      41.735  28.520  30.885  1.00  0.00     0.074 A 
ATOM     54  C   UNL A   1      41.922  31.345  36.564  1.00  0.00     0.029 A 
ATOM     55  N   UNL A   1      41.414  30.747  34.484  1.00  0.00    -0.354 N 
ATOM     56  N   UNL A   1      41.695  29.151  32.032  1.00  0.00    -0.248 NA
ATOM     57  C   UNL A   1      42.850  27.571  30.761  1.00  0.00     0.031 C 
ATOM     58  C   UNL A   1      42.843  30.381  36.144  1.00  0.00     0.029 A 
ATOM     59  C   UNL A   1      42.511  29.987  34.858  1.00  0.00     0.049 A 
ATOM     60  H   UNL A   1      40.958  30.690  33.613  1.00  0.00     0.167 HD
ATOM     61  C   UNL A   1      42.755  28.655  32.779  1.00  0.00     0.074 A 
ATOM     62  C   UNL A   1      43.414  27.661  31.958  1.00  0.00     0.031 C 
ATOM     63  C   UNL A   1      43.147  28.992  34.032  1.00  0.00     0.037 A 
BRANCH  50  64
ATOM     64  C   UNL A   1      39.758  33.455  36.636  1.00  0.00     0.064 A 
ATOM     65  C   UNL A   1      40.394  34.702  36.736  1.00  0.00     0.173 A 
ATOM     66  C   UNL A   1      38.873  33.089  37.661  1.00  0.00     0.173 A 
ATOM     67  F   UNL A   1      41.259  35.097  35.789  1.00  0.00    -0.203 F 
ATOM     68  C   UNL A   1      40.177  35.534  37.831  1.00  0.00     0.198 A 
ATOM     69  C   UNL A   1      38.630  33.938  38.738  1.00  0.00     0.198 A 
ATOM     70  F   UNL A   1      38.232  31.911  37.614  1.00  0.00    -0.203 F 
ATOM     71  F   UNL A   1      40.837  36.696  37.929  1.00  0.00    -0.200 F 
ATOM     72  C   UNL A   1      39.289  35.155  38.827  1.00  0.00     0.200 A 
ATOM     73  F   UNL A   1      37.762  33.577  39.692  1.00  0.00    -0.200 F 
ATOM     74  F   UNL A   1      39.073  35.961  39.876  1.00  0.00    -0.200 F 
ENDBRANCH  50  64
BRANCH  51  75
ATOM     75  C   UNL A   1      41.023  27.814  28.483  1.00  0.00     0.064 A 
ATOM     76  C   UNL A   1      41.856  28.267  27.449  1.00  0.00     0.173 A 
ATOM     77  C   UNL A   1      40.399  26.569  28.318  1.00  0.00     0.173 A 
ATOM     78  F   UNL A   1      42.461  29.460  27.551  1.00  0.00    -0.203 F 
ATOM     79  C   UNL A   1      42.037  27.517  26.289  1.00  0.00     0.198 A 
ATOM     80  C   UNL A   1      40.606  25.805  27.171  1.00  0.00     0.198 A 
ATOM     81  F   UNL A   1      39.598  26.085  29.279  1.00  0.00    -0.203 F 
ATOM     82  F   UNL A   1      42.798  27.997  25.296  1.00  0.00    -0.200 F 
ATOM     83  C   UNL A   1      41.417  26.283  26.153  1.00  0.00     0.200 A 
ATOM     84  F   UNL A   1      40.019  24.606  27.052  1.00  0.00    -0.200 F 
ATOM     85  F   UNL A   1      41.594  25.561  25.039  1.00  0.00    -0.200 F 
ENDBRANCH  51  75
BRANCH  63  86
ATOM     86  C   UNL A   1      44.316  28.250  34.614  1.00  0.00     0.064 A 
ATOM     87  C   UNL A   1      44.156  27.036  35.297  1.00  0.00     0.173 A 
ATOM     88  C   UNL A   1      45.621  28.739  34.440  1.00  0.00     0.173 A 
ATOM     89  F   UNL A   1      42.929  26.533  35.503  1.00  0.00    -0.203 F 
ATOM     90  C   UNL A   1      45.257  26.350  35.806  1.00  0.00     0.198 A 
ATOM     91  C   UNL A   1      46.721  28.033  34.920  1.00  0.00     0.198 A 
ATOM     92  F   UNL A   1      45.830  29.892  33.787  1.00  0.00    -0.203 F 
ATOM     93  F   UNL A   1      45.077  25.217  36.497  1.00  0.00    -0.200 F 
ATOM     94  C   UNL A   1      46.538  26.845  35.609  1.00  0.00     0.200 A 
ATOM     95  F   UNL A   1      47.958  28.506  34.714  1.00  0.00    -0.200 F 
ATOM     96  F   UNL A   1      47.596  26.178  36.088  1.00  0.00    -0.200 F 
ENDBRANCH  63  86
ENDBRANCH  37  38
ENDBRANCH  29  32
ENDBRANCH  27  28
ENDBRANCH  26  27
ENDBRANCH  25  26
ENDBRANCH   1  25
TORSDOF 16
ENDMDL
MODEL 3
REMARK VINA RESULT:     -12.0      1.427      2.986
REMARK SMILES Cc1ccc(Br)cc1C(=O)N1CCO[C@H](CC(=O)NCCCCCCNC(=O)c2ccc(-c3c4nc(c(-c5c(F)c(F)c(F)c(F)c5F)c5ccc([nH]5)c(-c5c(F)c(F)c(F)c(F)c5F)c5nc(c(-c6c(F)c(F)c(F)c(F)c6F)c6ccc3[nH]6)C=C5)C=C4)cc2)C1
REMARK SMILES IDX 22 1 21 2 20 3 19 4 17 5 18 6 16 8 15 9 11 10 12 11 92 12
REMARK SMILES IDX 13 13 14 14 9 15 10 16 8 17 1 18 2 19 3 20 4 21 7 22 5 23
REMARK SMILES IDX 6 24 23 25 24 26 25 27 26 28 27 29 28 31 29 32 30 33 91 34
REMARK SMILES IDX 31 35 90 36 32 37 33 38 34 39 84 40 35 41 89 42 83 43 85 44
REMARK SMILES IDX 36 45 88 46 82 47 81 48 37 50 69 51 49 52 68 53 50 54 53 55
REMARK SMILES IDX 67 56 86 57 51 58 52 59 66 61 87 62 54 63 38 64 39 65 47 66
REMARK SMILES IDX 40 67 41 68 45 69 48 70 42 71 43 72 46 73 44 74 70 75 71 76
REMARK SMILES IDX 79 77 72 78 73 79 77 80 80 81 74 82 75 83 78 84 76 85 55 86
REMARK SMILES IDX 56 87 64 88 57 89 58 90 62 91 65 92 59 93 60 94 63 95 61 96
REMARK H PARENT 19 7 26 30 85 49 53 60
REMARK Flexibility Score: inf
ROOT
ATOM      1  C   UNL A   1      32.872  30.092  25.732  1.00  0.00     0.002 C 
ENDROOT
BRANCH   1   2
ATOM      2  C   UNL A   1      33.809  29.051  26.354  1.00  0.00     0.021 C 
BRANCH   2   3
ATOM      3  C   UNL A   1      33.479  27.633  25.903  1.00  0.00     0.116 C 
BRANCH   3   4
ATOM      4  N   UNL A   1      32.344  27.140  26.652  1.00  0.00    -0.356 N 
ATOM      5  C   UNL A   1      31.361  26.308  26.209  1.00  0.00     0.222 C 
ATOM      6  O   UNL A   1      30.302  26.235  26.827  1.00  0.00    -0.275 OA
ATOM      7  H   UNL A   1      32.274  27.440  27.588  1.00  0.00     0.163 HD
BRANCH   5   8
ATOM      8  C   UNL A   1      31.657  25.424  25.030  1.00  0.00     0.133 C 
BRANCH   8   9
ATOM      9  C   UNL A   1      30.561  25.352  23.958  1.00  0.00     0.147 C 
ATOM     10  N   UNL A   1      32.179  24.691  22.278  1.00  0.00    -0.334 N 
ATOM     11  C   UNL A   1      32.017  25.911  21.500  1.00  0.00     0.148 C 
ATOM     12  C   UNL A   1      30.933  24.276  22.930  1.00  0.00     0.152 C 
ATOM     13  C   UNL A   1      31.330  27.022  22.326  1.00  0.00     0.182 C 
ATOM     14  O   UNL A   1      30.314  26.595  23.254  1.00  0.00    -0.374 OA
BRANCH  10  15
ATOM     15  C   UNL A   1      33.194  23.754  22.170  1.00  0.00     0.254 C 
ATOM     16  O   UNL A   1      33.584  23.447  21.038  1.00  0.00    -0.269 OA
BRANCH  15  17
ATOM     17  C   UNL A   1      33.750  22.949  23.332  1.00  0.00     0.044 A 
ATOM     18  C   UNL A   1      32.259  20.814  23.343  1.00  0.00     0.045 C 
ATOM     19  C   UNL A   1      33.416  21.649  23.778  1.00  0.00    -0.038 A 
ATOM     20  C   UNL A   1      34.229  21.008  24.746  1.00  0.00     0.005 A 
ATOM     21  C   UNL A   1      35.375  21.606  25.253  1.00  0.00     0.016 A 
ATOM     22  C   UNL A   1      34.906  23.544  23.899  1.00  0.00     0.029 A 
ATOM     23  C   UNL A   1      35.707  22.880  24.829  1.00  0.00     0.018 A 
ATOM     24  Br  UNL A   1      37.281  23.698  25.477  1.00  0.00    -0.051 Br
ENDBRANCH  15  17
ENDBRANCH  10  15
ENDBRANCH   8   9
ENDBRANCH   5   8
ENDBRANCH   3   4
ENDBRANCH   2   3
ENDBRANCH   1   2
BRANCH   1  25
ATOM     25  C   UNL A   1      31.714  30.513  26.644  1.00  0.00     0.002 C 
BRANCH  25  26
ATOM     26  C   UNL A   1      31.527  32.026  26.768  1.00  0.00     0.021 C 
BRANCH  26  27
ATOM     27  C   UNL A   1      32.789  32.769  27.191  1.00  0.00     0.116 C 
BRANCH  27  28
ATOM     28  N   UNL A   1      32.501  34.147  27.559  1.00  0.00    -0.352 N 
ATOM     29  C   UNL A   1      33.008  34.889  28.594  1.00  0.00     0.251 C 
ATOM     30  H   UNL A   1      31.850  34.610  26.985  1.00  0.00     0.163 HD
ATOM     31  O   UNL A   1      32.500  35.958  28.904  1.00  0.00    -0.269 OA
BRANCH  29  32
ATOM     32  C   UNL A   1      34.171  34.375  29.346  1.00  0.00     0.039 A 
ATOM     33  C   UNL A   1      33.952  33.668  30.529  1.00  0.00     0.014 A 
ATOM     34  C   UNL A   1      35.469  34.589  28.876  1.00  0.00     0.014 A 
ATOM     35  C   UNL A   1      35.039  33.125  31.216  1.00  0.00     0.010 A 
ATOM     36  C   UNL A   1      36.542  33.982  29.518  1.00  0.00     0.010 A 
ATOM     37  C   UNL A   1      36.339  33.248  30.697  1.00  0.00    -0.014 A 
BRANCH  37  38
ATOM     38  C   UNL A   1      37.501  32.622  31.372  1.00  0.00     0.031 A 
ATOM     39  C   UNL A   1      38.206  31.460  30.732  1.00  0.00     0.074 A 
ATOM     40  C   UNL A   1      37.873  33.053  32.593  1.00  0.00     0.049 A 
ATOM     41  N   UNL A   1      39.183  30.725  31.200  1.00  0.00    -0.248 NA
ATOM     42  C   UNL A   1      37.733  31.053  29.399  1.00  0.00     0.031 C 
ATOM     43  C   UNL A   1      37.237  34.145  33.334  1.00  0.00     0.029 A 
ATOM     44  N   UNL A   1      38.868  32.618  33.432  1.00  0.00    -0.354 N 
ATOM     45  C   UNL A   1      39.430  29.764  30.228  1.00  0.00     0.074 A 
ATOM     46  C   UNL A   1      38.465  29.973  29.171  1.00  0.00     0.031 C 
ATOM     47  C   UNL A   1      37.871  34.307  34.506  1.00  0.00     0.029 A 
ATOM     48  C   UNL A   1      38.926  33.305  34.620  1.00  0.00     0.049 A 
ATOM     49  H   UNL A   1      39.482  31.884  33.203  1.00  0.00     0.167 HD
ATOM     50  C   UNL A   1      40.390  28.809  30.210  1.00  0.00     0.037 A 
ATOM     51  C   UNL A   1      39.730  33.135  35.686  1.00  0.00     0.037 A 
ATOM     52  C   UNL A   1      41.360  28.621  31.256  1.00  0.00     0.049 A 
ATOM     53  C   UNL A   1      40.776  32.052  35.649  1.00  0.00     0.074 A 
ATOM     54  C   UNL A   1      42.409  27.721  31.308  1.00  0.00     0.029 A 
ATOM     55  N   UNL A   1      41.395  29.344  32.440  1.00  0.00    -0.354 N 
ATOM     56  N   UNL A   1      41.045  31.193  34.697  1.00  0.00    -0.248 NA
ATOM     57  C   UNL A   1      41.634  31.920  36.835  1.00  0.00     0.031 C 
ATOM     58  C   UNL A   1      43.044  27.860  32.545  1.00  0.00     0.029 A 
ATOM     59  C   UNL A   1      42.431  28.890  33.240  1.00  0.00     0.049 A 
ATOM     60  H   UNL A   1      40.776  30.072  32.677  1.00  0.00     0.167 HD
ATOM     61  C   UNL A   1      42.120  30.442  35.151  1.00  0.00     0.074 A 
ATOM     62  C   UNL A   1      42.462  30.955  36.461  1.00  0.00     0.031 C 
ATOM     63  C   UNL A   1      42.767  29.421  34.538  1.00  0.00     0.037 A 
BRANCH  50  64
ATOM     64  C   UNL A   1      40.438  27.893  29.021  1.00  0.00     0.064 A 
ATOM     65  C   UNL A   1      41.228  28.182  27.898  1.00  0.00     0.173 A 
ATOM     66  C   UNL A   1      39.716  26.690  29.020  1.00  0.00     0.173 A 
ATOM     67  F   UNL A   1      41.931  29.323  27.841  1.00  0.00    -0.203 F 
ATOM     68  C   UNL A   1      41.269  27.318  26.806  1.00  0.00     0.198 A 
ATOM     69  C   UNL A   1      39.785  25.811  27.942  1.00  0.00     0.198 A 
ATOM     70  F   UNL A   1      38.950  26.360  30.071  1.00  0.00    -0.203 F 
ATOM     71  F   UNL A   1      41.988  27.642  25.723  1.00  0.00    -0.200 F 
ATOM     72  C   UNL A   1      40.554  26.130  26.833  1.00  0.00     0.200 A 
ATOM     73  F   UNL A   1      39.106  24.657  27.976  1.00  0.00    -0.200 F 
ATOM     74  F   UNL A   1      40.601  25.294  25.786  1.00  0.00    -0.200 F 
ENDBRANCH  50  64
BRANCH  51  75
ATOM     75  C   UNL A   1      39.590  34.020  36.872  1.00  0.00     0.064 A 
ATOM     76  C   UNL A   1      40.232  35.266  36.921  1.00  0.00     0.173 A 
ATOM     77  C   UNL A   1      38.820  33.640  37.981  1.00  0.00     0.173 A 
ATOM     78  F   UNL A   1      40.995  35.667  35.893  1.00  0.00    -0.203 F 
ATOM     79  C   UNL A   1      40.129  36.085  38.044  1.00  0.00     0.198 A 
ATOM     80  C   UNL A   1      38.691  34.474  39.089  1.00  0.00     0.198 A 
ATOM     81  F   UNL A   1      38.179  32.462  37.983  1.00  0.00    -0.203 F 
ATOM     82  F   UNL A   1      40.794  37.248  38.084  1.00  0.00    -0.200 F 
ATOM     83  C   UNL A   1      39.354  35.692  39.124  1.00  0.00     0.200 A 
ATOM     84  F   UNL A   1      37.928  34.098  40.124  1.00  0.00    -0.200 F 
ATOM     85  F   UNL A   1      39.253  36.482  40.201  1.00  0.00    -0.200 F 
ENDBRANCH  51  75
BRANCH  63  86
ATOM     86  C   UNL A   1      43.940  28.815  35.254  1.00  0.00     0.064 A 
ATOM     87  C   UNL A   1      43.790  27.737  36.139  1.00  0.00     0.173 A 
ATOM     88  C   UNL A   1      45.238  29.290  35.012  1.00  0.00     0.173 A 
ATOM     89  F   UNL A   1      42.568  27.256  36.416  1.00  0.00    -0.203 F 
ATOM     90  C   UNL A   1      44.894  27.172  36.773  1.00  0.00     0.198 A 
ATOM     91  C   UNL A   1      46.343  28.701  35.621  1.00  0.00     0.198 A 
ATOM     92  F   UNL A   1      45.437  30.315  34.169  1.00  0.00    -0.203 F 
ATOM     93  F   UNL A   1      44.723  26.175  37.650  1.00  0.00    -0.200 F 
ATOM     94  C   UNL A   1      46.169  27.649  36.506  1.00  0.00     0.200 A 
ATOM     95  F   UNL A   1      47.575  29.153  35.349  1.00  0.00    -0.200 F 
ATOM     96  F   UNL A   1      47.232  27.096  37.107  1.00  0.00    -0.200 F 
ENDBRANCH  63  86
ENDBRANCH  37  38
ENDBRANCH  29  32
ENDBRANCH  27  28
ENDBRANCH  26  27
ENDBRANCH  25  26
ENDBRANCH   1  25
TORSDOF 16
ENDMDL
