MODEL 1
REMARK VINA RESULT:     -11.9      0.000      0.000
REMARK SMILES Cc1cc(CS(=O)(=O)[C@@H](C)CC(=O)NCCCCCCNC(=O)c2ccc(-c3c4nc(c(-c5c(F)c(F)c(F)c(F)c5F)c5ccc([nH]5)c(-c5c(F)c(F)c(F)c(F)c5F)c5nc(c(-c6c(F)c(F)c(F)c(F)c6F)c6ccc3[nH]6)C=C5)C=C4)cc2)c2ccccc2n1
REMARK SMILES IDX 16 1 15 2 14 3 12 4 13 5 11 7 9 8 10 9 6 10 7 11 8 12 5 13
REMARK SMILES IDX 4 14 1 15 2 16 3 17 93 18 92 19 87 20 91 21 88 22 90 23
REMARK SMILES IDX 89 24 17 25 18 26 19 27 20 28 21 29 22 30 23 32 24 33 25 34
REMARK SMILES IDX 86 35 26 36 85 37 27 38 28 39 29 40 79 41 30 42 84 43 78 44
REMARK SMILES IDX 80 45 31 46 83 47 77 48 76 49 32 51 64 52 44 53 63 54 45 55
REMARK SMILES IDX 48 56 62 57 81 58 46 59 47 60 61 62 82 63 49 64 33 65 34 66
REMARK SMILES IDX 42 67 35 68 36 69 40 70 43 71 37 72 38 73 41 74 39 75 65 76
REMARK SMILES IDX 66 77 74 78 67 79 68 80 72 81 75 82 69 83 70 84 73 85 71 86
REMARK SMILES IDX 50 87 51 88 59 89 52 90 53 91 57 92 60 93 54 94 55 95 58 96
REMARK SMILES IDX 56 97
REMARK H PARENT 14 6 21 31 80 50 48 61
REMARK Flexibility Score: inf
ROOT
ATOM      1  C   UNL A   1      36.485  22.069  24.477  1.00  0.00     0.021 C 
ENDROOT
BRANCH   1   2
ATOM      2  C   UNL A   1      36.335  23.222  25.468  1.00  0.00     0.116 C 
BRANCH   2   3
ATOM      3  N   UNL A   1      35.405  22.925  26.535  1.00  0.00    -0.356 N 
ATOM      4  C   UNL A   1      34.087  23.241  26.648  1.00  0.00     0.221 C 
ATOM      5  O   UNL A   1      33.442  22.772  27.586  1.00  0.00    -0.275 OA
ATOM      6  H   UNL A   1      35.782  22.419  27.291  1.00  0.00     0.163 HD
BRANCH   4   7
ATOM      7  C   UNL A   1      33.433  24.154  25.632  1.00  0.00     0.119 C 
BRANCH   7   8
ATOM      8  C   UNL A   1      32.297  23.480  24.872  1.00  0.00     0.115 C 
ATOM      9  C   UNL A   1      32.790  22.259  24.082  1.00  0.00     0.025 C 
BRANCH   8  10
ATOM     10  S   UNL A   1      31.203  24.506  23.832  1.00  0.00     0.157 S 
ATOM     11  O   UNL A   1      30.351  23.559  23.126  1.00  0.00    -0.228 OA
ATOM     12  O   UNL A   1      32.066  25.362  23.030  1.00  0.00    -0.228 OA
BRANCH  10  13
ATOM     13  C   UNL A   1      30.057  25.643  24.644  1.00  0.00     0.173 C 
BRANCH  13  14
ATOM     14  C   UNL A   1      30.291  27.115  24.464  1.00  0.00    -0.022 A 
ATOM     15  C   UNL A   1      29.230  29.913  22.152  1.00  0.00     0.067 C 
ATOM     16  C   UNL A   1      29.975  29.111  23.173  1.00  0.00     0.038 A 
ATOM     17  C   UNL A   1      29.694  27.769  23.382  1.00  0.00     0.029 A 
ATOM     18  N   UNL A   1      30.871  29.791  23.919  1.00  0.00    -0.253 NA
ATOM     19  C   UNL A   1      31.400  29.205  24.999  1.00  0.00     0.071 A 
ATOM     20  C   UNL A   1      31.070  27.888  25.383  1.00  0.00     0.004 A 
ATOM     21  C   UNL A   1      32.304  29.936  25.760  1.00  0.00     0.029 A 
ATOM     22  C   UNL A   1      31.549  27.439  26.640  1.00  0.00     0.010 A 
ATOM     23  C   UNL A   1      32.827  29.449  26.955  1.00  0.00     0.002 A 
ATOM     24  C   UNL A   1      32.410  28.216  27.420  1.00  0.00     0.001 A 
ENDBRANCH  13  14
ENDBRANCH  10  13
ENDBRANCH   8  10
ENDBRANCH   7   8
ENDBRANCH   4   7
ENDBRANCH   2   3
ENDBRANCH   1   2
BRANCH   1  25
ATOM     25  C   UNL A   1      35.934  20.741  25.003  1.00  0.00     0.002 C 
BRANCH  25  26
ATOM     26  C   UNL A   1      36.924  19.572  25.000  1.00  0.00     0.002 C 
BRANCH  26  27
ATOM     27  C   UNL A   1      38.384  19.929  24.708  1.00  0.00     0.021 C 
BRANCH  27  28
ATOM     28  C   UNL A   1      39.251  20.115  25.949  1.00  0.00     0.116 C 
BRANCH  28  29
ATOM     29  N   UNL A   1      40.295  19.103  26.037  1.00  0.00    -0.352 N 
ATOM     30  C   UNL A   1      41.656  19.240  26.112  1.00  0.00     0.251 C 
ATOM     31  H   UNL A   1      39.972  18.173  26.042  1.00  0.00     0.163 HD
ATOM     32  O   UNL A   1      42.384  18.266  25.915  1.00  0.00    -0.269 OA
BRANCH  30  33
ATOM     33  C   UNL A   1      42.258  20.552  26.419  1.00  0.00     0.039 A 
ATOM     34  C   UNL A   1      42.708  21.360  25.370  1.00  0.00     0.014 A 
ATOM     35  C   UNL A   1      42.403  20.974  27.742  1.00  0.00     0.014 A 
ATOM     36  C   UNL A   1      43.232  22.625  25.646  1.00  0.00     0.010 A 
ATOM     37  C   UNL A   1      42.850  22.263  28.010  1.00  0.00     0.010 A 
ATOM     38  C   UNL A   1      43.266  23.102  26.965  1.00  0.00    -0.014 A 
BRANCH  38  39
ATOM     39  C   UNL A   1      43.714  24.479  27.288  1.00  0.00     0.031 A 
ATOM     40  C   UNL A   1      42.721  25.501  27.762  1.00  0.00     0.074 A 
ATOM     41  C   UNL A   1      44.993  24.830  27.050  1.00  0.00     0.049 A 
ATOM     42  N   UNL A   1      42.882  26.786  27.955  1.00  0.00    -0.248 NA
ATOM     43  C   UNL A   1      41.354  25.021  28.020  1.00  0.00     0.031 C 
ATOM     44  C   UNL A   1      46.035  23.936  26.543  1.00  0.00     0.029 A 
ATOM     45  N   UNL A   1      45.628  26.041  27.177  1.00  0.00    -0.354 N 
ATOM     46  C   UNL A   1      41.636  27.268  28.333  1.00  0.00     0.074 A 
ATOM     47  C   UNL A   1      40.718  26.150  28.296  1.00  0.00     0.031 C 
ATOM     48  C   UNL A   1      47.180  24.624  26.413  1.00  0.00     0.029 A 
ATOM     49  C   UNL A   1      46.943  26.015  26.783  1.00  0.00     0.049 A 
ATOM     50  H   UNL A   1      45.182  26.849  27.519  1.00  0.00     0.167 HD
ATOM     51  C   UNL A   1      41.296  28.527  28.697  1.00  0.00     0.037 A 
ATOM     52  C   UNL A   1      47.850  27.007  26.709  1.00  0.00     0.037 A 
ATOM     53  C   UNL A   1      42.223  29.626  28.761  1.00  0.00     0.049 A 
ATOM     54  C   UNL A   1      47.444  28.399  27.111  1.00  0.00     0.074 A 
ATOM     55  C   UNL A   1      42.000  30.920  29.197  1.00  0.00     0.029 A 
ATOM     56  N   UNL A   1      43.554  29.557  28.374  1.00  0.00    -0.354 N 
ATOM     57  N   UNL A   1      46.282  28.830  27.537  1.00  0.00    -0.248 NA
ATOM     58  C   UNL A   1      48.475  29.442  27.020  1.00  0.00     0.031 C 
ATOM     59  C   UNL A   1      43.183  31.647  29.028  1.00  0.00     0.029 A 
ATOM     60  C   UNL A   1      44.156  30.795  28.531  1.00  0.00     0.049 A 
ATOM     61  H   UNL A   1      44.003  28.749  28.036  1.00  0.00     0.167 HD
ATOM     62  C   UNL A   1      46.443  30.186  27.781  1.00  0.00     0.074 A 
ATOM     63  C   UNL A   1      47.823  30.504  27.474  1.00  0.00     0.031 C 
ATOM     64  C   UNL A   1      45.531  31.089  28.215  1.00  0.00     0.037 A 
BRANCH  51  65
ATOM     65  C   UNL A   1      39.861  28.786  29.058  1.00  0.00     0.064 A 
ATOM     66  C   UNL A   1      39.397  28.646  30.374  1.00  0.00     0.173 A 
ATOM     67  C   UNL A   1      38.947  29.213  28.083  1.00  0.00     0.173 A 
ATOM     68  F   UNL A   1      40.228  28.230  31.342  1.00  0.00    -0.203 F 
ATOM     69  C   UNL A   1      38.066  28.896  30.697  1.00  0.00     0.198 A 
ATOM     70  C   UNL A   1      37.622  29.490  28.414  1.00  0.00     0.198 A 
ATOM     71  F   UNL A   1      39.339  29.369  26.810  1.00  0.00    -0.203 F 
ATOM     72  F   UNL A   1      37.635  28.709  31.952  1.00  0.00    -0.200 F 
ATOM     73  C   UNL A   1      37.181  29.324  29.718  1.00  0.00     0.200 A 
ATOM     74  F   UNL A   1      36.773  29.916  27.469  1.00  0.00    -0.200 F 
ATOM     75  F   UNL A   1      35.902  29.571  30.031  1.00  0.00    -0.200 F 
ENDBRANCH  51  65
BRANCH  52  76
ATOM     76  C   UNL A   1      49.231  26.717  26.245  1.00  0.00     0.064 A 
ATOM     77  C   UNL A   1      50.207  26.256  27.139  1.00  0.00     0.173 A 
ATOM     78  C   UNL A   1      49.602  26.884  24.902  1.00  0.00     0.173 A 
ATOM     79  F   UNL A   1      49.905  26.099  28.436  1.00  0.00    -0.203 F 
ATOM     80  C   UNL A   1      51.506  25.988  26.712  1.00  0.00     0.198 A 
ATOM     81  C   UNL A   1      50.894  26.590  24.471  1.00  0.00     0.198 A 
ATOM     82  F   UNL A   1      48.705  27.316  24.005  1.00  0.00    -0.203 F 
ATOM     83  F   UNL A   1      52.428  25.585  27.595  1.00  0.00    -0.200 F 
ATOM     84  C   UNL A   1      51.847  26.149  25.378  1.00  0.00     0.200 A 
ATOM     85  F   UNL A   1      51.215  26.731  23.178  1.00  0.00    -0.200 F 
ATOM     86  F   UNL A   1      53.094  25.884  24.965  1.00  0.00    -0.200 F 
ENDBRANCH  52  76
BRANCH  64  87
ATOM     87  C   UNL A   1      45.997  32.503  28.396  1.00  0.00     0.064 A 
ATOM     88  C   UNL A   1      46.598  32.927  29.592  1.00  0.00     0.173 A 
ATOM     89  C   UNL A   1      45.890  33.429  27.348  1.00  0.00     0.173 A 
ATOM     90  F   UNL A   1      46.707  32.081  30.628  1.00  0.00    -0.203 F 
ATOM     91  C   UNL A   1      47.059  34.232  29.735  1.00  0.00     0.198 A 
ATOM     92  C   UNL A   1      46.377  34.725  27.486  1.00  0.00     0.198 A 
ATOM     93  F   UNL A   1      45.328  33.071  26.185  1.00  0.00    -0.203 F 
ATOM     94  F   UNL A   1      47.593  34.627  30.899  1.00  0.00    -0.200 F 
ATOM     95  C   UNL A   1      46.957  35.127  28.681  1.00  0.00     0.200 A 
ATOM     96  F   UNL A   1      46.289  35.585  26.462  1.00  0.00    -0.200 F 
ATOM     97  F   UNL A   1      47.411  36.380  28.818  1.00  0.00    -0.200 F 
ENDBRANCH  64  87
ENDBRANCH  38  39
ENDBRANCH  30  33
ENDBRANCH  28  29
ENDBRANCH  27  28
ENDBRANCH  26  27
ENDBRANCH  25  26
ENDBRANCH   1  25
TORSDOF 17
ENDMDL
MODEL 2
REMARK VINA RESULT:     -11.9      0.603      2.075
REMARK SMILES Cc1cc(CS(=O)(=O)[C@@H](C)CC(=O)NCCCCCCNC(=O)c2ccc(-c3c4nc(c(-c5c(F)c(F)c(F)c(F)c5F)c5ccc([nH]5)c(-c5c(F)c(F)c(F)c(F)c5F)c5nc(c(-c6c(F)c(F)c(F)c(F)c6F)c6ccc3[nH]6)C=C5)C=C4)cc2)c2ccccc2n1
REMARK SMILES IDX 16 1 15 2 14 3 12 4 13 5 11 7 9 8 10 9 6 10 7 11 8 12 5 13
REMARK SMILES IDX 4 14 1 15 2 16 3 17 93 18 92 19 87 20 91 21 88 22 90 23
REMARK SMILES IDX 89 24 17 25 18 26 19 27 20 28 21 29 22 30 23 32 24 33 25 34
REMARK SMILES IDX 86 35 26 36 85 37 27 38 28 39 29 40 79 41 30 42 84 43 78 44
REMARK SMILES IDX 80 45 31 46 83 47 77 48 76 49 32 51 64 52 44 53 63 54 45 55
REMARK SMILES IDX 48 56 62 57 81 58 46 59 47 60 61 62 82 63 49 64 33 65 34 66
REMARK SMILES IDX 42 67 35 68 36 69 40 70 43 71 37 72 38 73 41 74 39 75 65 76
REMARK SMILES IDX 66 77 74 78 67 79 68 80 72 81 75 82 69 83 70 84 73 85 71 86
REMARK SMILES IDX 50 87 51 88 59 89 52 90 53 91 57 92 60 93 54 94 55 95 58 96
REMARK SMILES IDX 56 97
REMARK H PARENT 14 6 21 31 80 50 48 61
REMARK Flexibility Score: inf
ROOT
ATOM      1  C   UNL A   1      36.775  22.141  24.633  1.00  0.00     0.021 C 
ENDROOT
BRANCH   1   2
ATOM      2  C   UNL A   1      36.582  23.093  25.812  1.00  0.00     0.116 C 
BRANCH   2   3
ATOM      3  N   UNL A   1      35.572  22.636  26.740  1.00  0.00    -0.356 N 
ATOM      4  C   UNL A   1      34.278  23.035  26.879  1.00  0.00     0.221 C 
ATOM      5  O   UNL A   1      33.546  22.417  27.651  1.00  0.00    -0.275 OA
ATOM      6  H   UNL A   1      35.863  21.933  27.365  1.00  0.00     0.163 HD
BRANCH   4   7
ATOM      7  C   UNL A   1      33.758  24.219  26.089  1.00  0.00     0.119 C 
BRANCH   7   8
ATOM      8  C   UNL A   1      32.975  23.807  24.849  1.00  0.00     0.115 C 
ATOM      9  C   UNL A   1      33.525  24.477  23.583  1.00  0.00     0.025 C 
BRANCH   8  10
ATOM     10  S   UNL A   1      31.153  23.918  24.882  1.00  0.00     0.157 S 
ATOM     11  O   UNL A   1      30.713  22.739  25.616  1.00  0.00    -0.228 OA
ATOM     12  O   UNL A   1      30.714  24.053  23.500  1.00  0.00    -0.228 OA
BRANCH  10  13
ATOM     13  C   UNL A   1      30.389  25.310  25.744  1.00  0.00     0.173 C 
BRANCH  13  14
ATOM     14  C   UNL A   1      30.578  26.681  25.159  1.00  0.00    -0.022 A 
ATOM     15  C   UNL A   1      29.050  28.881  22.490  1.00  0.00     0.067 C 
ATOM     16  C   UNL A   1      29.994  28.314  23.504  1.00  0.00     0.038 A 
ATOM     17  C   UNL A   1      29.766  27.081  24.093  1.00  0.00     0.029 A 
ATOM     18  N   UNL A   1      31.026  29.109  23.859  1.00  0.00    -0.253 NA
ATOM     19  C   UNL A   1      31.772  28.778  24.918  1.00  0.00     0.071 A 
ATOM     20  C   UNL A   1      31.532  27.613  25.677  1.00  0.00     0.004 A 
ATOM     21  C   UNL A   1      32.814  29.625  25.272  1.00  0.00     0.029 A 
ATOM     22  C   UNL A   1      32.265  27.460  26.882  1.00  0.00     0.010 A 
ATOM     23  C   UNL A   1      33.578  29.418  26.419  1.00  0.00     0.002 A 
ATOM     24  C   UNL A   1      33.269  28.358  27.251  1.00  0.00     0.001 A 
ENDBRANCH  13  14
ENDBRANCH  10  13
ENDBRANCH   8  10
ENDBRANCH   7   8
ENDBRANCH   4   7
ENDBRANCH   2   3
ENDBRANCH   1   2
BRANCH   1  25
ATOM     25  C   UNL A   1      36.063  20.797  24.816  1.00  0.00     0.002 C 
BRANCH  25  26
ATOM     26  C   UNL A   1      36.983  19.578  24.942  1.00  0.00     0.002 C 
BRANCH  26  27
ATOM     27  C   UNL A   1      38.486  19.863  24.892  1.00  0.00     0.021 C 
BRANCH  27  28
ATOM     28  C   UNL A   1      39.210  19.674  26.221  1.00  0.00     0.116 C 
BRANCH  28  29
ATOM     29  N   UNL A   1      40.446  18.919  26.062  1.00  0.00    -0.352 N 
ATOM     30  C   UNL A   1      41.743  19.352  25.977  1.00  0.00     0.251 C 
ATOM     31  H   UNL A   1      40.331  17.943  26.005  1.00  0.00     0.163 HD
ATOM     32  O   UNL A   1      42.622  18.585  25.582  1.00  0.00    -0.269 OA
BRANCH  30  33
ATOM     33  C   UNL A   1      42.093  20.736  26.348  1.00  0.00     0.039 A 
ATOM     34  C   UNL A   1      42.327  21.046  27.692  1.00  0.00     0.014 A 
ATOM     35  C   UNL A   1      42.164  21.736  25.376  1.00  0.00     0.014 A 
ATOM     36  C   UNL A   1      42.710  22.341  28.049  1.00  0.00     0.010 A 
ATOM     37  C   UNL A   1      42.621  23.003  25.720  1.00  0.00     0.010 A 
ATOM     38  C   UNL A   1      42.901  23.317  27.058  1.00  0.00    -0.014 A 
BRANCH  38  39
ATOM     39  C   UNL A   1      43.409  24.672  27.385  1.00  0.00     0.031 A 
ATOM     40  C   UNL A   1      42.474  25.713  27.930  1.00  0.00     0.074 A 
ATOM     41  C   UNL A   1      44.684  24.989  27.087  1.00  0.00     0.049 A 
ATOM     42  N   UNL A   1      42.685  26.989  28.140  1.00  0.00    -0.248 NA
ATOM     43  C   UNL A   1      41.107  25.270  28.249  1.00  0.00     0.031 C 
ATOM     44  C   UNL A   1      45.670  24.075  26.509  1.00  0.00     0.029 A 
ATOM     45  N   UNL A   1      45.363  26.177  27.205  1.00  0.00    -0.354 N 
ATOM     46  C   UNL A   1      41.476  27.500  28.592  1.00  0.00     0.074 A 
ATOM     47  C   UNL A   1      40.523  26.412  28.581  1.00  0.00     0.031 C 
ATOM     48  C   UNL A   1      46.828  24.731  26.333  1.00  0.00     0.029 A 
ATOM     49  C   UNL A   1      46.654  26.119  26.743  1.00  0.00     0.049 A 
ATOM     50  H   UNL A   1      44.961  26.991  27.586  1.00  0.00     0.167 HD
ATOM     51  C   UNL A   1      41.195  28.761  28.998  1.00  0.00     0.037 A 
ATOM     52  C   UNL A   1      47.587  27.085  26.641  1.00  0.00     0.037 A 
ATOM     53  C   UNL A   1      42.159  29.830  29.036  1.00  0.00     0.049 A 
ATOM     54  C   UNL A   1      47.246  28.480  27.091  1.00  0.00     0.074 A 
ATOM     55  C   UNL A   1      41.999  31.120  29.508  1.00  0.00     0.029 A 
ATOM     56  N   UNL A   1      43.465  29.729  28.578  1.00  0.00    -0.354 N 
ATOM     57  N   UNL A   1      46.122  28.936  27.586  1.00  0.00    -0.248 NA
ATOM     58  C   UNL A   1      48.304  29.492  26.968  1.00  0.00     0.031 C 
ATOM     59  C   UNL A   1      43.195  31.814  29.293  1.00  0.00     0.029 A 
ATOM     60  C   UNL A   1      44.113  30.944  28.729  1.00  0.00     0.049 A 
ATOM     61  H   UNL A   1      43.870  28.914  28.201  1.00  0.00     0.167 HD
ATOM     62  C   UNL A   1      46.338  30.282  27.848  1.00  0.00     0.074 A 
ATOM     63  C   UNL A   1      47.710  30.564  27.475  1.00  0.00     0.031 C 
ATOM     64  C   UNL A   1      45.479  31.203  28.347  1.00  0.00     0.037 A 
BRANCH  51  65
ATOM     65  C   UNL A   1      39.790  29.055  29.438  1.00  0.00     0.064 A 
ATOM     66  C   UNL A   1      38.812  29.494  28.533  1.00  0.00     0.173 A 
ATOM     67  C   UNL A   1      39.407  28.862  30.774  1.00  0.00     0.173 A 
ATOM     68  F   UNL A   1      39.128  29.705  27.247  1.00  0.00    -0.203 F 
ATOM     69  C   UNL A   1      37.510  29.756  28.954  1.00  0.00     0.198 A 
ATOM     70  C   UNL A   1      38.097  29.096  31.186  1.00  0.00     0.198 A 
ATOM     71  F   UNL A   1      40.301  28.438  31.680  1.00  0.00    -0.203 F 
ATOM     72  F   UNL A   1      36.606  30.220  28.081  1.00  0.00    -0.200 F 
ATOM     73  C   UNL A   1      37.152  29.550  30.278  1.00  0.00     0.200 A 
ATOM     74  F   UNL A   1      37.750  28.885  32.463  1.00  0.00    -0.200 F 
ATOM     75  F   UNL A   1      35.897  29.796  30.680  1.00  0.00    -0.200 F 
ENDBRANCH  51  65
BRANCH  52  76
ATOM     76  C   UNL A   1      48.933  26.763  26.100  1.00  0.00     0.064 A 
ATOM     77  C   UNL A   1      49.244  27.013  24.756  1.00  0.00     0.173 A 
ATOM     78  C   UNL A   1      49.935  26.209  26.910  1.00  0.00     0.173 A 
ATOM     79  F   UNL A   1      48.313  27.524  23.938  1.00  0.00    -0.203 F 
ATOM     80  C   UNL A   1      50.502  26.706  24.239  1.00  0.00     0.198 A 
ATOM     81  C   UNL A   1      51.200  25.928  26.399  1.00  0.00     0.198 A 
ATOM     82  F   UNL A   1      49.690  25.957  28.204  1.00  0.00    -0.203 F 
ATOM     83  F   UNL A   1      50.760  26.920  22.943  1.00  0.00    -0.200 F 
ATOM     84  C   UNL A   1      51.480  26.171  25.062  1.00  0.00     0.200 A 
ATOM     85  F   UNL A   1      52.148  25.426  27.202  1.00  0.00    -0.200 F 
ATOM     86  F   UNL A   1      52.692  25.883  24.567  1.00  0.00    -0.200 F 
ENDBRANCH  52  76
BRANCH  64  87
ATOM     87  C   UNL A   1      45.999  32.597  28.532  1.00  0.00     0.064 A 
ATOM     88  C   UNL A   1      45.850  33.570  27.531  1.00  0.00     0.173 A 
ATOM     89  C   UNL A   1      46.604  32.979  29.738  1.00  0.00     0.173 A 
ATOM     90  F   UNL A   1      45.294  33.248  26.354  1.00  0.00    -0.203 F 
ATOM     91  C   UNL A   1      46.306  34.871  27.728  1.00  0.00     0.198 A 
ATOM     92  C   UNL A   1      47.033  34.287  29.941  1.00  0.00     0.198 A 
ATOM     93  F   UNL A   1      46.764  32.086  30.726  1.00  0.00    -0.203 F 
ATOM     94  F   UNL A   1      46.191  35.774  26.744  1.00  0.00    -0.200 F 
ATOM     95  C   UNL A   1      46.888  35.230  28.934  1.00  0.00     0.200 A 
ATOM     96  F   UNL A   1      47.583  34.637  31.111  1.00  0.00    -0.200 F 
ATOM     97  F   UNL A   1      47.316  36.486  29.125  1.00  0.00    -0.200 F 
ENDBRANCH  64  87
ENDBRANCH  38  39
ENDBRANCH  30  33
ENDBRANCH  28  29
ENDBRANCH  27  28
ENDBRANCH  26  27
ENDBRANCH  25  26
ENDBRANCH   1  25
TORSDOF 17
ENDMDL
MODEL 3
REMARK VINA RESULT:     -11.9      5.315     10.597
REMARK SMILES Cc1cc(CS(=O)(=O)[C@@H](C)CC(=O)NCCCCCCNC(=O)c2ccc(-c3c4nc(c(-c5c(F)c(F)c(F)c(F)c5F)c5ccc([nH]5)c(-c5c(F)c(F)c(F)c(F)c5F)c5nc(c(-c6c(F)c(F)c(F)c(F)c6F)c6ccc3[nH]6)C=C5)C=C4)cc2)c2ccccc2n1
REMARK SMILES IDX 16 1 15 2 14 3 12 4 13 5 11 7 9 8 10 9 6 10 7 11 8 12 5 13
REMARK SMILES IDX 4 14 1 15 2 16 3 17 93 18 92 19 87 20 91 21 88 22 90 23
REMARK SMILES IDX 89 24 17 25 18 26 19 27 20 28 21 29 22 30 23 32 24 33 25 34
REMARK SMILES IDX 86 35 26 36 85 37 27 38 28 39 29 40 79 41 30 42 84 43 78 44
REMARK SMILES IDX 80 45 31 46 83 47 77 48 76 49 32 51 64 52 44 53 63 54 45 55
REMARK SMILES IDX 48 56 62 57 81 58 46 59 47 60 61 62 82 63 49 64 33 65 34 66
REMARK SMILES IDX 42 67 35 68 36 69 40 70 43 71 37 72 38 73 41 74 39 75 65 76
REMARK SMILES IDX 66 77 74 78 67 79 68 80 72 81 75 82 69 83 70 84 73 85 71 86
REMARK SMILES IDX 50 87 51 88 59 89 52 90 53 91 57 92 60 93 54 94 55 95 58 96
REMARK SMILES IDX 56 97
REMARK H PARENT 14 6 21 31 80 50 48 61
REMARK Flexibility Score: inf
ROOT
ATOM      1  C   UNL A   1      33.325  29.201  26.785  1.00  0.00     0.021 C 
ENDROOT
BRANCH   1   2
ATOM      2  C   UNL A   1      33.569  27.738  26.420  1.00  0.00     0.116 C 
BRANCH   2   3
ATOM      3  N   UNL A   1      32.383  26.922  26.556  1.00  0.00    -0.356 N 
ATOM      4  C   UNL A   1      32.250  25.569  26.499  1.00  0.00     0.221 C 
ATOM      5  O   UNL A   1      31.161  25.068  26.776  1.00  0.00    -0.275 OA
ATOM      6  H   UNL A   1      31.547  27.420  26.713  1.00  0.00     0.163 HD
BRANCH   4   7
ATOM      7  C   UNL A   1      33.429  24.704  26.104  1.00  0.00     0.119 C 
BRANCH   7   8
ATOM      8  C   UNL A   1      33.009  23.370  25.499  1.00  0.00     0.115 C 
ATOM      9  C   UNL A   1      33.465  22.187  26.365  1.00  0.00     0.025 C 
BRANCH   8  10
ATOM     10  S   UNL A   1      33.379  23.046  23.741  1.00  0.00     0.157 S 
ATOM     11  O   UNL A   1      33.014  21.653  23.525  1.00  0.00    -0.228 OA
ATOM     12  O   UNL A   1      34.771  23.418  23.528  1.00  0.00    -0.228 OA
BRANCH  10  13
ATOM     13  C   UNL A   1      32.462  23.964  22.483  1.00  0.00     0.173 C 
BRANCH  13  14
ATOM     14  C   UNL A   1      31.721  25.195  22.920  1.00  0.00    -0.022 A 
ATOM     15  C   UNL A   1      28.326  26.150  24.282  1.00  0.00     0.067 C 
ATOM     16  C   UNL A   1      29.685  26.223  23.659  1.00  0.00     0.038 A 
ATOM     17  C   UNL A   1      30.390  25.075  23.332  1.00  0.00     0.029 A 
ATOM     18  N   UNL A   1      30.202  27.461  23.512  1.00  0.00    -0.253 NA
ATOM     19  C   UNL A   1      31.492  27.595  23.186  1.00  0.00     0.071 A 
ATOM     20  C   UNL A   1      32.337  26.486  22.972  1.00  0.00     0.004 A 
ATOM     21  C   UNL A   1      32.002  28.881  23.061  1.00  0.00     0.029 A 
ATOM     22  C   UNL A   1      33.722  26.747  22.813  1.00  0.00     0.010 A 
ATOM     23  C   UNL A   1      33.354  29.121  22.827  1.00  0.00     0.002 A 
ATOM     24  C   UNL A   1      34.224  28.049  22.751  1.00  0.00     0.001 A 
ENDBRANCH  13  14
ENDBRANCH  10  13
ENDBRANCH   8  10
ENDBRANCH   7   8
ENDBRANCH   4   7
ENDBRANCH   2   3
ENDBRANCH   1   2
BRANCH   1  25
ATOM     25  C   UNL A   1      31.840  29.571  26.848  1.00  0.00     0.002 C 
BRANCH  25  26
ATOM     26  C   UNL A   1      31.433  30.792  26.016  1.00  0.00     0.002 C 
BRANCH  26  27
ATOM     27  C   UNL A   1      31.334  32.118  26.773  1.00  0.00     0.021 C 
BRANCH  27  28
ATOM     28  C   UNL A   1      32.641  32.899  26.855  1.00  0.00     0.116 C 
BRANCH  28  29
ATOM     29  N   UNL A   1      32.475  34.161  27.565  1.00  0.00    -0.352 N 
ATOM     30  C   UNL A   1      33.095  34.631  28.692  1.00  0.00     0.251 C 
ATOM     31  H   UNL A   1      31.811  34.773  27.171  1.00  0.00     0.163 HD
ATOM     32  O   UNL A   1      32.633  35.606  29.286  1.00  0.00    -0.269 OA
BRANCH  30  33
ATOM     33  C   UNL A   1      34.309  33.970  29.206  1.00  0.00     0.039 A 
ATOM     34  C   UNL A   1      35.562  34.517  28.911  1.00  0.00     0.014 A 
ATOM     35  C   UNL A   1      34.216  32.796  29.956  1.00  0.00     0.014 A 
ATOM     36  C   UNL A   1      36.716  33.929  29.435  1.00  0.00     0.010 A 
ATOM     37  C   UNL A   1      35.356  32.258  30.542  1.00  0.00     0.010 A 
ATOM     38  C   UNL A   1      36.616  32.821  30.290  1.00  0.00    -0.014 A 
BRANCH  38  39
ATOM     39  C   UNL A   1      37.807  32.234  30.952  1.00  0.00     0.031 A 
ATOM     40  C   UNL A   1      38.584  31.144  30.270  1.00  0.00     0.074 A 
ATOM     41  C   UNL A   1      38.118  32.610  32.208  1.00  0.00     0.049 A 
ATOM     42  N   UNL A   1      39.559  30.405  30.737  1.00  0.00    -0.248 NA
ATOM     43  C   UNL A   1      38.190  30.817  28.891  1.00  0.00     0.031 C 
ATOM     44  C   UNL A   1      37.405  33.623  32.988  1.00  0.00     0.029 A 
ATOM     45  N   UNL A   1      39.099  32.165  33.059  1.00  0.00    -0.354 N 
ATOM     46  C   UNL A   1      39.876  29.516  29.719  1.00  0.00     0.074 A 
ATOM     47  C   UNL A   1      38.961  29.772  28.629  1.00  0.00     0.031 C 
ATOM     48  C   UNL A   1      37.978  33.730  34.197  1.00  0.00     0.029 A 
ATOM     49  C   UNL A   1      39.067  32.764  34.294  1.00  0.00     0.049 A 
ATOM     50  H   UNL A   1      39.762  31.482  32.807  1.00  0.00     0.167 HD
ATOM     51  C   UNL A   1      40.856  28.581  29.693  1.00  0.00     0.037 A 
ATOM     52  C   UNL A   1      39.819  32.544  35.390  1.00  0.00     0.037 A 
ATOM     53  C   UNL A   1      41.783  28.355  30.771  1.00  0.00     0.049 A 
ATOM     54  C   UNL A   1      40.896  31.494  35.336  1.00  0.00     0.074 A 
ATOM     55  C   UNL A   1      42.865  27.493  30.813  1.00  0.00     0.029 A 
ATOM     56  N   UNL A   1      41.733  28.996  32.001  1.00  0.00    -0.354 N 
ATOM     57  N   UNL A   1      41.235  30.709  34.344  1.00  0.00    -0.248 NA
ATOM     58  C   UNL A   1      41.693  31.301  36.555  1.00  0.00     0.031 C 
ATOM     59  C   UNL A   1      43.440  27.578  32.086  1.00  0.00     0.029 A 
ATOM     60  C   UNL A   1      42.746  28.526  32.820  1.00  0.00     0.049 A 
ATOM     61  H   UNL A   1      41.074  29.682  32.253  1.00  0.00     0.167 HD
ATOM     62  C   UNL A   1      42.293  29.940  34.810  1.00  0.00     0.074 A 
ATOM     63  C   UNL A   1      42.552  30.369  36.169  1.00  0.00     0.031 C 
ATOM     64  C   UNL A   1      42.984  28.964  34.172  1.00  0.00     0.037 A 
BRANCH  51  65
ATOM     65  C   UNL A   1      40.982  27.736  28.459  1.00  0.00     0.064 A 
ATOM     66  C   UNL A   1      40.308  26.512  28.333  1.00  0.00     0.173 A 
ATOM     67  C   UNL A   1      41.755  28.172  27.373  1.00  0.00     0.173 A 
ATOM     68  F   UNL A   1      39.563  26.045  29.347  1.00  0.00    -0.203 F 
ATOM     69  C   UNL A   1      40.427  25.741  27.180  1.00  0.00     0.198 A 
ATOM     70  C   UNL A   1      41.849  27.413  26.208  1.00  0.00     0.198 A 
ATOM     71  F   UNL A   1      42.416  29.337  27.436  1.00  0.00    -0.203 F 
ATOM     72  F   UNL A   1      39.812  24.553  27.102  1.00  0.00    -0.200 F 
ATOM     73  C   UNL A   1      41.191  26.195  26.115  1.00  0.00     0.200 A 
ATOM     74  F   UNL A   1      42.578  27.860  25.176  1.00  0.00    -0.200 F 
ATOM     75  F   UNL A   1      41.299  25.457  25.002  1.00  0.00    -0.200 F 
ENDBRANCH  51  65
BRANCH  52  76
ATOM     76  C   UNL A   1      39.584  33.338  36.623  1.00  0.00     0.064 A 
ATOM     77  C   UNL A   1      38.718  32.873  37.622  1.00  0.00     0.173 A 
ATOM     78  C   UNL A   1      40.223  34.569  36.833  1.00  0.00     0.173 A 
ATOM     79  F   UNL A   1      38.070  31.711  37.457  1.00  0.00    -0.203 F 
ATOM     80  C   UNL A   1      38.487  33.616  38.778  1.00  0.00     0.198 A 
ATOM     81  C   UNL A   1      40.012  35.298  38.001  1.00  0.00     0.198 A 
ATOM     82  F   UNL A   1      41.066  35.056  35.911  1.00  0.00    -0.203 F 
ATOM     83  F   UNL A   1      37.625  33.166  39.699  1.00  0.00    -0.200 F 
ATOM     84  C   UNL A   1      39.139  34.825  38.970  1.00  0.00     0.200 A 
ATOM     85  F   UNL A   1      40.658  36.457  38.191  1.00  0.00    -0.200 F 
ATOM     86  F   UNL A   1      38.924  35.536  40.086  1.00  0.00    -0.200 F 
ENDBRANCH  52  76
BRANCH  64  87
ATOM     87  C   UNL A   1      44.094  28.302  34.932  1.00  0.00     0.064 A 
ATOM     88  C   UNL A   1      43.881  27.118  35.653  1.00  0.00     0.173 A 
ATOM     89  C   UNL A   1      45.395  28.828  34.897  1.00  0.00     0.173 A 
ATOM     90  F   UNL A   1      42.651  26.587  35.730  1.00  0.00    -0.203 F 
ATOM     91  C   UNL A   1      44.928  26.493  36.325  1.00  0.00     0.198 A 
ATOM     92  C   UNL A   1      46.443  28.185  35.547  1.00  0.00     0.198 A 
ATOM     93  F   UNL A   1      45.649  29.955  34.217  1.00  0.00    -0.203 F 
ATOM     94  F   UNL A   1      44.694  25.385  37.042  1.00  0.00    -0.200 F 
ATOM     95  C   UNL A   1      46.208  27.022  36.265  1.00  0.00     0.200 A 
ATOM     96  F   UNL A   1      47.683  28.690  35.477  1.00  0.00    -0.200 F 
ATOM     97  F   UNL A   1      47.216  26.413  36.904  1.00  0.00    -0.200 F 
ENDBRANCH  64  87
ENDBRANCH  38  39
ENDBRANCH  30  33
ENDBRANCH  28  29
ENDBRANCH  27  28
ENDBRANCH  26  27
ENDBRANCH  25  26
ENDBRANCH   1  25
TORSDOF 17
ENDMDL
