MODEL 1
REMARK VINA RESULT:     -11.6      0.000      0.000
REMARK SMILES C[C@H](Nc1ccc(F)cc1Br)[C@@H](C)C(=O)NCCCCCCNC(=O)c1ccc(-c2c3nc(c(-c4c(F)c(F)c(F)c(F)c4F)c4ccc([nH]4)c(-c4c(F)c(F)c(F)c(F)c4F)c4nc(c(-c5c(F)c(F)c(F)c(F)c5F)c5ccc2[nH]5)C=C4)C=C3)cc1
REMARK SMILES IDX 19 1 18 2 17 3 16 4 14 5 15 6 12 8 13 9 2 10 1 11 3 12 4 14
REMARK SMILES IDX 5 15 10 16 6 17 9 18 11 19 7 20 8 21 20 22 21 23 22 24 23 25
REMARK SMILES IDX 24 26 25 28 26 29 27 30 88 31 28 32 87 33 29 34 30 35 31 36
REMARK SMILES IDX 81 37 32 38 86 39 80 40 82 41 33 42 85 43 79 44 78 45 34 47
REMARK SMILES IDX 66 48 46 49 65 50 47 51 50 52 64 53 83 54 48 55 49 56 63 58
REMARK SMILES IDX 84 59 51 60 35 61 36 62 44 63 37 64 38 65 42 66 45 67 39 68
REMARK SMILES IDX 40 69 43 70 41 71 67 72 68 73 76 74 69 75 70 76 74 77 77 78
REMARK SMILES IDX 71 79 72 80 75 81 73 82 52 83 53 84 61 85 54 86 55 87 59 88
REMARK SMILES IDX 62 89 56 90 57 91 60 92 58 93
REMARK H PARENT 16 7 3 13 23 27 82 46 50 57
REMARK Flexibility Score: inf
ROOT
ATOM      1  C   UNL A   1      32.233  29.773  27.200  1.00  0.00     0.002 C 
ENDROOT
BRANCH   1   2
ATOM      2  C   UNL A   1      33.654  29.307  26.868  1.00  0.00     0.021 C 
BRANCH   2   3
ATOM      3  C   UNL A   1      33.712  28.015  26.056  1.00  0.00     0.116 C 
BRANCH   3   4
ATOM      4  N   UNL A   1      32.860  26.996  26.634  1.00  0.00    -0.356 N 
ATOM      5  C   UNL A   1      31.943  26.170  26.070  1.00  0.00     0.224 C 
ATOM      6  O   UNL A   1      31.307  25.429  26.824  1.00  0.00    -0.275 OA
ATOM      7  H   UNL A   1      32.965  26.883  27.606  1.00  0.00     0.163 HD
BRANCH   5   8
ATOM      8  C   UNL A   1      31.708  26.125  24.564  1.00  0.00     0.097 C 
ATOM      9  C   UNL A   1      30.351  26.764  24.241  1.00  0.00     0.020 C 
BRANCH   8  10
ATOM     10  C   UNL A   1      31.993  24.728  23.942  1.00  0.00     0.088 C 
ATOM     11  C   UNL A   1      30.660  24.093  23.515  1.00  0.00     0.031 C 
BRANCH  10  12
ATOM     12  N   UNL A   1      32.774  23.926  24.898  1.00  0.00    -0.381 N 
ATOM     13  H   UNL A   1      32.330  23.747  25.759  1.00  0.00     0.160 HD
BRANCH  12  14
ATOM     14  C   UNL A   1      34.039  23.389  24.763  1.00  0.00     0.049 A 
ATOM     15  C   UNL A   1      34.807  23.565  23.606  1.00  0.00     0.030 A 
ATOM     16  C   UNL A   1      34.594  22.603  25.799  1.00  0.00     0.044 A 
ATOM     17  C   UNL A   1      36.053  22.949  23.464  1.00  0.00     0.041 A 
ATOM     18  C   UNL A   1      35.838  21.987  25.667  1.00  0.00     0.057 A 
ATOM     19  Br  UNL A   1      33.654  22.345  27.436  1.00  0.00    -0.048 Br
ATOM     20  C   UNL A   1      36.550  22.159  24.491  1.00  0.00     0.124 A 
ATOM     21  F   UNL A   1      37.739  21.561  24.347  1.00  0.00    -0.207 F 
ENDBRANCH  12  14
ENDBRANCH  10  12
ENDBRANCH   8  10
ENDBRANCH   5   8
ENDBRANCH   3   4
ENDBRANCH   2   3
ENDBRANCH   1   2
BRANCH   1  22
ATOM     22  C   UNL A   1      31.610  30.736  26.184  1.00  0.00     0.002 C 
BRANCH  22  23
ATOM     23  C   UNL A   1      31.406  32.168  26.686  1.00  0.00     0.021 C 
BRANCH  23  24
ATOM     24  C   UNL A   1      32.664  32.838  27.226  1.00  0.00     0.116 C 
BRANCH  24  25
ATOM     25  N   UNL A   1      32.423  34.215  27.625  1.00  0.00    -0.352 N 
ATOM     26  C   UNL A   1      32.989  34.934  28.645  1.00  0.00     0.251 C 
ATOM     27  H   UNL A   1      31.757  34.700  27.085  1.00  0.00     0.163 HD
ATOM     28  O   UNL A   1      32.526  36.030  28.962  1.00  0.00    -0.269 OA
BRANCH  26  29
ATOM     29  C   UNL A   1      34.145  34.386  29.382  1.00  0.00     0.039 A 
ATOM     30  C   UNL A   1      33.940  33.839  30.651  1.00  0.00     0.014 A 
ATOM     31  C   UNL A   1      35.430  34.422  28.830  1.00  0.00     0.014 A 
ATOM     32  C   UNL A   1      35.013  33.277  31.344  1.00  0.00     0.010 A 
ATOM     33  C   UNL A   1      36.485  33.799  29.491  1.00  0.00     0.010 A 
ATOM     34  C   UNL A   1      36.289  33.224  30.757  1.00  0.00    -0.014 A 
BRANCH  34  35
ATOM     35  C   UNL A   1      37.427  32.577  31.453  1.00  0.00     0.031 A 
ATOM     36  C   UNL A   1      38.146  31.422  30.814  1.00  0.00     0.074 A 
ATOM     37  C   UNL A   1      37.775  32.990  32.687  1.00  0.00     0.049 A 
ATOM     38  N   UNL A   1      39.117  30.684  31.290  1.00  0.00    -0.248 NA
ATOM     39  C   UNL A   1      37.695  31.025  29.471  1.00  0.00     0.031 C 
ATOM     40  C   UNL A   1      37.126  34.070  33.430  1.00  0.00     0.029 A 
ATOM     41  N   UNL A   1      38.754  32.542  33.538  1.00  0.00    -0.354 N 
ATOM     42  C   UNL A   1      39.384  29.733  30.313  1.00  0.00     0.074 A 
ATOM     43  C   UNL A   1      38.437  29.951  29.241  1.00  0.00     0.031 C 
ATOM     44  C   UNL A   1      37.737  34.216  34.617  1.00  0.00     0.029 A 
ATOM     45  C   UNL A   1      38.793  33.216  34.734  1.00  0.00     0.049 A 
ATOM     46  H   UNL A   1      39.369  31.808  33.314  1.00  0.00     0.167 HD
ATOM     47  C   UNL A   1      40.346  28.780  30.302  1.00  0.00     0.037 A 
ATOM     48  C   UNL A   1      39.589  33.042  35.806  1.00  0.00     0.037 A 
ATOM     49  C   UNL A   1      41.302  28.582  31.361  1.00  0.00     0.049 A 
ATOM     50  C   UNL A   1      40.644  31.970  35.772  1.00  0.00     0.074 A 
ATOM     51  C   UNL A   1      42.352  27.683  31.418  1.00  0.00     0.029 A 
ATOM     52  N   UNL A   1      41.319  29.294  32.550  1.00  0.00    -0.354 N 
ATOM     53  N   UNL A   1      40.930  31.122  34.815  1.00  0.00    -0.248 NA
ATOM     54  C   UNL A   1      41.491  31.836  36.966  1.00  0.00     0.031 C 
ATOM     55  C   UNL A   1      42.977  27.819  32.662  1.00  0.00     0.029 A 
ATOM     56  C   UNL A   1      42.349  28.839  33.359  1.00  0.00     0.049 A 
ATOM     57  H   UNL A   1      40.694  30.018  32.787  1.00  0.00     0.167 HD
ATOM     58  C   UNL A   1      42.005  30.374  35.278  1.00  0.00     0.074 A 
ATOM     59  C   UNL A   1      42.330  30.879  36.595  1.00  0.00     0.031 C 
ATOM     60  C   UNL A   1      42.663  29.358  34.666  1.00  0.00     0.037 A 
BRANCH  47  61
ATOM     61  C   UNL A   1      40.416  27.878  29.104  1.00  0.00     0.064 A 
ATOM     62  C   UNL A   1      39.651  26.704  29.021  1.00  0.00     0.173 A 
ATOM     63  C   UNL A   1      41.227  28.210  28.008  1.00  0.00     0.173 A 
ATOM     64  F   UNL A   1      38.868  26.335  30.046  1.00  0.00    -0.203 F 
ATOM     65  C   UNL A   1      39.720  25.880  27.900  1.00  0.00     0.198 A 
ATOM     66  C   UNL A   1      41.270  27.401  26.875  1.00  0.00     0.198 A 
ATOM     67  F   UNL A   1      41.973  29.325  28.032  1.00  0.00    -0.203 F 
ATOM     68  F   UNL A   1      39.020  24.737  27.866  1.00  0.00    -0.200 F 
ATOM     69  C   UNL A   1      40.524  26.233  26.826  1.00  0.00     0.200 A 
ATOM     70  F   UNL A   1      42.035  27.749  25.833  1.00  0.00    -0.200 F 
ATOM     71  F   UNL A   1      40.583  25.443  25.745  1.00  0.00    -0.200 F 
ENDBRANCH  47  61
BRANCH  48  72
ATOM     72  C   UNL A   1      39.433  33.919  36.997  1.00  0.00     0.064 A 
ATOM     73  C   UNL A   1      40.045  35.179  37.048  1.00  0.00     0.173 A 
ATOM     74  C   UNL A   1      38.676  33.517  38.107  1.00  0.00     0.173 A 
ATOM     75  F   UNL A   1      40.795  35.600  36.018  1.00  0.00    -0.203 F 
ATOM     76  C   UNL A   1      39.925  35.994  38.171  1.00  0.00     0.198 A 
ATOM     77  C   UNL A   1      38.533  34.344  39.218  1.00  0.00     0.198 A 
ATOM     78  F   UNL A   1      38.065  32.322  38.108  1.00  0.00    -0.203 F 
ATOM     79  F   UNL A   1      40.560  37.173  38.212  1.00  0.00    -0.200 F 
ATOM     80  C   UNL A   1      39.165  35.578  39.254  1.00  0.00     0.200 A 
ATOM     81  F   UNL A   1      37.785  33.945  40.256  1.00  0.00    -0.200 F 
ATOM     82  F   UNL A   1      39.047  36.363  40.333  1.00  0.00    -0.200 F 
ENDBRANCH  48  72
BRANCH  60  83
ATOM     83  C   UNL A   1      43.822  28.749  35.400  1.00  0.00     0.064 A 
ATOM     84  C   UNL A   1      43.642  27.725  36.343  1.00  0.00     0.173 A 
ATOM     85  C   UNL A   1      45.133  29.169  35.128  1.00  0.00     0.173 A 
ATOM     86  F   UNL A   1      42.406  27.300  36.649  1.00  0.00    -0.203 F 
ATOM     87  C   UNL A   1      44.729  27.163  37.005  1.00  0.00     0.198 A 
ATOM     88  C   UNL A   1      46.221  28.582  35.770  1.00  0.00     0.198 A 
ATOM     89  F   UNL A   1      45.361  30.139  34.232  1.00  0.00    -0.203 F 
ATOM     90  F   UNL A   1      44.530  26.221  37.936  1.00  0.00    -0.200 F 
ATOM     91  C   UNL A   1      46.018  27.586  36.713  1.00  0.00     0.200 A 
ATOM     92  F   UNL A   1      47.466  28.982  35.476  1.00  0.00    -0.200 F 
ATOM     93  F   UNL A   1      47.064  27.037  37.346  1.00  0.00    -0.200 F 
ENDBRANCH  60  83
ENDBRANCH  34  35
ENDBRANCH  26  29
ENDBRANCH  24  25
ENDBRANCH  23  24
ENDBRANCH  22  23
ENDBRANCH   1  22
TORSDOF 16
ENDMDL
MODEL 2
REMARK VINA RESULT:     -11.5      0.469      1.672
REMARK SMILES C[C@H](Nc1ccc(F)cc1Br)[C@@H](C)C(=O)NCCCCCCNC(=O)c1ccc(-c2c3nc(c(-c4c(F)c(F)c(F)c(F)c4F)c4ccc([nH]4)c(-c4c(F)c(F)c(F)c(F)c4F)c4nc(c(-c5c(F)c(F)c(F)c(F)c5F)c5ccc2[nH]5)C=C4)C=C3)cc1
REMARK SMILES IDX 19 1 18 2 17 3 16 4 14 5 15 6 12 8 13 9 2 10 1 11 3 12 4 14
REMARK SMILES IDX 5 15 10 16 6 17 9 18 11 19 7 20 8 21 20 22 21 23 22 24 23 25
REMARK SMILES IDX 24 26 25 28 26 29 27 30 88 31 28 32 87 33 29 34 30 35 31 36
REMARK SMILES IDX 81 37 32 38 86 39 80 40 82 41 33 42 85 43 79 44 78 45 34 47
REMARK SMILES IDX 66 48 46 49 65 50 47 51 50 52 64 53 83 54 48 55 49 56 63 58
REMARK SMILES IDX 84 59 51 60 35 61 36 62 44 63 37 64 38 65 42 66 45 67 39 68
REMARK SMILES IDX 40 69 43 70 41 71 67 72 68 73 76 74 69 75 70 76 74 77 77 78
REMARK SMILES IDX 71 79 72 80 75 81 73 82 52 83 53 84 61 85 54 86 55 87 59 88
REMARK SMILES IDX 62 89 56 90 57 91 60 92 58 93
REMARK H PARENT 16 7 3 13 23 27 82 46 50 57
REMARK Flexibility Score: inf
ROOT
ATOM      1  C   UNL A   1      32.525  30.079  26.876  1.00  0.00     0.002 C 
ENDROOT
BRANCH   1   2
ATOM      2  C   UNL A   1      32.051  28.731  27.431  1.00  0.00     0.021 C 
BRANCH   2   3
ATOM      3  C   UNL A   1      32.560  27.522  26.649  1.00  0.00     0.116 C 
BRANCH   3   4
ATOM      4  N   UNL A   1      31.729  26.360  26.887  1.00  0.00    -0.356 N 
ATOM      5  C   UNL A   1      31.157  25.477  26.029  1.00  0.00     0.224 C 
ATOM      6  O   UNL A   1      30.436  24.601  26.514  1.00  0.00    -0.275 OA
ATOM      7  H   UNL A   1      31.549  26.176  27.838  1.00  0.00     0.163 HD
BRANCH   5   8
ATOM      8  C   UNL A   1      31.399  25.534  24.525  1.00  0.00     0.097 C 
ATOM      9  C   UNL A   1      30.080  25.849  23.808  1.00  0.00     0.020 C 
BRANCH   8  10
ATOM     10  C   UNL A   1      32.216  24.322  23.992  1.00  0.00     0.088 C 
ATOM     11  C   UNL A   1      31.241  23.207  23.581  1.00  0.00     0.031 C 
BRANCH  10  12
ATOM     12  N   UNL A   1      33.206  23.925  25.007  1.00  0.00    -0.381 N 
ATOM     13  H   UNL A   1      32.994  24.194  25.930  1.00  0.00     0.160 HD
BRANCH  12  14
ATOM     14  C   UNL A   1      34.390  23.231  24.852  1.00  0.00     0.049 A 
ATOM     15  C   UNL A   1      35.213  23.397  23.732  1.00  0.00     0.030 A 
ATOM     16  C   UNL A   1      34.796  22.290  25.825  1.00  0.00     0.044 A 
ATOM     17  C   UNL A   1      36.368  22.628  23.562  1.00  0.00     0.041 A 
ATOM     18  C   UNL A   1      35.948  21.520  25.665  1.00  0.00     0.057 A 
ATOM     19  Br  UNL A   1      33.775  22.025  27.412  1.00  0.00    -0.048 Br
ATOM     20  C   UNL A   1      36.716  21.691  24.524  1.00  0.00     0.124 A 
ATOM     21  F   UNL A   1      37.817  20.948  24.354  1.00  0.00    -0.207 F 
ENDBRANCH  12  14
ENDBRANCH  10  12
ENDBRANCH   8  10
ENDBRANCH   5   8
ENDBRANCH   3   4
ENDBRANCH   2   3
ENDBRANCH   1   2
BRANCH   1  22
ATOM     22  C   UNL A   1      31.468  30.871  26.101  1.00  0.00     0.002 C 
BRANCH  22  23
ATOM     23  C   UNL A   1      31.359  32.351  26.477  1.00  0.00     0.021 C 
BRANCH  23  24
ATOM     24  C   UNL A   1      32.485  32.864  27.368  1.00  0.00     0.116 C 
BRANCH  24  25
ATOM     25  N   UNL A   1      32.335  34.276  27.680  1.00  0.00    -0.352 N 
ATOM     26  C   UNL A   1      32.992  35.032  28.615  1.00  0.00     0.251 C 
ATOM     27  H   UNL A   1      31.667  34.759  27.141  1.00  0.00     0.163 HD
ATOM     28  O   UNL A   1      32.603  36.171  28.876  1.00  0.00    -0.269 OA
BRANCH  26  29
ATOM     29  C   UNL A   1      34.157  34.474  29.329  1.00  0.00     0.039 A 
ATOM     30  C   UNL A   1      33.952  33.800  30.536  1.00  0.00     0.014 A 
ATOM     31  C   UNL A   1      35.451  34.625  28.819  1.00  0.00     0.014 A 
ATOM     32  C   UNL A   1      35.036  33.229  31.203  1.00  0.00     0.010 A 
ATOM     33  C   UNL A   1      36.521  33.995  29.448  1.00  0.00     0.010 A 
ATOM     34  C   UNL A   1      36.326  33.295  30.649  1.00  0.00    -0.014 A 
BRANCH  34  35
ATOM     35  C   UNL A   1      37.480  32.641  31.313  1.00  0.00     0.031 A 
ATOM     36  C   UNL A   1      38.194  31.502  30.640  1.00  0.00     0.074 A 
ATOM     37  C   UNL A   1      37.848  33.033  32.548  1.00  0.00     0.049 A 
ATOM     38  N   UNL A   1      39.177  30.761  31.084  1.00  0.00    -0.248 NA
ATOM     39  C   UNL A   1      37.722  31.128  29.297  1.00  0.00     0.031 C 
ATOM     40  C   UNL A   1      37.206  34.095  33.323  1.00  0.00     0.029 A 
ATOM     41  N   UNL A   1      38.844  32.575  33.373  1.00  0.00    -0.354 N 
ATOM     42  C   UNL A   1      39.432  29.831  30.086  1.00  0.00     0.074 A 
ATOM     43  C   UNL A   1      38.465  30.063  29.035  1.00  0.00     0.031 C 
ATOM     44  C   UNL A   1      37.836  34.222  34.501  1.00  0.00     0.029 A 
ATOM     45  C   UNL A   1      38.900  33.227  34.581  1.00  0.00     0.049 A 
ATOM     46  H   UNL A   1      39.459  31.848  33.125  1.00  0.00     0.167 HD
ATOM     47  C   UNL A   1      40.399  28.883  30.040  1.00  0.00     0.037 A 
ATOM     48  C   UNL A   1      39.716  33.037  35.636  1.00  0.00     0.037 A 
ATOM     49  C   UNL A   1      41.374  28.671  31.078  1.00  0.00     0.049 A 
ATOM     50  C   UNL A   1      40.776  31.972  35.562  1.00  0.00     0.074 A 
ATOM     51  C   UNL A   1      42.430  27.777  31.100  1.00  0.00     0.029 A 
ATOM     52  N   UNL A   1      41.409  29.361  32.280  1.00  0.00    -0.354 N 
ATOM     53  N   UNL A   1      41.050  31.144  34.585  1.00  0.00    -0.248 NA
ATOM     54  C   UNL A   1      41.644  31.820  36.739  1.00  0.00     0.031 C 
ATOM     55  C   UNL A   1      43.076  27.894  32.335  1.00  0.00     0.029 A 
ATOM     56  C   UNL A   1      42.455  28.897  33.062  1.00  0.00     0.049 A 
ATOM     57  H   UNL A   1      40.784  30.076  32.541  1.00  0.00     0.167 HD
ATOM     58  C   UNL A   1      42.136  30.393  35.014  1.00  0.00     0.074 A 
ATOM     59  C   UNL A   1      42.482  30.876  36.336  1.00  0.00     0.031 C 
ATOM     60  C   UNL A   1      42.789  29.393  34.372  1.00  0.00     0.037 A 
BRANCH  47  61
ATOM     61  C   UNL A   1      40.452  28.004  28.824  1.00  0.00     0.064 A 
ATOM     62  C   UNL A   1      41.206  28.357  27.693  1.00  0.00     0.173 A 
ATOM     63  C   UNL A   1      39.773  26.776  28.802  1.00  0.00     0.173 A 
ATOM     64  F   UNL A   1      41.863  29.525  27.658  1.00  0.00    -0.203 F 
ATOM     65  C   UNL A   1      41.252  27.528  26.575  1.00  0.00     0.198 A 
ATOM     66  C   UNL A   1      39.848  25.935  27.694  1.00  0.00     0.198 A 
ATOM     67  F   UNL A   1      39.045  26.387  29.858  1.00  0.00    -0.203 F 
ATOM     68  F   UNL A   1      41.936  27.911  25.487  1.00  0.00    -0.200 F 
ATOM     69  C   UNL A   1      40.579  26.315  26.579  1.00  0.00     0.200 A 
ATOM     70  F   UNL A   1      39.209  24.757  27.704  1.00  0.00    -0.200 F 
ATOM     71  F   UNL A   1      40.632  25.516  25.505  1.00  0.00    -0.200 F 
ENDBRANCH  47  61
BRANCH  48  72
ATOM     72  C   UNL A   1      39.576  33.890  36.845  1.00  0.00     0.064 A 
ATOM     73  C   UNL A   1      38.805  33.468  37.938  1.00  0.00     0.173 A 
ATOM     74  C   UNL A   1      40.203  35.141  36.935  1.00  0.00     0.173 A 
ATOM     75  F   UNL A   1      38.170  32.288  37.892  1.00  0.00    -0.203 F 
ATOM     76  C   UNL A   1      38.649  34.274  39.063  1.00  0.00     0.198 A 
ATOM     77  C   UNL A   1      40.070  35.934  38.072  1.00  0.00     0.198 A 
ATOM     78  F   UNL A   1      40.957  35.590  35.919  1.00  0.00    -0.203 F 
ATOM     79  F   UNL A   1      37.868  33.867  40.073  1.00  0.00    -0.200 F 
ATOM     80  C   UNL A   1      39.285  35.505  39.132  1.00  0.00     0.200 A 
ATOM     81  F   UNL A   1      40.699  37.115  38.140  1.00  0.00    -0.200 F 
ATOM     82  F   UNL A   1      39.137  36.278  40.215  1.00  0.00    -0.200 F 
ENDBRANCH  48  72
BRANCH  60  83
ATOM     83  C   UNL A   1      43.965  28.777  35.074  1.00  0.00     0.064 A 
ATOM     84  C   UNL A   1      43.834  27.611  35.845  1.00  0.00     0.173 A 
ATOM     85  C   UNL A   1      45.243  29.339  34.944  1.00  0.00     0.173 A 
ATOM     86  F   UNL A   1      42.630  27.044  36.013  1.00  0.00    -0.203 F 
ATOM     87  C   UNL A   1      44.937  27.046  36.478  1.00  0.00     0.198 A 
ATOM     88  C   UNL A   1      46.349  28.753  35.554  1.00  0.00     0.198 A 
ATOM     89  F   UNL A   1      45.423  30.450  34.215  1.00  0.00    -0.203 F 
ATOM     90  F   UNL A   1      44.782  25.960  37.248  1.00  0.00    -0.200 F 
ATOM     91  C   UNL A   1      46.194  27.613  36.326  1.00  0.00     0.200 A 
ATOM     92  F   UNL A   1      47.565  29.294  35.395  1.00  0.00    -0.200 F 
ATOM     93  F   UNL A   1      47.257  27.062  36.931  1.00  0.00    -0.200 F 
ENDBRANCH  60  83
ENDBRANCH  34  35
ENDBRANCH  26  29
ENDBRANCH  24  25
ENDBRANCH  23  24
ENDBRANCH  22  23
ENDBRANCH   1  22
TORSDOF 16
ENDMDL
MODEL 3
REMARK VINA RESULT:     -11.4      1.924      3.134
REMARK SMILES C[C@H](Nc1ccc(F)cc1Br)[C@@H](C)C(=O)NCCCCCCNC(=O)c1ccc(-c2c3nc(c(-c4c(F)c(F)c(F)c(F)c4F)c4ccc([nH]4)c(-c4c(F)c(F)c(F)c(F)c4F)c4nc(c(-c5c(F)c(F)c(F)c(F)c5F)c5ccc2[nH]5)C=C4)C=C3)cc1
REMARK SMILES IDX 19 1 18 2 17 3 16 4 14 5 15 6 12 8 13 9 2 10 1 11 3 12 4 14
REMARK SMILES IDX 5 15 10 16 6 17 9 18 11 19 7 20 8 21 20 22 21 23 22 24 23 25
REMARK SMILES IDX 24 26 25 28 26 29 27 30 88 31 28 32 87 33 29 34 30 35 31 36
REMARK SMILES IDX 81 37 32 38 86 39 80 40 82 41 33 42 85 43 79 44 78 45 34 47
REMARK SMILES IDX 66 48 46 49 65 50 47 51 50 52 64 53 83 54 48 55 49 56 63 58
REMARK SMILES IDX 84 59 51 60 35 61 36 62 44 63 37 64 38 65 42 66 45 67 39 68
REMARK SMILES IDX 40 69 43 70 41 71 67 72 68 73 76 74 69 75 70 76 74 77 77 78
REMARK SMILES IDX 71 79 72 80 75 81 73 82 52 83 53 84 61 85 54 86 55 87 59 88
REMARK SMILES IDX 62 89 56 90 57 91 60 92 58 93
REMARK H PARENT 16 7 3 13 23 27 82 46 50 57
REMARK Flexibility Score: inf
ROOT
ATOM      1  C   UNL A   1      32.331  29.845  26.335  1.00  0.00     0.002 C 
ENDROOT
BRANCH   1   2
ATOM      2  C   UNL A   1      31.641  28.976  27.391  1.00  0.00     0.021 C 
BRANCH   2   3
ATOM      3  C   UNL A   1      32.186  27.551  27.478  1.00  0.00     0.116 C 
BRANCH   3   4
ATOM      4  N   UNL A   1      33.052  27.254  26.356  1.00  0.00    -0.356 N 
ATOM      5  C   UNL A   1      33.126  26.167  25.546  1.00  0.00     0.224 C 
ATOM      6  O   UNL A   1      34.016  26.156  24.692  1.00  0.00    -0.275 OA
ATOM      7  H   UNL A   1      33.699  27.964  26.143  1.00  0.00     0.163 HD
BRANCH   5   8
ATOM      8  C   UNL A   1      32.144  25.006  25.653  1.00  0.00     0.097 C 
ATOM      9  C   UNL A   1      32.923  23.688  25.747  1.00  0.00     0.020 C 
BRANCH   8  10
ATOM     10  C   UNL A   1      31.000  25.073  24.600  1.00  0.00     0.088 C 
ATOM     11  C   UNL A   1      30.938  23.735  23.848  1.00  0.00     0.031 C 
BRANCH  10  12
ATOM     12  N   UNL A   1      31.208  26.250  23.740  1.00  0.00    -0.381 N 
ATOM     13  H   UNL A   1      32.102  26.323  23.334  1.00  0.00     0.160 HD
BRANCH  12  14
ATOM     14  C   UNL A   1      30.329  27.266  23.420  1.00  0.00     0.049 A 
ATOM     15  C   UNL A   1      28.945  27.135  23.574  1.00  0.00     0.030 A 
ATOM     16  C   UNL A   1      30.812  28.483  22.887  1.00  0.00     0.044 A 
ATOM     17  C   UNL A   1      28.072  28.150  23.173  1.00  0.00     0.041 A 
ATOM     18  C   UNL A   1      29.949  29.503  22.487  1.00  0.00     0.057 A 
ATOM     19  Br  UNL A   1      32.683  28.785  22.685  1.00  0.00    -0.048 Br
ATOM     20  C   UNL A   1      28.583  29.317  22.624  1.00  0.00     0.124 A 
ATOM     21  F   UNL A   1      27.744  30.284  22.230  1.00  0.00    -0.207 F 
ENDBRANCH  12  14
ENDBRANCH  10  12
ENDBRANCH   8  10
ENDBRANCH   5   8
ENDBRANCH   3   4
ENDBRANCH   2   3
ENDBRANCH   1   2
BRANCH   1  22
ATOM     22  C   UNL A   1      31.473  30.979  25.765  1.00  0.00     0.002 C 
BRANCH  22  23
ATOM     23  C   UNL A   1      31.255  32.166  26.706  1.00  0.00     0.021 C 
BRANCH  23  24
ATOM     24  C   UNL A   1      32.537  32.809  27.227  1.00  0.00     0.116 C 
BRANCH  24  25
ATOM     25  N   UNL A   1      32.349  34.211  27.561  1.00  0.00    -0.352 N 
ATOM     26  C   UNL A   1      32.972  34.964  28.521  1.00  0.00     0.251 C 
ATOM     27  H   UNL A   1      31.679  34.688  27.020  1.00  0.00     0.163 HD
ATOM     28  O   UNL A   1      32.552  36.089  28.796  1.00  0.00    -0.269 OA
BRANCH  26  29
ATOM     29  C   UNL A   1      34.138  34.420  29.245  1.00  0.00     0.039 A 
ATOM     30  C   UNL A   1      33.935  33.781  30.472  1.00  0.00     0.014 A 
ATOM     31  C   UNL A   1      35.430  34.548  28.725  1.00  0.00     0.014 A 
ATOM     32  C   UNL A   1      35.019  33.222  31.149  1.00  0.00     0.010 A 
ATOM     33  C   UNL A   1      36.500  33.930  29.366  1.00  0.00     0.010 A 
ATOM     34  C   UNL A   1      36.306  33.265  30.587  1.00  0.00    -0.014 A 
BRANCH  34  35
ATOM     35  C   UNL A   1      37.460  32.624  31.264  1.00  0.00     0.031 A 
ATOM     36  C   UNL A   1      38.192  31.491  30.600  1.00  0.00     0.074 A 
ATOM     37  C   UNL A   1      37.811  33.021  32.502  1.00  0.00     0.049 A 
ATOM     38  N   UNL A   1      39.178  30.761  31.055  1.00  0.00    -0.248 NA
ATOM     39  C   UNL A   1      37.737  31.111  29.253  1.00  0.00     0.031 C 
ATOM     40  C   UNL A   1      37.150  34.078  33.269  1.00  0.00     0.029 A 
ATOM     41  N   UNL A   1      38.803  32.574  33.338  1.00  0.00    -0.354 N 
ATOM     42  C   UNL A   1      39.452  29.831  30.061  1.00  0.00     0.074 A 
ATOM     43  C   UNL A   1      38.493  30.053  29.000  1.00  0.00     0.031 C 
ATOM     44  C   UNL A   1      37.767  34.212  34.454  1.00  0.00     0.029 A 
ATOM     45  C   UNL A   1      38.840  33.228  34.546  1.00  0.00     0.049 A 
ATOM     46  H   UNL A   1      39.428  31.853  33.097  1.00  0.00     0.167 HD
ATOM     47  C   UNL A   1      40.428  28.894  30.027  1.00  0.00     0.037 A 
ATOM     48  C   UNL A   1      39.647  33.048  35.609  1.00  0.00     0.037 A 
ATOM     49  C   UNL A   1      41.396  28.692  31.074  1.00  0.00     0.049 A 
ATOM     50  C   UNL A   1      40.718  31.993  35.548  1.00  0.00     0.074 A 
ATOM     51  C   UNL A   1      42.460  27.809  31.108  1.00  0.00     0.029 A 
ATOM     52  N   UNL A   1      41.411  29.384  32.276  1.00  0.00    -0.354 N 
ATOM     53  N   UNL A   1      41.010  31.166  34.575  1.00  0.00    -0.248 NA
ATOM     54  C   UNL A   1      41.576  31.851  36.734  1.00  0.00     0.031 C 
ATOM     55  C   UNL A   1      43.092  27.934  32.350  1.00  0.00     0.029 A 
ATOM     56  C   UNL A   1      42.453  28.931  33.069  1.00  0.00     0.049 A 
ATOM     57  H   UNL A   1      40.776  30.093  32.529  1.00  0.00     0.167 HD
ATOM     58  C   UNL A   1      42.100  30.427  35.016  1.00  0.00     0.074 A 
ATOM     59  C   UNL A   1      42.427  30.914  36.340  1.00  0.00     0.031 C 
ATOM     60  C   UNL A   1      42.769  29.432  34.383  1.00  0.00     0.037 A 
BRANCH  47  61
ATOM     61  C   UNL A   1      40.503  28.013  28.812  1.00  0.00     0.064 A 
ATOM     62  C   UNL A   1      39.800  26.801  28.738  1.00  0.00     0.173 A 
ATOM     63  C   UNL A   1      41.257  28.404  27.694  1.00  0.00     0.173 A 
ATOM     64  F   UNL A   1      39.074  26.376  29.782  1.00  0.00    -0.203 F 
ATOM     65  C   UNL A   1      39.873  25.999  27.601  1.00  0.00     0.198 A 
ATOM     66  C   UNL A   1      41.302  27.614  26.548  1.00  0.00     0.198 A 
ATOM     67  F   UNL A   1      41.942  29.557  27.710  1.00  0.00    -0.203 F 
ATOM     68  F   UNL A   1      39.234  24.820  27.573  1.00  0.00    -0.200 F 
ATOM     69  C   UNL A   1      40.617  26.408  26.506  1.00  0.00     0.200 A 
ATOM     70  F   UNL A   1      42.010  28.018  25.485  1.00  0.00    -0.200 F 
ATOM     71  F   UNL A   1      40.680  25.639  25.411  1.00  0.00    -0.200 F 
ENDBRANCH  47  61
BRANCH  48  72
ATOM     72  C   UNL A   1      39.486  33.901  36.816  1.00  0.00     0.064 A 
ATOM     73  C   UNL A   1      40.100  35.159  36.894  1.00  0.00     0.173 A 
ATOM     74  C   UNL A   1      38.723  33.479  37.914  1.00  0.00     0.173 A 
ATOM     75  F   UNL A   1      40.856  35.599  35.877  1.00  0.00    -0.203 F 
ATOM     76  C   UNL A   1      39.975  35.952  38.033  1.00  0.00     0.198 A 
ATOM     77  C   UNL A   1      38.575  34.284  39.041  1.00  0.00     0.198 A 
ATOM     78  F   UNL A   1      38.111  32.285  37.888  1.00  0.00    -0.203 F 
ATOM     79  F   UNL A   1      40.612  37.129  38.099  1.00  0.00    -0.200 F 
ATOM     80  C   UNL A   1      39.209  35.516  39.104  1.00  0.00     0.200 A 
ATOM     81  F   UNL A   1      37.822  33.866  40.067  1.00  0.00    -0.200 F 
ATOM     82  F   UNL A   1      39.087  36.280  40.197  1.00  0.00    -0.200 F 
ENDBRANCH  48  72
BRANCH  60  83
ATOM     83  C   UNL A   1      43.943  28.829  35.097  1.00  0.00     0.064 A 
ATOM     84  C   UNL A   1      45.237  29.358  34.966  1.00  0.00     0.173 A 
ATOM     85  C   UNL A   1      43.766  27.731  35.953  1.00  0.00     0.173 A 
ATOM     86  F   UNL A   1      45.460  30.397  34.147  1.00  0.00    -0.203 F 
ATOM     87  C   UNL A   1      46.312  28.795  35.646  1.00  0.00     0.198 A 
ATOM     88  C   UNL A   1      44.839  27.190  36.655  1.00  0.00     0.198 A 
ATOM     89  F   UNL A   1      42.550  27.191  36.118  1.00  0.00    -0.203 F 
ATOM     90  F   UNL A   1      47.546  29.285  35.469  1.00  0.00    -0.200 F 
ATOM     91  C   UNL A   1      46.111  27.716  36.495  1.00  0.00     0.200 A 
ATOM     92  F   UNL A   1      44.642  26.157  37.486  1.00  0.00    -0.200 F 
ATOM     93  F   UNL A   1      47.148  27.180  37.155  1.00  0.00    -0.200 F 
ENDBRANCH  60  83
ENDBRANCH  34  35
ENDBRANCH  26  29
ENDBRANCH  24  25
ENDBRANCH  23  24
ENDBRANCH  22  23
ENDBRANCH   1  22
TORSDOF 16
ENDMDL
