MODEL 1
REMARK VINA RESULT:     -12.7      0.000      0.000
REMARK SMILES CC(C)(C(=O)NCCCCCCNC(=O)c1ccc(-c2c3nc(c(-c4c(F)c(F)c(F)c(F)c4F)c4ccc([nH]4)c(-c4c(F)c(F)c(F)c(F)c4F)c4nc(c(-c5c(F)c(F)c(F)c(F)c5F)c5ccc2[nH]5)C=C4)C=C3)cc1)N1C(=O)/C(=C/c2ccc(C=O)cc2)SC1=S
REMARK SMILES IDX 9 1 8 2 7 3 6 4 4 5 5 6 2 8 1 9 3 10 79 11 80 12 93 13 81 14
REMARK SMILES IDX 82 15 92 16 94 17 83 18 84 19 85 20 91 21 86 22 90 23 87 24
REMARK SMILES IDX 88 25 89 26 10 27 11 28 12 29 13 30 14 31 15 33 16 34 17 35
REMARK SMILES IDX 78 36 18 37 77 38 19 39 20 40 21 41 71 42 22 43 76 44 70 45
REMARK SMILES IDX 72 46 23 47 75 48 69 49 68 50 24 52 56 53 36 54 55 55 37 56
REMARK SMILES IDX 40 57 54 58 73 59 38 60 39 61 53 63 74 64 41 65 25 66 26 67
REMARK SMILES IDX 34 68 27 69 28 70 32 71 35 72 29 73 30 74 33 75 31 76 57 77
REMARK SMILES IDX 58 78 66 79 59 80 60 81 64 82 67 83 61 84 62 85 65 86 63 87
REMARK SMILES IDX 42 88 43 89 51 90 44 91 45 92 49 93 52 94 46 95 47 96 50 97
REMARK SMILES IDX 48 98
REMARK H PARENT 6 7 13 32 72 51 40 62
REMARK Flexibility Score: inf
ROOT
ATOM      1  C   UNL A   1      31.862  29.784  27.202  1.00  0.00     0.002 C 
ENDROOT
BRANCH   1   2
ATOM      2  C   UNL A   1      33.296  29.247  27.252  1.00  0.00     0.021 C 
BRANCH   2   3
ATOM      3  C   UNL A   1      33.442  27.836  26.699  1.00  0.00     0.116 C 
BRANCH   3   4
ATOM      4  N   UNL A   1      33.980  27.831  25.354  1.00  0.00    -0.354 N 
ATOM      5  C   UNL A   1      33.408  27.536  24.154  1.00  0.00     0.245 C 
ATOM      6  O   UNL A   1      34.013  27.951  23.158  1.00  0.00    -0.272 OA
ATOM      7  H   UNL A   1      34.929  28.087  25.298  1.00  0.00     0.163 HD
BRANCH   5   8
ATOM      8  C   UNL A   1      32.008  26.857  24.027  1.00  0.00     0.122 C 
ATOM      9  C   UNL A   1      31.074  26.973  25.245  1.00  0.00     0.046 C 
ATOM     10  C   UNL A   1      31.382  27.598  22.812  1.00  0.00     0.046 C 
BRANCH   8  11
ATOM     11  N   UNL A   1      32.224  25.380  23.763  1.00  0.00    -0.278 N 
ATOM     12  C   UNL A   1      32.500  24.523  24.818  1.00  0.00     0.267 C 
ATOM     13  C   UNL A   1      32.449  24.820  22.507  1.00  0.00     0.149 C 
ATOM     14  O   UNL A   1      32.660  24.821  25.995  1.00  0.00    -0.268 OA
ATOM     15  C   UNL A   1      32.730  23.139  24.346  1.00  0.00     0.081 C 
ATOM     16  S   UNL A   1      32.623  23.070  22.645  1.00  0.00    -0.054 SA
ATOM     17  S   UNL A   1      32.625  25.543  21.007  1.00  0.00    -0.052 S 
ATOM     18  C   UNL A   1      33.022  22.159  25.210  1.00  0.00     0.029 C 
BRANCH  18  19
ATOM     19  C   UNL A   1      33.330  20.773  24.859  1.00  0.00    -0.024 A 
ATOM     20  C   UNL A   1      34.650  20.321  24.958  1.00  0.00     0.009 A 
ATOM     21  C   UNL A   1      32.330  19.904  24.401  1.00  0.00     0.009 A 
ATOM     22  C   UNL A   1      34.961  18.998  24.640  1.00  0.00     0.012 A 
ATOM     23  C   UNL A   1      32.636  18.580  24.089  1.00  0.00     0.012 A 
ATOM     24  C   UNL A   1      33.951  18.130  24.217  1.00  0.00     0.014 A 
BRANCH  24  25
ATOM     25  C   UNL A   1      34.263  16.722  23.906  1.00  0.00     0.260 C 
ATOM     26  O   UNL A   1      34.166  16.269  22.773  1.00  0.00    -0.298 OA
ENDBRANCH  24  25
ENDBRANCH  18  19
ENDBRANCH   8  11
ENDBRANCH   5   8
ENDBRANCH   3   4
ENDBRANCH   2   3
ENDBRANCH   1   2
BRANCH   1  27
ATOM     27  C   UNL A   1      31.594  30.817  26.100  1.00  0.00     0.002 C 
BRANCH  27  28
ATOM     28  C   UNL A   1      31.394  32.252  26.592  1.00  0.00     0.021 C 
BRANCH  28  29
ATOM     29  C   UNL A   1      32.631  32.880  27.220  1.00  0.00     0.116 C 
BRANCH  29  30
ATOM     30  N   UNL A   1      32.404  34.265  27.599  1.00  0.00    -0.352 N 
ATOM     31  C   UNL A   1      32.991  34.994  28.600  1.00  0.00     0.251 C 
ATOM     32  H   UNL A   1      31.735  34.747  27.061  1.00  0.00     0.163 HD
ATOM     33  O   UNL A   1      32.539  36.090  28.917  1.00  0.00    -0.269 OA
BRANCH  31  34
ATOM     34  C   UNL A   1      34.162  34.445  29.313  1.00  0.00     0.039 A 
ATOM     35  C   UNL A   1      33.957  33.666  30.452  1.00  0.00     0.014 A 
ATOM     36  C   UNL A   1      35.459  34.700  28.856  1.00  0.00     0.014 A 
ATOM     37  C   UNL A   1      35.051  33.096  31.104  1.00  0.00     0.010 A 
ATOM     38  C   UNL A   1      36.540  34.068  29.459  1.00  0.00     0.010 A 
ATOM     39  C   UNL A   1      36.349  33.266  30.594  1.00  0.00    -0.014 A 
BRANCH  39  40
ATOM     40  C   UNL A   1      37.521  32.626  31.244  1.00  0.00     0.031 A 
ATOM     41  C   UNL A   1      38.230  31.488  30.564  1.00  0.00     0.074 A 
ATOM     42  C   UNL A   1      37.907  33.029  32.470  1.00  0.00     0.049 A 
ATOM     43  N   UNL A   1      39.220  30.751  30.998  1.00  0.00    -0.248 NA
ATOM     44  C   UNL A   1      37.743  31.111  29.227  1.00  0.00     0.031 C 
ATOM     45  C   UNL A   1      37.273  34.094  33.249  1.00  0.00     0.029 A 
ATOM     46  N   UNL A   1      38.919  32.581  33.283  1.00  0.00    -0.354 N 
ATOM     47  C   UNL A   1      39.464  29.819  29.997  1.00  0.00     0.074 A 
ATOM     48  C   UNL A   1      38.481  30.043  28.960  1.00  0.00     0.031 C 
ATOM     49  C   UNL A   1      37.924  34.232  34.415  1.00  0.00     0.029 A 
ATOM     50  C   UNL A   1      38.991  33.238  34.487  1.00  0.00     0.049 A 
ATOM     51  H   UNL A   1      39.535  31.857  33.026  1.00  0.00     0.167 HD
ATOM     52  C   UNL A   1      40.436  28.878  29.939  1.00  0.00     0.037 A 
ATOM     53  C   UNL A   1      39.816  33.051  35.534  1.00  0.00     0.037 A 
ATOM     54  C   UNL A   1      41.425  28.672  30.964  1.00  0.00     0.049 A 
ATOM     55  C   UNL A   1      40.874  31.981  35.451  1.00  0.00     0.074 A 
ATOM     56  C   UNL A   1      42.483  27.782  30.976  1.00  0.00     0.029 A 
ATOM     57  N   UNL A   1      41.473  29.366  32.165  1.00  0.00    -0.354 N 
ATOM     58  N   UNL A   1      41.137  31.150  34.472  1.00  0.00    -0.248 NA
ATOM     59  C   UNL A   1      41.752  31.829  36.618  1.00  0.00     0.031 C 
ATOM     60  C   UNL A   1      43.137  27.895  32.207  1.00  0.00     0.029 A 
ATOM     61  C   UNL A   1      42.527  28.903  32.936  1.00  0.00     0.049 A 
ATOM     62  H   UNL A   1      40.850  30.082  32.429  1.00  0.00     0.167 HD
ATOM     63  C   UNL A   1      42.232  30.404  34.888  1.00  0.00     0.074 A 
ATOM     64  C   UNL A   1      42.591  30.890  36.204  1.00  0.00     0.031 C 
ATOM     65  C   UNL A   1      42.882  29.407  34.239  1.00  0.00     0.037 A 
BRANCH  52  66
ATOM     66  C   UNL A   1      40.479  27.994  28.724  1.00  0.00     0.064 A 
ATOM     67  C   UNL A   1      41.230  28.336  27.588  1.00  0.00     0.173 A 
ATOM     68  C   UNL A   1      39.796  26.768  28.712  1.00  0.00     0.173 A 
ATOM     69  F   UNL A   1      41.892  29.502  27.542  1.00  0.00    -0.203 F 
ATOM     70  C   UNL A   1      41.271  27.500  26.476  1.00  0.00     0.198 A 
ATOM     71  C   UNL A   1      39.869  25.917  27.611  1.00  0.00     0.198 A 
ATOM     72  F   UNL A   1      39.069  26.388  29.772  1.00  0.00    -0.203 F 
ATOM     73  F   UNL A   1      41.952  27.872  25.384  1.00  0.00    -0.200 F 
ATOM     74  C   UNL A   1      40.599  26.287  26.492  1.00  0.00     0.200 A 
ATOM     75  F   UNL A   1      39.230  24.739  27.634  1.00  0.00    -0.200 F 
ATOM     76  F   UNL A   1      40.648  25.477  25.425  1.00  0.00    -0.200 F 
ENDBRANCH  52  66
BRANCH  53  77
ATOM     77  C   UNL A   1      39.688  33.901  36.748  1.00  0.00     0.064 A 
ATOM     78  C   UNL A   1      38.886  33.504  37.827  1.00  0.00     0.173 A 
ATOM     79  C   UNL A   1      40.348  35.134  36.849  1.00  0.00     0.173 A 
ATOM     80  F   UNL A   1      38.219  32.342  37.772  1.00  0.00    -0.203 F 
ATOM     81  C   UNL A   1      38.724  34.320  38.944  1.00  0.00     0.198 A 
ATOM     82  C   UNL A   1      40.214  35.935  37.980  1.00  0.00     0.198 A 
ATOM     83  F   UNL A   1      41.134  35.560  35.848  1.00  0.00    -0.203 F 
ATOM     84  F   UNL A   1      37.904  33.941  39.935  1.00  0.00    -0.200 F 
ATOM     85  C   UNL A   1      39.392  35.533  39.022  1.00  0.00     0.200 A 
ATOM     86  F   UNL A   1      40.874  37.098  38.059  1.00  0.00    -0.200 F 
ATOM     87  F   UNL A   1      39.236  36.318  40.098  1.00  0.00    -0.200 F 
ENDBRANCH  53  77
BRANCH  65  88
ATOM     88  C   UNL A   1      44.081  28.806  34.916  1.00  0.00     0.064 A 
ATOM     89  C   UNL A   1      45.355  29.384  34.817  1.00  0.00     0.173 A 
ATOM     90  C   UNL A   1      43.940  27.659  35.713  1.00  0.00     0.173 A 
ATOM     91  F   UNL A   1      45.546  30.473  34.058  1.00  0.00    -0.203 F 
ATOM     92  C   UNL A   1      46.449  28.820  35.468  1.00  0.00     0.198 A 
ATOM     93  C   UNL A   1      45.029  27.118  36.391  1.00  0.00     0.198 A 
ATOM     94  F   UNL A   1      42.742  27.072  35.847  1.00  0.00    -0.203 F 
ATOM     95  F   UNL A   1      47.667  29.358  35.317  1.00  0.00    -0.200 F 
ATOM     96  C   UNL A   1      46.283  27.694  36.261  1.00  0.00     0.200 A 
ATOM     97  F   UNL A   1      44.863  26.041  37.170  1.00  0.00    -0.200 F 
ATOM     98  F   UNL A   1      47.335  27.159  36.895  1.00  0.00    -0.200 F 
ENDBRANCH  65  88
ENDBRANCH  39  40
ENDBRANCH  31  34
ENDBRANCH  29  30
ENDBRANCH  28  29
ENDBRANCH  27  28
ENDBRANCH   1  27
TORSDOF 16
ENDMDL
MODEL 2
REMARK VINA RESULT:     -12.5      0.430      7.145
REMARK SMILES CC(C)(C(=O)NCCCCCCNC(=O)c1ccc(-c2c3nc(c(-c4c(F)c(F)c(F)c(F)c4F)c4ccc([nH]4)c(-c4c(F)c(F)c(F)c(F)c4F)c4nc(c(-c5c(F)c(F)c(F)c(F)c5F)c5ccc2[nH]5)C=C4)C=C3)cc1)N1C(=O)/C(=C/c2ccc(C=O)cc2)SC1=S
REMARK SMILES IDX 9 1 8 2 7 3 6 4 4 5 5 6 2 8 1 9 3 10 79 11 80 12 93 13 81 14
REMARK SMILES IDX 82 15 92 16 94 17 83 18 84 19 85 20 91 21 86 22 90 23 87 24
REMARK SMILES IDX 88 25 89 26 10 27 11 28 12 29 13 30 14 31 15 33 16 34 17 35
REMARK SMILES IDX 78 36 18 37 77 38 19 39 20 40 21 41 71 42 22 43 76 44 70 45
REMARK SMILES IDX 72 46 23 47 75 48 69 49 68 50 24 52 56 53 36 54 55 55 37 56
REMARK SMILES IDX 40 57 54 58 73 59 38 60 39 61 53 63 74 64 41 65 25 66 26 67
REMARK SMILES IDX 34 68 27 69 28 70 32 71 35 72 29 73 30 74 33 75 31 76 57 77
REMARK SMILES IDX 58 78 66 79 59 80 60 81 64 82 67 83 61 84 62 85 65 86 63 87
REMARK SMILES IDX 42 88 43 89 51 90 44 91 45 92 49 93 52 94 46 95 47 96 50 97
REMARK SMILES IDX 48 98
REMARK H PARENT 6 7 13 32 72 51 40 62
REMARK Flexibility Score: inf
ROOT
ATOM      1  C   UNL A   1      31.918  29.864  27.216  1.00  0.00     0.002 C 
ENDROOT
BRANCH   1   2
ATOM      2  C   UNL A   1      33.362  29.365  27.091  1.00  0.00     0.021 C 
BRANCH   2   3
ATOM      3  C   UNL A   1      33.474  27.942  26.564  1.00  0.00     0.116 C 
BRANCH   3   4
ATOM      4  N   UNL A   1      33.986  27.903  25.209  1.00  0.00    -0.354 N 
ATOM      5  C   UNL A   1      33.395  27.561  24.031  1.00  0.00     0.245 C 
ATOM      6  O   UNL A   1      33.975  27.954  23.010  1.00  0.00    -0.272 OA
ATOM      7  H   UNL A   1      34.930  28.171  25.126  1.00  0.00     0.163 HD
BRANCH   5   8
ATOM      8  C   UNL A   1      32.004  26.858  23.952  1.00  0.00     0.122 C 
ATOM      9  C   UNL A   1      31.093  26.996  25.186  1.00  0.00     0.046 C 
ATOM     10  C   UNL A   1      31.342  27.554  22.729  1.00  0.00     0.046 C 
BRANCH   8  11
ATOM     11  N   UNL A   1      32.237  25.377  23.727  1.00  0.00    -0.278 N 
ATOM     12  C   UNL A   1      32.524  24.552  24.805  1.00  0.00     0.267 C 
ATOM     13  C   UNL A   1      32.470  24.787  22.487  1.00  0.00     0.149 C 
ATOM     14  O   UNL A   1      32.682  24.883  25.973  1.00  0.00    -0.268 OA
ATOM     15  C   UNL A   1      32.771  23.159  24.369  1.00  0.00     0.081 C 
ATOM     16  S   UNL A   1      32.664  23.044  22.670  1.00  0.00    -0.054 SA
ATOM     17  S   UNL A   1      32.636  25.472  20.968  1.00  0.00    -0.052 S 
ATOM     18  C   UNL A   1      33.075  22.205  25.259  1.00  0.00     0.029 C 
BRANCH  18  19
ATOM     19  C   UNL A   1      33.399  20.814  24.944  1.00  0.00    -0.024 A 
ATOM     20  C   UNL A   1      32.362  19.915  24.673  1.00  0.00     0.009 A 
ATOM     21  C   UNL A   1      34.727  20.365  24.939  1.00  0.00     0.009 A 
ATOM     22  C   UNL A   1      32.652  18.587  24.358  1.00  0.00     0.012 A 
ATOM     23  C   UNL A   1      35.022  19.040  24.618  1.00  0.00     0.012 A 
ATOM     24  C   UNL A   1      33.981  18.157  24.321  1.00  0.00     0.014 A 
BRANCH  24  25
ATOM     25  C   UNL A   1      34.302  16.764  23.961  1.00  0.00     0.260 C 
ATOM     26  O   UNL A   1      34.101  16.318  22.839  1.00  0.00    -0.298 OA
ENDBRANCH  24  25
ENDBRANCH  18  19
ENDBRANCH   8  11
ENDBRANCH   5   8
ENDBRANCH   3   4
ENDBRANCH   2   3
ENDBRANCH   1   2
BRANCH   1  27
ATOM     27  C   UNL A   1      31.463  30.818  26.105  1.00  0.00     0.002 C 
BRANCH  27  28
ATOM     28  C   UNL A   1      31.372  32.291  26.511  1.00  0.00     0.021 C 
BRANCH  28  29
ATOM     29  C   UNL A   1      32.635  32.843  27.157  1.00  0.00     0.116 C 
BRANCH  29  30
ATOM     30  N   UNL A   1      32.458  34.212  27.614  1.00  0.00    -0.352 N 
ATOM     31  C   UNL A   1      33.075  34.864  28.649  1.00  0.00     0.251 C 
ATOM     32  H   UNL A   1      31.802  34.745  27.108  1.00  0.00     0.163 HD
ATOM     33  O   UNL A   1      32.661  35.956  29.030  1.00  0.00    -0.269 OA
BRANCH  31  34
ATOM     34  C   UNL A   1      34.231  34.237  29.322  1.00  0.00     0.039 A 
ATOM     35  C   UNL A   1      34.005  33.397  30.412  1.00  0.00     0.014 A 
ATOM     36  C   UNL A   1      35.533  34.481  28.876  1.00  0.00     0.014 A 
ATOM     37  C   UNL A   1      35.083  32.755  31.024  1.00  0.00     0.010 A 
ATOM     38  C   UNL A   1      36.597  33.780  29.434  1.00  0.00     0.010 A 
ATOM     39  C   UNL A   1      36.384  32.917  30.519  1.00  0.00    -0.014 A 
BRANCH  39  40
ATOM     40  C   UNL A   1      37.538  32.204  31.123  1.00  0.00     0.031 A 
ATOM     41  C   UNL A   1      38.032  32.593  32.489  1.00  0.00     0.074 A 
ATOM     42  C   UNL A   1      38.177  31.250  30.418  1.00  0.00     0.049 A 
ATOM     43  N   UNL A   1      39.065  32.145  33.155  1.00  0.00    -0.248 NA
ATOM     44  C   UNL A   1      37.277  33.646  33.190  1.00  0.00     0.031 C 
ATOM     45  C   UNL A   1      37.818  30.814  29.069  1.00  0.00     0.029 A 
ATOM     46  N   UNL A   1      39.270  30.483  30.735  1.00  0.00    -0.354 N 
ATOM     47  C   UNL A   1      39.093  32.868  34.341  1.00  0.00     0.074 A 
ATOM     48  C   UNL A   1      38.009  33.824  34.280  1.00  0.00     0.031 C 
ATOM     49  C   UNL A   1      38.661  29.842  28.683  1.00  0.00     0.029 A 
ATOM     50  C   UNL A   1      39.645  29.618  29.736  1.00  0.00     0.049 A 
ATOM     51  H   UNL A   1      39.741  30.547  31.598  1.00  0.00     0.167 HD
ATOM     52  C   UNL A   1      39.930  32.729  35.396  1.00  0.00     0.037 A 
ATOM     53  C   UNL A   1      40.674  28.752  29.674  1.00  0.00     0.037 A 
ATOM     54  C   UNL A   1      40.994  31.762  35.460  1.00  0.00     0.049 A 
ATOM     55  C   UNL A   1      41.604  28.634  30.853  1.00  0.00     0.074 A 
ATOM     56  C   UNL A   1      41.863  31.505  36.505  1.00  0.00     0.029 A 
ATOM     57  N   UNL A   1      41.336  30.893  34.433  1.00  0.00    -0.354 N 
ATOM     58  N   UNL A   1      41.580  29.275  31.996  1.00  0.00    -0.248 NA
ATOM     59  C   UNL A   1      42.703  27.665  30.734  1.00  0.00     0.031 C 
ATOM     60  C   UNL A   1      42.769  30.523  36.090  1.00  0.00     0.029 A 
ATOM     61  C   UNL A   1      42.421  30.120  34.810  1.00  0.00     0.049 A 
ATOM     62  H   UNL A   1      40.874  30.836  33.565  1.00  0.00     0.167 HD
ATOM     63  C   UNL A   1      42.631  28.763  32.745  1.00  0.00     0.074 A 
ATOM     64  C   UNL A   1      43.267  27.749  31.930  1.00  0.00     0.031 C 
ATOM     65  C   UNL A   1      43.034  29.102  33.994  1.00  0.00     0.037 A 
BRANCH  52  66
ATOM     66  C   UNL A   1      39.732  33.646  36.570  1.00  0.00     0.064 A 
ATOM     67  C   UNL A   1      40.354  34.903  36.638  1.00  0.00     0.173 A 
ATOM     68  C   UNL A   1      38.874  33.283  37.619  1.00  0.00     0.173 A 
ATOM     69  F   UNL A   1      41.193  35.295  35.667  1.00  0.00    -0.203 F 
ATOM     70  C   UNL A   1      40.148  35.747  37.725  1.00  0.00     0.198 A 
ATOM     71  C   UNL A   1      38.643  34.146  38.688  1.00  0.00     0.198 A 
ATOM     72  F   UNL A   1      38.248  32.097  37.603  1.00  0.00    -0.203 F 
ATOM     73  F   UNL A   1      40.793  36.920  37.792  1.00  0.00    -0.200 F 
ATOM     74  C   UNL A   1      39.286  35.373  38.744  1.00  0.00     0.200 A 
ATOM     75  F   UNL A   1      37.797  33.788  39.665  1.00  0.00    -0.200 F 
ATOM     76  F   UNL A   1      39.080  36.192  39.785  1.00  0.00    -0.200 F 
ENDBRANCH  52  66
BRANCH  53  77
ATOM     77  C   UNL A   1      40.875  27.916  28.460  1.00  0.00     0.064 A 
ATOM     78  C   UNL A   1      41.670  28.367  27.397  1.00  0.00     0.173 A 
ATOM     79  C   UNL A   1      40.265  26.660  28.328  1.00  0.00     0.173 A 
ATOM     80  F   UNL A   1      42.260  29.569  27.465  1.00  0.00    -0.203 F 
ATOM     81  C   UNL A   1      41.821  27.610  26.237  1.00  0.00     0.198 A 
ATOM     82  C   UNL A   1      40.444  25.888  27.183  1.00  0.00     0.198 A 
ATOM     83  F   UNL A   1      39.500  26.177  29.319  1.00  0.00    -0.203 F 
ATOM     84  F   UNL A   1      42.537  28.092  25.213  1.00  0.00    -0.200 F 
ATOM     85  C   UNL A   1      41.211  26.368  26.133  1.00  0.00     0.200 A 
ATOM     86  F   UNL A   1      39.867  24.682  27.094  1.00  0.00    -0.200 F 
ATOM     87  F   UNL A   1      41.357  25.639  25.018  1.00  0.00    -0.200 F 
ENDBRANCH  53  77
BRANCH  65  88
ATOM     88  C   UNL A   1      44.185  28.336  34.582  1.00  0.00     0.064 A 
ATOM     89  C   UNL A   1      45.509  28.783  34.464  1.00  0.00     0.173 A 
ATOM     90  C   UNL A   1      43.951  27.161  35.314  1.00  0.00     0.173 A 
ATOM     91  F   UNL A   1      45.789  29.892  33.764  1.00  0.00    -0.203 F 
ATOM     92  C   UNL A   1      46.559  28.065  35.032  1.00  0.00     0.198 A 
ATOM     93  C   UNL A   1      44.999  26.466  35.910  1.00  0.00     0.198 A 
ATOM     94  F   UNL A   1      42.702  26.696  35.464  1.00  0.00    -0.203 F 
ATOM     95  F   UNL A   1      47.822  28.481  34.862  1.00  0.00    -0.200 F 
ATOM     96  C   UNL A   1      46.302  26.914  35.762  1.00  0.00     0.200 A 
ATOM     97  F   UNL A   1      44.746  25.364  36.630  1.00  0.00    -0.200 F 
ATOM     98  F   UNL A   1      47.313  26.232  36.317  1.00  0.00    -0.200 F 
ENDBRANCH  65  88
ENDBRANCH  39  40
ENDBRANCH  31  34
ENDBRANCH  29  30
ENDBRANCH  28  29
ENDBRANCH  27  28
ENDBRANCH   1  27
TORSDOF 16
ENDMDL
MODEL 3
REMARK VINA RESULT:     -12.4      5.402     11.224
REMARK SMILES CC(C)(C(=O)NCCCCCCNC(=O)c1ccc(-c2c3nc(c(-c4c(F)c(F)c(F)c(F)c4F)c4ccc([nH]4)c(-c4c(F)c(F)c(F)c(F)c4F)c4nc(c(-c5c(F)c(F)c(F)c(F)c5F)c5ccc2[nH]5)C=C4)C=C3)cc1)N1C(=O)/C(=C/c2ccc(C=O)cc2)SC1=S
REMARK SMILES IDX 9 1 8 2 7 3 6 4 4 5 5 6 2 8 1 9 3 10 79 11 80 12 93 13 81 14
REMARK SMILES IDX 82 15 92 16 94 17 83 18 84 19 85 20 91 21 86 22 90 23 87 24
REMARK SMILES IDX 88 25 89 26 10 27 11 28 12 29 13 30 14 31 15 33 16 34 17 35
REMARK SMILES IDX 78 36 18 37 77 38 19 39 20 40 21 41 71 42 22 43 76 44 70 45
REMARK SMILES IDX 72 46 23 47 75 48 69 49 68 50 24 52 56 53 36 54 55 55 37 56
REMARK SMILES IDX 40 57 54 58 73 59 38 60 39 61 53 63 74 64 41 65 25 66 26 67
REMARK SMILES IDX 34 68 27 69 28 70 32 71 35 72 29 73 30 74 33 75 31 76 57 77
REMARK SMILES IDX 58 78 66 79 59 80 60 81 64 82 67 83 61 84 62 85 65 86 63 87
REMARK SMILES IDX 42 88 43 89 51 90 44 91 45 92 49 93 52 94 46 95 47 96 50 97
REMARK SMILES IDX 48 98
REMARK H PARENT 6 7 13 32 72 51 40 62
REMARK Flexibility Score: inf
ROOT
ATOM      1  C   UNL A   1      37.073  21.914  24.159  1.00  0.00     0.002 C 
ENDROOT
BRANCH   1   2
ATOM      2  C   UNL A   1      37.162  23.217  24.961  1.00  0.00     0.021 C 
BRANCH   2   3
ATOM      3  C   UNL A   1      35.847  23.980  25.037  1.00  0.00     0.116 C 
BRANCH   3   4
ATOM      4  N   UNL A   1      35.022  23.533  26.141  1.00  0.00    -0.354 N 
ATOM      5  C   UNL A   1      33.840  22.859  26.169  1.00  0.00     0.245 C 
ATOM      6  O   UNL A   1      33.557  22.322  27.248  1.00  0.00    -0.272 OA
ATOM      7  H   UNL A   1      35.381  23.758  27.030  1.00  0.00     0.163 HD
BRANCH   5   8
ATOM      8  C   UNL A   1      32.961  22.636  24.898  1.00  0.00     0.122 C 
ATOM      9  C   UNL A   1      33.711  22.459  23.566  1.00  0.00     0.046 C 
ATOM     10  C   UNL A   1      32.190  21.331  25.246  1.00  0.00     0.046 C 
BRANCH   8  11
ATOM     11  N   UNL A   1      32.044  23.833  24.744  1.00  0.00    -0.278 N 
ATOM     12  C   UNL A   1      32.451  24.921  23.985  1.00  0.00     0.267 C 
ATOM     13  C   UNL A   1      30.918  24.081  25.527  1.00  0.00     0.149 C 
ATOM     14  O   UNL A   1      33.535  25.082  23.438  1.00  0.00    -0.268 OA
ATOM     15  C   UNL A   1      31.440  26.003  24.004  1.00  0.00     0.081 C 
ATOM     16  S   UNL A   1      30.125  25.564  24.998  1.00  0.00    -0.054 SA
ATOM     17  S   UNL A   1      30.302  23.249  26.843  1.00  0.00    -0.052 S 
ATOM     18  C   UNL A   1      31.647  27.147  23.339  1.00  0.00     0.029 C 
BRANCH  18  19
ATOM     19  C   UNL A   1      30.755  28.306  23.334  1.00  0.00    -0.024 A 
ATOM     20  C   UNL A   1      29.737  28.380  22.377  1.00  0.00     0.009 A 
ATOM     21  C   UNL A   1      30.924  29.351  24.253  1.00  0.00     0.009 A 
ATOM     22  C   UNL A   1      28.868  29.472  22.365  1.00  0.00     0.012 A 
ATOM     23  C   UNL A   1      30.053  30.441  24.248  1.00  0.00     0.012 A 
ATOM     24  C   UNL A   1      29.023  30.493  23.307  1.00  0.00     0.014 A 
BRANCH  24  25
ATOM     25  C   UNL A   1      28.093  31.637  23.322  1.00  0.00     0.260 C 
ATOM     26  O   UNL A   1      27.005  31.586  23.882  1.00  0.00    -0.298 OA
ENDBRANCH  24  25
ENDBRANCH  18  19
ENDBRANCH   8  11
ENDBRANCH   5   8
ENDBRANCH   3   4
ENDBRANCH   2   3
ENDBRANCH   1   2
BRANCH   1  27
ATOM     27  C   UNL A   1      36.877  20.647  25.001  1.00  0.00     0.002 C 
BRANCH  27  28
ATOM     28  C   UNL A   1      38.061  19.678  25.000  1.00  0.00     0.021 C 
BRANCH  28  29
ATOM     29  C   UNL A   1      39.229  20.112  25.874  1.00  0.00     0.116 C 
BRANCH  29  30
ATOM     30  N   UNL A   1      40.262  19.091  25.947  1.00  0.00    -0.352 N 
ATOM     31  C   UNL A   1      41.619  19.242  26.070  1.00  0.00     0.251 C 
ATOM     32  H   UNL A   1      39.942  18.161  25.902  1.00  0.00     0.163 HD
ATOM     33  O   UNL A   1      42.367  18.282  25.911  1.00  0.00    -0.269 OA
BRANCH  31  34
ATOM     34  C   UNL A   1      42.181  20.573  26.374  1.00  0.00     0.039 A 
ATOM     35  C   UNL A   1      42.610  21.383  25.323  1.00  0.00     0.014 A 
ATOM     36  C   UNL A   1      42.285  21.018  27.696  1.00  0.00     0.014 A 
ATOM     37  C   UNL A   1      43.093  22.665  25.591  1.00  0.00     0.010 A 
ATOM     38  C   UNL A   1      42.691  22.322  27.956  1.00  0.00     0.010 A 
ATOM     39  C   UNL A   1      43.108  23.156  26.907  1.00  0.00    -0.014 A 
BRANCH  39  40
ATOM     40  C   UNL A   1      43.570  24.535  27.209  1.00  0.00     0.031 A 
ATOM     41  C   UNL A   1      42.597  25.560  27.719  1.00  0.00     0.074 A 
ATOM     42  C   UNL A   1      44.850  24.878  26.965  1.00  0.00     0.049 A 
ATOM     43  N   UNL A   1      42.785  26.831  27.968  1.00  0.00    -0.248 NA
ATOM     44  C   UNL A   1      41.217  25.102  27.956  1.00  0.00     0.031 C 
ATOM     45  C   UNL A   1      45.878  23.984  26.432  1.00  0.00     0.029 A 
ATOM     46  N   UNL A   1      45.502  26.076  27.123  1.00  0.00    -0.354 N 
ATOM     47  C   UNL A   1      41.552  27.324  28.376  1.00  0.00     0.074 A 
ATOM     48  C   UNL A   1      40.609  26.232  28.285  1.00  0.00     0.031 C 
ATOM     49  C   UNL A   1      47.035  24.657  26.328  1.00  0.00     0.029 A 
ATOM     50  C   UNL A   1      46.822  26.039  26.745  1.00  0.00     0.049 A 
ATOM     51  H   UNL A   1      45.064  26.884  27.476  1.00  0.00     0.167 HD
ATOM     52  C   UNL A   1      41.243  28.568  28.812  1.00  0.00     0.037 A 
ATOM     53  C   UNL A   1      47.749  27.014  26.724  1.00  0.00     0.037 A 
ATOM     54  C   UNL A   1      42.191  29.645  28.920  1.00  0.00     0.049 A 
ATOM     55  C   UNL A   1      47.371  28.395  27.192  1.00  0.00     0.074 A 
ATOM     56  C   UNL A   1      41.988  30.927  29.399  1.00  0.00     0.029 A 
ATOM     57  N   UNL A   1      43.522  29.567  28.538  1.00  0.00    -0.354 N 
ATOM     58  N   UNL A   1      46.219  28.833  27.639  1.00  0.00    -0.248 NA
ATOM     59  C   UNL A   1      48.426  29.417  27.158  1.00  0.00     0.031 C 
ATOM     60  C   UNL A   1      43.181  31.642  29.254  1.00  0.00     0.029 A 
ATOM     61  C   UNL A   1      44.146  30.786  28.746  1.00  0.00     0.049 A 
ATOM     62  H   UNL A   1      43.959  28.763  28.173  1.00  0.00     0.167 HD
ATOM     63  C   UNL A   1      46.419  30.165  27.974  1.00  0.00     0.074 A 
ATOM     64  C   UNL A   1      47.808  30.462  27.690  1.00  0.00     0.031 C 
ATOM     65  C   UNL A   1      45.533  31.063  28.472  1.00  0.00     0.037 A 
BRANCH  52  66
ATOM     66  C   UNL A   1      39.816  28.834  29.203  1.00  0.00     0.064 A 
ATOM     67  C   UNL A   1      39.366  28.652  30.520  1.00  0.00     0.173 A 
ATOM     68  C   UNL A   1      38.899  29.321  28.259  1.00  0.00     0.173 A 
ATOM     69  F   UNL A   1      40.198  28.178  31.459  1.00  0.00    -0.203 F 
ATOM     70  C   UNL A   1      38.045  28.918  30.870  1.00  0.00     0.198 A 
ATOM     71  C   UNL A   1      37.587  29.620  28.622  1.00  0.00     0.198 A 
ATOM     72  F   UNL A   1      39.276  29.520  26.988  1.00  0.00    -0.203 F 
ATOM     73  F   UNL A   1      37.625  28.687  32.122  1.00  0.00    -0.200 F 
ATOM     74  C   UNL A   1      37.159  29.410  29.924  1.00  0.00     0.200 A 
ATOM     75  F   UNL A   1      36.737  30.110  27.709  1.00  0.00    -0.200 F 
ATOM     76  F   UNL A   1      35.891  29.676  30.264  1.00  0.00    -0.200 F 
ENDBRANCH  52  66
BRANCH  53  77
ATOM     77  C   UNL A   1      49.132  26.722  26.257  1.00  0.00     0.064 A 
ATOM     78  C   UNL A   1      50.095  26.203  27.133  1.00  0.00     0.173 A 
ATOM     79  C   UNL A   1      49.524  26.972  24.934  1.00  0.00     0.173 A 
ATOM     80  F   UNL A   1      49.775  25.965  28.414  1.00  0.00    -0.203 F 
ATOM     81  C   UNL A   1      51.403  25.975  26.714  1.00  0.00     0.198 A 
ATOM     82  C   UNL A   1      50.823  26.712  24.505  1.00  0.00     0.198 A 
ATOM     83  F   UNL A   1      48.640  27.462  24.051  1.00  0.00    -0.203 F 
ATOM     84  F   UNL A   1      52.318  25.535  27.589  1.00  0.00    -0.200 F 
ATOM     85  C   UNL A   1      51.765  26.225  25.398  1.00  0.00     0.200 A 
ATOM     86  F   UNL A   1      51.164  26.938  23.230  1.00  0.00    -0.200 F 
ATOM     87  F   UNL A   1      53.024  26.005  24.995  1.00  0.00    -0.200 F 
ENDBRANCH  53  77
BRANCH  65  88
ATOM     88  C   UNL A   1      46.047  32.438  28.792  1.00  0.00     0.064 A 
ATOM     89  C   UNL A   1      46.040  33.471  27.844  1.00  0.00     0.173 A 
ATOM     90  C   UNL A   1      46.511  32.735  30.084  1.00  0.00     0.173 A 
ATOM     91  F   UNL A   1      45.620  33.236  26.592  1.00  0.00    -0.203 F 
ATOM     92  C   UNL A   1      46.505  34.743  28.169  1.00  0.00     0.198 A 
ATOM     93  C   UNL A   1      46.942  34.017  30.415  1.00  0.00     0.198 A 
ATOM     94  F   UNL A   1      46.531  31.785  31.030  1.00  0.00    -0.203 F 
ATOM     95  F   UNL A   1      46.539  35.701  27.232  1.00  0.00    -0.200 F 
ATOM     96  C   UNL A   1      46.947  35.016  29.455  1.00  0.00     0.200 A 
ATOM     97  F   UNL A   1      47.351  34.282  31.663  1.00  0.00    -0.200 F 
ATOM     98  F   UNL A   1      47.383  36.244  29.768  1.00  0.00    -0.200 F 
ENDBRANCH  65  88
ENDBRANCH  39  40
ENDBRANCH  31  34
ENDBRANCH  29  30
ENDBRANCH  28  29
ENDBRANCH  27  28
ENDBRANCH   1  27
TORSDOF 16
ENDMDL
