MODEL 1
REMARK VINA RESULT:     -12.6      0.000      0.000
REMARK SMILES Cc1ccc(C)c(NC(=O)/C=C/C(=O)NCCCCCCNC(=O)c2ccc(-c3c4nc(c(-c5c(F)c(F)c(F)c(F)c5F)c5ccc([nH]5)c(-c5c(F)c(F)c(F)c(F)c5F)c5nc(c(-c6c(F)c(F)c(F)c(F)c6F)c6ccc3[nH]6)C=C5)C=C4)cc2)c1
REMARK SMILES IDX 18 1 17 2 16 3 15 4 13 5 14 6 12 8 11 9 9 10 8 11 10 13 7 14
REMARK SMILES IDX 1 15 2 16 3 17 88 18 4 19 5 20 6 21 19 22 20 23 21 24 22 25
REMARK SMILES IDX 23 26 24 28 25 29 26 30 87 31 27 32 86 33 28 34 29 35 30 36
REMARK SMILES IDX 80 37 31 38 85 39 79 40 81 41 32 42 84 43 78 44 77 45 33 47
REMARK SMILES IDX 65 48 45 49 64 50 46 51 49 52 63 53 82 54 47 55 48 56 62 58
REMARK SMILES IDX 83 59 50 60 34 61 35 62 43 63 36 64 37 65 41 66 44 67 38 68
REMARK SMILES IDX 39 69 42 70 40 71 66 72 67 73 75 74 68 75 69 76 73 77 76 78
REMARK SMILES IDX 70 79 71 80 74 81 72 82 51 83 52 84 60 85 53 86 54 87 58 88
REMARK SMILES IDX 61 89 55 90 56 91 59 92 57 93
REMARK H PARENT 15 7 8 12 22 27 81 46 49 57
REMARK Flexibility Score: inf
ROOT
ATOM      1  C   UNL A   1      34.384  24.663  24.451  1.00  0.00     0.002 C 
ENDROOT
BRANCH   1   2
ATOM      2  C   UNL A   1      34.488  23.715  23.254  1.00  0.00     0.021 C 
BRANCH   2   3
ATOM      3  C   UNL A   1      33.284  22.806  23.019  1.00  0.00     0.116 C 
BRANCH   3   4
ATOM      4  N   UNL A   1      33.257  21.667  23.913  1.00  0.00    -0.353 N 
ATOM      5  C   UNL A   1      32.252  21.224  24.716  1.00  0.00     0.244 C 
ATOM      6  O   UNL A   1      32.256  20.053  25.091  1.00  0.00    -0.270 OA
ATOM      7  H   UNL A   1      34.086  21.136  23.945  1.00  0.00     0.163 HD
BRANCH   5   8
ATOM      8  C   UNL A   1      31.174  22.121  25.183  1.00  0.00     0.077 C 
ATOM      9  C   UNL A   1      31.425  23.108  26.052  1.00  0.00     0.077 C 
BRANCH   9  10
ATOM     10  C   UNL A   1      30.352  23.800  26.771  1.00  0.00     0.248 C 
ATOM     11  N   UNL A   1      30.163  25.142  26.616  1.00  0.00    -0.322 N 
ATOM     12  H   UNL A   1      29.390  25.484  27.118  1.00  0.00     0.170 HD
ATOM     13  O   UNL A   1      29.621  23.145  27.514  1.00  0.00    -0.270 OA
BRANCH  11  14
ATOM     14  C   UNL A   1      30.843  26.145  25.888  1.00  0.00     0.044 A 
ATOM     15  C   UNL A   1      33.859  28.353  26.706  1.00  0.00     0.044 C 
ATOM     16  C   UNL A   1      32.793  27.631  25.941  1.00  0.00    -0.049 A 
ATOM     17  C   UNL A   1      32.662  27.840  24.571  1.00  0.00     0.004 A 
ATOM     18  C   UNL A   1      31.915  26.741  26.574  1.00  0.00     0.029 A 
ATOM     19  C   UNL A   1      31.552  27.335  23.902  1.00  0.00     0.006 A 
ATOM     20  C   UNL A   1      30.571  26.594  24.586  1.00  0.00    -0.027 A 
ATOM     21  C   UNL A   1      29.227  26.541  23.913  1.00  0.00     0.046 C 
ENDBRANCH  11  14
ENDBRANCH   9  10
ENDBRANCH   5   8
ENDBRANCH   3   4
ENDBRANCH   2   3
ENDBRANCH   1   2
BRANCH   1  22
ATOM     22  C   UNL A   1      35.158  24.306  25.727  1.00  0.00     0.002 C 
BRANCH  22  23
ATOM     23  C   UNL A   1      36.094  23.086  25.780  1.00  0.00     0.021 C 
BRANCH  23  24
ATOM     24  C   UNL A   1      37.595  23.257  25.553  1.00  0.00     0.116 C 
BRANCH  24  25
ATOM     25  N   UNL A   1      38.428  22.351  26.352  1.00  0.00    -0.352 N 
ATOM     26  C   UNL A   1      39.601  22.513  27.064  1.00  0.00     0.251 C 
ATOM     27  H   UNL A   1      38.076  21.432  26.388  1.00  0.00     0.163 HD
ATOM     28  O   UNL A   1      40.251  21.511  27.379  1.00  0.00    -0.269 OA
BRANCH  26  29
ATOM     29  C   UNL A   1      40.096  23.845  27.472  1.00  0.00     0.039 A 
ATOM     30  C   UNL A   1      41.401  24.086  27.907  1.00  0.00     0.014 A 
ATOM     31  C   UNL A   1      39.199  24.896  27.500  1.00  0.00     0.014 A 
ATOM     32  C   UNL A   1      41.700  25.345  28.439  1.00  0.00     0.010 A 
ATOM     33  C   UNL A   1      39.589  26.186  27.632  1.00  0.00     0.010 A 
ATOM     34  C   UNL A   1      40.746  26.369  28.338  1.00  0.00    -0.014 A 
BRANCH  34  35
ATOM     35  C   UNL A   1      40.865  27.669  28.962  1.00  0.00     0.031 A 
ATOM     36  C   UNL A   1      41.931  28.499  28.393  1.00  0.00     0.074 A 
ATOM     37  C   UNL A   1      39.926  28.220  29.767  1.00  0.00     0.049 A 
ATOM     38  N   UNL A   1      43.033  28.840  28.961  1.00  0.00    -0.248 NA
ATOM     39  C   UNL A   1      41.809  28.892  26.983  1.00  0.00     0.031 C 
ATOM     40  C   UNL A   1      38.591  27.717  30.124  1.00  0.00     0.029 A 
ATOM     41  N   UNL A   1      39.958  29.439  30.373  1.00  0.00    -0.354 N 
ATOM     42  C   UNL A   1      43.681  29.645  28.041  1.00  0.00     0.074 A 
ATOM     43  C   UNL A   1      42.979  29.498  26.790  1.00  0.00     0.031 C 
ATOM     44  C   UNL A   1      37.883  28.700  30.728  1.00  0.00     0.029 A 
ATOM     45  C   UNL A   1      38.757  29.842  30.939  1.00  0.00     0.049 A 
ATOM     46  H   UNL A   1      40.771  29.993  30.407  1.00  0.00     0.167 HD
ATOM     47  C   UNL A   1      44.596  30.563  28.443  1.00  0.00     0.037 A 
ATOM     48  C   UNL A   1      38.503  31.043  31.511  1.00  0.00     0.037 A 
ATOM     49  C   UNL A   1      45.022  30.341  29.801  1.00  0.00     0.049 A 
ATOM     50  C   UNL A   1      39.812  31.652  31.863  1.00  0.00     0.074 A 
ATOM     51  C   UNL A   1      45.609  29.280  30.465  1.00  0.00     0.029 A 
ATOM     52  N   UNL A   1      44.486  31.138  30.783  1.00  0.00    -0.354 N 
ATOM     53  N   UNL A   1      40.609  31.192  32.787  1.00  0.00    -0.248 NA
ATOM     54  C   UNL A   1      40.432  32.545  30.896  1.00  0.00     0.031 C 
ATOM     55  C   UNL A   1      44.983  29.248  31.747  1.00  0.00     0.029 A 
ATOM     56  C   UNL A   1      44.087  30.317  31.810  1.00  0.00     0.049 A 
ATOM     57  H   UNL A   1      44.403  32.118  30.758  1.00  0.00     0.167 HD
ATOM     58  C   UNL A   1      41.886  31.380  32.278  1.00  0.00     0.074 A 
ATOM     59  C   UNL A   1      41.718  32.319  31.173  1.00  0.00     0.031 C 
ATOM     60  C   UNL A   1      42.910  30.544  32.619  1.00  0.00     0.037 A 
BRANCH  47  61
ATOM     61  C   UNL A   1      44.831  31.845  27.708  1.00  0.00     0.064 A 
ATOM     62  C   UNL A   1      46.038  32.040  27.022  1.00  0.00     0.173 A 
ATOM     63  C   UNL A   1      44.009  32.983  27.860  1.00  0.00     0.173 A 
ATOM     64  F   UNL A   1      46.907  31.029  26.874  1.00  0.00    -0.203 F 
ATOM     65  C   UNL A   1      46.408  33.297  26.542  1.00  0.00     0.198 A 
ATOM     66  C   UNL A   1      44.351  34.220  27.326  1.00  0.00     0.198 A 
ATOM     67  F   UNL A   1      42.906  32.962  28.621  1.00  0.00    -0.203 F 
ATOM     68  F   UNL A   1      47.615  33.467  25.986  1.00  0.00    -0.200 F 
ATOM     69  C   UNL A   1      45.562  34.385  26.688  1.00  0.00     0.200 A 
ATOM     70  F   UNL A   1      43.529  35.265  27.501  1.00  0.00    -0.200 F 
ATOM     71  F   UNL A   1      45.934  35.599  26.264  1.00  0.00    -0.200 F 
ENDBRANCH  47  61
BRANCH  48  72
ATOM     72  C   UNL A   1      37.238  31.813  31.542  1.00  0.00     0.064 A 
ATOM     73  C   UNL A   1      36.550  32.039  32.746  1.00  0.00     0.173 A 
ATOM     74  C   UNL A   1      36.830  32.580  30.434  1.00  0.00     0.173 A 
ATOM     75  F   UNL A   1      36.900  31.376  33.857  1.00  0.00    -0.203 F 
ATOM     76  C   UNL A   1      35.538  33.000  32.843  1.00  0.00     0.198 A 
ATOM     77  C   UNL A   1      35.817  33.535  30.530  1.00  0.00     0.198 A 
ATOM     78  F   UNL A   1      37.471  32.485  29.260  1.00  0.00    -0.203 F 
ATOM     79  F   UNL A   1      34.947  33.233  34.023  1.00  0.00    -0.200 F 
ATOM     80  C   UNL A   1      35.181  33.756  31.738  1.00  0.00     0.200 A 
ATOM     81  F   UNL A   1      35.504  34.280  29.462  1.00  0.00    -0.200 F 
ATOM     82  F   UNL A   1      34.258  34.722  31.846  1.00  0.00    -0.200 F 
ENDBRANCH  48  72
BRANCH  60  83
ATOM     83  C   UNL A   1      42.688  29.618  33.784  1.00  0.00     0.064 A 
ATOM     84  C   UNL A   1      42.132  28.331  33.674  1.00  0.00     0.173 A 
ATOM     85  C   UNL A   1      43.161  30.005  35.045  1.00  0.00     0.173 A 
ATOM     86  F   UNL A   1      41.749  27.843  32.488  1.00  0.00    -0.203 F 
ATOM     87  C   UNL A   1      42.005  27.498  34.785  1.00  0.00     0.198 A 
ATOM     88  C   UNL A   1      43.068  29.156  36.146  1.00  0.00     0.198 A 
ATOM     89  F   UNL A   1      43.752  31.200  35.203  1.00  0.00    -0.203 F 
ATOM     90  F   UNL A   1      41.450  26.283  34.654  1.00  0.00    -0.200 F 
ATOM     91  C   UNL A   1      42.478  27.909  36.018  1.00  0.00     0.200 A 
ATOM     92  F   UNL A   1      43.572  29.540  37.327  1.00  0.00    -0.200 F 
ATOM     93  F   UNL A   1      42.389  27.095  37.080  1.00  0.00    -0.200 F 
ENDBRANCH  60  83
ENDBRANCH  34  35
ENDBRANCH  26  29
ENDBRANCH  24  25
ENDBRANCH  23  24
ENDBRANCH  22  23
ENDBRANCH   1  22
TORSDOF 15
ENDMDL
MODEL 2
REMARK VINA RESULT:     -12.3      1.380      1.832
REMARK SMILES Cc1ccc(C)c(NC(=O)/C=C/C(=O)NCCCCCCNC(=O)c2ccc(-c3c4nc(c(-c5c(F)c(F)c(F)c(F)c5F)c5ccc([nH]5)c(-c5c(F)c(F)c(F)c(F)c5F)c5nc(c(-c6c(F)c(F)c(F)c(F)c6F)c6ccc3[nH]6)C=C5)C=C4)cc2)c1
REMARK SMILES IDX 18 1 17 2 16 3 15 4 13 5 14 6 12 8 11 9 9 10 8 11 10 13 7 14
REMARK SMILES IDX 1 15 2 16 3 17 88 18 4 19 5 20 6 21 19 22 20 23 21 24 22 25
REMARK SMILES IDX 23 26 24 28 25 29 26 30 87 31 27 32 86 33 28 34 29 35 30 36
REMARK SMILES IDX 80 37 31 38 85 39 79 40 81 41 32 42 84 43 78 44 77 45 33 47
REMARK SMILES IDX 65 48 45 49 64 50 46 51 49 52 63 53 82 54 47 55 48 56 62 58
REMARK SMILES IDX 83 59 50 60 34 61 35 62 43 63 36 64 37 65 41 66 44 67 38 68
REMARK SMILES IDX 39 69 42 70 40 71 66 72 67 73 75 74 68 75 69 76 73 77 76 78
REMARK SMILES IDX 70 79 71 80 74 81 72 82 51 83 52 84 60 85 53 86 54 87 58 88
REMARK SMILES IDX 61 89 55 90 56 91 59 92 57 93
REMARK H PARENT 15 7 8 12 22 27 81 46 49 57
REMARK Flexibility Score: inf
ROOT
ATOM      1  C   UNL A   1      34.813  21.220  24.997  1.00  0.00     0.002 C 
ENDROOT
BRANCH   1   2
ATOM      2  C   UNL A   1      33.670  20.971  25.985  1.00  0.00     0.021 C 
BRANCH   2   3
ATOM      3  C   UNL A   1      33.788  21.680  27.331  1.00  0.00     0.116 C 
BRANCH   3   4
ATOM      4  N   UNL A   1      32.591  22.414  27.686  1.00  0.00    -0.353 N 
ATOM      5  C   UNL A   1      32.004  23.466  27.053  1.00  0.00     0.244 C 
ATOM      6  O   UNL A   1      30.815  23.701  27.256  1.00  0.00    -0.270 OA
ATOM      7  H   UNL A   1      32.135  22.108  28.504  1.00  0.00     0.163 HD
BRANCH   5   8
ATOM      8  C   UNL A   1      32.766  24.359  26.154  1.00  0.00     0.077 C 
ATOM      9  C   UNL A   1      32.328  24.633  24.919  1.00  0.00     0.077 C 
BRANCH   9  10
ATOM     10  C   UNL A   1      33.195  25.239  23.906  1.00  0.00     0.248 C 
ATOM     11  N   UNL A   1      33.496  26.569  23.954  1.00  0.00    -0.322 N 
ATOM     12  H   UNL A   1      34.117  26.851  23.245  1.00  0.00     0.170 HD
ATOM     13  O   UNL A   1      33.651  24.525  23.013  1.00  0.00    -0.270 OA
BRANCH  11  14
ATOM     14  C   UNL A   1      33.106  27.627  24.806  1.00  0.00     0.044 A 
ATOM     15  C   UNL A   1      34.844  29.376  27.733  1.00  0.00     0.044 C 
ATOM     16  C   UNL A   1      33.897  29.091  26.609  1.00  0.00    -0.049 A 
ATOM     17  C   UNL A   1      32.837  29.958  26.359  1.00  0.00     0.004 A 
ATOM     18  C   UNL A   1      34.052  27.963  25.792  1.00  0.00     0.029 A 
ATOM     19  C   UNL A   1      31.845  29.589  25.458  1.00  0.00     0.006 A 
ATOM     20  C   UNL A   1      31.911  28.361  24.773  1.00  0.00    -0.027 A 
ATOM     21  C   UNL A   1      30.598  27.857  24.240  1.00  0.00     0.046 C 
ENDBRANCH  11  14
ENDBRANCH   9  10
ENDBRANCH   5   8
ENDBRANCH   3   4
ENDBRANCH   2   3
ENDBRANCH   1   2
BRANCH   1  22
ATOM     22  C   UNL A   1      35.575  22.548  25.091  1.00  0.00     0.002 C 
BRANCH  22  23
ATOM     23  C   UNL A   1      37.099  22.612  24.893  1.00  0.00     0.021 C 
BRANCH  23  24
ATOM     24  C   UNL A   1      38.007  23.056  26.038  1.00  0.00     0.116 C 
BRANCH  24  25
ATOM     25  N   UNL A   1      39.290  22.349  26.094  1.00  0.00    -0.352 N 
ATOM     26  C   UNL A   1      40.595  22.754  26.300  1.00  0.00     0.251 C 
ATOM     27  H   UNL A   1      39.204  21.377  25.956  1.00  0.00     0.163 HD
ATOM     28  O   UNL A   1      41.514  21.993  25.981  1.00  0.00    -0.269 OA
BRANCH  26  29
ATOM     29  C   UNL A   1      40.926  24.063  26.901  1.00  0.00     0.039 A 
ATOM     30  C   UNL A   1      41.833  24.225  27.952  1.00  0.00     0.014 A 
ATOM     31  C   UNL A   1      40.243  25.179  26.456  1.00  0.00     0.014 A 
ATOM     32  C   UNL A   1      41.926  25.483  28.558  1.00  0.00     0.010 A 
ATOM     33  C   UNL A   1      40.624  26.441  26.769  1.00  0.00     0.010 A 
ATOM     34  C   UNL A   1      41.259  26.570  27.973  1.00  0.00    -0.014 A 
BRANCH  34  35
ATOM     35  C   UNL A   1      41.155  27.887  28.564  1.00  0.00     0.031 A 
ATOM     36  C   UNL A   1      42.190  28.819  28.108  1.00  0.00     0.074 A 
ATOM     37  C   UNL A   1      40.066  28.344  29.226  1.00  0.00     0.049 A 
ATOM     38  N   UNL A   1      43.166  29.291  28.799  1.00  0.00    -0.248 NA
ATOM     39  C   UNL A   1      42.210  29.170  26.682  1.00  0.00     0.031 C 
ATOM     40  C   UNL A   1      38.758  27.703  29.426  1.00  0.00     0.029 A 
ATOM     41  N   UNL A   1      39.888  29.571  29.790  1.00  0.00    -0.354 N 
ATOM     42  C   UNL A   1      43.837  30.147  27.943  1.00  0.00     0.074 A 
ATOM     43  C   UNL A   1      43.323  29.899  26.618  1.00  0.00     0.031 C 
ATOM     44  C   UNL A   1      37.876  28.612  29.903  1.00  0.00     0.029 A 
ATOM     45  C   UNL A   1      38.587  29.847  30.186  1.00  0.00     0.049 A 
ATOM     46  H   UNL A   1      40.625  30.212  29.909  1.00  0.00     0.167 HD
ATOM     47  C   UNL A   1      44.588  31.167  28.427  1.00  0.00     0.037 A 
ATOM     48  C   UNL A   1      38.133  31.023  30.682  1.00  0.00     0.037 A 
ATOM     49  C   UNL A   1      44.856  31.020  29.835  1.00  0.00     0.049 A 
ATOM     50  C   UNL A   1      39.311  31.780  31.177  1.00  0.00     0.074 A 
ATOM     51  C   UNL A   1      45.463  30.042  30.602  1.00  0.00     0.029 A 
ATOM     52  N   UNL A   1      44.114  31.770  30.715  1.00  0.00    -0.354 N 
ATOM     53  N   UNL A   1      40.028  31.429  32.209  1.00  0.00    -0.248 NA
ATOM     54  C   UNL A   1      39.952  32.719  30.267  1.00  0.00     0.031 C 
ATOM     55  C   UNL A   1      44.683  29.966  31.795  1.00  0.00     0.029 A 
ATOM     56  C   UNL A   1      43.677  30.929  31.709  1.00  0.00     0.049 A 
ATOM     57  H   UNL A   1      43.930  32.734  30.647  1.00  0.00     0.167 HD
ATOM     58  C   UNL A   1      41.332  31.749  31.859  1.00  0.00     0.074 A 
ATOM     59  C   UNL A   1      41.208  32.643  30.713  1.00  0.00     0.031 C 
ATOM     60  C   UNL A   1      42.387  31.039  32.355  1.00  0.00     0.037 A 
BRANCH  47  61
ATOM     61  C   UNL A   1      44.776  32.454  27.687  1.00  0.00     0.064 A 
ATOM     62  C   UNL A   1      45.948  32.663  26.946  1.00  0.00     0.173 A 
ATOM     63  C   UNL A   1      43.951  33.584  27.880  1.00  0.00     0.173 A 
ATOM     64  F   UNL A   1      46.819  31.661  26.755  1.00  0.00    -0.203 F 
ATOM     65  C   UNL A   1      46.283  33.925  26.454  1.00  0.00     0.198 A 
ATOM     66  C   UNL A   1      44.256  34.825  27.335  1.00  0.00     0.198 A 
ATOM     67  F   UNL A   1      42.884  33.550  28.691  1.00  0.00    -0.203 F 
ATOM     68  F   UNL A   1      47.461  34.108  25.843  1.00  0.00    -0.200 F 
ATOM     69  C   UNL A   1      45.435  35.004  26.643  1.00  0.00     0.200 A 
ATOM     70  F   UNL A   1      43.432  35.861  27.552  1.00  0.00    -0.200 F 
ATOM     71  F   UNL A   1      45.775  36.223  26.205  1.00  0.00    -0.200 F 
ENDBRANCH  47  61
BRANCH  48  72
ATOM     72  C   UNL A   1      36.799  31.649  30.528  1.00  0.00     0.064 A 
ATOM     73  C   UNL A   1      35.959  31.860  31.634  1.00  0.00     0.173 A 
ATOM     74  C   UNL A   1      36.441  32.305  29.334  1.00  0.00     0.173 A 
ATOM     75  F   UNL A   1      36.248  31.301  32.817  1.00  0.00    -0.203 F 
ATOM     76  C   UNL A   1      34.847  32.706  31.559  1.00  0.00     0.198 A 
ATOM     77  C   UNL A   1      35.329  33.144  29.259  1.00  0.00     0.198 A 
ATOM     78  F   UNL A   1      37.217  32.219  28.244  1.00  0.00    -0.203 F 
ATOM     79  F   UNL A   1      34.105  32.935  32.651  1.00  0.00    -0.200 F 
ATOM     80  C   UNL A   1      34.541  33.358  30.375  1.00  0.00     0.200 A 
ATOM     81  F   UNL A   1      35.062  33.792  28.117  1.00  0.00    -0.200 F 
ATOM     82  F   UNL A   1      33.515  34.219  30.320  1.00  0.00    -0.200 F 
ENDBRANCH  48  72
BRANCH  60  83
ATOM     83  C   UNL A   1      42.117  30.116  33.512  1.00  0.00     0.064 A 
ATOM     84  C   UNL A   1      41.736  28.768  33.375  1.00  0.00     0.173 A 
ATOM     85  C   UNL A   1      42.364  30.581  34.810  1.00  0.00     0.173 A 
ATOM     86  F   UNL A   1      41.578  28.215  32.166  1.00  0.00    -0.203 F 
ATOM     87  C   UNL A   1      41.556  27.948  34.487  1.00  0.00     0.198 A 
ATOM     88  C   UNL A   1      42.222  29.748  35.918  1.00  0.00     0.198 A 
ATOM     89  F   UNL A   1      42.786  31.841  35.003  1.00  0.00    -0.203 F 
ATOM     90  F   UNL A   1      41.170  26.673  34.327  1.00  0.00    -0.200 F 
ATOM     91  C   UNL A   1      41.805  28.437  35.758  1.00  0.00     0.200 A 
ATOM     92  F   UNL A   1      42.511  30.213  37.142  1.00  0.00    -0.200 F 
ATOM     93  F   UNL A   1      41.667  27.639  36.826  1.00  0.00    -0.200 F 
ENDBRANCH  60  83
ENDBRANCH  34  35
ENDBRANCH  26  29
ENDBRANCH  24  25
ENDBRANCH  23  24
ENDBRANCH  22  23
ENDBRANCH   1  22
TORSDOF 15
ENDMDL
MODEL 3
REMARK VINA RESULT:     -12.3      1.446      2.140
REMARK SMILES Cc1ccc(C)c(NC(=O)/C=C/C(=O)NCCCCCCNC(=O)c2ccc(-c3c4nc(c(-c5c(F)c(F)c(F)c(F)c5F)c5ccc([nH]5)c(-c5c(F)c(F)c(F)c(F)c5F)c5nc(c(-c6c(F)c(F)c(F)c(F)c6F)c6ccc3[nH]6)C=C5)C=C4)cc2)c1
REMARK SMILES IDX 18 1 17 2 16 3 15 4 13 5 14 6 12 8 11 9 9 10 8 11 10 13 7 14
REMARK SMILES IDX 1 15 2 16 3 17 88 18 4 19 5 20 6 21 19 22 20 23 21 24 22 25
REMARK SMILES IDX 23 26 24 28 25 29 26 30 87 31 27 32 86 33 28 34 29 35 30 36
REMARK SMILES IDX 80 37 31 38 85 39 79 40 81 41 32 42 84 43 78 44 77 45 33 47
REMARK SMILES IDX 65 48 45 49 64 50 46 51 49 52 63 53 82 54 47 55 48 56 62 58
REMARK SMILES IDX 83 59 50 60 34 61 35 62 43 63 36 64 37 65 41 66 44 67 38 68
REMARK SMILES IDX 39 69 42 70 40 71 66 72 67 73 75 74 68 75 69 76 73 77 76 78
REMARK SMILES IDX 70 79 71 80 74 81 72 82 51 83 52 84 60 85 53 86 54 87 58 88
REMARK SMILES IDX 61 89 55 90 56 91 59 92 57 93
REMARK H PARENT 15 7 8 12 22 27 81 46 49 57
REMARK Flexibility Score: inf
ROOT
ATOM      1  C   UNL A   1      34.744  22.737  23.520  1.00  0.00     0.002 C 
ENDROOT
BRANCH   1   2
ATOM      2  C   UNL A   1      33.368  22.182  23.145  1.00  0.00     0.021 C 
BRANCH   2   3
ATOM      3  C   UNL A   1      32.311  23.219  22.774  1.00  0.00     0.116 C 
BRANCH   3   4
ATOM      4  N   UNL A   1      32.679  24.005  21.614  1.00  0.00    -0.353 N 
ATOM      5  C   UNL A   1      32.569  25.345  21.409  1.00  0.00     0.244 C 
ATOM      6  O   UNL A   1      33.275  25.882  20.559  1.00  0.00    -0.270 OA
ATOM      7  H   UNL A   1      33.065  23.495  20.864  1.00  0.00     0.163 HD
BRANCH   5   8
ATOM      8  C   UNL A   1      31.595  26.171  22.156  1.00  0.00     0.077 C 
ATOM      9  C   UNL A   1      31.927  27.384  22.615  1.00  0.00     0.077 C 
BRANCH   9  10
ATOM     10  C   UNL A   1      31.115  28.083  23.614  1.00  0.00     0.248 C 
ATOM     11  N   UNL A   1      31.027  27.613  24.891  1.00  0.00    -0.322 N 
ATOM     12  H   UNL A   1      30.486  28.187  25.479  1.00  0.00     0.170 HD
ATOM     13  O   UNL A   1      30.518  29.106  23.280  1.00  0.00    -0.270 OA
BRANCH  11  14
ATOM     14  C   UNL A   1      31.548  26.475  25.551  1.00  0.00     0.044 A 
ATOM     15  C   UNL A   1      29.924  23.274  26.876  1.00  0.00     0.044 C 
ATOM     16  C   UNL A   1      30.953  24.254  26.401  1.00  0.00    -0.049 A 
ATOM     17  C   UNL A   1      32.303  23.922  26.458  1.00  0.00     0.004 A 
ATOM     18  C   UNL A   1      30.588  25.508  25.895  1.00  0.00     0.029 A 
ATOM     19  C   UNL A   1      33.262  24.899  26.215  1.00  0.00     0.006 A 
ATOM     20  C   UNL A   1      32.886  26.215  25.886  1.00  0.00    -0.027 A 
ATOM     21  C   UNL A   1      33.937  27.260  26.137  1.00  0.00     0.046 C 
ENDBRANCH  11  14
ENDBRANCH   9  10
ENDBRANCH   5   8
ENDBRANCH   3   4
ENDBRANCH   2   3
ENDBRANCH   1   2
BRANCH   1  22
ATOM     22  C   UNL A   1      35.508  22.067  24.669  1.00  0.00     0.002 C 
BRANCH  22  23
ATOM     23  C   UNL A   1      36.282  22.898  25.707  1.00  0.00     0.021 C 
BRANCH  23  24
ATOM     24  C   UNL A   1      37.769  23.186  25.509  1.00  0.00     0.116 C 
BRANCH  24  25
ATOM     25  N   UNL A   1      38.656  22.323  26.295  1.00  0.00    -0.352 N 
ATOM     26  C   UNL A   1      39.831  22.541  26.989  1.00  0.00     0.251 C 
ATOM     27  H   UNL A   1      38.348  21.388  26.340  1.00  0.00     0.163 HD
ATOM     28  O   UNL A   1      40.532  21.571  27.296  1.00  0.00    -0.269 OA
BRANCH  26  29
ATOM     29  C   UNL A   1      40.269  23.896  27.386  1.00  0.00     0.039 A 
ATOM     30  C   UNL A   1      41.528  24.176  27.924  1.00  0.00     0.014 A 
ATOM     31  C   UNL A   1      39.359  24.931  27.295  1.00  0.00     0.014 A 
ATOM     32  C   UNL A   1      41.761  25.459  28.430  1.00  0.00     0.010 A 
ATOM     33  C   UNL A   1      39.718  26.232  27.411  1.00  0.00     0.010 A 
ATOM     34  C   UNL A   1      40.806  26.462  28.207  1.00  0.00    -0.014 A 
BRANCH  34  35
ATOM     35  C   UNL A   1      40.851  27.786  28.788  1.00  0.00     0.031 A 
ATOM     36  C   UNL A   1      41.927  28.626  28.254  1.00  0.00     0.074 A 
ATOM     37  C   UNL A   1      39.850  28.337  29.514  1.00  0.00     0.049 A 
ATOM     38  N   UNL A   1      42.983  29.018  28.874  1.00  0.00    -0.248 NA
ATOM     39  C   UNL A   1      41.881  28.964  26.826  1.00  0.00     0.031 C 
ATOM     40  C   UNL A   1      38.509  27.810  29.807  1.00  0.00     0.029 A 
ATOM     41  N   UNL A   1      39.812  29.578  30.074  1.00  0.00    -0.354 N 
ATOM     42  C   UNL A   1      43.664  29.809  27.966  1.00  0.00     0.074 A 
ATOM     43  C   UNL A   1      43.045  29.597  26.681  1.00  0.00     0.031 C 
ATOM     44  C   UNL A   1      37.740  28.793  30.330  1.00  0.00     0.029 A 
ATOM     45  C   UNL A   1      38.568  29.965  30.551  1.00  0.00     0.049 A 
ATOM     46  H   UNL A   1      40.606  30.156  30.137  1.00  0.00     0.167 HD
ATOM     47  C   UNL A   1      44.528  30.766  28.388  1.00  0.00     0.037 A 
ATOM     48  C   UNL A   1      38.247  31.179  31.061  1.00  0.00     0.037 A 
ATOM     49  C   UNL A   1      44.876  30.606  29.777  1.00  0.00     0.049 A 
ATOM     50  C   UNL A   1      39.515  31.837  31.469  1.00  0.00     0.074 A 
ATOM     51  C   UNL A   1      45.449  29.586  30.514  1.00  0.00     0.029 A 
ATOM     52  N   UNL A   1      44.259  31.421  30.694  1.00  0.00    -0.354 N 
ATOM     53  N   UNL A   1      40.266  31.434  32.456  1.00  0.00    -0.248 NA
ATOM     54  C   UNL A   1      40.169  32.713  30.509  1.00  0.00     0.031 C 
ATOM     55  C   UNL A   1      44.746  29.583  31.756  1.00  0.00     0.029 A 
ATOM     56  C   UNL A   1      43.819  30.626  31.724  1.00  0.00     0.049 A 
ATOM     57  H   UNL A   1      44.151  32.397  30.627  1.00  0.00     0.167 HD
ATOM     58  C   UNL A   1      41.566  31.641  32.018  1.00  0.00     0.074 A 
ATOM     59  C   UNL A   1      41.441  32.535  30.872  1.00  0.00     0.031 C 
ATOM     60  C   UNL A   1      42.589  30.848  32.452  1.00  0.00     0.037 A 
BRANCH  47  61
ATOM     61  C   UNL A   1      44.773  32.028  27.621  1.00  0.00     0.064 A 
ATOM     62  C   UNL A   1      46.008  32.225  26.986  1.00  0.00     0.173 A 
ATOM     63  C   UNL A   1      43.924  33.153  27.695  1.00  0.00     0.173 A 
ATOM     64  F   UNL A   1      46.902  31.228  26.915  1.00  0.00    -0.203 F 
ATOM     65  C   UNL A   1      46.376  33.473  26.482  1.00  0.00     0.198 A 
ATOM     66  C   UNL A   1      44.267  34.378  27.135  1.00  0.00     0.198 A 
ATOM     67  F   UNL A   1      42.786  33.135  28.404  1.00  0.00    -0.203 F 
ATOM     68  F   UNL A   1      47.605  33.649  25.977  1.00  0.00    -0.200 F 
ATOM     69  C   UNL A   1      45.504  34.547  26.550  1.00  0.00     0.200 A 
ATOM     70  F   UNL A   1      43.417  35.411  27.236  1.00  0.00    -0.200 F 
ATOM     71  F   UNL A   1      45.873  35.753  26.102  1.00  0.00    -0.200 F 
ENDBRANCH  47  61
BRANCH  48  72
ATOM     72  C   UNL A   1      36.962  31.913  30.987  1.00  0.00     0.064 A 
ATOM     73  C   UNL A   1      36.118  32.022  32.105  1.00  0.00     0.173 A 
ATOM     74  C   UNL A   1      36.673  32.757  29.898  1.00  0.00     0.173 A 
ATOM     75  F   UNL A   1      36.346  31.281  33.198  1.00  0.00    -0.203 F 
ATOM     76  C   UNL A   1      35.069  32.947  32.143  1.00  0.00     0.198 A 
ATOM     77  C   UNL A   1      35.623  33.675  29.935  1.00  0.00     0.198 A 
ATOM     78  F   UNL A   1      37.462  32.773  28.814  1.00  0.00    -0.203 F 
ATOM     79  F   UNL A   1      34.324  33.069  33.251  1.00  0.00    -0.200 F 
ATOM     80  C   UNL A   1      34.831  33.781  31.064  1.00  0.00     0.200 A 
ATOM     81  F   UNL A   1      35.423  34.497  28.896  1.00  0.00    -0.200 F 
ATOM     82  F   UNL A   1      33.868  34.713  31.124  1.00  0.00    -0.200 F 
ENDBRANCH  48  72
BRANCH  60  83
ATOM     83  C   UNL A   1      42.321  29.958  33.636  1.00  0.00     0.064 A 
ATOM     84  C   UNL A   1      41.815  28.649  33.540  1.00  0.00     0.173 A 
ATOM     85  C   UNL A   1      42.697  30.407  34.908  1.00  0.00     0.173 A 
ATOM     86  F   UNL A   1      41.526  28.105  32.351  1.00  0.00    -0.203 F 
ATOM     87  C   UNL A   1      41.642  27.853  34.671  1.00  0.00     0.198 A 
ATOM     88  C   UNL A   1      42.559  29.595  36.033  1.00  0.00     0.198 A 
ATOM     89  F   UNL A   1      43.238  31.626  35.058  1.00  0.00    -0.203 F 
ATOM     90  F   UNL A   1      41.135  26.616  34.552  1.00  0.00    -0.200 F 
ATOM     91  C   UNL A   1      42.019  28.325  35.916  1.00  0.00     0.200 A 
ATOM     92  F   UNL A   1      42.971  30.040  37.229  1.00  0.00    -0.200 F 
ATOM     93  F   UNL A   1      41.887  27.548  37.000  1.00  0.00    -0.200 F 
ENDBRANCH  60  83
ENDBRANCH  34  35
ENDBRANCH  26  29
ENDBRANCH  24  25
ENDBRANCH  23  24
ENDBRANCH  22  23
ENDBRANCH   1  22
TORSDOF 15
ENDMDL
