MODEL 1
REMARK VINA RESULT:     -11.0      0.000      0.000
REMARK SMILES Nc1ccccc1N1CC(C(=O)NCCCCCCNC(=O)c2ccc(-c3c4nc(c(-c5c(F)c(F)c(F)c(F)c5F)c5ccc([nH]5)c(-c5c(F)c(F)c(F)c(F)c5F)c5nc(c(-c6c(F)c(F)c(F)c(F)c6F)c6ccc3[nH]6)C=C5)C=C4)cc2)C1
REMARK SMILES IDX 16 1 15 2 14 3 13 4 11 5 12 6 10 8 8 9 9 10 86 11 7 12 2 13
REMARK SMILES IDX 3 14 4 15 6 16 5 17 1 18 17 21 18 22 19 23 20 24 21 25 22 27
REMARK SMILES IDX 23 28 24 29 85 30 25 31 84 32 26 33 27 34 28 35 78 36 29 37
REMARK SMILES IDX 83 38 77 39 79 40 30 41 82 42 76 43 75 44 31 46 63 47 43 48
REMARK SMILES IDX 62 49 44 50 47 51 61 52 80 53 45 54 46 55 60 57 81 58 48 59
REMARK SMILES IDX 32 60 33 61 41 62 34 63 35 64 39 65 42 66 36 67 37 68 40 69
REMARK SMILES IDX 38 70 64 71 65 72 73 73 66 74 67 75 71 76 74 77 68 78 69 79
REMARK SMILES IDX 72 80 70 81 49 82 50 83 58 84 51 85 52 86 56 87 59 88 53 89
REMARK SMILES IDX 54 90 57 91 55 92
REMARK H PARENT 13 7 1 19 1 20 20 26 79 45 47 56
REMARK Flexibility Score: inf
ROOT
ATOM      1  C   UNL A   1      33.952  22.581  23.038  1.00  0.00     0.002 C 
ENDROOT
BRANCH   1   2
ATOM      2  C   UNL A   1      32.687  22.782  23.884  1.00  0.00     0.021 C 
BRANCH   2   3
ATOM      3  C   UNL A   1      31.710  23.819  23.329  1.00  0.00     0.116 C 
BRANCH   3   4
ATOM      4  N   UNL A   1      32.268  24.504  22.180  1.00  0.00    -0.356 N 
ATOM      5  C   UNL A   1      33.030  25.640  22.086  1.00  0.00     0.226 C 
ATOM      6  O   UNL A   1      33.321  25.990  20.931  1.00  0.00    -0.275 OA
ATOM      7  H   UNL A   1      32.064  24.079  21.316  1.00  0.00     0.163 HD
BRANCH   5   8
ATOM      8  C   UNL A   1      33.522  26.419  23.303  1.00  0.00     0.117 C 
ATOM      9  N   UNL A   1      32.887  28.049  24.420  1.00  0.00    -0.368 N 
ATOM     10  C   UNL A   1      32.588  26.649  24.485  1.00  0.00     0.132 C 
ATOM     11  C   UNL A   1      33.757  27.924  23.280  1.00  0.00     0.132 C 
BRANCH   9  12
ATOM     12  C   UNL A   1      33.109  28.952  25.489  1.00  0.00     0.060 A 
ATOM     13  C   UNL A   1      32.206  30.020  25.706  1.00  0.00     0.055 A 
ATOM     14  C   UNL A   1      32.466  30.949  26.719  1.00  0.00     0.027 A 
ATOM     15  C   UNL A   1      33.570  30.795  27.559  1.00  0.00     0.002 A 
ATOM     16  C   UNL A   1      34.208  28.807  26.347  1.00  0.00     0.028 A 
ATOM     17  C   UNL A   1      34.438  29.722  27.376  1.00  0.00     0.002 A 
BRANCH  13  18
ATOM     18  N   UNL A   1      31.120  30.222  24.848  1.00  0.00    -0.397 N 
ATOM     19  H   UNL A   1      30.380  29.573  24.831  1.00  0.00     0.156 HD
ATOM     20  H   UNL A   1      31.095  31.012  24.263  1.00  0.00     0.156 HD
ENDBRANCH  13  18
ENDBRANCH   9  12
ENDBRANCH   5   8
ENDBRANCH   3   4
ENDBRANCH   2   3
ENDBRANCH   1   2
BRANCH   1  21
ATOM     21  C   UNL A   1      35.249  23.117  23.656  1.00  0.00     0.002 C 
BRANCH  21  22
ATOM     22  C   UNL A   1      35.208  23.351  25.169  1.00  0.00     0.021 C 
BRANCH  22  23
ATOM     23  C   UNL A   1      36.513  23.849  25.781  1.00  0.00     0.116 C 
BRANCH  23  24
ATOM     24  N   UNL A   1      37.525  22.811  25.861  1.00  0.00    -0.352 N 
ATOM     25  C   UNL A   1      38.829  22.894  26.279  1.00  0.00     0.251 C 
ATOM     26  H   UNL A   1      37.234  21.916  25.571  1.00  0.00     0.163 HD
ATOM     27  O   UNL A   1      39.584  21.934  26.131  1.00  0.00    -0.269 OA
BRANCH  25  28
ATOM     28  C   UNL A   1      39.346  24.141  26.885  1.00  0.00     0.039 A 
ATOM     29  C   UNL A   1      40.017  25.054  26.068  1.00  0.00     0.014 A 
ATOM     30  C   UNL A   1      39.194  24.406  28.249  1.00  0.00     0.014 A 
ATOM     31  C   UNL A   1      40.487  26.255  26.606  1.00  0.00     0.010 A 
ATOM     32  C   UNL A   1      39.603  25.633  28.771  1.00  0.00     0.010 A 
ATOM     33  C   UNL A   1      40.257  26.568  27.955  1.00  0.00    -0.014 A 
BRANCH  33  34
ATOM     34  C   UNL A   1      40.693  27.872  28.518  1.00  0.00     0.031 A 
ATOM     35  C   UNL A   1      42.139  28.114  28.850  1.00  0.00     0.074 A 
ATOM     36  C   UNL A   1      39.775  28.826  28.769  1.00  0.00     0.049 A 
ATOM     37  N   UNL A   1      42.703  29.177  29.370  1.00  0.00    -0.248 NA
ATOM     38  C   UNL A   1      43.074  27.008  28.588  1.00  0.00     0.031 C 
ATOM     39  C   UNL A   1      38.335  28.694  28.542  1.00  0.00     0.029 A 
ATOM     40  N   UNL A   1      39.916  30.094  29.277  1.00  0.00    -0.354 N 
ATOM     41  C   UNL A   1      44.050  28.864  29.503  1.00  0.00     0.074 A 
ATOM     42  C   UNL A   1      44.211  27.496  29.061  1.00  0.00     0.031 C 
ATOM     43  C   UNL A   1      37.730  29.843  28.882  1.00  0.00     0.029 A 
ATOM     44  C   UNL A   1      38.732  30.780  29.378  1.00  0.00     0.049 A 
ATOM     45  H   UNL A   1      40.784  30.474  29.542  1.00  0.00     0.167 HD
ATOM     46  C   UNL A   1      45.063  29.655  29.932  1.00  0.00     0.037 A 
ATOM     47  C   UNL A   1      38.483  32.029  29.820  1.00  0.00     0.037 A 
ATOM     48  C   UNL A   1      44.905  31.025  30.349  1.00  0.00     0.049 A 
ATOM     49  C   UNL A   1      39.630  32.889  30.274  1.00  0.00     0.074 A 
ATOM     50  C   UNL A   1      45.878  31.921  30.757  1.00  0.00     0.029 A 
ATOM     51  N   UNL A   1      43.693  31.695  30.410  1.00  0.00    -0.354 N 
ATOM     52  N   UNL A   1      40.907  32.604  30.332  1.00  0.00    -0.248 NA
ATOM     53  C   UNL A   1      39.299  34.253  30.712  1.00  0.00     0.031 C 
ATOM     54  C   UNL A   1      45.250  33.124  31.098  1.00  0.00     0.029 A 
ATOM     55  C   UNL A   1      43.892  32.992  30.858  1.00  0.00     0.049 A 
ATOM     56  H   UNL A   1      42.821  31.309  30.169  1.00  0.00     0.167 HD
ATOM     57  C   UNL A   1      41.536  33.758  30.782  1.00  0.00     0.074 A 
ATOM     58  C   UNL A   1      40.500  34.754  30.964  1.00  0.00     0.031 C 
ATOM     59  C   UNL A   1      42.853  33.974  31.022  1.00  0.00     0.037 A 
BRANCH  46  60
ATOM     60  C   UNL A   1      46.442  29.062  29.960  1.00  0.00     0.064 A 
ATOM     61  C   UNL A   1      46.943  28.424  31.104  1.00  0.00     0.173 A 
ATOM     62  C   UNL A   1      47.254  29.089  28.817  1.00  0.00     0.173 A 
ATOM     63  F   UNL A   1      46.210  28.381  32.228  1.00  0.00    -0.203 F 
ATOM     64  C   UNL A   1      48.215  27.857  31.112  1.00  0.00     0.198 A 
ATOM     65  C   UNL A   1      48.515  28.496  28.818  1.00  0.00     0.198 A 
ATOM     66  F   UNL A   1      46.823  29.682  27.693  1.00  0.00    -0.203 F 
ATOM     67  F   UNL A   1      48.689  27.292  32.231  1.00  0.00    -0.200 F 
ATOM     68  C   UNL A   1      48.996  27.888  29.967  1.00  0.00     0.200 A 
ATOM     69  F   UNL A   1      49.264  28.516  27.707  1.00  0.00    -0.200 F 
ATOM     70  F   UNL A   1      50.216  27.333  29.972  1.00  0.00    -0.200 F 
ENDBRANCH  46  60
BRANCH  47  71
ATOM     71  C   UNL A   1      37.094  32.556  29.819  1.00  0.00     0.064 A 
ATOM     72  C   UNL A   1      36.589  33.250  28.709  1.00  0.00     0.173 A 
ATOM     73  C   UNL A   1      36.250  32.393  30.926  1.00  0.00     0.173 A 
ATOM     74  F   UNL A   1      37.366  33.448  27.634  1.00  0.00    -0.203 F 
ATOM     75  C   UNL A   1      35.304  33.786  28.720  1.00  0.00     0.198 A 
ATOM     76  C   UNL A   1      34.954  32.906  30.924  1.00  0.00     0.198 A 
ATOM     77  F   UNL A   1      36.683  31.732  32.010  1.00  0.00    -0.203 F 
ATOM     78  F   UNL A   1      34.867  34.491  27.667  1.00  0.00    -0.200 F 
ATOM     79  C   UNL A   1      34.485  33.610  29.825  1.00  0.00     0.200 A 
ATOM     80  F   UNL A   1      34.161  32.721  31.988  1.00  0.00    -0.200 F 
ATOM     81  F   UNL A   1      33.249  34.126  29.835  1.00  0.00    -0.200 F 
ENDBRANCH  47  71
BRANCH  59  82
ATOM     82  C   UNL A   1      43.249  35.352  31.466  1.00  0.00     0.064 A 
ATOM     83  C   UNL A   1      43.641  36.339  30.549  1.00  0.00     0.173 A 
ATOM     84  C   UNL A   1      43.217  35.694  32.826  1.00  0.00     0.173 A 
ATOM     85  F   UNL A   1      43.703  36.055  29.238  1.00  0.00    -0.203 F 
ATOM     86  C   UNL A   1      44.022  37.606  30.981  1.00  0.00     0.198 A 
ATOM     87  C   UNL A   1      43.568  36.972  33.252  1.00  0.00     0.198 A 
ATOM     88  F   UNL A   1      42.841  34.790  33.743  1.00  0.00    -0.203 F 
ATOM     89  F   UNL A   1      44.448  38.515  30.093  1.00  0.00    -0.200 F 
ATOM     90  C   UNL A   1      43.980  37.924  32.331  1.00  0.00     0.200 A 
ATOM     91  F   UNL A   1      43.515  37.281  34.555  1.00  0.00    -0.200 F 
ATOM     92  F   UNL A   1      44.346  39.144  32.745  1.00  0.00    -0.200 F 
ENDBRANCH  59  82
ENDBRANCH  33  34
ENDBRANCH  25  28
ENDBRANCH  23  24
ENDBRANCH  22  23
ENDBRANCH  21  22
ENDBRANCH   1  21
TORSDOF 15
ENDMDL
MODEL 2
REMARK VINA RESULT:     -10.9      3.337      6.032
REMARK SMILES Nc1ccccc1N1CC(C(=O)NCCCCCCNC(=O)c2ccc(-c3c4nc(c(-c5c(F)c(F)c(F)c(F)c5F)c5ccc([nH]5)c(-c5c(F)c(F)c(F)c(F)c5F)c5nc(c(-c6c(F)c(F)c(F)c(F)c6F)c6ccc3[nH]6)C=C5)C=C4)cc2)C1
REMARK SMILES IDX 16 1 15 2 14 3 13 4 11 5 12 6 10 8 8 9 9 10 86 11 7 12 2 13
REMARK SMILES IDX 3 14 4 15 6 16 5 17 1 18 17 21 18 22 19 23 20 24 21 25 22 27
REMARK SMILES IDX 23 28 24 29 85 30 25 31 84 32 26 33 27 34 28 35 78 36 29 37
REMARK SMILES IDX 83 38 77 39 79 40 30 41 82 42 76 43 75 44 31 46 63 47 43 48
REMARK SMILES IDX 62 49 44 50 47 51 61 52 80 53 45 54 46 55 60 57 81 58 48 59
REMARK SMILES IDX 32 60 33 61 41 62 34 63 35 64 39 65 42 66 36 67 37 68 40 69
REMARK SMILES IDX 38 70 64 71 65 72 73 73 66 74 67 75 71 76 74 77 68 78 69 79
REMARK SMILES IDX 72 80 70 81 49 82 50 83 58 84 51 85 52 86 56 87 59 88 53 89
REMARK SMILES IDX 54 90 57 91 55 92
REMARK H PARENT 13 7 1 19 1 20 20 26 79 45 47 56
REMARK Flexibility Score: inf
ROOT
ATOM      1  C   UNL A   1      43.246  24.066  27.442  1.00  0.00     0.002 C 
ENDROOT
BRANCH   1   2
ATOM      2  C   UNL A   1      44.744  24.310  27.673  1.00  0.00     0.021 C 
BRANCH   2   3
ATOM      3  C   UNL A   1      45.245  25.676  27.204  1.00  0.00     0.116 C 
BRANCH   3   4
ATOM      4  N   UNL A   1      44.438  26.185  26.113  1.00  0.00    -0.356 N 
ATOM      5  C   UNL A   1      43.908  27.429  25.882  1.00  0.00     0.226 C 
ATOM      6  O   UNL A   1      43.222  27.530  24.853  1.00  0.00    -0.275 OA
ATOM      7  H   UNL A   1      44.235  25.521  25.415  1.00  0.00     0.163 HD
BRANCH   5   8
ATOM      8  C   UNL A   1      44.157  28.624  26.798  1.00  0.00     0.117 C 
ATOM      9  N   UNL A   1      44.230  30.690  26.610  1.00  0.00    -0.368 N 
ATOM     10  C   UNL A   1      43.155  29.771  26.838  1.00  0.00     0.132 C 
ATOM     11  C   UNL A   1      45.236  29.664  26.522  1.00  0.00     0.132 C 
BRANCH   9  12
ATOM     12  C   UNL A   1      44.444  31.959  27.204  1.00  0.00     0.060 A 
ATOM     13  C   UNL A   1      44.509  33.114  26.388  1.00  0.00     0.055 A 
ATOM     14  C   UNL A   1      44.789  34.355  26.971  1.00  0.00     0.027 A 
ATOM     15  C   UNL A   1      44.939  34.474  28.354  1.00  0.00     0.002 A 
ATOM     16  C   UNL A   1      44.588  32.097  28.591  1.00  0.00     0.028 A 
ATOM     17  C   UNL A   1      44.834  33.347  29.164  1.00  0.00     0.002 A 
BRANCH  13  18
ATOM     18  N   UNL A   1      44.410  33.013  24.997  1.00  0.00    -0.397 N 
ATOM     19  H   UNL A   1      44.657  32.172  24.547  1.00  0.00     0.156 HD
ATOM     20  H   UNL A   1      44.093  33.779  24.469  1.00  0.00     0.156 HD
ENDBRANCH  13  18
ENDBRANCH   9  12
ENDBRANCH   5   8
ENDBRANCH   3   4
ENDBRANCH   2   3
ENDBRANCH   1   2
BRANCH   1  21
ATOM     21  C   UNL A   1      42.560  23.161  28.471  1.00  0.00     0.002 C 
BRANCH  21  22
ATOM     22  C   UNL A   1      41.512  22.198  27.905  1.00  0.00     0.021 C 
BRANCH  22  23
ATOM     23  C   UNL A   1      41.372  22.215  26.386  1.00  0.00     0.116 C 
BRANCH  23  24
ATOM     24  N   UNL A   1      39.987  22.244  25.952  1.00  0.00    -0.352 N 
ATOM     25  C   UNL A   1      39.008  23.168  26.216  1.00  0.00     0.251 C 
ATOM     26  H   UNL A   1      39.707  21.488  25.386  1.00  0.00     0.163 HD
ATOM     27  O   UNL A   1      37.845  22.943  25.885  1.00  0.00    -0.269 OA
BRANCH  25  28
ATOM     28  C   UNL A   1      39.335  24.427  26.922  1.00  0.00     0.039 A 
ATOM     29  C   UNL A   1      38.916  24.580  28.247  1.00  0.00     0.014 A 
ATOM     30  C   UNL A   1      40.028  25.461  26.287  1.00  0.00     0.014 A 
ATOM     31  C   UNL A   1      39.238  25.743  28.949  1.00  0.00     0.010 A 
ATOM     32  C   UNL A   1      40.406  26.592  27.008  1.00  0.00     0.010 A 
ATOM     33  C   UNL A   1      40.012  26.746  28.345  1.00  0.00    -0.014 A 
BRANCH  33  34
ATOM     34  C   UNL A   1      40.417  27.956  29.107  1.00  0.00     0.031 A 
ATOM     35  C   UNL A   1      41.794  28.058  29.702  1.00  0.00     0.074 A 
ATOM     36  C   UNL A   1      39.526  28.949  29.297  1.00  0.00     0.049 A 
ATOM     37  N   UNL A   1      42.317  29.023  30.418  1.00  0.00    -0.248 NA
ATOM     38  C   UNL A   1      42.695  26.914  29.489  1.00  0.00     0.031 C 
ATOM     39  C   UNL A   1      38.144  28.947  28.816  1.00  0.00     0.029 A 
ATOM     40  N   UNL A   1      39.648  30.150  29.950  1.00  0.00    -0.354 N 
ATOM     41  C   UNL A   1      43.600  28.600  30.744  1.00  0.00     0.074 A 
ATOM     42  C   UNL A   1      43.757  27.270  30.196  1.00  0.00     0.031 C 
ATOM     43  C   UNL A   1      37.555  30.102  29.166  1.00  0.00     0.029 A 
ATOM     44  C   UNL A   1      38.506  30.911  29.920  1.00  0.00     0.049 A 
ATOM     45  H   UNL A   1      40.477  30.438  30.397  1.00  0.00     0.167 HD
ATOM     46  C   UNL A   1      44.566  29.269  31.418  1.00  0.00     0.037 A 
ATOM     47  C   UNL A   1      38.256  32.128  30.440  1.00  0.00     0.037 A 
ATOM     48  C   UNL A   1      44.416  30.602  31.943  1.00  0.00     0.049 A 
ATOM     49  C   UNL A   1      39.353  32.855  31.169  1.00  0.00     0.074 A 
ATOM     50  C   UNL A   1      45.352  31.382  32.600  1.00  0.00     0.029 A 
ATOM     51  N   UNL A   1      43.252  31.353  31.866  1.00  0.00    -0.354 N 
ATOM     52  N   UNL A   1      40.581  32.471  31.413  1.00  0.00    -0.248 NA
ATOM     53  C   UNL A   1      39.029  34.194  31.684  1.00  0.00     0.031 C 
ATOM     54  C   UNL A   1      44.744  32.592  32.953  1.00  0.00     0.029 A 
ATOM     55  C   UNL A   1      43.444  32.585  32.474  1.00  0.00     0.049 A 
ATOM     56  H   UNL A   1      42.416  31.057  31.442  1.00  0.00     0.167 HD
ATOM     57  C   UNL A   1      41.186  33.529  32.080  1.00  0.00     0.074 A 
ATOM     58  C   UNL A   1      40.194  34.578  32.186  1.00  0.00     0.031 C 
ATOM     59  C   UNL A   1      42.451  33.623  32.561  1.00  0.00     0.037 A 
BRANCH  46  60
ATOM     60  C   UNL A   1      45.881  28.575  31.617  1.00  0.00     0.064 A 
ATOM     61  C   UNL A   1      46.926  28.702  30.689  1.00  0.00     0.173 A 
ATOM     62  C   UNL A   1      46.119  27.811  32.770  1.00  0.00     0.173 A 
ATOM     63  F   UNL A   1      46.746  29.412  29.565  1.00  0.00    -0.203 F 
ATOM     64  C   UNL A   1      48.151  28.072  30.896  1.00  0.00     0.198 A 
ATOM     65  C   UNL A   1      47.355  27.205  32.988  1.00  0.00     0.198 A 
ATOM     66  F   UNL A   1      45.157  27.660  33.693  1.00  0.00    -0.203 F 
ATOM     67  F   UNL A   1      49.118  28.173  29.974  1.00  0.00    -0.200 F 
ATOM     68  C   UNL A   1      48.366  27.331  32.047  1.00  0.00     0.200 A 
ATOM     69  F   UNL A   1      47.566  26.500  34.107  1.00  0.00    -0.200 F 
ATOM     70  F   UNL A   1      49.548  26.734  32.249  1.00  0.00    -0.200 F 
ENDBRANCH  46  60
BRANCH  47  71
ATOM     71  C   UNL A   1      36.921  32.756  30.259  1.00  0.00     0.064 A 
ATOM     72  C   UNL A   1      35.962  32.713  31.282  1.00  0.00     0.173 A 
ATOM     73  C   UNL A   1      36.570  33.392  29.061  1.00  0.00     0.173 A 
ATOM     74  F   UNL A   1      36.246  32.097  32.439  1.00  0.00    -0.203 F 
ATOM     75  C   UNL A   1      34.694  33.259  31.102  1.00  0.00     0.198 A 
ATOM     76  C   UNL A   1      35.309  33.963  28.893  1.00  0.00     0.198 A 
ATOM     77  F   UNL A   1      37.452  33.465  28.054  1.00  0.00    -0.203 F 
ATOM     78  F   UNL A   1      33.779  33.157  32.077  1.00  0.00    -0.200 F 
ATOM     79  C   UNL A   1      34.369  33.887  29.909  1.00  0.00     0.200 A 
ATOM     80  F   UNL A   1      35.004  34.582  27.744  1.00  0.00    -0.200 F 
ATOM     81  F   UNL A   1      33.148  34.411  29.737  1.00  0.00    -0.200 F 
ENDBRANCH  47  71
BRANCH  59  82
ATOM     82  C   UNL A   1      42.841  34.920  33.206  1.00  0.00     0.064 A 
ATOM     83  C   UNL A   1      42.698  35.131  34.586  1.00  0.00     0.173 A 
ATOM     84  C   UNL A   1      43.385  35.959  32.436  1.00  0.00     0.173 A 
ATOM     85  F   UNL A   1      42.169  34.173  35.363  1.00  0.00    -0.203 F 
ATOM     86  C   UNL A   1      43.050  36.348  35.164  1.00  0.00     0.198 A 
ATOM     87  C   UNL A   1      43.764  37.162  33.022  1.00  0.00     0.198 A 
ATOM     88  F   UNL A   1      43.550  35.806  31.113  1.00  0.00    -0.203 F 
ATOM     89  F   UNL A   1      42.850  36.546  36.474  1.00  0.00    -0.200 F 
ATOM     90  C   UNL A   1      43.588  37.360  34.383  1.00  0.00     0.200 A 
ATOM     91  F   UNL A   1      44.295  38.136  32.268  1.00  0.00    -0.200 F 
ATOM     92  F   UNL A   1      43.926  38.530  34.942  1.00  0.00    -0.200 F 
ENDBRANCH  59  82
ENDBRANCH  33  34
ENDBRANCH  25  28
ENDBRANCH  23  24
ENDBRANCH  22  23
ENDBRANCH  21  22
ENDBRANCH   1  21
TORSDOF 15
ENDMDL
MODEL 3
REMARK VINA RESULT:     -10.9      4.063      9.299
REMARK SMILES Nc1ccccc1N1CC(C(=O)NCCCCCCNC(=O)c2ccc(-c3c4nc(c(-c5c(F)c(F)c(F)c(F)c5F)c5ccc([nH]5)c(-c5c(F)c(F)c(F)c(F)c5F)c5nc(c(-c6c(F)c(F)c(F)c(F)c6F)c6ccc3[nH]6)C=C5)C=C4)cc2)C1
REMARK SMILES IDX 16 1 15 2 14 3 13 4 11 5 12 6 10 8 8 9 9 10 86 11 7 12 2 13
REMARK SMILES IDX 3 14 4 15 6 16 5 17 1 18 17 21 18 22 19 23 20 24 21 25 22 27
REMARK SMILES IDX 23 28 24 29 85 30 25 31 84 32 26 33 27 34 28 35 78 36 29 37
REMARK SMILES IDX 83 38 77 39 79 40 30 41 82 42 76 43 75 44 31 46 63 47 43 48
REMARK SMILES IDX 62 49 44 50 47 51 61 52 80 53 45 54 46 55 60 57 81 58 48 59
REMARK SMILES IDX 32 60 33 61 41 62 34 63 35 64 39 65 42 66 36 67 37 68 40 69
REMARK SMILES IDX 38 70 64 71 65 72 73 73 66 74 67 75 71 76 74 77 68 78 69 79
REMARK SMILES IDX 72 80 70 81 49 82 50 83 58 84 51 85 52 86 56 87 59 88 53 89
REMARK SMILES IDX 54 90 57 91 55 92
REMARK H PARENT 13 7 1 19 1 20 20 26 79 45 47 56
REMARK Flexibility Score: inf
ROOT
ATOM      1  C   UNL A   1      33.894  27.459  23.184  1.00  0.00     0.002 C 
ENDROOT
BRANCH   1   2
ATOM      2  C   UNL A   1      33.108  26.394  23.961  1.00  0.00     0.021 C 
BRANCH   2   3
ATOM      3  C   UNL A   1      33.877  25.755  25.118  1.00  0.00     0.116 C 
BRANCH   3   4
ATOM      4  N   UNL A   1      32.979  25.321  26.169  1.00  0.00    -0.356 N 
ATOM      5  C   UNL A   1      32.210  24.193  26.294  1.00  0.00     0.226 C 
ATOM      6  O   UNL A   1      31.512  24.138  27.319  1.00  0.00    -0.275 OA
ATOM      7  H   UNL A   1      32.910  25.946  26.926  1.00  0.00     0.163 HD
BRANCH   5   8
ATOM      8  C   UNL A   1      32.219  23.060  25.272  1.00  0.00     0.117 C 
ATOM      9  N   UNL A   1      32.415  20.994  25.298  1.00  0.00    -0.368 N 
ATOM     10  C   UNL A   1      31.290  21.866  25.454  1.00  0.00     0.132 C 
ATOM     11  C   UNL A   1      33.367  22.064  25.154  1.00  0.00     0.132 C 
BRANCH   9  12
ATOM     12  C   UNL A   1      32.489  19.769  24.589  1.00  0.00     0.060 A 
ATOM     13  C   UNL A   1      32.700  18.560  25.294  1.00  0.00     0.055 A 
ATOM     14  C   UNL A   1      32.840  17.363  24.583  1.00  0.00     0.027 A 
ATOM     15  C   UNL A   1      32.709  17.341  23.194  1.00  0.00     0.002 A 
ATOM     16  C   UNL A   1      32.350  19.728  23.195  1.00  0.00     0.028 A 
ATOM     17  C   UNL A   1      32.459  18.521  22.501  1.00  0.00     0.002 A 
BRANCH  13  18
ATOM     18  N   UNL A   1      32.882  18.564  26.680  1.00  0.00    -0.397 N 
ATOM     19  H   UNL A   1      33.528  17.946  27.093  1.00  0.00     0.156 HD
ATOM     20  H   UNL A   1      32.367  19.186  27.243  1.00  0.00     0.156 HD
ENDBRANCH  13  18
ENDBRANCH   9  12
ENDBRANCH   5   8
ENDBRANCH   3   4
ENDBRANCH   2   3
ENDBRANCH   1   2
BRANCH   1  21
ATOM     21  C   UNL A   1      33.355  28.889  23.298  1.00  0.00     0.002 C 
BRANCH  21  22
ATOM     22  C   UNL A   1      32.464  29.160  24.514  1.00  0.00     0.021 C 
BRANCH  22  23
ATOM     23  C   UNL A   1      33.208  29.536  25.791  1.00  0.00     0.116 C 
BRANCH  23  24
ATOM     24  N   UNL A   1      32.883  30.872  26.256  1.00  0.00    -0.352 N 
ATOM     25  C   UNL A   1      33.486  31.629  27.228  1.00  0.00     0.251 C 
ATOM     26  H   UNL A   1      32.115  31.298  25.809  1.00  0.00     0.163 HD
ATOM     27  O   UNL A   1      32.971  32.686  27.592  1.00  0.00    -0.269 OA
BRANCH  25  28
ATOM     28  C   UNL A   1      34.740  31.171  27.866  1.00  0.00     0.039 A 
ATOM     29  C   UNL A   1      35.803  32.072  27.975  1.00  0.00     0.014 A 
ATOM     30  C   UNL A   1      34.884  29.863  28.335  1.00  0.00     0.014 A 
ATOM     31  C   UNL A   1      36.988  31.678  28.601  1.00  0.00     0.010 A 
ATOM     32  C   UNL A   1      36.041  29.491  29.019  1.00  0.00     0.010 A 
ATOM     33  C   UNL A   1      37.105  30.394  29.156  1.00  0.00    -0.014 A 
BRANCH  33  34
ATOM     34  C   UNL A   1      38.336  29.989  29.883  1.00  0.00     0.031 A 
ATOM     35  C   UNL A   1      38.607  30.505  31.270  1.00  0.00     0.074 A 
ATOM     36  C   UNL A   1      39.233  29.188  29.276  1.00  0.00     0.049 A 
ATOM     37  N   UNL A   1      39.637  30.282  32.049  1.00  0.00    -0.248 NA
ATOM     38  C   UNL A   1      37.603  31.411  31.848  1.00  0.00     0.031 C 
ATOM     39  C   UNL A   1      39.111  28.665  27.914  1.00  0.00     0.029 A 
ATOM     40  N   UNL A   1      40.426  28.677  29.723  1.00  0.00    -0.354 N 
ATOM     41  C   UNL A   1      39.407  31.024  33.201  1.00  0.00     0.074 A 
ATOM     42  C   UNL A   1      38.169  31.745  32.999  1.00  0.00     0.031 C 
ATOM     43  C   UNL A   1      40.172  27.885  27.647  1.00  0.00     0.029 A 
ATOM     44  C   UNL A   1      41.061  27.878  28.804  1.00  0.00     0.049 A 
ATOM     45  H   UNL A   1      40.791  28.865  30.617  1.00  0.00     0.167 HD
ATOM     46  C   UNL A   1      40.148  31.079  34.334  1.00  0.00     0.037 A 
ATOM     47  C   UNL A   1      42.228  27.211  28.888  1.00  0.00     0.037 A 
ATOM     48  C   UNL A   1      41.368  30.341  34.544  1.00  0.00     0.049 A 
ATOM     49  C   UNL A   1      43.022  27.277  30.164  1.00  0.00     0.074 A 
ATOM     50  C   UNL A   1      42.165  30.296  35.674  1.00  0.00     0.029 A 
ATOM     51  N   UNL A   1      41.964  29.519  33.600  1.00  0.00    -0.354 N 
ATOM     52  N   UNL A   1      42.760  27.929  31.270  1.00  0.00    -0.248 NA
ATOM     53  C   UNL A   1      44.269  26.501  30.206  1.00  0.00     0.031 C 
ATOM     54  C   UNL A   1      43.264  29.473  35.403  1.00  0.00     0.029 A 
ATOM     55  C   UNL A   1      43.126  28.968  34.119  1.00  0.00     0.049 A 
ATOM     56  H   UNL A   1      41.614  29.349  32.697  1.00  0.00     0.167 HD
ATOM     57  C   UNL A   1      43.789  27.619  32.149  1.00  0.00     0.074 A 
ATOM     58  C   UNL A   1      44.671  26.705  31.453  1.00  0.00     0.031 C 
ATOM     59  C   UNL A   1      43.986  28.051  33.419  1.00  0.00     0.037 A 
BRANCH  46  60
ATOM     60  C   UNL A   1      39.654  31.958  35.445  1.00  0.00     0.064 A 
ATOM     61  C   UNL A   1      40.075  33.290  35.569  1.00  0.00     0.173 A 
ATOM     62  C   UNL A   1      38.713  31.480  36.370  1.00  0.00     0.173 A 
ATOM     63  F   UNL A   1      40.983  33.792  34.718  1.00  0.00    -0.203 F 
ATOM     64  C   UNL A   1      39.592  34.104  36.591  1.00  0.00     0.198 A 
ATOM     65  C   UNL A   1      38.209  32.305  37.373  1.00  0.00     0.198 A 
ATOM     66  F   UNL A   1      38.271  30.215  36.294  1.00  0.00    -0.203 F 
ATOM     67  F   UNL A   1      40.043  35.361  36.715  1.00  0.00    -0.200 F 
ATOM     68  C   UNL A   1      38.655  33.613  37.486  1.00  0.00     0.200 A 
ATOM     69  F   UNL A   1      37.294  31.833  38.231  1.00  0.00    -0.200 F 
ATOM     70  F   UNL A   1      38.184  34.401  38.463  1.00  0.00    -0.200 F 
ENDBRANCH  46  60
BRANCH  47  71
ATOM     71  C   UNL A   1      42.701  26.391  27.742  1.00  0.00     0.064 A 
ATOM     72  C   UNL A   1      43.608  26.916  26.809  1.00  0.00     0.173 A 
ATOM     73  C   UNL A   1      42.248  25.080  27.546  1.00  0.00     0.173 A 
ATOM     74  F   UNL A   1      44.055  28.174  26.945  1.00  0.00    -0.203 F 
ATOM     75  C   UNL A   1      44.021  26.169  25.709  1.00  0.00     0.198 A 
ATOM     76  C   UNL A   1      42.683  24.324  26.459  1.00  0.00     0.198 A 
ATOM     77  F   UNL A   1      41.384  24.530  28.412  1.00  0.00    -0.203 F 
ATOM     78  F   UNL A   1      44.846  26.714  24.804  1.00  0.00    -0.200 F 
ATOM     79  C   UNL A   1      43.562  24.872  25.536  1.00  0.00     0.200 A 
ATOM     80  F   UNL A   1      42.248  23.066  26.303  1.00  0.00    -0.200 F 
ATOM     81  F   UNL A   1      43.958  24.155  24.477  1.00  0.00    -0.200 F 
ENDBRANCH  47  71
BRANCH  59  82
ATOM     82  C   UNL A   1      45.179  27.506  34.149  1.00  0.00     0.064 A 
ATOM     83  C   UNL A   1      46.424  28.151  34.113  1.00  0.00     0.173 A 
ATOM     84  C   UNL A   1      45.068  26.333  34.910  1.00  0.00     0.173 A 
ATOM     85  F   UNL A   1      46.585  29.268  33.386  1.00  0.00    -0.203 F 
ATOM     86  C   UNL A   1      47.524  27.621  34.782  1.00  0.00     0.198 A 
ATOM     87  C   UNL A   1      46.161  25.823  35.603  1.00  0.00     0.198 A 
ATOM     88  F   UNL A   1      43.897  25.682  34.984  1.00  0.00    -0.203 F 
ATOM     89  F   UNL A   1      48.718  28.222  34.687  1.00  0.00    -0.200 F 
ATOM     90  C   UNL A   1      47.390  26.461  35.531  1.00  0.00     0.200 A 
ATOM     91  F   UNL A   1      46.028  24.709  36.337  1.00  0.00    -0.200 F 
ATOM     92  F   UNL A   1      48.450  25.952  36.176  1.00  0.00    -0.200 F 
ENDBRANCH  59  82
ENDBRANCH  33  34
ENDBRANCH  25  28
ENDBRANCH  23  24
ENDBRANCH  22  23
ENDBRANCH  21  22
ENDBRANCH   1  21
TORSDOF 15
ENDMDL
