MODEL 1
REMARK VINA RESULT:     -13.5      0.000      0.000
REMARK SMILES CCN1C[C@]2(C(=O)NCCCCCCNC(=O)c3ccc(-c4c5nc(c(-c6c(F)c(F)c(F)c(F)c6F)c6ccc([nH]6)c(-c6c(F)c(F)c(F)c(F)c6F)c6nc(c(-c7c(F)c(F)c(F)c(F)c7F)c7ccc4[nH]7)C=C6)C=C5)cc3)CN(c3ccc(-c4ccccc4)nn3)C[C@H]2C1=O
REMARK SMILES IDX 11 1 10 2 9 3 8 4 6 5 7 6 5 8 3 9 4 10 97 11 96 12 98 13
REMARK SMILES IDX 81 14 95 15 82 16 2 17 1 18 83 19 84 20 94 21 85 22 93 23
REMARK SMILES IDX 86 24 87 25 88 26 92 27 89 28 91 29 90 30 12 31 13 32 14 33
REMARK SMILES IDX 15 34 16 35 17 37 18 38 19 39 80 40 20 41 79 42 21 43 22 44
REMARK SMILES IDX 23 45 73 46 24 47 78 48 72 49 74 50 25 51 77 52 71 53 70 54
REMARK SMILES IDX 26 56 58 57 38 58 57 59 39 60 42 61 56 62 75 63 40 64 41 65
REMARK SMILES IDX 55 67 76 68 43 69 27 70 28 71 36 72 29 73 30 74 34 75 37 76
REMARK SMILES IDX 31 77 32 78 35 79 33 80 59 81 60 82 68 83 61 84 62 85 66 86
REMARK SMILES IDX 69 87 63 88 64 89 67 90 65 91 44 92 45 93 53 94 46 95 47 96
REMARK SMILES IDX 51 97 54 98 48 99 49 100 52 101 50 102
REMARK H PARENT 8 7 15 36 74 55 42 66
REMARK Flexibility Score: inf
ROOT
ATOM      1  C   UNL A   1      32.137  29.417  26.900  1.00  0.00     0.002 C 
ENDROOT
BRANCH   1   2
ATOM      2  C   UNL A   1      31.500  28.024  26.931  1.00  0.00     0.021 C 
BRANCH   2   3
ATOM      3  C   UNL A   1      32.403  26.933  26.354  1.00  0.00     0.116 C 
BRANCH   3   4
ATOM      4  N   UNL A   1      32.180  25.701  27.081  1.00  0.00    -0.355 N 
ATOM      5  C   UNL A   1      31.792  24.513  26.524  1.00  0.00     0.230 C 
ATOM      6  O   UNL A   1      31.144  23.722  27.209  1.00  0.00    -0.274 OA
ATOM      7  H   UNL A   1      32.317  25.721  28.056  1.00  0.00     0.163 HD
BRANCH   5   8
ATOM      8  C   UNL A   1      32.263  24.247  25.092  1.00  0.00     0.097 C 
ATOM      9  N   UNL A   1      34.255  22.900  24.877  1.00  0.00    -0.341 N 
ATOM     10  C   UNL A   1      33.041  22.965  25.669  1.00  0.00     0.139 C 
ATOM     11  C   UNL A   1      34.019  23.412  23.625  1.00  0.00     0.228 C 
ATOM     12  C   UNL A   1      32.563  23.725  23.661  1.00  0.00     0.117 C 
ATOM     13  O   UNL A   1      34.780  23.528  22.689  1.00  0.00    -0.274 OA
ATOM     14  C   UNL A   1      30.748  24.529  24.597  1.00  0.00     0.137 C 
ATOM     15  C   UNL A   1      32.164  24.805  22.693  1.00  0.00     0.133 C 
ATOM     16  N   UNL A   1      30.959  25.266  23.335  1.00  0.00    -0.353 N 
BRANCH   9  17
ATOM     17  C   UNL A   1      35.533  22.405  25.358  1.00  0.00     0.116 C 
ATOM     18  C   UNL A   1      36.477  23.530  25.751  1.00  0.00     0.027 C 
ENDBRANCH   9  17
BRANCH  16  19
ATOM     19  C   UNL A   1      30.387  26.487  23.092  1.00  0.00     0.151 A 
ATOM     20  C   UNL A   1      29.246  26.915  23.760  1.00  0.00     0.051 A 
ATOM     21  N   UNL A   1      30.902  27.292  22.150  1.00  0.00    -0.132 NA
ATOM     22  C   UNL A   1      28.669  28.158  23.481  1.00  0.00     0.035 A 
ATOM     23  N   UNL A   1      30.365  28.556  21.903  1.00  0.00    -0.148 NA
ATOM     24  C   UNL A   1      29.274  28.999  22.562  1.00  0.00     0.093 A 
BRANCH  24  25
ATOM     25  C   UNL A   1      28.809  30.369  22.248  1.00  0.00     0.002 A 
ATOM     26  C   UNL A   1      28.294  30.676  20.973  1.00  0.00     0.010 A 
ATOM     27  C   UNL A   1      28.893  31.432  23.171  1.00  0.00     0.010 A 
ATOM     28  C   UNL A   1      27.893  31.972  20.632  1.00  0.00     0.001 A 
ATOM     29  C   UNL A   1      28.492  32.732  22.833  1.00  0.00     0.001 A 
ATOM     30  C   UNL A   1      27.996  33.001  21.562  1.00  0.00     0.000 A 
ENDBRANCH  24  25
ENDBRANCH  16  19
ENDBRANCH   5   8
ENDBRANCH   3   4
ENDBRANCH   2   3
ENDBRANCH   1   2
BRANCH   1  31
ATOM     31  C   UNL A   1      31.487  30.378  25.900  1.00  0.00     0.002 C 
BRANCH  31  32
ATOM     32  C   UNL A   1      31.330  31.812  26.413  1.00  0.00     0.021 C 
BRANCH  32  33
ATOM     33  C   UNL A   1      32.586  32.372  27.072  1.00  0.00     0.116 C 
BRANCH  33  34
ATOM     34  N   UNL A   1      32.427  33.780  27.396  1.00  0.00    -0.352 N 
ATOM     35  C   UNL A   1      33.022  34.509  28.391  1.00  0.00     0.251 C 
ATOM     36  H   UNL A   1      31.805  34.280  26.818  1.00  0.00     0.163 HD
ATOM     37  O   UNL A   1      32.574  35.602  28.716  1.00  0.00    -0.269 OA
BRANCH  35  38
ATOM     38  C   UNL A   1      34.210  33.961  29.077  1.00  0.00     0.039 A 
ATOM     39  C   UNL A   1      34.034  32.992  30.065  1.00  0.00     0.014 A 
ATOM     40  C   UNL A   1      35.490  34.426  28.759  1.00  0.00     0.014 A 
ATOM     41  C   UNL A   1      35.150  32.458  30.710  1.00  0.00     0.010 A 
ATOM     42  C   UNL A   1      36.604  33.835  29.343  1.00  0.00     0.010 A 
ATOM     43  C   UNL A   1      36.445  32.858  30.337  1.00  0.00    -0.014 A 
BRANCH  43  44
ATOM     44  C   UNL A   1      37.643  32.288  31.001  1.00  0.00     0.031 A 
ATOM     45  C   UNL A   1      38.434  31.207  30.319  1.00  0.00     0.074 A 
ATOM     46  C   UNL A   1      37.990  32.711  32.231  1.00  0.00     0.049 A 
ATOM     47  N   UNL A   1      39.474  30.540  30.754  1.00  0.00    -0.248 NA
ATOM     48  C   UNL A   1      37.982  30.801  28.977  1.00  0.00     0.031 C 
ATOM     49  C   UNL A   1      37.280  33.729  33.007  1.00  0.00     0.029 A 
ATOM     50  N   UNL A   1      39.025  32.332  33.049  1.00  0.00    -0.354 N 
ATOM     51  C   UNL A   1      39.792  29.637  29.748  1.00  0.00     0.074 A 
ATOM     52  C   UNL A   1      38.798  29.793  28.709  1.00  0.00     0.031 C 
ATOM     53  C   UNL A   1      37.916  33.913  34.175  1.00  0.00     0.029 A 
ATOM     54  C   UNL A   1      39.049  32.996  34.250  1.00  0.00     0.049 A 
ATOM     55  H   UNL A   1      39.688  31.648  32.797  1.00  0.00     0.167 HD
ATOM     56  C   UNL A   1      40.834  28.777  29.684  1.00  0.00     0.037 A 
ATOM     57  C   UNL A   1      39.887  32.871  35.297  1.00  0.00     0.037 A 
ATOM     58  C   UNL A   1      41.830  28.637  30.714  1.00  0.00     0.049 A 
ATOM     59  C   UNL A   1      41.019  31.882  35.214  1.00  0.00     0.074 A 
ATOM     60  C   UNL A   1      42.948  27.823  30.731  1.00  0.00     0.029 A 
ATOM     61  N   UNL A   1      41.823  29.331  31.917  1.00  0.00    -0.354 N 
ATOM     62  N   UNL A   1      41.345  31.075  34.232  1.00  0.00    -0.248 NA
ATOM     63  C   UNL A   1      41.905  31.792  36.382  1.00  0.00     0.031 C 
ATOM     64  C   UNL A   1      43.584  27.979  31.965  1.00  0.00     0.029 A 
ATOM     65  C   UNL A   1      42.904  28.942  32.693  1.00  0.00     0.049 A 
ATOM     66  H   UNL A   1      41.150  29.998  32.180  1.00  0.00     0.167 HD
ATOM     67  C   UNL A   1      42.493  30.413  34.648  1.00  0.00     0.074 A 
ATOM     68  C   UNL A   1      42.813  30.921  35.965  1.00  0.00     0.031 C 
ATOM     69  C   UNL A   1      43.218  29.470  33.996  1.00  0.00     0.037 A 
BRANCH  56  70
ATOM     70  C   UNL A   1      40.951  27.914  28.459  1.00  0.00     0.064 A 
ATOM     71  C   UNL A   1      40.302  26.672  28.366  1.00  0.00     0.173 A 
ATOM     72  C   UNL A   1      41.695  28.347  27.351  1.00  0.00     0.173 A 
ATOM     73  F   UNL A   1      39.589  26.204  29.400  1.00  0.00    -0.203 F 
ATOM     74  C   UNL A   1      40.422  25.884  27.225  1.00  0.00     0.198 A 
ATOM     75  C   UNL A   1      41.782  27.572  26.197  1.00  0.00     0.198 A 
ATOM     76  F   UNL A   1      42.332  29.527  27.383  1.00  0.00    -0.203 F 
ATOM     77  F   UNL A   1      39.840  24.677  27.182  1.00  0.00    -0.200 F 
ATOM     78  C   UNL A   1      41.153  26.337  26.138  1.00  0.00     0.200 A 
ATOM     79  F   UNL A   1      42.477  28.020  25.142  1.00  0.00    -0.200 F 
ATOM     80  F   UNL A   1      41.260  25.582  25.037  1.00  0.00    -0.200 F 
ENDBRANCH  56  70
BRANCH  57  81
ATOM     81  C   UNL A   1      39.703  33.717  36.506  1.00  0.00     0.064 A 
ATOM     82  C   UNL A   1      38.901  33.286  37.574  1.00  0.00     0.173 A 
ATOM     83  C   UNL A   1      40.307  34.979  36.615  1.00  0.00     0.173 A 
ATOM     84  F   UNL A   1      38.287  32.096  37.510  1.00  0.00    -0.203 F 
ATOM     85  C   UNL A   1      38.687  34.096  38.687  1.00  0.00     0.198 A 
ATOM     86  C   UNL A   1      40.120  35.773  37.744  1.00  0.00     0.198 A 
ATOM     87  F   UNL A   1      41.090  35.436  35.627  1.00  0.00    -0.203 F 
ATOM     88  F   UNL A   1      37.871  33.682  39.666  1.00  0.00    -0.200 F 
ATOM     89  C   UNL A   1      39.301  35.337  38.774  1.00  0.00     0.200 A 
ATOM     90  F   UNL A   1      40.730  36.963  37.831  1.00  0.00    -0.200 F 
ATOM     91  F   UNL A   1      39.096  36.115  39.845  1.00  0.00    -0.200 F 
ENDBRANCH  57  81
BRANCH  69  92
ATOM     92  C   UNL A   1      44.463  28.968  34.671  1.00  0.00     0.064 A 
ATOM     93  C   UNL A   1      45.704  29.600  34.507  1.00  0.00     0.173 A 
ATOM     94  C   UNL A   1      44.401  27.857  35.528  1.00  0.00     0.173 A 
ATOM     95  F   UNL A   1      45.821  30.657  33.688  1.00  0.00    -0.203 F 
ATOM     96  C   UNL A   1      46.843  29.119  35.149  1.00  0.00     0.198 A 
ATOM     97  C   UNL A   1      45.534  27.403  36.197  1.00  0.00     0.198 A 
ATOM     98  F   UNL A   1      43.238  27.221  35.728  1.00  0.00    -0.203 F 
ATOM     99  F   UNL A   1      48.029  29.704  34.931  1.00  0.00    -0.200 F 
ATOM    100  C   UNL A   1      46.755  28.028  35.999  1.00  0.00     0.200 A 
ATOM    101  F   UNL A   1      45.442  26.359  37.032  1.00  0.00    -0.200 F 
ATOM    102  F   UNL A   1      47.850  27.571  36.623  1.00  0.00    -0.200 F 
ENDBRANCH  69  92
ENDBRANCH  43  44
ENDBRANCH  35  38
ENDBRANCH  33  34
ENDBRANCH  32  33
ENDBRANCH  31  32
ENDBRANCH   1  31
TORSDOF 16
ENDMDL
MODEL 2
REMARK VINA RESULT:     -13.4      3.854      8.473
REMARK SMILES CCN1C[C@]2(C(=O)NCCCCCCNC(=O)c3ccc(-c4c5nc(c(-c6c(F)c(F)c(F)c(F)c6F)c6ccc([nH]6)c(-c6c(F)c(F)c(F)c(F)c6F)c6nc(c(-c7c(F)c(F)c(F)c(F)c7F)c7ccc4[nH]7)C=C6)C=C5)cc3)CN(c3ccc(-c4ccccc4)nn3)C[C@H]2C1=O
REMARK SMILES IDX 11 1 10 2 9 3 8 4 6 5 7 6 5 8 3 9 4 10 97 11 96 12 98 13
REMARK SMILES IDX 81 14 95 15 82 16 2 17 1 18 83 19 84 20 94 21 85 22 93 23
REMARK SMILES IDX 86 24 87 25 88 26 92 27 89 28 91 29 90 30 12 31 13 32 14 33
REMARK SMILES IDX 15 34 16 35 17 37 18 38 19 39 80 40 20 41 79 42 21 43 22 44
REMARK SMILES IDX 23 45 73 46 24 47 78 48 72 49 74 50 25 51 77 52 71 53 70 54
REMARK SMILES IDX 26 56 58 57 38 58 57 59 39 60 42 61 56 62 75 63 40 64 41 65
REMARK SMILES IDX 55 67 76 68 43 69 27 70 28 71 36 72 29 73 30 74 34 75 37 76
REMARK SMILES IDX 31 77 32 78 35 79 33 80 59 81 60 82 68 83 61 84 62 85 66 86
REMARK SMILES IDX 69 87 63 88 64 89 67 90 65 91 44 92 45 93 53 94 46 95 47 96
REMARK SMILES IDX 51 97 54 98 48 99 49 100 52 101 50 102
REMARK H PARENT 8 7 15 36 74 55 42 66
REMARK Flexibility Score: inf
ROOT
ATOM      1  C   UNL A   1      34.405  25.357  25.063  1.00  0.00     0.002 C 
ENDROOT
BRANCH   1   2
ATOM      2  C   UNL A   1      34.017  26.511  24.133  1.00  0.00     0.021 C 
BRANCH   2   3
ATOM      3  C   UNL A   1      33.557  26.046  22.750  1.00  0.00     0.116 C 
BRANCH   3   4
ATOM      4  N   UNL A   1      32.579  26.981  22.238  1.00  0.00    -0.355 N 
ATOM      5  C   UNL A   1      31.304  27.133  22.715  1.00  0.00     0.230 C 
ATOM      6  O   UNL A   1      30.427  27.521  21.943  1.00  0.00    -0.274 OA
ATOM      7  H   UNL A   1      32.851  27.553  21.484  1.00  0.00     0.163 HD
BRANCH   5   8
ATOM      8  C   UNL A   1      31.100  26.861  24.206  1.00  0.00     0.097 C 
ATOM      9  N   UNL A   1      31.260  28.786  25.655  1.00  0.00    -0.341 N 
ATOM     10  C   UNL A   1      30.722  28.416  24.358  1.00  0.00     0.139 C 
ATOM     11  C   UNL A   1      31.247  27.696  26.490  1.00  0.00     0.228 C 
ATOM     12  C   UNL A   1      30.594  26.646  25.659  1.00  0.00     0.117 C 
ATOM     13  O   UNL A   1      31.612  27.609  27.642  1.00  0.00    -0.274 OA
ATOM     14  C   UNL A   1      30.278  25.527  23.796  1.00  0.00     0.137 C 
ATOM     15  C   UNL A   1      30.971  25.248  26.066  1.00  0.00     0.133 C 
ATOM     16  N   UNL A   1      30.711  24.561  24.826  1.00  0.00    -0.353 N 
BRANCH   9  17
ATOM     17  C   UNL A   1      31.770  30.103  25.995  1.00  0.00     0.116 C 
ATOM     18  C   UNL A   1      33.289  30.161  25.952  1.00  0.00     0.027 C 
ENDBRANCH   9  17
BRANCH  16  19
ATOM     19  C   UNL A   1      31.236  23.336  24.510  1.00  0.00     0.151 A 
ATOM     20  C   UNL A   1      31.661  23.023  23.224  1.00  0.00     0.051 A 
ATOM     21  N   UNL A   1      31.309  22.377  25.446  1.00  0.00    -0.132 NA
ATOM     22  C   UNL A   1      32.177  21.758  22.921  1.00  0.00     0.035 A 
ATOM     23  N   UNL A   1      31.872  21.131  25.166  1.00  0.00    -0.148 NA
ATOM     24  C   UNL A   1      32.315  20.820  23.930  1.00  0.00     0.093 A 
BRANCH  24  25
ATOM     25  C   UNL A   1      32.927  19.483  23.752  1.00  0.00     0.002 A 
ATOM     26  C   UNL A   1      32.398  18.573  22.816  1.00  0.00     0.010 A 
ATOM     27  C   UNL A   1      34.021  19.038  24.522  1.00  0.00     0.010 A 
ATOM     28  C   UNL A   1      32.925  17.286  22.661  1.00  0.00     0.001 A 
ATOM     29  C   UNL A   1      34.552  17.750  24.369  1.00  0.00     0.001 A 
ATOM     30  C   UNL A   1      34.000  16.874  23.441  1.00  0.00     0.000 A 
ENDBRANCH  24  25
ENDBRANCH  16  19
ENDBRANCH   5   8
ENDBRANCH   3   4
ENDBRANCH   2   3
ENDBRANCH   1   2
BRANCH   1  31
ATOM     31  C   UNL A   1      34.866  24.093  24.329  1.00  0.00     0.002 C 
BRANCH  31  32
ATOM     32  C   UNL A   1      35.515  23.041  25.232  1.00  0.00     0.021 C 
BRANCH  32  33
ATOM     33  C   UNL A   1      36.679  23.573  26.062  1.00  0.00     0.116 C 
BRANCH  33  34
ATOM     34  N   UNL A   1      37.772  22.616  26.109  1.00  0.00    -0.352 N 
ATOM     35  C   UNL A   1      39.105  22.840  26.325  1.00  0.00     0.251 C 
ATOM     36  H   UNL A   1      37.518  21.675  25.965  1.00  0.00     0.163 HD
ATOM     37  O   UNL A   1      39.934  21.981  26.050  1.00  0.00    -0.269 OA
BRANCH  35  38
ATOM     38  C   UNL A   1      39.539  24.135  26.889  1.00  0.00     0.039 A 
ATOM     39  C   UNL A   1      40.136  25.074  26.048  1.00  0.00     0.014 A 
ATOM     40  C   UNL A   1      39.376  24.404  28.252  1.00  0.00     0.014 A 
ATOM     41  C   UNL A   1      40.537  26.305  26.567  1.00  0.00     0.010 A 
ATOM     42  C   UNL A   1      39.700  25.662  28.750  1.00  0.00     0.010 A 
ATOM     43  C   UNL A   1      40.301  26.618  27.917  1.00  0.00    -0.014 A 
BRANCH  43  44
ATOM     44  C   UNL A   1      40.706  27.928  28.482  1.00  0.00     0.031 A 
ATOM     45  C   UNL A   1      42.145  28.174  28.845  1.00  0.00     0.074 A 
ATOM     46  C   UNL A   1      39.777  28.875  28.708  1.00  0.00     0.049 A 
ATOM     47  N   UNL A   1      42.690  29.226  29.403  1.00  0.00    -0.248 NA
ATOM     48  C   UNL A   1      43.094  27.083  28.568  1.00  0.00     0.031 C 
ATOM     49  C   UNL A   1      38.346  28.739  28.429  1.00  0.00     0.029 A 
ATOM     50  N   UNL A   1      39.894  30.137  29.232  1.00  0.00    -0.354 N 
ATOM     51  C   UNL A   1      44.037  28.919  29.549  1.00  0.00     0.074 A 
ATOM     52  C   UNL A   1      44.216  27.562  29.084  1.00  0.00     0.031 C 
ATOM     53  C   UNL A   1      37.724  29.882  28.759  1.00  0.00     0.029 A 
ATOM     54  C   UNL A   1      38.702  30.814  29.313  1.00  0.00     0.049 A 
ATOM     55  H   UNL A   1      40.753  30.523  29.522  1.00  0.00     0.167 HD
ATOM     56  C   UNL A   1      45.038  29.709  30.002  1.00  0.00     0.037 A 
ATOM     57  C   UNL A   1      38.429  32.043  29.790  1.00  0.00     0.037 A 
ATOM     58  C   UNL A   1      44.856  31.065  30.450  1.00  0.00     0.049 A 
ATOM     59  C   UNL A   1      39.557  32.888  30.321  1.00  0.00     0.074 A 
ATOM     60  C   UNL A   1      45.811  31.964  30.891  1.00  0.00     0.029 A 
ATOM     61  N   UNL A   1      43.633  31.717  30.513  1.00  0.00    -0.354 N 
ATOM     62  N   UNL A   1      40.836  32.610  30.399  1.00  0.00    -0.248 NA
ATOM     63  C   UNL A   1      39.202  34.223  30.822  1.00  0.00     0.031 C 
ATOM     64  C   UNL A   1      45.159  33.138  31.279  1.00  0.00     0.029 A 
ATOM     65  C   UNL A   1      43.806  32.999  31.013  1.00  0.00     0.049 A 
ATOM     66  H   UNL A   1      42.770  31.328  30.245  1.00  0.00     0.167 HD
ATOM     67  C   UNL A   1      41.442  33.746  30.920  1.00  0.00     0.074 A 
ATOM     68  C   UNL A   1      40.392  34.721  31.127  1.00  0.00     0.031 C 
ATOM     69  C   UNL A   1      42.752  33.964  31.199  1.00  0.00     0.037 A 
BRANCH  56  70
ATOM     70  C   UNL A   1      46.422  29.124  30.043  1.00  0.00     0.064 A 
ATOM     71  C   UNL A   1      47.297  29.223  28.950  1.00  0.00     0.173 A 
ATOM     72  C   UNL A   1      46.891  28.484  31.200  1.00  0.00     0.173 A 
ATOM     73  F   UNL A   1      46.896  29.813  27.814  1.00  0.00    -0.203 F 
ATOM     74  C   UNL A   1      48.576  28.674  29.002  1.00  0.00     0.198 A 
ATOM     75  C   UNL A   1      48.183  27.969  31.262  1.00  0.00     0.198 A 
ATOM     76  F   UNL A   1      46.099  28.364  32.275  1.00  0.00    -0.203 F 
ATOM     77  F   UNL A   1      49.372  28.731  27.925  1.00  0.00    -0.200 F 
ATOM     78  C   UNL A   1      49.022  28.056  30.160  1.00  0.00     0.200 A 
ATOM     79  F   UNL A   1      48.617  27.385  32.388  1.00  0.00    -0.200 F 
ATOM     80  F   UNL A   1      50.256  27.536  30.212  1.00  0.00    -0.200 F 
ENDBRANCH  56  70
BRANCH  57  81
ATOM     81  C   UNL A   1      37.035  32.560  29.770  1.00  0.00     0.064 A 
ATOM     82  C   UNL A   1      36.546  33.279  28.669  1.00  0.00     0.173 A 
ATOM     83  C   UNL A   1      36.166  32.362  30.855  1.00  0.00     0.173 A 
ATOM     84  F   UNL A   1      37.343  33.510  27.615  1.00  0.00    -0.203 F 
ATOM     85  C   UNL A   1      35.257  33.805  28.667  1.00  0.00     0.198 A 
ATOM     86  C   UNL A   1      34.865  32.860  30.836  1.00  0.00     0.198 A 
ATOM     87  F   UNL A   1      36.580  31.674  31.929  1.00  0.00    -0.203 F 
ATOM     88  F   UNL A   1      34.837  34.537  27.626  1.00  0.00    -0.200 F 
ATOM     89  C   UNL A   1      34.415  33.592  29.748  1.00  0.00     0.200 A 
ATOM     90  F   UNL A   1      34.050  32.634  31.875  1.00  0.00    -0.200 F 
ATOM     91  F   UNL A   1      33.174  34.097  29.745  1.00  0.00    -0.200 F 
ENDBRANCH  57  81
BRANCH  69  92
ATOM     92  C   UNL A   1      43.133  35.326  31.705  1.00  0.00     0.064 A 
ATOM     93  C   UNL A   1      43.074  35.656  33.067  1.00  0.00     0.173 A 
ATOM     94  C   UNL A   1      43.604  36.303  30.813  1.00  0.00     0.173 A 
ATOM     95  F   UNL A   1      42.619  34.764  33.959  1.00  0.00    -0.203 F 
ATOM     96  C   UNL A   1      43.440  36.925  33.511  1.00  0.00     0.198 A 
ATOM     97  C   UNL A   1      44.003  37.556  31.266  1.00  0.00     0.198 A 
ATOM     98  F   UNL A   1      43.690  36.037  29.502  1.00  0.00    -0.203 F 
ATOM     99  F   UNL A   1      43.319  37.237  34.810  1.00  0.00    -0.200 F 
ATOM    100  C   UNL A   1      43.912  37.869  32.614  1.00  0.00     0.200 A 
ATOM    101  F   UNL A   1      44.477  38.461  30.399  1.00  0.00    -0.200 F 
ATOM    102  F   UNL A   1      44.271  39.086  33.045  1.00  0.00    -0.200 F 
ENDBRANCH  69  92
ENDBRANCH  43  44
ENDBRANCH  35  38
ENDBRANCH  33  34
ENDBRANCH  32  33
ENDBRANCH  31  32
ENDBRANCH   1  31
TORSDOF 16
ENDMDL
MODEL 3
REMARK VINA RESULT:     -13.4      0.439      6.903
REMARK SMILES CCN1C[C@]2(C(=O)NCCCCCCNC(=O)c3ccc(-c4c5nc(c(-c6c(F)c(F)c(F)c(F)c6F)c6ccc([nH]6)c(-c6c(F)c(F)c(F)c(F)c6F)c6nc(c(-c7c(F)c(F)c(F)c(F)c7F)c7ccc4[nH]7)C=C6)C=C5)cc3)CN(c3ccc(-c4ccccc4)nn3)C[C@H]2C1=O
REMARK SMILES IDX 11 1 10 2 9 3 8 4 6 5 7 6 5 8 3 9 4 10 97 11 96 12 98 13
REMARK SMILES IDX 81 14 95 15 82 16 2 17 1 18 83 19 84 20 94 21 85 22 93 23
REMARK SMILES IDX 86 24 87 25 88 26 92 27 89 28 91 29 90 30 12 31 13 32 14 33
REMARK SMILES IDX 15 34 16 35 17 37 18 38 19 39 80 40 20 41 79 42 21 43 22 44
REMARK SMILES IDX 23 45 73 46 24 47 78 48 72 49 74 50 25 51 77 52 71 53 70 54
REMARK SMILES IDX 26 56 58 57 38 58 57 59 39 60 42 61 56 62 75 63 40 64 41 65
REMARK SMILES IDX 55 67 76 68 43 69 27 70 28 71 36 72 29 73 30 74 34 75 37 76
REMARK SMILES IDX 31 77 32 78 35 79 33 80 59 81 60 82 68 83 61 84 62 85 66 86
REMARK SMILES IDX 69 87 63 88 64 89 67 90 65 91 44 92 45 93 53 94 46 95 47 96
REMARK SMILES IDX 51 97 54 98 48 99 49 100 52 101 50 102
REMARK H PARENT 8 7 15 36 74 55 42 66
REMARK Flexibility Score: inf
ROOT
ATOM      1  C   UNL A   1      32.095  29.419  26.701  1.00  0.00     0.002 C 
ENDROOT
BRANCH   1   2
ATOM      2  C   UNL A   1      31.485  28.013  26.711  1.00  0.00     0.021 C 
BRANCH   2   3
ATOM      3  C   UNL A   1      32.437  26.936  26.191  1.00  0.00     0.116 C 
BRANCH   3   4
ATOM      4  N   UNL A   1      32.259  25.730  26.972  1.00  0.00    -0.355 N 
ATOM      5  C   UNL A   1      31.838  24.524  26.480  1.00  0.00     0.230 C 
ATOM      6  O   UNL A   1      31.232  23.759  27.230  1.00  0.00    -0.274 OA
ATOM      7  H   UNL A   1      32.456  25.782  27.935  1.00  0.00     0.163 HD
BRANCH   5   8
ATOM      8  C   UNL A   1      32.219  24.209  25.032  1.00  0.00     0.097 C 
ATOM      9  N   UNL A   1      34.160  22.802  24.742  1.00  0.00    -0.341 N 
ATOM     10  C   UNL A   1      32.995  22.921  25.599  1.00  0.00     0.139 C 
ATOM     11  C   UNL A   1      33.866  23.288  23.492  1.00  0.00     0.228 C 
ATOM     12  C   UNL A   1      32.423  23.642  23.601  1.00  0.00     0.117 C 
ATOM     13  O   UNL A   1      34.576  23.359  22.512  1.00  0.00    -0.274 OA
ATOM     14  C   UNL A   1      30.686  24.520  24.616  1.00  0.00     0.137 C 
ATOM     15  C   UNL A   1      31.999  24.708  22.628  1.00  0.00     0.133 C 
ATOM     16  N   UNL A   1      30.845  25.219  23.324  1.00  0.00    -0.353 N 
BRANCH   9  17
ATOM     17  C   UNL A   1      35.450  22.284  25.164  1.00  0.00     0.116 C 
ATOM     18  C   UNL A   1      36.219  23.280  26.018  1.00  0.00     0.027 C 
ENDBRANCH   9  17
BRANCH  16  19
ATOM     19  C   UNL A   1      30.292  26.448  23.080  1.00  0.00     0.151 A 
ATOM     20  C   UNL A   1      29.141  26.882  23.727  1.00  0.00     0.051 A 
ATOM     21  N   UNL A   1      30.836  27.256  22.158  1.00  0.00    -0.132 NA
ATOM     22  C   UNL A   1      28.584  28.135  23.448  1.00  0.00     0.035 A 
ATOM     23  N   UNL A   1      30.319  28.529  21.912  1.00  0.00    -0.148 NA
ATOM     24  C   UNL A   1      29.218  28.978  22.551  1.00  0.00     0.093 A 
BRANCH  24  25
ATOM     25  C   UNL A   1      28.776  30.356  22.240  1.00  0.00     0.002 A 
ATOM     26  C   UNL A   1      28.281  30.678  20.961  1.00  0.00     0.010 A 
ATOM     27  C   UNL A   1      28.863  31.412  23.171  1.00  0.00     0.010 A 
ATOM     28  C   UNL A   1      27.903  31.982  20.624  1.00  0.00     0.001 A 
ATOM     29  C   UNL A   1      28.483  32.719  22.837  1.00  0.00     0.001 A 
ATOM     30  C   UNL A   1      28.007  33.003  21.562  1.00  0.00     0.000 A 
ENDBRANCH  24  25
ENDBRANCH  16  19
ENDBRANCH   5   8
ENDBRANCH   3   4
ENDBRANCH   2   3
ENDBRANCH   1   2
BRANCH   1  31
ATOM     31  C   UNL A   1      31.381  30.401  25.767  1.00  0.00     0.002 C 
BRANCH  31  32
ATOM     32  C   UNL A   1      31.289  31.831  26.306  1.00  0.00     0.021 C 
BRANCH  32  33
ATOM     33  C   UNL A   1      32.532  32.286  27.065  1.00  0.00     0.116 C 
BRANCH  33  34
ATOM     34  N   UNL A   1      32.456  33.698  27.399  1.00  0.00    -0.352 N 
ATOM     35  C   UNL A   1      33.126  34.391  28.372  1.00  0.00     0.251 C 
ATOM     36  H   UNL A   1      31.838  34.231  26.849  1.00  0.00     0.163 HD
ATOM     37  O   UNL A   1      32.747  35.503  28.718  1.00  0.00    -0.269 OA
BRANCH  35  38
ATOM     38  C   UNL A   1      34.312  33.781  29.008  1.00  0.00     0.039 A 
ATOM     39  C   UNL A   1      34.130  32.772  29.953  1.00  0.00     0.014 A 
ATOM     40  C   UNL A   1      35.598  34.226  28.684  1.00  0.00     0.014 A 
ATOM     41  C   UNL A   1      35.244  32.180  30.550  1.00  0.00     0.010 A 
ATOM     42  C   UNL A   1      36.707  33.579  29.217  1.00  0.00     0.010 A 
ATOM     43  C   UNL A   1      36.541  32.562  30.169  1.00  0.00    -0.014 A 
BRANCH  43  44
ATOM     44  C   UNL A   1      37.736  31.931  30.781  1.00  0.00     0.031 A 
ATOM     45  C   UNL A   1      38.197  32.367  32.145  1.00  0.00     0.074 A 
ATOM     46  C   UNL A   1      38.428  31.004  30.095  1.00  0.00     0.049 A 
ATOM     47  N   UNL A   1      39.247  31.984  32.827  1.00  0.00    -0.248 NA
ATOM     48  C   UNL A   1      37.384  33.390  32.823  1.00  0.00     0.031 C 
ATOM     49  C   UNL A   1      38.098  30.526  28.751  1.00  0.00     0.029 A 
ATOM     50  N   UNL A   1      39.558  30.301  30.429  1.00  0.00    -0.354 N 
ATOM     51  C   UNL A   1      39.223  32.720  34.004  1.00  0.00     0.074 A 
ATOM     52  C   UNL A   1      38.095  33.621  33.917  1.00  0.00     0.031 C 
ATOM     53  C   UNL A   1      38.989  29.589  28.388  1.00  0.00     0.029 A 
ATOM     54  C   UNL A   1      39.977  29.433  29.451  1.00  0.00     0.049 A 
ATOM     55  H   UNL A   1      40.025  30.409  31.290  1.00  0.00     0.167 HD
ATOM     56  C   UNL A   1      40.049  32.633  35.072  1.00  0.00     0.037 A 
ATOM     57  C   UNL A   1      41.043  28.612  29.414  1.00  0.00     0.037 A 
ATOM     58  C   UNL A   1      41.161  31.723  35.159  1.00  0.00     0.049 A 
ATOM     59  C   UNL A   1      41.967  28.559  30.602  1.00  0.00     0.074 A 
ATOM     60  C   UNL A   1      42.037  31.528  36.212  1.00  0.00     0.029 A 
ATOM     61  N   UNL A   1      41.552  30.856  34.148  1.00  0.00    -0.354 N 
ATOM     62  N   UNL A   1      41.901  29.218  31.734  1.00  0.00    -0.248 NA
ATOM     63  C   UNL A   1      43.111  27.641  30.509  1.00  0.00     0.031 C 
ATOM     64  C   UNL A   1      42.993  30.588  35.817  1.00  0.00     0.029 A 
ATOM     65  C   UNL A   1      42.673  30.143  34.544  1.00  0.00     0.049 A 
ATOM     66  H   UNL A   1      41.102  30.762  33.278  1.00  0.00     0.167 HD
ATOM     67  C   UNL A   1      42.967  28.766  32.501  1.00  0.00     0.074 A 
ATOM     68  C   UNL A   1      43.656  27.769  31.711  1.00  0.00     0.031 C 
ATOM     69  C   UNL A   1      43.339  29.142  33.750  1.00  0.00     0.037 A 
BRANCH  56  70
ATOM     70  C   UNL A   1      39.785  33.550  36.233  1.00  0.00     0.064 A 
ATOM     71  C   UNL A   1      38.942  33.176  37.292  1.00  0.00     0.173 A 
ATOM     72  C   UNL A   1      40.406  34.806  36.305  1.00  0.00     0.173 A 
ATOM     73  F   UNL A   1      38.312  31.992  37.268  1.00  0.00    -0.203 F 
ATOM     74  C   UNL A   1      38.706  34.037  38.360  1.00  0.00     0.198 A 
ATOM     75  C   UNL A   1      40.197  35.649  37.393  1.00  0.00     0.198 A 
ATOM     76  F   UNL A   1      41.225  35.213  35.324  1.00  0.00    -0.203 F 
ATOM     77  F   UNL A   1      37.853  33.681  39.330  1.00  0.00    -0.200 F 
ATOM     78  C   UNL A   1      39.340  35.269  38.415  1.00  0.00     0.200 A 
ATOM     79  F   UNL A   1      40.824  36.833  37.451  1.00  0.00    -0.200 F 
ATOM     80  F   UNL A   1      39.119  36.093  39.448  1.00  0.00    -0.200 F 
ENDBRANCH  56  70
BRANCH  57  81
ATOM     81  C   UNL A   1      41.287  27.757  28.222  1.00  0.00     0.064 A 
ATOM     82  C   UNL A   1      40.713  26.481  28.118  1.00  0.00     0.173 A 
ATOM     83  C   UNL A   1      42.111  28.187  27.170  1.00  0.00     0.173 A 
ATOM     84  F   UNL A   1      39.933  26.017  29.105  1.00  0.00    -0.203 F 
ATOM     85  C   UNL A   1      40.978  25.659  27.025  1.00  0.00     0.198 A 
ATOM     86  C   UNL A   1      42.347  27.376  26.061  1.00  0.00     0.198 A 
ATOM     87  F   UNL A   1      42.678  29.401  27.214  1.00  0.00    -0.203 F 
ATOM     88  F   UNL A   1      40.461  24.423  26.980  1.00  0.00    -0.200 F 
ATOM     89  C   UNL A   1      41.790  26.108  25.995  1.00  0.00     0.200 A 
ATOM     90  F   UNL A   1      43.117  27.823  25.061  1.00  0.00    -0.200 F 
ATOM     91  F   UNL A   1      42.043  25.318  24.944  1.00  0.00    -0.200 F 
ENDBRANCH  57  81
BRANCH  69  92
ATOM     92  C   UNL A   1      44.513  28.432  34.364  1.00  0.00     0.064 A 
ATOM     93  C   UNL A   1      45.820  28.929  34.259  1.00  0.00     0.173 A 
ATOM     94  C   UNL A   1      44.317  27.254  35.103  1.00  0.00     0.173 A 
ATOM     95  F   UNL A   1      46.064  30.043  33.551  1.00  0.00    -0.203 F 
ATOM     96  C   UNL A   1      46.891  28.255  34.842  1.00  0.00     0.198 A 
ATOM     97  C   UNL A   1      45.384  26.605  35.716  1.00  0.00     0.198 A 
ATOM     98  F   UNL A   1      43.086  26.741  35.244  1.00  0.00    -0.203 F 
ATOM     99  F   UNL A   1      48.138  28.717  34.679  1.00  0.00    -0.200 F 
ATOM    100  C   UNL A   1      46.671  27.101  35.577  1.00  0.00     0.200 A 
ATOM    101  F   UNL A   1      45.166  25.499  36.441  1.00  0.00    -0.200 F 
ATOM    102  F   UNL A   1      47.701  26.459  36.145  1.00  0.00    -0.200 F 
ENDBRANCH  69  92
ENDBRANCH  43  44
ENDBRANCH  35  38
ENDBRANCH  33  34
ENDBRANCH  32  33
ENDBRANCH  31  32
ENDBRANCH   1  31
TORSDOF 16
ENDMDL
