MODEL 1
REMARK VINA RESULT:     -12.1      0.000      0.000
REMARK SMILES C[C@@H](c1ccccc1)[C@@H](CC(=O)Nc1ccccc1I)C(=O)NCCCCCCNC(=O)c1ccc(-c2c3nc(c(-c4c(F)c(F)c(F)c(F)c4F)c4ccc([nH]4)c(-c4c(F)c(F)c(F)c(F)c4F)c4nc(c(-c5c(F)c(F)c(F)c(F)c5F)c5ccc2[nH]5)C=C4)C=C3)cc1
REMARK SMILES IDX 26 1 25 2 24 3 23 4 21 5 22 6 9 8 2 9 1 10 3 11 4 12 8 13
REMARK SMILES IDX 5 14 7 15 6 16 10 17 11 18 12 19 13 20 14 22 15 23 19 24
REMARK SMILES IDX 16 25 18 26 20 27 17 28 27 29 28 30 29 31 30 32 31 33 32 35
REMARK SMILES IDX 33 36 34 37 95 38 35 39 94 40 36 41 37 42 38 43 88 44 39 45
REMARK SMILES IDX 93 46 87 47 89 48 40 49 92 50 86 51 85 52 41 54 73 55 53 56
REMARK SMILES IDX 72 57 54 58 57 59 71 60 90 61 55 62 56 63 70 65 91 66 58 67
REMARK SMILES IDX 42 68 43 69 51 70 44 71 45 72 49 73 52 74 46 75 47 76 50 77
REMARK SMILES IDX 48 78 74 79 75 80 83 81 76 82 77 83 81 84 84 85 78 86 79 87
REMARK SMILES IDX 82 88 80 89 59 90 60 91 68 92 61 93 62 94 66 95 69 96 63 97
REMARK SMILES IDX 64 98 67 99 65 100
REMARK H PARENT 23 7 13 21 30 34 89 53 57 64
REMARK Flexibility Score: inf
ROOT
ATOM      1  C   UNL A   1      36.324  21.596  25.491  1.00  0.00     0.002 C 
ENDROOT
BRANCH   1   2
ATOM      2  C   UNL A   1      35.333  21.843  26.623  1.00  0.00     0.021 C 
BRANCH   2   3
ATOM      3  C   UNL A   1      33.944  21.260  26.439  1.00  0.00     0.116 C 
BRANCH   3   4
ATOM      4  N   UNL A   1      32.912  21.929  27.187  1.00  0.00    -0.356 N 
ATOM      5  C   UNL A   1      32.118  22.985  26.878  1.00  0.00     0.224 C 
ATOM      6  O   UNL A   1      31.120  23.109  27.603  1.00  0.00    -0.275 OA
ATOM      7  H   UNL A   1      32.756  21.555  28.084  1.00  0.00     0.163 HD
BRANCH   5   8
ATOM      8  C   UNL A   1      32.363  24.029  25.757  1.00  0.00     0.095 C 
BRANCH   8   9
ATOM      9  C   UNL A   1      33.491  25.047  26.056  1.00  0.00     0.029 C 
ATOM     10  C   UNL A   1      34.577  25.003  24.959  1.00  0.00     0.013 C 
BRANCH   9  11
ATOM     11  C   UNL A   1      33.136  26.522  26.230  1.00  0.00    -0.044 A 
ATOM     12  C   UNL A   1      34.064  27.557  26.053  1.00  0.00     0.004 A 
ATOM     13  C   UNL A   1      31.862  26.856  26.724  1.00  0.00     0.004 A 
ATOM     14  C   UNL A   1      33.722  28.880  26.350  1.00  0.00     0.000 A 
ATOM     15  C   UNL A   1      31.519  28.176  27.019  1.00  0.00     0.000 A 
ATOM     16  C   UNL A   1      32.452  29.190  26.834  1.00  0.00     0.000 A 
ENDBRANCH   9  11
ENDBRANCH   8   9
BRANCH   8  17
ATOM     17  C   UNL A   1      32.236  23.580  24.277  1.00  0.00     0.114 C 
BRANCH  17  18
ATOM     18  C   UNL A   1      31.336  24.187  23.181  1.00  0.00     0.225 C 
ATOM     19  O   UNL A   1      30.180  23.761  23.057  1.00  0.00    -0.275 OA
ATOM     20  N   UNL A   1      31.785  25.055  22.224  1.00  0.00    -0.325 N 
ATOM     21  H   UNL A   1      31.868  24.698  21.310  1.00  0.00     0.169 HD
BRANCH  20  22
ATOM     22  C   UNL A   1      32.146  26.408  22.406  1.00  0.00     0.054 A 
ATOM     23  C   UNL A   1      33.461  26.806  22.152  1.00  0.00     0.027 A 
ATOM     24  C   UNL A   1      31.257  27.332  22.987  1.00  0.00     0.037 A 
ATOM     25  C   UNL A   1      33.848  28.130  22.374  1.00  0.00     0.002 A 
ATOM     26  C   UNL A   1      31.618  28.676  23.106  1.00  0.00     0.017 A 
ATOM     27  I   UNL A   1      29.385  26.815  23.767  1.00  0.00    -0.042 I 
ATOM     28  C   UNL A   1      32.915  29.073  22.800  1.00  0.00     0.001 A 
ENDBRANCH  20  22
ENDBRANCH  17  18
ENDBRANCH   8  17
ENDBRANCH   5   8
ENDBRANCH   3   4
ENDBRANCH   2   3
ENDBRANCH   1   2
BRANCH   1  29
ATOM     29  C   UNL A   1      36.439  20.151  24.993  1.00  0.00     0.002 C 
BRANCH  29  30
ATOM     30  C   UNL A   1      37.848  19.571  24.810  1.00  0.00     0.021 C 
BRANCH  30  31
ATOM     31  C   UNL A   1      38.941  20.087  25.746  1.00  0.00     0.116 C 
BRANCH  31  32
ATOM     32  N   UNL A   1      40.049  19.162  25.887  1.00  0.00    -0.352 N 
ATOM     33  C   UNL A   1      41.372  19.422  26.111  1.00  0.00     0.251 C 
ATOM     34  H   UNL A   1      39.814  18.208  25.810  1.00  0.00     0.163 HD
ATOM     35  O   UNL A   1      42.200  18.501  26.051  1.00  0.00    -0.269 OA
BRANCH  33  36
ATOM     36  C   UNL A   1      41.841  20.789  26.415  1.00  0.00     0.039 A 
ATOM     37  C   UNL A   1      42.089  21.133  27.747  1.00  0.00     0.014 A 
ATOM     38  C   UNL A   1      41.973  21.752  25.408  1.00  0.00     0.014 A 
ATOM     39  C   UNL A   1      42.493  22.431  28.070  1.00  0.00     0.010 A 
ATOM     40  C   UNL A   1      42.429  23.033  25.726  1.00  0.00     0.010 A 
ATOM     41  C   UNL A   1      42.674  23.391  27.061  1.00  0.00    -0.014 A 
BRANCH  41  42
ATOM     42  C   UNL A   1      43.064  24.785  27.400  1.00  0.00     0.031 A 
ATOM     43  C   UNL A   1      44.474  25.251  27.155  1.00  0.00     0.074 A 
ATOM     44  C   UNL A   1      42.165  25.624  27.949  1.00  0.00     0.049 A 
ATOM     45  N   UNL A   1      45.023  26.411  27.417  1.00  0.00    -0.248 NA
ATOM     46  C   UNL A   1      45.395  24.275  26.553  1.00  0.00     0.031 C 
ATOM     47  C   UNL A   1      40.776  25.285  28.264  1.00  0.00     0.029 A 
ATOM     48  N   UNL A   1      42.286  26.933  28.344  1.00  0.00    -0.354 N 
ATOM     49  C   UNL A   1      46.351  26.298  27.027  1.00  0.00     0.074 A 
ATOM     50  C   UNL A   1      46.540  24.943  26.556  1.00  0.00     0.031 C 
ATOM     51  C   UNL A   1      40.170  26.364  28.787  1.00  0.00     0.029 A 
ATOM     52  C   UNL A   1      41.132  27.461  28.868  1.00  0.00     0.049 A 
ATOM     53  H   UNL A   1      43.124  27.445  28.261  1.00  0.00     0.167 HD
ATOM     54  C   UNL A   1      47.321  27.245  27.037  1.00  0.00     0.037 A 
ATOM     55  C   UNL A   1      40.879  28.690  29.356  1.00  0.00     0.037 A 
ATOM     56  C   UNL A   1      47.127  28.600  27.479  1.00  0.00     0.049 A 
ATOM     57  C   UNL A   1      41.972  29.726  29.347  1.00  0.00     0.074 A 
ATOM     58  C   UNL A   1      48.038  29.643  27.497  1.00  0.00     0.029 A 
ATOM     59  N   UNL A   1      45.934  29.105  27.972  1.00  0.00    -0.354 N 
ATOM     60  N   UNL A   1      43.211  29.620  28.932  1.00  0.00    -0.248 NA
ATOM     61  C   UNL A   1      41.627  31.057  29.866  1.00  0.00     0.031 C 
ATOM     62  C   UNL A   1      47.404  30.770  28.031  1.00  0.00     0.029 A 
ATOM     63  C   UNL A   1      46.086  30.442  28.304  1.00  0.00     0.049 A 
ATOM     64  H   UNL A   1      45.100  28.589  28.072  1.00  0.00     0.167 HD
ATOM     65  C   UNL A   1      43.779  30.876  29.101  1.00  0.00     0.074 A 
ATOM     66  C   UNL A   1      42.748  31.731  29.651  1.00  0.00     0.031 C 
ATOM     67  C   UNL A   1      45.042  31.284  28.826  1.00  0.00     0.037 A 
BRANCH  54  68
ATOM     68  C   UNL A   1      48.683  26.846  26.547  1.00  0.00     0.064 A 
ATOM     69  C   UNL A   1      49.052  27.001  25.202  1.00  0.00     0.173 A 
ATOM     70  C   UNL A   1      49.642  26.337  27.436  1.00  0.00     0.173 A 
ATOM     71  F   UNL A   1      48.168  27.473  24.310  1.00  0.00    -0.203 F 
ATOM     72  C   UNL A   1      50.321  26.635  24.760  1.00  0.00     0.198 A 
ATOM     73  C   UNL A   1      50.919  25.999  26.996  1.00  0.00     0.198 A 
ATOM     74  F   UNL A   1      49.343  26.174  28.733  1.00  0.00    -0.203 F 
ATOM     75  F   UNL A   1      50.634  26.748  23.462  1.00  0.00    -0.200 F 
ATOM     76  C   UNL A   1      51.254  26.141  25.658  1.00  0.00     0.200 A 
ATOM     77  F   UNL A   1      51.825  25.532  27.867  1.00  0.00    -0.200 F 
ATOM     78  F   UNL A   1      52.478  25.795  25.232  1.00  0.00    -0.200 F 
ENDBRANCH  54  68
BRANCH  55  79
ATOM     79  C   UNL A   1      39.522  29.028  29.860  1.00  0.00     0.064 A 
ATOM     80  C   UNL A   1      38.546  29.548  28.999  1.00  0.00     0.173 A 
ATOM     81  C   UNL A   1      39.180  28.855  31.209  1.00  0.00     0.173 A 
ATOM     82  F   UNL A   1      38.834  29.753  27.705  1.00  0.00    -0.203 F 
ATOM     83  C   UNL A   1      37.286  29.908  29.474  1.00  0.00     0.198 A 
ATOM     84  C   UNL A   1      37.910  29.189  31.676  1.00  0.00     0.198 A 
ATOM     85  F   UNL A   1      40.078  28.357  32.072  1.00  0.00    -0.203 F 
ATOM     86  F   UNL A   1      36.388  30.450  28.640  1.00  0.00    -0.200 F 
ATOM     87  C   UNL A   1      36.968  29.722  30.810  1.00  0.00     0.200 A 
ATOM     88  F   UNL A   1      37.603  28.998  32.966  1.00  0.00    -0.200 F 
ATOM     89  F   UNL A   1      35.756  30.069  31.267  1.00  0.00    -0.200 F 
ENDBRANCH  55  79
BRANCH  67  90
ATOM     90  C   UNL A   1      45.365  32.730  29.060  1.00  0.00     0.064 A 
ATOM     91  C   UNL A   1      45.911  33.178  30.271  1.00  0.00     0.173 A 
ATOM     92  C   UNL A   1      45.156  33.674  28.043  1.00  0.00     0.173 A 
ATOM     93  F   UNL A   1      46.116  32.316  31.279  1.00  0.00    -0.203 F 
ATOM     94  C   UNL A   1      46.214  34.524  30.465  1.00  0.00     0.198 A 
ATOM     95  C   UNL A   1      45.485  35.013  28.230  1.00  0.00     0.198 A 
ATOM     96  F   UNL A   1      44.642  33.295  26.863  1.00  0.00    -0.203 F 
ATOM     97  F   UNL A   1      46.692  34.937  31.647  1.00  0.00    -0.200 F 
ATOM     98  C   UNL A   1      46.007  35.438  29.443  1.00  0.00     0.200 A 
ATOM     99  F   UNL A   1      45.296  35.894  27.237  1.00  0.00    -0.200 F 
ATOM    100  F   UNL A   1      46.302  36.731  29.629  1.00  0.00    -0.200 F 
ENDBRANCH  67  90
ENDBRANCH  41  42
ENDBRANCH  33  36
ENDBRANCH  31  32
ENDBRANCH  30  31
ENDBRANCH  29  30
ENDBRANCH   1  29
TORSDOF 18
ENDMDL
MODEL 2
REMARK VINA RESULT:     -12.0      4.899     10.521
REMARK SMILES C[C@@H](c1ccccc1)[C@@H](CC(=O)Nc1ccccc1I)C(=O)NCCCCCCNC(=O)c1ccc(-c2c3nc(c(-c4c(F)c(F)c(F)c(F)c4F)c4ccc([nH]4)c(-c4c(F)c(F)c(F)c(F)c4F)c4nc(c(-c5c(F)c(F)c(F)c(F)c5F)c5ccc2[nH]5)C=C4)C=C3)cc1
REMARK SMILES IDX 26 1 25 2 24 3 23 4 21 5 22 6 9 8 2 9 1 10 3 11 4 12 8 13
REMARK SMILES IDX 5 14 7 15 6 16 10 17 11 18 12 19 13 20 14 22 15 23 19 24
REMARK SMILES IDX 16 25 18 26 20 27 17 28 27 29 28 30 29 31 30 32 31 33 32 35
REMARK SMILES IDX 33 36 34 37 95 38 35 39 94 40 36 41 37 42 38 43 88 44 39 45
REMARK SMILES IDX 93 46 87 47 89 48 40 49 92 50 86 51 85 52 41 54 73 55 53 56
REMARK SMILES IDX 72 57 54 58 57 59 71 60 90 61 55 62 56 63 70 65 91 66 58 67
REMARK SMILES IDX 42 68 43 69 51 70 44 71 45 72 49 73 52 74 46 75 47 76 50 77
REMARK SMILES IDX 48 78 74 79 75 80 83 81 76 82 77 83 81 84 84 85 78 86 79 87
REMARK SMILES IDX 82 88 80 89 59 90 60 91 68 92 61 93 62 94 66 95 69 96 63 97
REMARK SMILES IDX 64 98 67 99 65 100
REMARK H PARENT 23 7 13 21 30 34 89 53 57 64
REMARK Flexibility Score: inf
ROOT
ATOM      1  C   UNL A   1      31.874  29.692  25.271  1.00  0.00     0.002 C 
ENDROOT
BRANCH   1   2
ATOM      2  C   UNL A   1      32.027  29.111  23.870  1.00  0.00     0.021 C 
BRANCH   2   3
ATOM      3  C   UNL A   1      33.448  28.951  23.360  1.00  0.00     0.116 C 
BRANCH   3   4
ATOM      4  N   UNL A   1      33.589  28.022  22.269  1.00  0.00    -0.356 N 
ATOM      5  C   UNL A   1      33.318  26.696  22.176  1.00  0.00     0.224 C 
ATOM      6  O   UNL A   1      33.244  26.265  21.017  1.00  0.00    -0.275 OA
ATOM      7  H   UNL A   1      33.948  28.420  21.443  1.00  0.00     0.163 HD
BRANCH   5   8
ATOM      8  C   UNL A   1      33.134  25.706  23.356  1.00  0.00     0.095 C 
BRANCH   8   9
ATOM      9  C   UNL A   1      34.287  25.709  24.390  1.00  0.00     0.029 C 
ATOM     10  C   UNL A   1      33.760  26.049  25.800  1.00  0.00     0.013 C 
BRANCH   9  11
ATOM     11  C   UNL A   1      35.142  24.454  24.557  1.00  0.00    -0.044 A 
ATOM     12  C   UNL A   1      35.813  24.140  25.746  1.00  0.00     0.004 A 
ATOM     13  C   UNL A   1      35.382  23.646  23.430  1.00  0.00     0.004 A 
ATOM     14  C   UNL A   1      36.686  23.048  25.805  1.00  0.00     0.000 A 
ATOM     15  C   UNL A   1      36.249  22.556  23.489  1.00  0.00     0.000 A 
ATOM     16  C   UNL A   1      36.905  22.257  24.678  1.00  0.00     0.000 A 
ENDBRANCH   9  11
ENDBRANCH   8   9
BRANCH   8  17
ATOM     17  C   UNL A   1      31.711  25.490  23.935  1.00  0.00     0.114 C 
BRANCH  17  18
ATOM     18  C   UNL A   1      30.943  24.159  24.080  1.00  0.00     0.225 C 
ATOM     19  O   UNL A   1      30.267  23.755  23.125  1.00  0.00    -0.275 OA
ATOM     20  N   UNL A   1      30.827  23.475  25.258  1.00  0.00    -0.325 N 
ATOM     21  H   UNL A   1      29.945  23.497  25.695  1.00  0.00     0.169 HD
BRANCH  20  22
ATOM     22  C   UNL A   1      31.837  22.740  25.917  1.00  0.00     0.054 A 
ATOM     23  C   UNL A   1      32.241  23.128  27.197  1.00  0.00     0.027 A 
ATOM     24  C   UNL A   1      32.556  21.727  25.256  1.00  0.00     0.037 A 
ATOM     25  C   UNL A   1      33.273  22.444  27.844  1.00  0.00     0.002 A 
ATOM     26  C   UNL A   1      33.513  20.978  25.947  1.00  0.00     0.017 A 
ATOM     27  I   UNL A   1      32.334  21.275  23.225  1.00  0.00    -0.042 I 
ATOM     28  C   UNL A   1      33.871  21.339  27.241  1.00  0.00     0.001 A 
ENDBRANCH  20  22
ENDBRANCH  17  18
ENDBRANCH   8  17
ENDBRANCH   5   8
ENDBRANCH   3   4
ENDBRANCH   2   3
ENDBRANCH   1   2
BRANCH   1  29
ATOM     29  C   UNL A   1      31.003  30.948  25.393  1.00  0.00     0.002 C 
BRANCH  29  30
ATOM     30  C   UNL A   1      31.153  31.798  26.662  1.00  0.00     0.021 C 
BRANCH  30  31
ATOM     31  C   UNL A   1      32.511  32.458  26.900  1.00  0.00     0.116 C 
BRANCH  31  32
ATOM     32  N   UNL A   1      32.400  33.833  27.349  1.00  0.00    -0.352 N 
ATOM     33  C   UNL A   1      33.083  34.479  28.342  1.00  0.00     0.251 C 
ATOM     34  H   UNL A   1      31.736  34.381  26.870  1.00  0.00     0.163 HD
ATOM     35  O   UNL A   1      32.742  35.620  28.684  1.00  0.00    -0.269 OA
BRANCH  33  36
ATOM     36  C   UNL A   1      34.222  33.835  29.028  1.00  0.00     0.039 A 
ATOM     37  C   UNL A   1      35.517  34.269  28.732  1.00  0.00     0.014 A 
ATOM     38  C   UNL A   1      34.028  32.765  29.909  1.00  0.00     0.014 A 
ATOM     39  C   UNL A   1      36.617  33.651  29.334  1.00  0.00     0.010 A 
ATOM     40  C   UNL A   1      35.123  32.184  30.551  1.00  0.00     0.010 A 
ATOM     41  C   UNL A   1      36.429  32.608  30.255  1.00  0.00    -0.014 A 
BRANCH  41  42
ATOM     42  C   UNL A   1      37.594  31.917  30.869  1.00  0.00     0.031 A 
ATOM     43  C   UNL A   1      38.037  32.286  32.259  1.00  0.00     0.074 A 
ATOM     44  C   UNL A   1      38.268  30.982  30.174  1.00  0.00     0.049 A 
ATOM     45  N   UNL A   1      39.050  31.832  32.955  1.00  0.00    -0.248 NA
ATOM     46  C   UNL A   1      37.249  33.317  32.951  1.00  0.00     0.031 C 
ATOM     47  C   UNL A   1      37.958  30.557  28.808  1.00  0.00     0.029 A 
ATOM     48  N   UNL A   1      39.359  30.223  30.519  1.00  0.00    -0.354 N 
ATOM     49  C   UNL A   1      39.027  32.531  34.155  1.00  0.00     0.074 A 
ATOM     50  C   UNL A   1      37.932  33.473  34.076  1.00  0.00     0.031 C 
ATOM     51  C   UNL A   1      38.826  29.600  28.439  1.00  0.00     0.029 A 
ATOM     52  C   UNL A   1      39.769  29.363  29.530  1.00  0.00     0.049 A 
ATOM     53  H   UNL A   1      39.806  30.289  31.394  1.00  0.00     0.167 HD
ATOM     54  C   UNL A   1      39.831  32.383  35.237  1.00  0.00     0.037 A 
ATOM     55  C   UNL A   1      40.788  28.484  29.507  1.00  0.00     0.037 A 
ATOM     56  C   UNL A   1      40.902  31.427  35.328  1.00  0.00     0.049 A 
ATOM     57  C   UNL A   1      41.660  28.334  30.726  1.00  0.00     0.074 A 
ATOM     58  C   UNL A   1      41.752  31.179  36.394  1.00  0.00     0.029 A 
ATOM     59  N   UNL A   1      41.265  30.553  34.316  1.00  0.00    -0.354 N 
ATOM     60  N   UNL A   1      41.598  28.967  31.872  1.00  0.00    -0.248 NA
ATOM     61  C   UNL A   1      42.738  27.337  30.650  1.00  0.00     0.031 C 
ATOM     62  C   UNL A   1      42.649  30.175  36.013  1.00  0.00     0.029 A 
ATOM     63  C   UNL A   1      42.330  29.767  34.728  1.00  0.00     0.049 A 
ATOM     64  H   UNL A   1      40.830  30.497  33.434  1.00  0.00     0.167 HD
ATOM     65  C   UNL A   1      42.599  28.420  32.664  1.00  0.00     0.074 A 
ATOM     66  C   UNL A   1      43.248  27.398  31.871  1.00  0.00     0.031 C 
ATOM     67  C   UNL A   1      42.948  28.737  33.935  1.00  0.00     0.037 A 
BRANCH  54  68
ATOM     68  C   UNL A   1      39.575  33.278  36.416  1.00  0.00     0.064 A 
ATOM     69  C   UNL A   1      38.713  32.892  37.454  1.00  0.00     0.173 A 
ATOM     70  C   UNL A   1      40.225  34.515  36.529  1.00  0.00     0.173 A 
ATOM     71  F   UNL A   1      38.058  31.723  37.388  1.00  0.00    -0.203 F 
ATOM     72  C   UNL A   1      38.488  33.726  38.547  1.00  0.00     0.198 A 
ATOM     73  C   UNL A   1      40.021  35.334  37.637  1.00  0.00     0.198 A 
ATOM     74  F   UNL A   1      41.065  34.929  35.568  1.00  0.00    -0.203 F 
ATOM     75  F   UNL A   1      37.624  33.358  39.502  1.00  0.00    -0.200 F 
ATOM     76  C   UNL A   1      39.148  34.942  38.640  1.00  0.00     0.200 A 
ATOM     77  F   UNL A   1      40.669  36.504  37.733  1.00  0.00    -0.200 F 
ATOM     78  F   UNL A   1      38.936  35.741  39.697  1.00  0.00    -0.200 F 
ENDBRANCH  54  68
BRANCH  55  79
ATOM     79  C   UNL A   1      41.021  27.643  28.304  1.00  0.00     0.064 A 
ATOM     80  C   UNL A   1      40.391  26.398  28.164  1.00  0.00     0.173 A 
ATOM     81  C   UNL A   1      41.886  28.056  27.281  1.00  0.00     0.173 A 
ATOM     82  F   UNL A   1      39.572  25.951  29.128  1.00  0.00    -0.203 F 
ATOM     83  C   UNL A   1      40.638  25.586  27.059  1.00  0.00     0.198 A 
ATOM     84  C   UNL A   1      42.111  27.254  26.163  1.00  0.00     0.198 A 
ATOM     85  F   UNL A   1      42.510  29.240  27.365  1.00  0.00    -0.203 F 
ATOM     86  F   UNL A   1      40.062  24.379  26.976  1.00  0.00    -0.200 F 
ATOM     87  C   UNL A   1      41.493  26.017  26.057  1.00  0.00     0.200 A 
ATOM     88  F   UNL A   1      42.930  27.679  25.191  1.00  0.00    -0.200 F 
ATOM     89  F   UNL A   1      41.732  25.235  24.995  1.00  0.00    -0.200 F 
ENDBRANCH  55  79
BRANCH  67  90
ATOM     90  C   UNL A   1      44.044  27.933  34.569  1.00  0.00     0.064 A 
ATOM     91  C   UNL A   1      45.383  28.344  34.521  1.00  0.00     0.173 A 
ATOM     92  C   UNL A   1      43.742  26.752  35.265  1.00  0.00     0.173 A 
ATOM     93  F   UNL A   1      45.724  29.457  33.855  1.00  0.00    -0.203 F 
ATOM     94  C   UNL A   1      46.386  27.587  35.125  1.00  0.00     0.198 A 
ATOM     95  C   UNL A   1      44.742  26.014  35.891  1.00  0.00     0.198 A 
ATOM     96  F   UNL A   1      42.475  26.320  35.346  1.00  0.00    -0.203 F 
ATOM     97  F   UNL A   1      47.665  27.975  35.027  1.00  0.00    -0.200 F 
ATOM     98  C   UNL A   1      46.063  26.428  35.814  1.00  0.00     0.200 A 
ATOM     99  F   UNL A   1      44.428  24.899  36.567  1.00  0.00    -0.200 F 
ATOM    100  F   UNL A   1      47.028  25.705  36.398  1.00  0.00    -0.200 F 
ENDBRANCH  67  90
ENDBRANCH  41  42
ENDBRANCH  33  36
ENDBRANCH  31  32
ENDBRANCH  30  31
ENDBRANCH  29  30
ENDBRANCH   1  29
TORSDOF 18
ENDMDL
MODEL 3
REMARK VINA RESULT:     -12.0      5.125      9.512
REMARK SMILES C[C@@H](c1ccccc1)[C@@H](CC(=O)Nc1ccccc1I)C(=O)NCCCCCCNC(=O)c1ccc(-c2c3nc(c(-c4c(F)c(F)c(F)c(F)c4F)c4ccc([nH]4)c(-c4c(F)c(F)c(F)c(F)c4F)c4nc(c(-c5c(F)c(F)c(F)c(F)c5F)c5ccc2[nH]5)C=C4)C=C3)cc1
REMARK SMILES IDX 26 1 25 2 24 3 23 4 21 5 22 6 9 8 2 9 1 10 3 11 4 12 8 13
REMARK SMILES IDX 5 14 7 15 6 16 10 17 11 18 12 19 13 20 14 22 15 23 19 24
REMARK SMILES IDX 16 25 18 26 20 27 17 28 27 29 28 30 29 31 30 32 31 33 32 35
REMARK SMILES IDX 33 36 34 37 95 38 35 39 94 40 36 41 37 42 38 43 88 44 39 45
REMARK SMILES IDX 93 46 87 47 89 48 40 49 92 50 86 51 85 52 41 54 73 55 53 56
REMARK SMILES IDX 72 57 54 58 57 59 71 60 90 61 55 62 56 63 70 65 91 66 58 67
REMARK SMILES IDX 42 68 43 69 51 70 44 71 45 72 49 73 52 74 46 75 47 76 50 77
REMARK SMILES IDX 48 78 74 79 75 80 83 81 76 82 77 83 81 84 84 85 78 86 79 87
REMARK SMILES IDX 82 88 80 89 59 90 60 91 68 92 61 93 62 94 66 95 69 96 63 97
REMARK SMILES IDX 64 98 67 99 65 100
REMARK H PARENT 23 7 13 21 30 34 89 53 57 64
REMARK Flexibility Score: inf
ROOT
ATOM      1  C   UNL A   1      32.804  30.105  26.496  1.00  0.00     0.002 C 
ENDROOT
BRANCH   1   2
ATOM      2  C   UNL A   1      33.399  29.350  25.312  1.00  0.00     0.021 C 
BRANCH   2   3
ATOM      3  C   UNL A   1      32.476  29.120  24.129  1.00  0.00     0.116 C 
BRANCH   3   4
ATOM      4  N   UNL A   1      33.093  28.452  23.013  1.00  0.00    -0.356 N 
ATOM      5  C   UNL A   1      33.194  27.136  22.697  1.00  0.00     0.224 C 
ATOM      6  O   UNL A   1      33.498  26.912  21.517  1.00  0.00    -0.275 OA
ATOM      7  H   UNL A   1      33.518  29.058  22.363  1.00  0.00     0.163 HD
BRANCH   5   8
ATOM      8  C   UNL A   1      33.003  25.937  23.662  1.00  0.00     0.095 C 
BRANCH   8   9
ATOM      9  C   UNL A   1      34.108  25.787  24.737  1.00  0.00     0.029 C 
ATOM     10  C   UNL A   1      33.512  25.887  26.157  1.00  0.00     0.013 C 
BRANCH   9  11
ATOM     11  C   UNL A   1      34.980  24.533  24.739  1.00  0.00    -0.044 A 
ATOM     12  C   UNL A   1      35.785  24.164  25.825  1.00  0.00     0.004 A 
ATOM     13  C   UNL A   1      35.090  23.785  23.552  1.00  0.00     0.004 A 
ATOM     14  C   UNL A   1      36.662  23.079  25.726  1.00  0.00     0.000 A 
ATOM     15  C   UNL A   1      35.962  22.700  23.454  1.00  0.00     0.000 A 
ATOM     16  C   UNL A   1      36.751  22.348  24.543  1.00  0.00     0.000 A 
ENDBRANCH   9  11
ENDBRANCH   8   9
BRANCH   8  17
ATOM     17  C   UNL A   1      31.566  25.566  24.117  1.00  0.00     0.114 C 
BRANCH  17  18
ATOM     18  C   UNL A   1      30.892  24.179  24.078  1.00  0.00     0.225 C 
ATOM     19  O   UNL A   1      30.310  23.829  23.042  1.00  0.00    -0.275 OA
ATOM     20  N   UNL A   1      30.754  23.371  25.173  1.00  0.00    -0.325 N 
ATOM     21  H   UNL A   1      29.847  23.289  25.546  1.00  0.00     0.169 HD
BRANCH  20  22
ATOM     22  C   UNL A   1      31.772  22.643  25.826  1.00  0.00     0.054 A 
ATOM     23  C   UNL A   1      32.182  23.036  27.103  1.00  0.00     0.027 A 
ATOM     24  C   UNL A   1      32.493  21.633  25.163  1.00  0.00     0.037 A 
ATOM     25  C   UNL A   1      33.222  22.359  27.745  1.00  0.00     0.002 A 
ATOM     26  C   UNL A   1      33.458  20.891  25.848  1.00  0.00     0.017 A 
ATOM     27  I   UNL A   1      32.260  21.176  23.133  1.00  0.00    -0.042 I 
ATOM     28  C   UNL A   1      33.822  21.256  27.139  1.00  0.00     0.001 A 
ENDBRANCH  20  22
ENDBRANCH  17  18
ENDBRANCH   8  17
ENDBRANCH   5   8
ENDBRANCH   3   4
ENDBRANCH   2   3
ENDBRANCH   1   2
BRANCH   1  29
ATOM     29  C   UNL A   1      31.467  30.812  26.247  1.00  0.00     0.002 C 
BRANCH  29  30
ATOM     30  C   UNL A   1      31.357  32.289  26.649  1.00  0.00     0.021 C 
BRANCH  30  31
ATOM     31  C   UNL A   1      32.632  32.973  27.141  1.00  0.00     0.116 C 
BRANCH  31  32
ATOM     32  N   UNL A   1      32.402  34.325  27.615  1.00  0.00    -0.352 N 
ATOM     33  C   UNL A   1      32.979  34.986  28.663  1.00  0.00     0.251 C 
ATOM     34  H   UNL A   1      31.732  34.840  27.109  1.00  0.00     0.163 HD
ATOM     35  O   UNL A   1      32.541  36.093  29.010  1.00  0.00    -0.269 OA
BRANCH  33  36
ATOM     36  C   UNL A   1      34.115  34.400  29.403  1.00  0.00     0.039 A 
ATOM     37  C   UNL A   1      35.397  34.506  28.857  1.00  0.00     0.014 A 
ATOM     38  C   UNL A   1      33.918  33.691  30.593  1.00  0.00     0.014 A 
ATOM     39  C   UNL A   1      36.487  33.926  29.513  1.00  0.00     0.010 A 
ATOM     40  C   UNL A   1      35.014  33.158  31.275  1.00  0.00     0.010 A 
ATOM     41  C   UNL A   1      36.305  33.253  30.732  1.00  0.00    -0.014 A 
BRANCH  41  42
ATOM     42  C   UNL A   1      37.451  32.597  31.416  1.00  0.00     0.031 A 
ATOM     43  C   UNL A   1      38.166  31.452  30.750  1.00  0.00     0.074 A 
ATOM     44  C   UNL A   1      37.834  33.007  32.640  1.00  0.00     0.049 A 
ATOM     45  N   UNL A   1      39.158  30.721  31.194  1.00  0.00    -0.248 NA
ATOM     46  C   UNL A   1      37.687  31.063  29.415  1.00  0.00     0.031 C 
ATOM     47  C   UNL A   1      37.204  34.085  33.404  1.00  0.00     0.029 A 
ATOM     48  N   UNL A   1      38.842  32.563  33.459  1.00  0.00    -0.354 N 
ATOM     49  C   UNL A   1      39.410  29.782  30.203  1.00  0.00     0.074 A 
ATOM     50  C   UNL A   1      38.437  30.002  29.154  1.00  0.00     0.031 C 
ATOM     51  C   UNL A   1      37.852  34.230  34.572  1.00  0.00     0.029 A 
ATOM     52  C   UNL A   1      38.924  33.240  34.650  1.00  0.00     0.049 A 
ATOM     53  H   UNL A   1      39.448  31.826  33.215  1.00  0.00     0.167 HD
ATOM     54  C   UNL A   1      40.382  28.838  30.157  1.00  0.00     0.037 A 
ATOM     55  C   UNL A   1      39.769  33.082  35.686  1.00  0.00     0.037 A 
ATOM     56  C   UNL A   1      41.368  28.637  31.185  1.00  0.00     0.049 A 
ATOM     57  C   UNL A   1      40.845  32.030  35.606  1.00  0.00     0.074 A 
ATOM     58  C   UNL A   1      42.412  27.728  31.217  1.00  0.00     0.029 A 
ATOM     59  N   UNL A   1      41.437  29.366  32.363  1.00  0.00    -0.354 N 
ATOM     60  N   UNL A   1      41.102  31.180  34.642  1.00  0.00    -0.248 NA
ATOM     61  C   UNL A   1      41.755  31.925  36.756  1.00  0.00     0.031 C 
ATOM     62  C   UNL A   1      43.094  27.887  32.428  1.00  0.00     0.029 A 
ATOM     63  C   UNL A   1      42.502  28.923  33.131  1.00  0.00     0.049 A 
ATOM     64  H   UNL A   1      40.820  30.091  32.616  1.00  0.00     0.167 HD
ATOM     65  C   UNL A   1      42.223  30.469  35.049  1.00  0.00     0.074 A 
ATOM     66  C   UNL A   1      42.601  30.992  36.345  1.00  0.00     0.031 C 
ATOM     67  C   UNL A   1      42.880  29.472  34.407  1.00  0.00     0.037 A 
BRANCH  54  68
ATOM     68  C   UNL A   1      40.428  27.950  28.946  1.00  0.00     0.064 A 
ATOM     69  C   UNL A   1      41.225  28.267  27.836  1.00  0.00     0.173 A 
ATOM     70  C   UNL A   1      39.697  26.753  28.909  1.00  0.00     0.173 A 
ATOM     71  F   UNL A   1      41.934  29.406  27.817  1.00  0.00    -0.203 F 
ATOM     72  C   UNL A   1      41.266  27.433  26.722  1.00  0.00     0.198 A 
ATOM     73  C   UNL A   1      39.763  25.907  27.805  1.00  0.00     0.198 A 
ATOM     74  F   UNL A   1      38.924  26.400  29.947  1.00  0.00    -0.203 F 
ATOM     75  F   UNL A   1      41.998  27.781  25.654  1.00  0.00    -0.200 F 
ATOM     76  C   UNL A   1      40.541  26.251  26.710  1.00  0.00     0.200 A 
ATOM     77  F   UNL A   1      39.071  24.759  27.800  1.00  0.00    -0.200 F 
ATOM     78  F   UNL A   1      40.587  25.446  25.639  1.00  0.00    -0.200 F 
ENDBRANCH  54  68
BRANCH  55  79
ATOM     79  C   UNL A   1      39.664  33.964  36.878  1.00  0.00     0.064 A 
ATOM     80  C   UNL A   1      40.339  35.192  36.924  1.00  0.00     0.173 A 
ATOM     81  C   UNL A   1      38.902  33.594  37.995  1.00  0.00     0.173 A 
ATOM     82  F   UNL A   1      41.098  35.578  35.888  1.00  0.00    -0.203 F 
ATOM     83  C   UNL A   1      40.279  36.004  38.055  1.00  0.00     0.198 A 
ATOM     84  C   UNL A   1      38.821  34.420  39.114  1.00  0.00     0.198 A 
ATOM     85  F   UNL A   1      38.234  32.431  37.999  1.00  0.00    -0.203 F 
ATOM     86  F   UNL A   1      40.976  37.148  38.092  1.00  0.00    -0.200 F 
ATOM     87  C   UNL A   1      39.516  35.620  39.146  1.00  0.00     0.200 A 
ATOM     88  F   UNL A   1      38.073  34.051  40.163  1.00  0.00    -0.200 F 
ATOM     89  F   UNL A   1      39.459  36.401  40.234  1.00  0.00    -0.200 F 
ENDBRANCH  55  79
BRANCH  67  90
ATOM     90  C   UNL A   1      44.108  28.919  35.068  1.00  0.00     0.064 A 
ATOM     91  C   UNL A   1      45.380  29.455  34.827  1.00  0.00     0.173 A 
ATOM     92  C   UNL A   1      44.001  27.860  35.982  1.00  0.00     0.173 A 
ATOM     93  F   UNL A   1      45.536  30.459  33.951  1.00  0.00    -0.203 F 
ATOM     94  C   UNL A   1      46.508  28.933  35.459  1.00  0.00     0.198 A 
ATOM     95  C   UNL A   1      45.126  27.359  36.632  1.00  0.00     0.198 A 
ATOM     96  F   UNL A   1      42.805  27.317  36.252  1.00  0.00    -0.203 F 
ATOM     97  F   UNL A   1      47.720  29.431  35.179  1.00  0.00    -0.200 F 
ATOM     98  C   UNL A   1      46.378  27.891  36.365  1.00  0.00     0.200 A 
ATOM     99  F   UNL A   1      44.998  26.359  37.516  1.00  0.00    -0.200 F 
ATOM    100  F   UNL A   1      47.462  27.394  36.974  1.00  0.00    -0.200 F 
ENDBRANCH  67  90
ENDBRANCH  41  42
ENDBRANCH  33  36
ENDBRANCH  31  32
ENDBRANCH  30  31
ENDBRANCH  29  30
ENDBRANCH   1  29
TORSDOF 18
ENDMDL
