MODEL 1
REMARK VINA RESULT:     -11.6      0.000      0.000
REMARK SMILES O=C(NCCCCCCNC(=O)[C@@H]1CSc2ccccc21)c1ccc(-c2c3nc(c(-c4c(F)c(F)c(F)c(F)c4F)c4ccc([nH]4)c(-c4c(F)c(F)c(F)c(F)c4F)c4nc(c(-c5c(F)c(F)c(F)c(F)c5F)c5ccc2[nH]5)C=C4)C=C3)cc1
REMARK SMILES IDX 5 1 4 2 3 3 1 4 2 5 22 7 23 8 84 9 24 10 83 11 25 12 26 13
REMARK SMILES IDX 27 14 77 15 28 16 82 17 76 18 78 19 29 20 81 21 75 22 74 23
REMARK SMILES IDX 30 25 62 26 42 27 61 28 43 29 46 30 60 31 79 32 44 33 45 34
REMARK SMILES IDX 59 36 80 37 47 38 31 39 32 40 40 41 33 42 34 43 38 44 41 45
REMARK SMILES IDX 35 46 36 47 39 48 37 49 63 50 64 51 72 52 65 53 66 54 70 55
REMARK SMILES IDX 73 56 67 57 68 58 71 59 69 60 48 61 49 62 57 63 50 64 51 65
REMARK SMILES IDX 55 66 58 67 52 68 53 69 56 70 54 71 6 72 7 73 8 74 9 75
REMARK SMILES IDX 10 76 11 77 12 79 13 80 14 81 21 82 15 83 16 84 20 85 17 86
REMARK SMILES IDX 19 87 18 88
REMARK H PARENT 3 6 78 24 46 35 10 78
REMARK Flexibility Score: inf
ROOT
ATOM      1  C   UNL A   1      31.157  31.956  26.505  1.00  0.00     0.021 C 
ENDROOT
BRANCH   1   2
ATOM      2  C   UNL A   1      32.468  32.521  27.040  1.00  0.00     0.116 C 
BRANCH   2   3
ATOM      3  N   UNL A   1      32.334  33.908  27.450  1.00  0.00    -0.352 N 
ATOM      4  O   UNL A   1      32.612  35.704  28.779  1.00  0.00    -0.269 OA
ATOM      5  C   UNL A   1      32.998  34.588  28.435  1.00  0.00     0.251 C 
ATOM      6  H   UNL A   1      31.671  34.435  26.947  1.00  0.00     0.163 HD
BRANCH   5   7
ATOM      7  C   UNL A   1      34.175  33.987  29.099  1.00  0.00     0.039 A 
ATOM      8  C   UNL A   1      35.448  34.436  28.738  1.00  0.00     0.014 A 
ATOM      9  C   UNL A   1      34.036  32.949  30.027  1.00  0.00     0.014 A 
ATOM     10  C   UNL A   1      36.579  33.857  29.317  1.00  0.00     0.010 A 
ATOM     11  C   UNL A   1      35.161  32.421  30.656  1.00  0.00     0.010 A 
ATOM     12  C   UNL A   1      36.444  32.848  30.285  1.00  0.00    -0.014 A 
BRANCH  12  13
ATOM     13  C   UNL A   1      37.645  32.191  30.859  1.00  0.00     0.031 A 
ATOM     14  C   UNL A   1      38.114  32.565  32.240  1.00  0.00     0.074 A 
ATOM     15  C   UNL A   1      38.307  31.260  30.147  1.00  0.00     0.049 A 
ATOM     16  N   UNL A   1      39.132  32.100  32.920  1.00  0.00    -0.248 NA
ATOM     17  C   UNL A   1      37.356  33.613  32.942  1.00  0.00     0.031 C 
ATOM     18  C   UNL A   1      37.967  30.838  28.788  1.00  0.00     0.029 A 
ATOM     19  N   UNL A   1      39.399  30.492  30.470  1.00  0.00    -0.354 N 
ATOM     20  C   UNL A   1      39.136  32.801  34.119  1.00  0.00     0.074 A 
ATOM     21  C   UNL A   1      38.059  33.764  34.055  1.00  0.00     0.031 C 
ATOM     22  C   UNL A   1      38.808  29.861  28.409  1.00  0.00     0.029 A 
ATOM     23  C   UNL A   1      39.762  29.606  29.485  1.00  0.00     0.049 A 
ATOM     24  H   UNL A   1      39.878  30.570  31.327  1.00  0.00     0.167 HD
ATOM     25  C   UNL A   1      39.944  32.634  35.191  1.00  0.00     0.037 A 
ATOM     26  C   UNL A   1      40.745  28.686  29.460  1.00  0.00     0.037 A 
ATOM     27  C   UNL A   1      40.984  31.644  35.272  1.00  0.00     0.049 A 
ATOM     28  C   UNL A   1      41.628  28.519  30.668  1.00  0.00     0.074 A 
ATOM     29  C   UNL A   1      41.824  31.365  36.335  1.00  0.00     0.029 A 
ATOM     30  N   UNL A   1      41.316  30.765  34.253  1.00  0.00    -0.354 N 
ATOM     31  N   UNL A   1      41.586  29.151  31.814  1.00  0.00    -0.248 NA
ATOM     32  C   UNL A   1      42.691  27.506  30.582  1.00  0.00     0.031 C 
ATOM     33  C   UNL A   1      42.687  30.338  35.949  1.00  0.00     0.029 A 
ATOM     34  C   UNL A   1      42.358  29.951  34.659  1.00  0.00     0.049 A 
ATOM     35  H   UNL A   1      40.877  30.727  33.373  1.00  0.00     0.167 HD
ATOM     36  C   UNL A   1      42.590  28.597  32.594  1.00  0.00     0.074 A 
ATOM     37  C   UNL A   1      43.223  27.570  31.796  1.00  0.00     0.031 C 
ATOM     38  C   UNL A   1      42.956  28.915  33.859  1.00  0.00     0.037 A 
BRANCH  25  39
ATOM     39  C   UNL A   1      39.724  33.513  36.386  1.00  0.00     0.064 A 
ATOM     40  C   UNL A   1      40.304  34.787  36.467  1.00  0.00     0.173 A 
ATOM     41  C   UNL A   1      38.854  33.118  37.412  1.00  0.00     0.173 A 
ATOM     42  F   UNL A   1      41.152  35.205  35.516  1.00  0.00    -0.203 F 
ATOM     43  C   UNL A   1      40.027  35.632  37.539  1.00  0.00     0.198 A 
ATOM     44  C   UNL A   1      38.558  33.975  38.469  1.00  0.00     0.198 A 
ATOM     45  F   UNL A   1      38.268  31.912  37.377  1.00  0.00    -0.203 F 
ATOM     46  F   UNL A   1      40.611  36.836  37.609  1.00  0.00    -0.200 F 
ATOM     47  C   UNL A   1      39.146  35.231  38.532  1.00  0.00     0.200 A 
ATOM     48  F   UNL A   1      37.696  33.593  39.420  1.00  0.00    -0.200 F 
ATOM     49  F   UNL A   1      38.862  36.054  39.550  1.00  0.00    -0.200 F 
ENDBRANCH  25  39
BRANCH  26  50
ATOM     50  C   UNL A   1      40.915  27.817  28.266  1.00  0.00     0.064 A 
ATOM     51  C   UNL A   1      40.277  26.572  28.187  1.00  0.00     0.173 A 
ATOM     52  C   UNL A   1      41.709  28.213  27.179  1.00  0.00     0.173 A 
ATOM     53  F   UNL A   1      39.522  26.142  29.209  1.00  0.00    -0.203 F 
ATOM     54  C   UNL A   1      40.436  25.749  27.074  1.00  0.00     0.198 A 
ATOM     55  C   UNL A   1      41.847  27.400  26.056  1.00  0.00     0.198 A 
ATOM     56  F   UNL A   1      42.339  29.397  27.203  1.00  0.00    -0.203 F 
ATOM     57  F   UNL A   1      39.844  24.547  27.042  1.00  0.00    -0.200 F 
ATOM     58  C   UNL A   1      41.217  26.167  26.007  1.00  0.00     0.200 A 
ATOM     59  F   UNL A   1      42.592  27.813  25.021  1.00  0.00    -0.200 F 
ATOM     60  F   UNL A   1      41.364  25.378  24.934  1.00  0.00    -0.200 F 
ENDBRANCH  26  50
BRANCH  38  61
ATOM     61  C   UNL A   1      44.071  28.132  34.486  1.00  0.00     0.064 A 
ATOM     62  C   UNL A   1      43.829  26.919  35.143  1.00  0.00     0.173 A 
ATOM     63  C   UNL A   1      45.402  28.542  34.321  1.00  0.00     0.173 A 
ATOM     64  F   UNL A   1      42.571  26.491  35.330  1.00  0.00    -0.203 F 
ATOM     65  C   UNL A   1      44.883  26.142  35.616  1.00  0.00     0.198 A 
ATOM     66  C   UNL A   1      46.454  27.752  34.774  1.00  0.00     0.198 A 
ATOM     67  F   UNL A   1      45.683  29.692  33.688  1.00  0.00    -0.203 F 
ATOM     68  F   UNL A   1      44.630  24.993  36.256  1.00  0.00    -0.200 F 
ATOM     69  C   UNL A   1      46.194  26.553  35.421  1.00  0.00     0.200 A 
ATOM     70  F   UNL A   1      47.720  28.142  34.570  1.00  0.00    -0.200 F 
ATOM     71  F   UNL A   1      47.207  25.791  35.853  1.00  0.00    -0.200 F 
ENDBRANCH  38  61
ENDBRANCH  12  13
ENDBRANCH   5   7
ENDBRANCH   2   3
ENDBRANCH   1   2
BRANCH   1  72
ATOM     72  C   UNL A   1      31.314  30.759  25.566  1.00  0.00     0.002 C 
BRANCH  72  73
ATOM     73  C   UNL A   1      32.404  29.762  25.968  1.00  0.00     0.002 C 
BRANCH  73  74
ATOM     74  C   UNL A   1      31.983  28.724  27.018  1.00  0.00     0.021 C 
BRANCH  74  75
ATOM     75  C   UNL A   1      32.439  27.293  26.710  1.00  0.00     0.116 C 
BRANCH  75  76
ATOM     76  N   UNL A   1      31.335  26.370  26.864  1.00  0.00    -0.356 N 
ATOM     77  C   UNL A   1      30.524  25.762  25.955  1.00  0.00     0.228 C 
ATOM     78  H   UNL A   1      31.133  26.139  27.800  1.00  0.00     0.163 HD
ATOM     79  O   UNL A   1      29.543  25.188  26.436  1.00  0.00    -0.274 OA
BRANCH  77  80
ATOM     80  C   UNL A   1      30.887  25.689  24.462  1.00  0.00     0.120 C 
ATOM     81  C   UNL A   1      32.376  25.405  24.192  1.00  0.00     0.093 C 
ATOM     82  C   UNL A   1      30.535  26.960  23.709  1.00  0.00    -0.021 A 
ATOM     83  S   UNL A   1      33.100  26.680  23.128  1.00  0.00    -0.125 SA
ATOM     84  C   UNL A   1      31.590  27.573  23.032  1.00  0.00     0.011 A 
ATOM     85  C   UNL A   1      29.268  27.545  23.676  1.00  0.00     0.006 A 
ATOM     86  C   UNL A   1      31.419  28.776  22.362  1.00  0.00     0.015 A 
ATOM     87  C   UNL A   1      29.088  28.760  23.010  1.00  0.00     0.000 A 
ATOM     88  C   UNL A   1      30.161  29.377  22.362  1.00  0.00     0.001 A 
ENDBRANCH  77  80
ENDBRANCH  75  76
ENDBRANCH  74  75
ENDBRANCH  73  74
ENDBRANCH  72  73
ENDBRANCH   1  72
TORSDOF 13
ENDMDL
MODEL 2
REMARK VINA RESULT:     -11.6      1.216      2.572
REMARK SMILES O=C(NCCCCCCNC(=O)[C@@H]1CSc2ccccc21)c1ccc(-c2c3nc(c(-c4c(F)c(F)c(F)c(F)c4F)c4ccc([nH]4)c(-c4c(F)c(F)c(F)c(F)c4F)c4nc(c(-c5c(F)c(F)c(F)c(F)c5F)c5ccc2[nH]5)C=C4)C=C3)cc1
REMARK SMILES IDX 5 1 4 2 3 3 1 4 2 5 22 7 23 8 84 9 24 10 83 11 25 12 26 13
REMARK SMILES IDX 27 14 77 15 28 16 82 17 76 18 78 19 29 20 81 21 75 22 74 23
REMARK SMILES IDX 30 25 62 26 42 27 61 28 43 29 46 30 60 31 79 32 44 33 45 34
REMARK SMILES IDX 59 36 80 37 47 38 31 39 32 40 40 41 33 42 34 43 38 44 41 45
REMARK SMILES IDX 35 46 36 47 39 48 37 49 63 50 64 51 72 52 65 53 66 54 70 55
REMARK SMILES IDX 73 56 67 57 68 58 71 59 69 60 48 61 49 62 57 63 50 64 51 65
REMARK SMILES IDX 55 66 58 67 52 68 53 69 56 70 54 71 6 72 7 73 8 74 9 75
REMARK SMILES IDX 10 76 11 77 12 79 13 80 14 81 21 82 15 83 16 84 20 85 17 86
REMARK SMILES IDX 19 87 18 88
REMARK H PARENT 3 6 78 24 46 35 10 78
REMARK Flexibility Score: inf
ROOT
ATOM      1  C   UNL A   1      31.362  32.183  26.456  1.00  0.00     0.021 C 
ENDROOT
BRANCH   1   2
ATOM      2  C   UNL A   1      32.604  32.670  27.195  1.00  0.00     0.116 C 
BRANCH   2   3
ATOM      3  N   UNL A   1      32.467  34.045  27.640  1.00  0.00    -0.352 N 
ATOM      4  O   UNL A   1      32.733  35.806  29.018  1.00  0.00    -0.269 OA
ATOM      5  C   UNL A   1      33.121  34.699  28.649  1.00  0.00     0.251 C 
ATOM      6  H   UNL A   1      31.810  34.586  27.144  1.00  0.00     0.163 HD
BRANCH   5   7
ATOM      7  C   UNL A   1      34.291  34.079  29.308  1.00  0.00     0.039 A 
ATOM      8  C   UNL A   1      35.570  34.444  28.880  1.00  0.00     0.014 A 
ATOM      9  C   UNL A   1      34.136  33.105  30.300  1.00  0.00     0.014 A 
ATOM     10  C   UNL A   1      36.692  33.844  29.455  1.00  0.00     0.010 A 
ATOM     11  C   UNL A   1      35.256  32.559  30.923  1.00  0.00     0.010 A 
ATOM     12  C   UNL A   1      36.544  32.900  30.486  1.00  0.00    -0.014 A 
BRANCH  12  13
ATOM     13  C   UNL A   1      37.732  32.218  31.059  1.00  0.00     0.031 A 
ATOM     14  C   UNL A   1      38.195  32.565  32.448  1.00  0.00     0.074 A 
ATOM     15  C   UNL A   1      38.388  31.291  30.336  1.00  0.00     0.049 A 
ATOM     16  N   UNL A   1      39.201  32.075  33.129  1.00  0.00    -0.248 NA
ATOM     17  C   UNL A   1      37.444  33.611  33.162  1.00  0.00     0.031 C 
ATOM     18  C   UNL A   1      38.054  30.895  28.968  1.00  0.00     0.029 A 
ATOM     19  N   UNL A   1      39.468  30.505  30.655  1.00  0.00    -0.354 N 
ATOM     20  C   UNL A   1      39.204  32.757  34.339  1.00  0.00     0.074 A 
ATOM     21  C   UNL A   1      38.140  33.734  34.282  1.00  0.00     0.031 C 
ATOM     22  C   UNL A   1      38.886  29.914  28.579  1.00  0.00     0.029 A 
ATOM     23  C   UNL A   1      39.827  29.630  29.659  1.00  0.00     0.049 A 
ATOM     24  H   UNL A   1      39.940  30.562  31.518  1.00  0.00     0.167 HD
ATOM     25  C   UNL A   1      40.001  32.562  35.415  1.00  0.00     0.037 A 
ATOM     26  C   UNL A   1      40.799  28.698  29.627  1.00  0.00     0.037 A 
ATOM     27  C   UNL A   1      41.028  31.558  35.488  1.00  0.00     0.049 A 
ATOM     28  C   UNL A   1      41.670  28.500  30.839  1.00  0.00     0.074 A 
ATOM     29  C   UNL A   1      41.855  31.251  36.553  1.00  0.00     0.029 A 
ATOM     30  N   UNL A   1      41.357  30.692  34.458  1.00  0.00    -0.354 N 
ATOM     31  N   UNL A   1      41.626  29.114  31.995  1.00  0.00    -0.248 NA
ATOM     32  C   UNL A   1      42.721  27.476  30.745  1.00  0.00     0.031 C 
ATOM     33  C   UNL A   1      42.709  30.220  36.157  1.00  0.00     0.029 A 
ATOM     34  C   UNL A   1      42.386  29.857  34.859  1.00  0.00     0.049 A 
ATOM     35  H   UNL A   1      40.924  30.673  33.574  1.00  0.00     0.167 HD
ATOM     36  C   UNL A   1      42.618  28.535  32.773  1.00  0.00     0.074 A 
ATOM     37  C   UNL A   1      43.244  27.513  31.963  1.00  0.00     0.031 C 
ATOM     38  C   UNL A   1      42.977  28.827  34.047  1.00  0.00     0.037 A 
BRANCH  25  39
ATOM     39  C   UNL A   1      39.782  33.424  36.622  1.00  0.00     0.064 A 
ATOM     40  C   UNL A   1      40.427  34.662  36.758  1.00  0.00     0.173 A 
ATOM     41  C   UNL A   1      38.852  33.055  37.604  1.00  0.00     0.173 A 
ATOM     42  F   UNL A   1      41.333  35.054  35.850  1.00  0.00    -0.203 F 
ATOM     43  C   UNL A   1      40.155  35.496  37.839  1.00  0.00     0.198 A 
ATOM     44  C   UNL A   1      38.563  33.902  38.671  1.00  0.00     0.198 A 
ATOM     45  F   UNL A   1      38.204  31.884  37.517  1.00  0.00    -0.203 F 
ATOM     46  F   UNL A   1      40.800  36.664  37.961  1.00  0.00    -0.200 F 
ATOM     47  C   UNL A   1      39.215  35.122  38.787  1.00  0.00     0.200 A 
ATOM     48  F   UNL A   1      37.644  33.547  39.579  1.00  0.00    -0.200 F 
ATOM     49  F   UNL A   1      38.936  35.936  39.814  1.00  0.00    -0.200 F 
ENDBRANCH  25  39
BRANCH  26  50
ATOM     50  C   UNL A   1      40.968  27.846  28.420  1.00  0.00     0.064 A 
ATOM     51  C   UNL A   1      41.801  28.250  27.367  1.00  0.00     0.173 A 
ATOM     52  C   UNL A   1      40.310  26.613  28.296  1.00  0.00     0.173 A 
ATOM     53  F   UNL A   1      42.436  29.429  27.432  1.00  0.00    -0.203 F 
ATOM     54  C   UNL A   1      41.959  27.459  26.231  1.00  0.00     0.198 A 
ATOM     55  C   UNL A   1      40.489  25.813  27.170  1.00  0.00     0.198 A 
ATOM     56  F   UNL A   1      39.504  26.179  29.277  1.00  0.00    -0.203 F 
ATOM     57  F   UNL A   1      42.732  27.888  25.223  1.00  0.00    -0.200 F 
ATOM     58  C   UNL A   1      41.308  26.239  26.135  1.00  0.00     0.200 A 
ATOM     59  F   UNL A   1      39.869  24.628  27.087  1.00  0.00    -0.200 F 
ATOM     60  F   UNL A   1      41.466  25.477  25.044  1.00  0.00    -0.200 F 
ENDBRANCH  26  50
BRANCH  38  61
ATOM     61  C   UNL A   1      44.076  28.020  34.669  1.00  0.00     0.064 A 
ATOM     62  C   UNL A   1      45.404  28.467  34.659  1.00  0.00     0.173 A 
ATOM     63  C   UNL A   1      43.777  26.850  35.383  1.00  0.00     0.173 A 
ATOM     64  F   UNL A   1      45.738  29.576  33.982  1.00  0.00    -0.203 F 
ATOM     65  C   UNL A   1      46.395  27.769  35.342  1.00  0.00     0.198 A 
ATOM     66  C   UNL A   1      44.766  26.168  36.084  1.00  0.00     0.198 A 
ATOM     67  F   UNL A   1      42.517  26.389  35.430  1.00  0.00    -0.203 F 
ATOM     68  F   UNL A   1      47.662  28.204  35.307  1.00  0.00    -0.200 F 
ATOM     69  C   UNL A   1      46.074  26.628  36.063  1.00  0.00     0.200 A 
ATOM     70  F   UNL A   1      44.451  25.076  36.794  1.00  0.00    -0.200 F 
ATOM     71  F   UNL A   1      47.026  25.973  36.742  1.00  0.00    -0.200 F 
ENDBRANCH  38  61
ENDBRANCH  12  13
ENDBRANCH   5   7
ENDBRANCH   2   3
ENDBRANCH   1   2
BRANCH   1  72
ATOM     72  C   UNL A   1      31.385  30.702  26.076  1.00  0.00     0.002 C 
BRANCH  72  73
ATOM     73  C   UNL A   1      32.322  29.834  26.921  1.00  0.00     0.002 C 
BRANCH  73  74
ATOM     74  C   UNL A   1      31.712  28.519  27.428  1.00  0.00     0.021 C 
BRANCH  74  75
ATOM     75  C   UNL A   1      31.517  27.453  26.344  1.00  0.00     0.116 C 
BRANCH  75  76
ATOM     76  N   UNL A   1      31.435  26.138  26.943  1.00  0.00    -0.356 N 
ATOM     77  C   UNL A   1      31.450  24.889  26.401  1.00  0.00     0.228 C 
ATOM     78  H   UNL A   1      31.352  26.149  27.924  1.00  0.00     0.163 HD
ATOM     79  O   UNL A   1      31.154  23.980  27.182  1.00  0.00    -0.274 OA
BRANCH  77  80
ATOM     80  C   UNL A   1      31.934  24.632  24.963  1.00  0.00     0.120 C 
ATOM     81  C   UNL A   1      31.097  23.593  24.197  1.00  0.00     0.093 C 
ATOM     82  C   UNL A   1      33.379  24.168  24.904  1.00  0.00    -0.021 A 
ATOM     83  S   UNL A   1      32.140  22.253  23.564  1.00  0.00    -0.125 SA
ATOM     84  C   UNL A   1      33.596  22.952  24.257  1.00  0.00     0.011 A 
ATOM     85  C   UNL A   1      34.462  24.850  25.462  1.00  0.00     0.006 A 
ATOM     86  C   UNL A   1      34.859  22.381  24.193  1.00  0.00     0.015 A 
ATOM     87  C   UNL A   1      35.736  24.281  25.408  1.00  0.00     0.000 A 
ATOM     88  C   UNL A   1      35.933  23.046  24.783  1.00  0.00     0.001 A 
ENDBRANCH  77  80
ENDBRANCH  75  76
ENDBRANCH  74  75
ENDBRANCH  73  74
ENDBRANCH  72  73
ENDBRANCH   1  72
TORSDOF 13
ENDMDL
MODEL 3
REMARK VINA RESULT:     -11.5      4.222      6.560
REMARK SMILES O=C(NCCCCCCNC(=O)[C@@H]1CSc2ccccc21)c1ccc(-c2c3nc(c(-c4c(F)c(F)c(F)c(F)c4F)c4ccc([nH]4)c(-c4c(F)c(F)c(F)c(F)c4F)c4nc(c(-c5c(F)c(F)c(F)c(F)c5F)c5ccc2[nH]5)C=C4)C=C3)cc1
REMARK SMILES IDX 5 1 4 2 3 3 1 4 2 5 22 7 23 8 84 9 24 10 83 11 25 12 26 13
REMARK SMILES IDX 27 14 77 15 28 16 82 17 76 18 78 19 29 20 81 21 75 22 74 23
REMARK SMILES IDX 30 25 62 26 42 27 61 28 43 29 46 30 60 31 79 32 44 33 45 34
REMARK SMILES IDX 59 36 80 37 47 38 31 39 32 40 40 41 33 42 34 43 38 44 41 45
REMARK SMILES IDX 35 46 36 47 39 48 37 49 63 50 64 51 72 52 65 53 66 54 70 55
REMARK SMILES IDX 73 56 67 57 68 58 71 59 69 60 48 61 49 62 57 63 50 64 51 65
REMARK SMILES IDX 55 66 58 67 52 68 53 69 56 70 54 71 6 72 7 73 8 74 9 75
REMARK SMILES IDX 10 76 11 77 12 79 13 80 14 81 21 82 15 83 16 84 20 85 17 86
REMARK SMILES IDX 19 87 18 88
REMARK H PARENT 3 6 78 24 46 35 10 78
REMARK Flexibility Score: inf
ROOT
ATOM      1  C   UNL A   1      33.274  35.460  32.334  1.00  0.00     0.021 C 
ENDROOT
BRANCH   1   2
ATOM      2  C   UNL A   1      33.250  36.233  31.020  1.00  0.00     0.116 C 
BRANCH   2   3
ATOM      3  N   UNL A   1      32.672  35.452  29.941  1.00  0.00    -0.352 N 
ATOM      4  O   UNL A   1      32.671  34.082  28.154  1.00  0.00    -0.269 OA
ATOM      5  C   UNL A   1      33.255  34.496  29.154  1.00  0.00     0.251 C 
ATOM      6  H   UNL A   1      31.724  35.636  29.748  1.00  0.00     0.163 HD
BRANCH   5   7
ATOM      7  C   UNL A   1      34.591  33.959  29.493  1.00  0.00     0.039 A 
ATOM      8  C   UNL A   1      35.711  34.510  28.864  1.00  0.00     0.014 A 
ATOM      9  C   UNL A   1      34.741  32.886  30.377  1.00  0.00     0.014 A 
ATOM     10  C   UNL A   1      36.981  33.994  29.132  1.00  0.00     0.010 A 
ATOM     11  C   UNL A   1      36.014  32.419  30.698  1.00  0.00     0.010 A 
ATOM     12  C   UNL A   1      37.143  32.948  30.056  1.00  0.00    -0.014 A 
BRANCH  12  13
ATOM     13  C   UNL A   1      38.484  32.360  30.300  1.00  0.00     0.031 A 
ATOM     14  C   UNL A   1      39.455  33.064  31.209  1.00  0.00     0.074 A 
ATOM     15  C   UNL A   1      38.826  31.199  29.710  1.00  0.00     0.049 A 
ATOM     16  N   UNL A   1      40.667  32.708  31.557  1.00  0.00    -0.248 NA
ATOM     17  C   UNL A   1      39.019  34.344  31.791  1.00  0.00     0.031 C 
ATOM     18  C   UNL A   1      37.983  30.443  28.784  1.00  0.00     0.029 A 
ATOM     19  N   UNL A   1      39.970  30.445  29.810  1.00  0.00    -0.354 N 
ATOM     20  C   UNL A   1      41.133  33.720  32.386  1.00  0.00     0.074 A 
ATOM     21  C   UNL A   1      40.103  34.732  32.447  1.00  0.00     0.031 C 
ATOM     22  C   UNL A   1      38.622  29.314  28.431  1.00  0.00     0.029 A 
ATOM     23  C   UNL A   1      39.928  29.280  29.083  1.00  0.00     0.049 A 
ATOM     24  H   UNL A   1      40.748  30.715  30.351  1.00  0.00     0.167 HD
ATOM     25  C   UNL A   1      42.303  33.783  33.064  1.00  0.00     0.037 A 
ATOM     26  C   UNL A   1      40.837  28.293  28.968  1.00  0.00     0.037 A 
ATOM     27  C   UNL A   1      43.306  32.754  33.040  1.00  0.00     0.049 A 
ATOM     28  C   UNL A   1      42.129  28.387  29.735  1.00  0.00     0.074 A 
ATOM     29  C   UNL A   1      44.503  32.705  33.732  1.00  0.00     0.029 A 
ATOM     30  N   UNL A   1      43.223  31.590  32.294  1.00  0.00    -0.354 N 
ATOM     31  N   UNL A   1      42.533  29.323  30.557  1.00  0.00    -0.248 NA
ATOM     32  C   UNL A   1      43.088  27.286  29.564  1.00  0.00     0.031 C 
ATOM     33  C   UNL A   1      45.161  31.525  33.379  1.00  0.00     0.029 A 
ATOM     34  C   UNL A   1      44.355  30.820  32.499  1.00  0.00     0.049 A 
ATOM     35  H   UNL A   1      42.472  31.346  31.706  1.00  0.00     0.167 HD
ATOM     36  C   UNL A   1      43.774  28.914  31.023  1.00  0.00     0.074 A 
ATOM     37  C   UNL A   1      44.057  27.639  30.400  1.00  0.00     0.031 C 
ATOM     38  C   UNL A   1      44.605  29.541  31.890  1.00  0.00     0.037 A 
BRANCH  25  39
ATOM     39  C   UNL A   1      42.558  34.987  33.921  1.00  0.00     0.064 A 
ATOM     40  C   UNL A   1      42.278  34.973  35.295  1.00  0.00     0.173 A 
ATOM     41  C   UNL A   1      43.173  36.127  33.385  1.00  0.00     0.173 A 
ATOM     42  F   UNL A   1      41.680  33.909  35.852  1.00  0.00    -0.203 F 
ATOM     43  C   UNL A   1      42.596  36.063  36.101  1.00  0.00     0.198 A 
ATOM     44  C   UNL A   1      43.514  37.205  34.199  1.00  0.00     0.198 A 
ATOM     45  F   UNL A   1      43.467  36.187  32.078  1.00  0.00    -0.203 F 
ATOM     46  F   UNL A   1      42.297  36.038  37.407  1.00  0.00    -0.200 F 
ATOM     47  C   UNL A   1      43.224  37.172  35.555  1.00  0.00     0.200 A 
ATOM     48  F   UNL A   1      44.133  38.271  33.674  1.00  0.00    -0.200 F 
ATOM     49  F   UNL A   1      43.551  38.211  36.336  1.00  0.00    -0.200 F 
ENDBRANCH  25  39
BRANCH  26  50
ATOM     50  C   UNL A   1      40.536  27.104  28.127  1.00  0.00     0.064 A 
ATOM     51  C   UNL A   1      41.146  26.935  26.877  1.00  0.00     0.173 A 
ATOM     52  C   UNL A   1      39.641  26.112  28.556  1.00  0.00     0.173 A 
ATOM     53  F   UNL A   1      41.995  27.866  26.416  1.00  0.00    -0.203 F 
ATOM     54  C   UNL A   1      40.864  25.827  26.081  1.00  0.00     0.198 A 
ATOM     55  C   UNL A   1      39.379  24.992  27.770  1.00  0.00     0.198 A 
ATOM     56  F   UNL A   1      39.032  26.225  29.746  1.00  0.00    -0.203 F 
ATOM     57  F   UNL A   1      41.434  25.710  24.874  1.00  0.00    -0.200 F 
ATOM     58  C   UNL A   1      39.985  24.854  26.531  1.00  0.00     0.200 A 
ATOM     59  F   UNL A   1      38.538  24.047  28.213  1.00  0.00    -0.200 F 
ATOM     60  F   UNL A   1      39.719  23.785  25.767  1.00  0.00    -0.200 F 
ENDBRANCH  26  50
BRANCH  38  61
ATOM     61  C   UNL A   1      45.890  28.857  32.250  1.00  0.00     0.064 A 
ATOM     62  C   UNL A   1      45.954  27.935  33.303  1.00  0.00     0.173 A 
ATOM     63  C   UNL A   1      47.034  29.040  31.459  1.00  0.00     0.173 A 
ATOM     64  F   UNL A   1      44.887  27.735  34.091  1.00  0.00    -0.203 F 
ATOM     65  C   UNL A   1      47.121  27.219  33.552  1.00  0.00     0.198 A 
ATOM     66  C   UNL A   1      48.191  28.305  31.695  1.00  0.00     0.198 A 
ATOM     67  F   UNL A   1      47.016  29.905  30.432  1.00  0.00    -0.203 F 
ATOM     68  F   UNL A   1      47.168  26.353  34.573  1.00  0.00    -0.200 F 
ATOM     69  C   UNL A   1      48.234  27.395  32.741  1.00  0.00     0.200 A 
ATOM     70  F   UNL A   1      49.259  28.464  30.902  1.00  0.00    -0.200 F 
ATOM     71  F   UNL A   1      49.347  26.685  32.967  1.00  0.00    -0.200 F 
ENDBRANCH  38  61
ENDBRANCH  12  13
ENDBRANCH   5   7
ENDBRANCH   2   3
ENDBRANCH   1   2
BRANCH   1  72
ATOM     72  C   UNL A   1      34.598  35.537  33.097  1.00  0.00     0.002 C 
BRANCH  72  73
ATOM     73  C   UNL A   1      35.149  34.189  33.569  1.00  0.00     0.002 C 
BRANCH  73  74
ATOM     74  C   UNL A   1      35.713  34.179  34.998  1.00  0.00     0.021 C 
BRANCH  74  75
ATOM     75  C   UNL A   1      37.231  33.989  35.077  1.00  0.00     0.116 C 
BRANCH  75  76
ATOM     76  N   UNL A   1      37.550  32.802  35.842  1.00  0.00    -0.356 N 
ATOM     77  C   UNL A   1      37.886  31.539  35.464  1.00  0.00     0.228 C 
ATOM     78  H   UNL A   1      37.516  32.934  36.818  1.00  0.00     0.163 HD
ATOM     79  O   UNL A   1      37.895  30.708  36.377  1.00  0.00    -0.274 OA
BRANCH  77  80
ATOM     80  C   UNL A   1      38.350  31.215  34.034  1.00  0.00     0.120 C 
ATOM     81  C   UNL A   1      37.266  30.564  33.156  1.00  0.00     0.093 C 
ATOM     82  C   UNL A   1      39.557  30.293  34.003  1.00  0.00    -0.021 A 
ATOM     83  S   UNL A   1      37.841  28.988  32.470  1.00  0.00    -0.125 SA
ATOM     84  C   UNL A   1      39.398  29.114  33.276  1.00  0.00     0.011 A 
ATOM     85  C   UNL A   1      40.766  30.537  34.656  1.00  0.00     0.006 A 
ATOM     86  C   UNL A   1      40.398  28.154  33.224  1.00  0.00     0.015 A 
ATOM     87  C   UNL A   1      41.777  29.574  34.616  1.00  0.00     0.000 A 
ATOM     88  C   UNL A   1      41.591  28.383  33.909  1.00  0.00     0.001 A 
ENDBRANCH  77  80
ENDBRANCH  75  76
ENDBRANCH  74  75
ENDBRANCH  73  74
ENDBRANCH  72  73
ENDBRANCH   1  72
TORSDOF 13
ENDMDL
