MODEL 1
REMARK VINA RESULT:     -11.6      0.000      0.000
REMARK SMILES O=C(/C=C/c1ccccc1Oc1cccc(Cl)c1)NCCCCCCNC(=O)c1ccc(-c2c3nc(c(-c4c(F)c(F)c(F)c(F)c4F)c4ccc([nH]4)c(-c4c(F)c(F)c(F)c(F)c4F)c4nc(c(-c5c(F)c(F)c(F)c(F)c5F)c5ccc2[nH]5)C=C4)C=C3)cc1
REMARK SMILES IDX 22 1 21 2 20 3 19 4 1 5 2 6 3 8 4 9 5 10 6 11 10 12 7 13
REMARK SMILES IDX 9 14 8 15 11 16 12 17 13 18 18 19 14 20 16 21 15 22 17 23
REMARK SMILES IDX 23 24 24 25 25 26 26 27 27 28 28 30 29 31 30 32 91 33 31 34
REMARK SMILES IDX 90 35 32 36 33 37 34 38 84 39 35 40 89 41 83 42 85 43 36 44
REMARK SMILES IDX 88 45 82 46 81 47 37 49 69 50 49 51 68 52 50 53 53 54 67 55
REMARK SMILES IDX 86 56 51 57 52 58 66 60 87 61 54 62 38 63 39 64 47 65 40 66
REMARK SMILES IDX 41 67 45 68 48 69 42 70 43 71 46 72 44 73 70 74 71 75 79 76
REMARK SMILES IDX 72 77 73 78 77 79 80 80 74 81 75 82 78 83 76 84 55 85 56 86
REMARK SMILES IDX 64 87 57 88 58 89 62 90 65 91 59 92 60 93 63 94 61 95
REMARK H PARENT 19 7 26 29 85 48 53 59
REMARK Flexibility Score: inf
ROOT
ATOM      1  C   UNL A   1      31.015  27.943  24.247  1.00  0.00     0.002 C 
ENDROOT
BRANCH   1   2
ATOM      2  C   UNL A   1      30.349  26.987  23.249  1.00  0.00     0.021 C 
BRANCH   2   3
ATOM      3  C   UNL A   1      31.285  26.476  22.159  1.00  0.00     0.116 C 
BRANCH   3   4
ATOM      4  N   UNL A   1      31.640  25.090  22.367  1.00  0.00    -0.353 N 
ATOM      5  O   UNL A   1      33.897  25.357  22.046  1.00  0.00    -0.270 OA
ATOM      6  C   UNL A   1      32.931  24.638  22.276  1.00  0.00     0.244 C 
ATOM      7  H   UNL A   1      30.927  24.447  22.582  1.00  0.00     0.163 HD
BRANCH   6   8
ATOM      8  C   UNL A   1      33.132  23.196  22.569  1.00  0.00     0.072 C 
ATOM      9  C   UNL A   1      32.227  22.408  23.169  1.00  0.00     0.017 C 
BRANCH   9  10
ATOM     10  C   UNL A   1      32.507  21.025  23.574  1.00  0.00     0.017 A 
ATOM     11  C   UNL A   1      32.153  20.048  22.621  1.00  0.00     0.012 A 
ATOM     12  C   UNL A   1      33.042  20.607  24.809  1.00  0.00     0.134 A 
ATOM     13  C   UNL A   1      32.343  18.687  22.871  1.00  0.00     0.001 A 
ATOM     14  C   UNL A   1      33.235  19.232  25.038  1.00  0.00     0.048 A 
ATOM     15  C   UNL A   1      32.889  18.280  24.080  1.00  0.00     0.004 A 
BRANCH  12  16
ATOM     16  O   UNL A   1      33.492  21.363  25.874  1.00  0.00    -0.457 OA
BRANCH  16  17
ATOM     17  C   UNL A   1      34.664  22.066  25.820  1.00  0.00     0.128 A 
ATOM     18  C   UNL A   1      34.555  23.460  25.779  1.00  0.00     0.047 A 
ATOM     19  C   UNL A   1      35.913  21.453  25.737  1.00  0.00     0.067 A 
ATOM     20  C   UNL A   1      35.702  24.251  25.749  1.00  0.00     0.005 A 
ATOM     21  C   UNL A   1      37.056  22.251  25.716  1.00  0.00     0.044 A 
ATOM     22  C   UNL A   1      36.958  23.645  25.728  1.00  0.00     0.021 A 
ATOM     23  Cl  UNL A   1      38.611  21.513  25.751  1.00  0.00    -0.084 Cl
ENDBRANCH  16  17
ENDBRANCH  12  16
ENDBRANCH   9  10
ENDBRANCH   6   8
ENDBRANCH   3   4
ENDBRANCH   2   3
ENDBRANCH   1   2
BRANCH   1  24
ATOM     24  C   UNL A   1      31.839  27.270  25.349  1.00  0.00     0.002 C 
BRANCH  24  25
ATOM     25  C   UNL A   1      33.353  27.452  25.232  1.00  0.00     0.021 C 
BRANCH  25  26
ATOM     26  C   UNL A   1      34.043  27.940  26.501  1.00  0.00     0.116 C 
BRANCH  26  27
ATOM     27  N   UNL A   1      33.668  29.300  26.855  1.00  0.00    -0.352 N 
ATOM     28  C   UNL A   1      34.348  30.212  27.625  1.00  0.00     0.251 C 
ATOM     29  H   UNL A   1      32.806  29.610  26.494  1.00  0.00     0.163 HD
ATOM     30  O   UNL A   1      33.815  31.268  27.954  1.00  0.00    -0.269 OA
BRANCH  28  31
ATOM     31  C   UNL A   1      35.721  29.906  28.081  1.00  0.00     0.039 A 
ATOM     32  C   UNL A   1      35.903  29.375  29.361  1.00  0.00     0.014 A 
ATOM     33  C   UNL A   1      36.821  30.133  27.251  1.00  0.00     0.014 A 
ATOM     34  C   UNL A   1      37.185  29.015  29.783  1.00  0.00     0.010 A 
ATOM     35  C   UNL A   1      38.085  29.702  27.643  1.00  0.00     0.010 A 
ATOM     36  C   UNL A   1      38.283  29.143  28.916  1.00  0.00    -0.014 A 
BRANCH  36  37
ATOM     37  C   UNL A   1      39.643  28.709  29.325  1.00  0.00     0.031 A 
ATOM     38  C   UNL A   1      40.478  29.587  30.217  1.00  0.00     0.074 A 
ATOM     39  C   UNL A   1      40.147  27.551  28.854  1.00  0.00     0.049 A 
ATOM     40  N   UNL A   1      41.713  29.424  30.621  1.00  0.00    -0.248 NA
ATOM     41  C   UNL A   1      39.851  30.828  30.699  1.00  0.00     0.031 C 
ATOM     42  C   UNL A   1      39.455  26.631  27.950  1.00  0.00     0.029 A 
ATOM     43  N   UNL A   1      41.368  26.955  29.059  1.00  0.00    -0.354 N 
ATOM     44  C   UNL A   1      42.007  30.537  31.397  1.00  0.00     0.074 A 
ATOM     45  C   UNL A   1      40.848  31.401  31.357  1.00  0.00     0.031 C 
ATOM     46  C   UNL A   1      40.251  25.580  27.695  1.00  0.00     0.029 A 
ATOM     47  C   UNL A   1      41.527  25.772  28.378  1.00  0.00     0.049 A 
ATOM     48  H   UNL A   1      42.064  27.340  29.640  1.00  0.00     0.167 HD
ATOM     49  C   UNL A   1      43.132  30.802  32.104  1.00  0.00     0.037 A 
ATOM     50  C   UNL A   1      42.587  24.945  28.303  1.00  0.00     0.037 A 
ATOM     51  C   UNL A   1      44.279  29.934  32.155  1.00  0.00     0.049 A 
ATOM     52  C   UNL A   1      43.836  25.280  29.076  1.00  0.00     0.074 A 
ATOM     53  C   UNL A   1      45.453  30.099  32.868  1.00  0.00     0.029 A 
ATOM     54  N   UNL A   1      44.393  28.735  31.466  1.00  0.00    -0.354 N 
ATOM     55  N   UNL A   1      44.078  26.308  29.853  1.00  0.00    -0.248 NA
ATOM     56  C   UNL A   1      44.956  24.336  28.968  1.00  0.00     0.031 C 
ATOM     57  C   UNL A   1      46.299  29.026  32.573  1.00  0.00     0.029 A 
ATOM     58  C   UNL A   1      45.627  28.160  31.726  1.00  0.00     0.049 A 
ATOM     59  H   UNL A   1      43.703  28.352  30.881  1.00  0.00     0.167 HD
ATOM     60  C   UNL A   1      45.359  26.112  30.355  1.00  0.00     0.074 A 
ATOM     61  C   UNL A   1      45.836  24.861  29.808  1.00  0.00     0.031 C 
ATOM     62  C   UNL A   1      46.077  26.900  31.192  1.00  0.00     0.037 A 
BRANCH  49  63
ATOM     63  C   UNL A   1      43.176  32.077  32.896  1.00  0.00     0.064 A 
ATOM     64  C   UNL A   1      43.639  33.274  32.329  1.00  0.00     0.173 A 
ATOM     65  C   UNL A   1      42.693  32.118  34.212  1.00  0.00     0.173 A 
ATOM     66  F   UNL A   1      44.122  33.288  31.078  1.00  0.00    -0.203 F 
ATOM     67  C   UNL A   1      43.633  34.462  33.056  1.00  0.00     0.198 A 
ATOM     68  C   UNL A   1      42.659  33.315  34.925  1.00  0.00     0.198 A 
ATOM     69  F   UNL A   1      42.233  31.004  34.800  1.00  0.00    -0.203 F 
ATOM     70  F   UNL A   1      44.118  35.584  32.507  1.00  0.00    -0.200 F 
ATOM     71  C   UNL A   1      43.134  34.483  34.349  1.00  0.00     0.200 A 
ATOM     72  F   UNL A   1      42.161  33.336  36.170  1.00  0.00    -0.200 F 
ATOM     73  F   UNL A   1      43.113  35.629  35.043  1.00  0.00    -0.200 F 
ENDBRANCH  49  63
BRANCH  50  74
ATOM     74  C   UNL A   1      42.524  23.714  27.466  1.00  0.00     0.064 A 
ATOM     75  C   UNL A   1      42.048  22.504  27.992  1.00  0.00     0.173 A 
ATOM     76  C   UNL A   1      42.983  23.710  26.140  1.00  0.00     0.173 A 
ATOM     77  F   UNL A   1      41.617  22.450  29.260  1.00  0.00    -0.203 F 
ATOM     78  C   UNL A   1      42.072  21.331  27.239  1.00  0.00     0.198 A 
ATOM     79  C   UNL A   1      42.973  22.545  25.377  1.00  0.00     0.198 A 
ATOM     80  F   UNL A   1      43.443  24.840  25.584  1.00  0.00    -0.203 F 
ATOM     81  F   UNL A   1      41.679  20.176  27.792  1.00  0.00    -0.200 F 
ATOM     82  C   UNL A   1      42.532  21.353  25.932  1.00  0.00     0.200 A 
ATOM     83  F   UNL A   1      43.401  22.574  24.108  1.00  0.00    -0.200 F 
ATOM     84  F   UNL A   1      42.562  20.224  25.211  1.00  0.00    -0.200 F 
ENDBRANCH  50  74
BRANCH  62  85
ATOM     85  C   UNL A   1      47.432  26.407  31.616  1.00  0.00     0.064 A 
ATOM     86  C   UNL A   1      47.605  25.592  32.743  1.00  0.00     0.173 A 
ATOM     87  C   UNL A   1      48.568  26.724  30.854  1.00  0.00     0.173 A 
ATOM     88  F   UNL A   1      46.554  25.271  33.513  1.00  0.00    -0.203 F 
ATOM     89  C   UNL A   1      48.869  25.139  33.112  1.00  0.00     0.198 A 
ATOM     90  C   UNL A   1      49.824  26.239  31.205  1.00  0.00     0.198 A 
ATOM     91  F   UNL A   1      48.457  27.492  29.760  1.00  0.00    -0.203 F 
ATOM     92  F   UNL A   1      49.018  24.407  34.225  1.00  0.00    -0.200 F 
ATOM     93  C   UNL A   1      49.976  25.455  32.338  1.00  0.00     0.200 A 
ATOM     94  F   UNL A   1      50.890  26.531  30.446  1.00  0.00    -0.200 F 
ATOM     95  F   UNL A   1      51.190  25.010  32.689  1.00  0.00    -0.200 F 
ENDBRANCH  62  85
ENDBRANCH  36  37
ENDBRANCH  28  31
ENDBRANCH  26  27
ENDBRANCH  25  26
ENDBRANCH  24  25
ENDBRANCH   1  24
TORSDOF 16
ENDMDL
MODEL 2
REMARK VINA RESULT:     -11.6      3.418      8.939
REMARK SMILES O=C(/C=C/c1ccccc1Oc1cccc(Cl)c1)NCCCCCCNC(=O)c1ccc(-c2c3nc(c(-c4c(F)c(F)c(F)c(F)c4F)c4ccc([nH]4)c(-c4c(F)c(F)c(F)c(F)c4F)c4nc(c(-c5c(F)c(F)c(F)c(F)c5F)c5ccc2[nH]5)C=C4)C=C3)cc1
REMARK SMILES IDX 22 1 21 2 20 3 19 4 1 5 2 6 3 8 4 9 5 10 6 11 10 12 7 13
REMARK SMILES IDX 9 14 8 15 11 16 12 17 13 18 18 19 14 20 16 21 15 22 17 23
REMARK SMILES IDX 23 24 24 25 25 26 26 27 27 28 28 30 29 31 30 32 91 33 31 34
REMARK SMILES IDX 90 35 32 36 33 37 34 38 84 39 35 40 89 41 83 42 85 43 36 44
REMARK SMILES IDX 88 45 82 46 81 47 37 49 69 50 49 51 68 52 50 53 53 54 67 55
REMARK SMILES IDX 86 56 51 57 52 58 66 60 87 61 54 62 38 63 39 64 47 65 40 66
REMARK SMILES IDX 41 67 45 68 48 69 42 70 43 71 46 72 44 73 70 74 71 75 79 76
REMARK SMILES IDX 72 77 73 78 77 79 80 80 74 81 75 82 78 83 76 84 55 85 56 86
REMARK SMILES IDX 64 87 57 88 58 89 62 90 65 91 59 92 60 93 63 94 61 95
REMARK H PARENT 19 7 26 29 85 48 53 59
REMARK Flexibility Score: inf
ROOT
ATOM      1  C   UNL A   1      33.773  21.673  24.662  1.00  0.00     0.002 C 
ENDROOT
BRANCH   1   2
ATOM      2  C   UNL A   1      32.924  22.645  25.493  1.00  0.00     0.021 C 
BRANCH   2   3
ATOM      3  C   UNL A   1      31.420  22.464  25.316  1.00  0.00     0.116 C 
BRANCH   3   4
ATOM      4  N   UNL A   1      30.775  23.700  24.936  1.00  0.00    -0.353 N 
ATOM      5  O   UNL A   1      30.393  24.450  27.071  1.00  0.00    -0.270 OA
ATOM      6  C   UNL A   1      30.295  24.594  25.858  1.00  0.00     0.244 C 
ATOM      7  H   UNL A   1      30.676  23.908  23.980  1.00  0.00     0.163 HD
BRANCH   6   8
ATOM      8  C   UNL A   1      29.706  25.839  25.303  1.00  0.00     0.072 C 
ATOM      9  C   UNL A   1      29.846  26.247  24.033  1.00  0.00     0.017 C 
BRANCH   9  10
ATOM     10  C   UNL A   1      29.373  27.550  23.549  1.00  0.00     0.017 A 
ATOM     11  C   UNL A   1      27.972  27.688  23.496  1.00  0.00     0.012 A 
ATOM     12  C   UNL A   1      30.178  28.620  23.110  1.00  0.00     0.134 A 
ATOM     13  C   UNL A   1      27.374  28.865  23.041  1.00  0.00     0.001 A 
ATOM     14  C   UNL A   1      29.558  29.801  22.664  1.00  0.00     0.048 A 
ATOM     15  C   UNL A   1      28.169  29.925  22.627  1.00  0.00     0.004 A 
BRANCH  12  16
ATOM     16  O   UNL A   1      31.555  28.739  23.097  1.00  0.00    -0.457 OA
BRANCH  16  17
ATOM     17  C   UNL A   1      32.296  28.707  24.246  1.00  0.00     0.128 A 
ATOM     18  C   UNL A   1      33.012  27.532  24.496  1.00  0.00     0.047 A 
ATOM     19  C   UNL A   1      32.301  29.747  25.174  1.00  0.00     0.067 A 
ATOM     20  C   UNL A   1      33.812  27.428  25.632  1.00  0.00     0.005 A 
ATOM     21  C   UNL A   1      33.111  29.639  26.304  1.00  0.00     0.044 A 
ATOM     22  C   UNL A   1      33.871  28.489  26.535  1.00  0.00     0.021 A 
ATOM     23  Cl  UNL A   1      33.236  30.967  27.393  1.00  0.00    -0.084 Cl
ENDBRANCH  16  17
ENDBRANCH  12  16
ENDBRANCH   9  10
ENDBRANCH   6   8
ENDBRANCH   3   4
ENDBRANCH   2   3
ENDBRANCH   1   2
BRANCH   1  24
ATOM     24  C   UNL A   1      35.165  22.182  24.278  1.00  0.00     0.002 C 
BRANCH  24  25
ATOM     25  C   UNL A   1      35.403  23.673  24.522  1.00  0.00     0.021 C 
BRANCH  25  26
ATOM     26  C   UNL A   1      36.551  23.995  25.473  1.00  0.00     0.116 C 
BRANCH  26  27
ATOM     27  N   UNL A   1      37.473  22.882  25.637  1.00  0.00    -0.352 N 
ATOM     28  C   UNL A   1      38.746  22.883  26.151  1.00  0.00     0.251 C 
ATOM     29  H   UNL A   1      37.138  22.007  25.336  1.00  0.00     0.163 HD
ATOM     30  O   UNL A   1      39.448  21.879  26.074  1.00  0.00    -0.269 OA
BRANCH  28  31
ATOM     31  C   UNL A   1      39.282  24.111  26.777  1.00  0.00     0.039 A 
ATOM     32  C   UNL A   1      40.011  25.006  25.989  1.00  0.00     0.014 A 
ATOM     33  C   UNL A   1      39.063  24.383  28.130  1.00  0.00     0.014 A 
ATOM     34  C   UNL A   1      40.466  26.203  26.545  1.00  0.00     0.010 A 
ATOM     35  C   UNL A   1      39.449  25.610  28.660  1.00  0.00     0.010 A 
ATOM     36  C   UNL A   1      40.160  26.532  27.876  1.00  0.00    -0.014 A 
BRANCH  36  37
ATOM     37  C   UNL A   1      40.582  27.828  28.467  1.00  0.00     0.031 A 
ATOM     38  C   UNL A   1      42.015  28.039  28.875  1.00  0.00     0.074 A 
ATOM     39  C   UNL A   1      39.669  28.795  28.685  1.00  0.00     0.049 A 
ATOM     40  N   UNL A   1      42.564  29.064  29.477  1.00  0.00    -0.248 NA
ATOM     41  C   UNL A   1      42.952  26.940  28.593  1.00  0.00     0.031 C 
ATOM     42  C   UNL A   1      38.242  28.699  28.372  1.00  0.00     0.029 A 
ATOM     43  N   UNL A   1      39.802  30.048  29.234  1.00  0.00    -0.354 N 
ATOM     44  C   UNL A   1      43.901  28.732  29.645  1.00  0.00     0.074 A 
ATOM     45  C   UNL A   1      44.072  27.387  29.143  1.00  0.00     0.031 C 
ATOM     46  C   UNL A   1      37.637  29.848  28.715  1.00  0.00     0.029 A 
ATOM     47  C   UNL A   1      38.620  30.744  29.313  1.00  0.00     0.049 A 
ATOM     48  H   UNL A   1      40.664  30.411  29.542  1.00  0.00     0.167 HD
ATOM     49  C   UNL A   1      44.905  29.491  30.147  1.00  0.00     0.037 A 
ATOM     50  C   UNL A   1      38.359  31.963  29.825  1.00  0.00     0.037 A 
ATOM     51  C   UNL A   1      44.737  30.836  30.633  1.00  0.00     0.049 A 
ATOM     52  C   UNL A   1      39.490  32.773  30.404  1.00  0.00     0.074 A 
ATOM     53  C   UNL A   1      45.697  31.698  31.131  1.00  0.00     0.029 A 
ATOM     54  N   UNL A   1      43.527  31.514  30.679  1.00  0.00    -0.354 N 
ATOM     55  N   UNL A   1      40.761  32.469  30.503  1.00  0.00    -0.248 NA
ATOM     56  C   UNL A   1      39.150  34.100  30.935  1.00  0.00     0.031 C 
ATOM     57  C   UNL A   1      45.063  32.880  31.524  1.00  0.00     0.029 A 
ATOM     58  C   UNL A   1      43.717  32.778  31.214  1.00  0.00     0.049 A 
ATOM     59  H   UNL A   1      42.664  31.151  30.378  1.00  0.00     0.167 HD
ATOM     60  C   UNL A   1      41.376  33.579  31.069  1.00  0.00     0.074 A 
ATOM     61  C   UNL A   1      40.341  34.569  31.277  1.00  0.00     0.031 C 
ATOM     62  C   UNL A   1      42.680  33.761  31.391  1.00  0.00     0.037 A 
BRANCH  49  63
ATOM     63  C   UNL A   1      46.282  28.895  30.184  1.00  0.00     0.064 A 
ATOM     64  C   UNL A   1      46.729  28.154  31.289  1.00  0.00     0.173 A 
ATOM     65  C   UNL A   1      47.140  29.010  29.081  1.00  0.00     0.173 A 
ATOM     66  F   UNL A   1      45.952  28.023  32.374  1.00  0.00    -0.203 F 
ATOM     67  C   UNL A   1      47.990  27.565  31.295  1.00  0.00     0.198 A 
ATOM     68  C   UNL A   1      48.390  28.393  29.078  1.00  0.00     0.198 A 
ATOM     69  F   UNL A   1      46.761  29.701  27.997  1.00  0.00    -0.203 F 
ATOM     70  F   UNL A   1      48.411  26.897  32.378  1.00  0.00    -0.200 F 
ATOM     71  C   UNL A   1      48.815  27.677  30.186  1.00  0.00     0.200 A 
ATOM     72  F   UNL A   1      49.179  28.487  27.998  1.00  0.00    -0.200 F 
ATOM     73  F   UNL A   1      50.023  27.095  30.186  1.00  0.00    -0.200 F 
ENDBRANCH  49  63
BRANCH  50  74
ATOM     74  C   UNL A   1      36.970  32.501  29.817  1.00  0.00     0.064 A 
ATOM     75  C   UNL A   1      36.485  33.238  28.726  1.00  0.00     0.173 A 
ATOM     76  C   UNL A   1      36.117  32.333  30.918  1.00  0.00     0.173 A 
ATOM     77  F   UNL A   1      37.269  33.444  27.657  1.00  0.00    -0.203 F 
ATOM     78  C   UNL A   1      35.219  33.819  28.754  1.00  0.00     0.198 A 
ATOM     79  C   UNL A   1      34.838  32.884  30.929  1.00  0.00     0.198 A 
ATOM     80  F   UNL A   1      36.527  31.633  31.986  1.00  0.00    -0.203 F 
ATOM     81  F   UNL A   1      34.810  34.577  27.727  1.00  0.00    -0.200 F 
ATOM     82  C   UNL A   1      34.395  33.639  29.854  1.00  0.00     0.200 A 
ATOM     83  F   UNL A   1      34.038  32.693  31.987  1.00  0.00    -0.200 F 
ATOM     84  F   UNL A   1      33.181  34.204  29.883  1.00  0.00    -0.200 F 
ENDBRANCH  50  74
BRANCH  62  85
ATOM     85  C   UNL A   1      43.075  35.100  31.947  1.00  0.00     0.064 A 
ATOM     86  C   UNL A   1      42.987  35.390  33.316  1.00  0.00     0.173 A 
ATOM     87  C   UNL A   1      43.586  36.094  31.098  1.00  0.00     0.173 A 
ATOM     88  F   UNL A   1      42.493  34.479  34.169  1.00  0.00    -0.203 F 
ATOM     89  C   UNL A   1      43.368  36.635  33.811  1.00  0.00     0.198 A 
ATOM     90  C   UNL A   1      43.999  37.324  31.600  1.00  0.00     0.198 A 
ATOM     91  F   UNL A   1      43.700  35.866  29.781  1.00  0.00    -0.203 F 
ATOM     92  F   UNL A   1      43.223  36.908  35.115  1.00  0.00    -0.200 F 
ATOM     93  C   UNL A   1      43.881  37.597  32.954  1.00  0.00     0.200 A 
ATOM     94  F   UNL A   1      44.512  38.247  30.774  1.00  0.00    -0.200 F 
ATOM     95  F   UNL A   1      44.255  38.791  33.433  1.00  0.00    -0.200 F 
ENDBRANCH  62  85
ENDBRANCH  36  37
ENDBRANCH  28  31
ENDBRANCH  26  27
ENDBRANCH  25  26
ENDBRANCH  24  25
ENDBRANCH   1  24
TORSDOF 16
ENDMDL
MODEL 3
REMARK VINA RESULT:     -11.5      3.524      8.836
REMARK SMILES O=C(/C=C/c1ccccc1Oc1cccc(Cl)c1)NCCCCCCNC(=O)c1ccc(-c2c3nc(c(-c4c(F)c(F)c(F)c(F)c4F)c4ccc([nH]4)c(-c4c(F)c(F)c(F)c(F)c4F)c4nc(c(-c5c(F)c(F)c(F)c(F)c5F)c5ccc2[nH]5)C=C4)C=C3)cc1
REMARK SMILES IDX 22 1 21 2 20 3 19 4 1 5 2 6 3 8 4 9 5 10 6 11 10 12 7 13
REMARK SMILES IDX 9 14 8 15 11 16 12 17 13 18 18 19 14 20 16 21 15 22 17 23
REMARK SMILES IDX 23 24 24 25 25 26 26 27 27 28 28 30 29 31 30 32 91 33 31 34
REMARK SMILES IDX 90 35 32 36 33 37 34 38 84 39 35 40 89 41 83 42 85 43 36 44
REMARK SMILES IDX 88 45 82 46 81 47 37 49 69 50 49 51 68 52 50 53 53 54 67 55
REMARK SMILES IDX 86 56 51 57 52 58 66 60 87 61 54 62 38 63 39 64 47 65 40 66
REMARK SMILES IDX 41 67 45 68 48 69 42 70 43 71 46 72 44 73 70 74 71 75 79 76
REMARK SMILES IDX 72 77 73 78 77 79 80 80 74 81 75 82 78 83 76 84 55 85 56 86
REMARK SMILES IDX 64 87 57 88 58 89 62 90 65 91 59 92 60 93 63 94 61 95
REMARK H PARENT 19 7 26 29 85 48 53 59
REMARK Flexibility Score: inf
ROOT
ATOM      1  C   UNL A   1      31.220  30.066  25.036  1.00  0.00     0.002 C 
ENDROOT
BRANCH   1   2
ATOM      2  C   UNL A   1      31.519  28.567  24.909  1.00  0.00     0.021 C 
BRANCH   2   3
ATOM      3  C   UNL A   1      32.086  27.937  26.177  1.00  0.00     0.116 C 
BRANCH   3   4
ATOM      4  N   UNL A   1      32.988  26.849  25.876  1.00  0.00    -0.353 N 
ATOM      5  O   UNL A   1      31.413  25.182  25.974  1.00  0.00    -0.270 OA
ATOM      6  C   UNL A   1      32.573  25.544  25.814  1.00  0.00     0.244 C 
ATOM      7  H   UNL A   1      33.936  27.053  25.709  1.00  0.00     0.163 HD
BRANCH   6   8
ATOM      8  C   UNL A   1      33.615  24.553  25.442  1.00  0.00     0.072 C 
ATOM      9  C   UNL A   1      34.284  23.786  26.316  1.00  0.00     0.017 C 
BRANCH   9  10
ATOM     10  C   UNL A   1      35.406  22.920  25.934  1.00  0.00     0.017 A 
ATOM     11  C   UNL A   1      36.619  23.597  25.694  1.00  0.00     0.012 A 
ATOM     12  C   UNL A   1      35.360  21.523  25.754  1.00  0.00     0.134 A 
ATOM     13  C   UNL A   1      37.770  22.909  25.306  1.00  0.00     0.001 A 
ATOM     14  C   UNL A   1      36.533  20.847  25.372  1.00  0.00     0.048 A 
ATOM     15  C   UNL A   1      37.727  21.531  25.148  1.00  0.00     0.004 A 
BRANCH  12  16
ATOM     16  O   UNL A   1      34.315  20.644  25.957  1.00  0.00    -0.457 OA
BRANCH  16  17
ATOM     17  C   UNL A   1      33.757  19.930  24.932  1.00  0.00     0.128 A 
ATOM     18  C   UNL A   1      32.755  20.572  24.197  1.00  0.00     0.047 A 
ATOM     19  C   UNL A   1      34.099  18.608  24.653  1.00  0.00     0.067 A 
ATOM     20  C   UNL A   1      32.153  19.924  23.120  1.00  0.00     0.005 A 
ATOM     21  C   UNL A   1      33.499  17.970  23.568  1.00  0.00     0.044 A 
ATOM     22  C   UNL A   1      32.534  18.622  22.797  1.00  0.00     0.021 A 
ATOM     23  Cl  UNL A   1      34.006  16.385  23.126  1.00  0.00    -0.084 Cl
ENDBRANCH  16  17
ENDBRANCH  12  16
ENDBRANCH   9  10
ENDBRANCH   6   8
ENDBRANCH   3   4
ENDBRANCH   2   3
ENDBRANCH   1   2
BRANCH   1  24
ATOM     24  C   UNL A   1      31.408  30.656  26.437  1.00  0.00     0.002 C 
BRANCH  24  25
ATOM     25  C   UNL A   1      31.404  32.183  26.507  1.00  0.00     0.021 C 
BRANCH  25  26
ATOM     26  C   UNL A   1      32.531  32.793  27.333  1.00  0.00     0.116 C 
BRANCH  26  27
ATOM     27  N   UNL A   1      32.317  34.203  27.620  1.00  0.00    -0.352 N 
ATOM     28  C   UNL A   1      32.942  35.001  28.547  1.00  0.00     0.251 C 
ATOM     29  H   UNL A   1      31.628  34.646  27.075  1.00  0.00     0.163 HD
ATOM     30  O   UNL A   1      32.531  36.137  28.766  1.00  0.00    -0.269 OA
BRANCH  28  31
ATOM     31  C   UNL A   1      34.099  34.477  29.304  1.00  0.00     0.039 A 
ATOM     32  C   UNL A   1      33.876  33.880  30.547  1.00  0.00     0.014 A 
ATOM     33  C   UNL A   1      35.395  34.565  28.788  1.00  0.00     0.014 A 
ATOM     34  C   UNL A   1      34.947  33.317  31.245  1.00  0.00     0.010 A 
ATOM     35  C   UNL A   1      36.446  33.936  29.448  1.00  0.00     0.010 A 
ATOM     36  C   UNL A   1      36.236  33.310  30.686  1.00  0.00    -0.014 A 
BRANCH  36  37
ATOM     37  C   UNL A   1      37.376  32.662  31.385  1.00  0.00     0.031 A 
ATOM     38  C   UNL A   1      38.077  31.489  30.756  1.00  0.00     0.074 A 
ATOM     39  C   UNL A   1      37.746  33.094  32.607  1.00  0.00     0.049 A 
ATOM     40  N   UNL A   1      39.037  30.740  31.238  1.00  0.00    -0.248 NA
ATOM     41  C   UNL A   1      37.622  31.087  29.415  1.00  0.00     0.031 C 
ATOM     42  C   UNL A   1      37.120  34.194  33.343  1.00  0.00     0.029 A 
ATOM     43  N   UNL A   1      38.732  32.650  33.455  1.00  0.00    -0.354 N 
ATOM     44  C   UNL A   1      39.295  29.783  30.265  1.00  0.00     0.074 A 
ATOM     45  C   UNL A   1      38.350  30.003  29.193  1.00  0.00     0.031 C 
ATOM     46  C   UNL A   1      37.748  34.351  34.519  1.00  0.00     0.029 A 
ATOM     47  C   UNL A   1      38.790  33.337  34.643  1.00  0.00     0.049 A 
ATOM     48  H   UNL A   1      39.341  31.909  33.231  1.00  0.00     0.167 HD
ATOM     49  C   UNL A   1      40.253  28.826  30.254  1.00  0.00     0.037 A 
ATOM     50  C   UNL A   1      39.583  33.158  35.717  1.00  0.00     0.037 A 
ATOM     51  C   UNL A   1      41.204  28.618  31.315  1.00  0.00     0.049 A 
ATOM     52  C   UNL A   1      40.621  32.065  35.688  1.00  0.00     0.074 A 
ATOM     53  C   UNL A   1      42.232  27.696  31.383  1.00  0.00     0.029 A 
ATOM     54  N   UNL A   1      41.241  29.348  32.495  1.00  0.00    -0.354 N 
ATOM     55  N   UNL A   1      40.892  31.205  34.736  1.00  0.00    -0.248 NA
ATOM     56  C   UNL A   1      41.468  31.924  36.880  1.00  0.00     0.031 C 
ATOM     57  C   UNL A   1      42.862  27.833  32.623  1.00  0.00     0.029 A 
ATOM     58  C   UNL A   1      42.266  28.883  33.303  1.00  0.00     0.049 A 
ATOM     59  H   UNL A   1      40.631  30.084  32.724  1.00  0.00     0.167 HD
ATOM     60  C   UNL A   1      41.963  30.450  35.199  1.00  0.00     0.074 A 
ATOM     61  C   UNL A   1      42.303  30.964  36.508  1.00  0.00     0.031 C 
ATOM     62  C   UNL A   1      42.606  29.422  34.594  1.00  0.00     0.037 A 
BRANCH  49  63
ATOM     63  C   UNL A   1      40.337  27.935  29.048  1.00  0.00     0.064 A 
ATOM     64  C   UNL A   1      39.624  26.728  28.980  1.00  0.00     0.173 A 
ATOM     65  C   UNL A   1      41.085  28.319  27.925  1.00  0.00     0.173 A 
ATOM     66  F   UNL A   1      38.903  26.309  30.030  1.00  0.00    -0.203 F 
ATOM     67  C   UNL A   1      39.671  25.931  27.840  1.00  0.00     0.198 A 
ATOM     68  C   UNL A   1      41.104  27.534  26.775  1.00  0.00     0.198 A 
ATOM     69  F   UNL A   1      41.779  29.466  27.935  1.00  0.00    -0.203 F 
ATOM     70  F   UNL A   1      39.015  24.762  27.814  1.00  0.00    -0.200 F 
ATOM     71  C   UNL A   1      40.403  26.339  26.735  1.00  0.00     0.200 A 
ATOM     72  F   UNL A   1      41.797  27.939  25.701  1.00  0.00    -0.200 F 
ATOM     73  F   UNL A   1      40.433  25.579  25.632  1.00  0.00    -0.200 F 
ENDBRANCH  49  63
BRANCH  50  74
ATOM     74  C   UNL A   1      39.437  34.029  36.916  1.00  0.00     0.064 A 
ATOM     75  C   UNL A   1      40.080  35.274  36.989  1.00  0.00     0.173 A 
ATOM     76  C   UNL A   1      38.693  33.616  38.031  1.00  0.00     0.173 A 
ATOM     77  F   UNL A   1      40.821  35.705  35.958  1.00  0.00    -0.203 F 
ATOM     78  C   UNL A   1      40.019  36.050  38.145  1.00  0.00     0.198 A 
ATOM     79  C   UNL A   1      38.602  34.410  39.172  1.00  0.00     0.198 A 
ATOM     80  F   UNL A   1      38.052  32.438  38.013  1.00  0.00    -0.203 F 
ATOM     81  F   UNL A   1      40.703  37.201  38.212  1.00  0.00    -0.200 F 
ATOM     82  C   UNL A   1      39.277  35.619  39.234  1.00  0.00     0.200 A 
ATOM     83  F   UNL A   1      37.871  33.998  40.216  1.00  0.00    -0.200 F 
ATOM     84  F   UNL A   1      39.225  36.363  40.347  1.00  0.00    -0.200 F 
ENDBRANCH  50  74
BRANCH  62  85
ATOM     85  C   UNL A   1      43.780  28.820  35.315  1.00  0.00     0.064 A 
ATOM     86  C   UNL A   1      43.636  27.734  36.189  1.00  0.00     0.173 A 
ATOM     87  C   UNL A   1      45.075  29.317  35.092  1.00  0.00     0.173 A 
ATOM     88  F   UNL A   1      42.419  27.231  36.447  1.00  0.00    -0.203 F 
ATOM     89  C   UNL A   1      44.739  27.187  36.839  1.00  0.00     0.198 A 
ATOM     90  C   UNL A   1      46.179  28.744  35.716  1.00  0.00     0.198 A 
ATOM     91  F   UNL A   1      45.269  30.348  34.258  1.00  0.00    -0.203 F 
ATOM     92  F   UNL A   1      44.571  26.185  37.714  1.00  0.00    -0.200 F 
ATOM     93  C   UNL A   1      46.010  27.686  36.595  1.00  0.00     0.200 A 
ATOM     94  F   UNL A   1      47.408  29.217  35.465  1.00  0.00    -0.200 F 
ATOM     95  F   UNL A   1      47.071  27.153  37.215  1.00  0.00    -0.200 F 
ENDBRANCH  62  85
ENDBRANCH  36  37
ENDBRANCH  28  31
ENDBRANCH  26  27
ENDBRANCH  25  26
ENDBRANCH  24  25
ENDBRANCH   1  24
TORSDOF 16
ENDMDL
