MODEL 1
REMARK VINA RESULT:     -11.7      0.000      0.000
REMARK SMILES CC(C)C[C@@H](C[C@H](O)c1ccccc1)C(=O)NCCCCCCNC(=O)c1ccc(-c2c3nc(c(-c4c(F)c(F)c(F)c(F)c4F)c4ccc([nH]4)c(-c4c(F)c(F)c(F)c(F)c4F)c4nc(c(-c5c(F)c(F)c(F)c(F)c5F)c5ccc2[nH]5)C=C4)C=C3)cc1
REMARK SMILES IDX 20 1 19 2 18 3 17 4 15 5 16 6 5 8 4 9 2 10 1 11 3 12 6 13
REMARK SMILES IDX 7 14 9 15 10 16 14 17 11 18 13 19 12 20 8 21 21 23 22 24
REMARK SMILES IDX 23 25 24 26 25 27 26 29 27 30 28 31 89 32 29 33 88 34 30 35
REMARK SMILES IDX 31 36 32 37 82 38 33 39 87 40 81 41 83 42 34 43 86 44 80 45
REMARK SMILES IDX 79 46 35 48 67 49 47 50 66 51 48 52 51 53 65 54 84 55 49 56
REMARK SMILES IDX 50 57 64 59 85 60 52 61 36 62 37 63 45 64 38 65 39 66 43 67
REMARK SMILES IDX 46 68 40 69 41 70 44 71 42 72 68 73 69 74 77 75 70 76 71 77
REMARK SMILES IDX 75 78 78 79 72 80 73 81 76 82 74 83 53 84 54 85 62 86 55 87
REMARK SMILES IDX 56 88 60 89 63 90 57 91 58 92 61 93 59 94
REMARK H PARENT 17 7 8 22 24 28 83 47 51 58
REMARK Flexibility Score: inf
ROOT
ATOM      1  C   UNL A   1      32.312  29.615  27.268  1.00  0.00     0.002 C 
ENDROOT
BRANCH   1   2
ATOM      2  C   UNL A   1      33.554  28.825  26.856  1.00  0.00     0.021 C 
BRANCH   2   3
ATOM      3  C   UNL A   1      33.269  27.403  26.406  1.00  0.00     0.116 C 
BRANCH   3   4
ATOM      4  N   UNL A   1      31.966  26.893  26.786  1.00  0.00    -0.356 N 
ATOM      5  C   UNL A   1      30.897  26.502  26.036  1.00  0.00     0.223 C 
ATOM      6  O   UNL A   1      29.997  25.902  26.633  1.00  0.00    -0.275 OA
ATOM      7  H   UNL A   1      31.830  26.814  27.758  1.00  0.00     0.163 HD
BRANCH   5   8
ATOM      8  C   UNL A   1      30.762  26.755  24.522  1.00  0.00     0.081 C 
BRANCH   8   9
ATOM      9  C   UNL A   1      29.971  25.634  23.812  1.00  0.00     0.016 C 
BRANCH   9  10
ATOM     10  C   UNL A   1      30.782  24.467  23.224  1.00  0.00    -0.017 C 
ATOM     11  C   UNL A   1      31.957  24.955  22.382  1.00  0.00     0.007 C 
ATOM     12  C   UNL A   1      31.286  23.574  24.364  1.00  0.00     0.007 C 
ENDBRANCH   9  10
ENDBRANCH   8   9
BRANCH   8  13
ATOM     13  C   UNL A   1      30.476  28.243  24.166  1.00  0.00     0.050 C 
BRANCH  13  14
ATOM     14  C   UNL A   1      29.717  28.496  22.864  1.00  0.00     0.145 C 
BRANCH  14  15
ATOM     15  C   UNL A   1      29.080  29.851  22.652  1.00  0.00    -0.020 A 
ATOM     16  C   UNL A   1      28.511  30.153  21.401  1.00  0.00     0.006 A 
ATOM     17  C   UNL A   1      29.172  30.872  23.608  1.00  0.00     0.006 A 
ATOM     18  C   UNL A   1      28.111  31.454  21.091  1.00  0.00     0.000 A 
ATOM     19  C   UNL A   1      28.777  32.175  23.293  1.00  0.00     0.000 A 
ATOM     20  C   UNL A   1      28.261  32.469  22.032  1.00  0.00     0.000 A 
ENDBRANCH  14  15
BRANCH  14  21
ATOM     21  O   UNL A   1      30.543  28.225  21.735  1.00  0.00    -0.388 OA
ATOM     22  H   UNL A   1      31.126  28.982  21.570  1.00  0.00     0.211 HD
ENDBRANCH  14  21
ENDBRANCH  13  14
ENDBRANCH   8  13
ENDBRANCH   5   8
ENDBRANCH   3   4
ENDBRANCH   2   3
ENDBRANCH   1   2
BRANCH   1  23
ATOM     23  C   UNL A   1      31.755  30.588  26.221  1.00  0.00     0.002 C 
BRANCH  23  24
ATOM     24  C   UNL A   1      31.515  32.027  26.690  1.00  0.00     0.021 C 
BRANCH  24  25
ATOM     25  C   UNL A   1      32.718  32.711  27.329  1.00  0.00     0.116 C 
BRANCH  25  26
ATOM     26  N   UNL A   1      32.454  34.102  27.657  1.00  0.00    -0.352 N 
ATOM     27  C   UNL A   1      33.019  34.902  28.616  1.00  0.00     0.251 C 
ATOM     28  H   UNL A   1      31.763  34.536  27.107  1.00  0.00     0.163 HD
ATOM     29  O   UNL A   1      32.541  36.003  28.862  1.00  0.00    -0.269 OA
BRANCH  27  30
ATOM     30  C   UNL A   1      34.195  34.425  29.373  1.00  0.00     0.039 A 
ATOM     31  C   UNL A   1      33.984  33.697  30.546  1.00  0.00     0.014 A 
ATOM     32  C   UNL A   1      35.494  34.692  28.932  1.00  0.00     0.014 A 
ATOM     33  C   UNL A   1      35.076  33.174  31.240  1.00  0.00     0.010 A 
ATOM     34  C   UNL A   1      36.577  34.109  29.583  1.00  0.00     0.010 A 
ATOM     35  C   UNL A   1      36.379  33.340  30.738  1.00  0.00    -0.014 A 
BRANCH  35  36
ATOM     36  C   UNL A   1      37.536  32.680  31.390  1.00  0.00     0.031 A 
ATOM     37  C   UNL A   1      38.209  31.506  30.741  1.00  0.00     0.074 A 
ATOM     38  C   UNL A   1      37.934  33.098  32.606  1.00  0.00     0.049 A 
ATOM     39  N   UNL A   1      39.186  30.758  31.191  1.00  0.00    -0.248 NA
ATOM     40  C   UNL A   1      37.698  31.099  29.424  1.00  0.00     0.031 C 
ATOM     41  C   UNL A   1      37.322  34.195  33.360  1.00  0.00     0.029 A 
ATOM     42  N   UNL A   1      38.930  32.643  33.431  1.00  0.00    -0.354 N 
ATOM     43  C   UNL A   1      39.404  29.795  30.215  1.00  0.00     0.074 A 
ATOM     44  C   UNL A   1      38.416  30.013  29.180  1.00  0.00     0.031 C 
ATOM     45  C   UNL A   1      37.963  34.335  34.530  1.00  0.00     0.029 A 
ATOM     46  C   UNL A   1      38.999  33.310  34.629  1.00  0.00     0.049 A 
ATOM     47  H   UNL A   1      39.538  31.907  33.188  1.00  0.00     0.167 HD
ATOM     48  C   UNL A   1      40.358  28.833  30.176  1.00  0.00     0.037 A 
ATOM     49  C   UNL A   1      39.794  33.108  35.697  1.00  0.00     0.037 A 
ATOM     50  C   UNL A   1      41.334  28.621  31.214  1.00  0.00     0.049 A 
ATOM     51  C   UNL A   1      40.823  32.014  35.647  1.00  0.00     0.074 A 
ATOM     52  C   UNL A   1      42.373  27.709  31.249  1.00  0.00     0.029 A 
ATOM     53  N   UNL A   1      41.380  29.323  32.412  1.00  0.00    -0.354 N 
ATOM     54  N   UNL A   1      41.074  31.159  34.687  1.00  0.00    -0.248 NA
ATOM     55  C   UNL A   1      41.684  31.861  36.828  1.00  0.00     0.031 C 
ATOM     56  C   UNL A   1      43.008  27.816  32.491  1.00  0.00     0.029 A 
ATOM     57  C   UNL A   1      42.408  28.839  33.207  1.00  0.00     0.049 A 
ATOM     58  H   UNL A   1      40.773  30.058  32.659  1.00  0.00     0.167 HD
ATOM     59  C   UNL A   1      42.128  30.376  35.137  1.00  0.00     0.074 A 
ATOM     60  C   UNL A   1      42.485  30.875  36.449  1.00  0.00     0.031 C 
ATOM     61  C   UNL A   1      42.743  29.337  34.519  1.00  0.00     0.037 A 
BRANCH  48  62
ATOM     62  C   UNL A   1      40.379  27.932  28.973  1.00  0.00     0.064 A 
ATOM     63  C   UNL A   1      41.124  28.250  27.826  1.00  0.00     0.173 A 
ATOM     64  C   UNL A   1      39.654  26.731  28.967  1.00  0.00     0.173 A 
ATOM     65  F   UNL A   1      41.831  29.390  27.774  1.00  0.00    -0.203 F 
ATOM     66  C   UNL A   1      41.105  27.423  26.704  1.00  0.00     0.198 A 
ATOM     67  C   UNL A   1      39.667  25.888  27.857  1.00  0.00     0.198 A 
ATOM     68  F   UNL A   1      38.930  26.371  30.038  1.00  0.00    -0.203 F 
ATOM     69  F   UNL A   1      41.770  27.785  25.598  1.00  0.00    -0.200 F 
ATOM     70  C   UNL A   1      40.381  26.242  26.723  1.00  0.00     0.200 A 
ATOM     71  F   UNL A   1      38.979  24.738  27.883  1.00  0.00    -0.200 F 
ATOM     72  F   UNL A   1      40.362  25.449  25.643  1.00  0.00    -0.200 F 
ENDBRANCH  48  62
BRANCH  49  73
ATOM     73  C   UNL A   1      39.635  33.968  36.900  1.00  0.00     0.064 A 
ATOM     74  C   UNL A   1      40.233  35.233  36.970  1.00  0.00     0.173 A 
ATOM     75  C   UNL A   1      38.857  33.552  37.992  1.00  0.00     0.173 A 
ATOM     76  F   UNL A   1      41.001  35.667  35.959  1.00  0.00    -0.203 F 
ATOM     77  C   UNL A   1      40.069  36.045  38.090  1.00  0.00     0.198 A 
ATOM     78  C   UNL A   1      38.669  34.376  39.097  1.00  0.00     0.198 A 
ATOM     79  F   UNL A   1      38.259  32.352  37.971  1.00  0.00    -0.203 F 
ATOM     80  F   UNL A   1      40.682  37.235  38.148  1.00  0.00    -0.200 F 
ATOM     81  C   UNL A   1      39.280  35.620  39.149  1.00  0.00     0.200 A 
ATOM     82  F   UNL A   1      37.891  33.970  40.109  1.00  0.00    -0.200 F 
ATOM     83  F   UNL A   1      39.111  36.407  40.219  1.00  0.00    -0.200 F 
ENDBRANCH  49  73
BRANCH  61  84
ATOM     84  C   UNL A   1      43.875  28.673  35.251  1.00  0.00     0.064 A 
ATOM     85  C   UNL A   1      45.197  29.130  35.130  1.00  0.00     0.173 A 
ATOM     86  C   UNL A   1      43.631  27.596  36.115  1.00  0.00     0.173 A 
ATOM     87  F   UNL A   1      45.489  30.147  34.305  1.00  0.00    -0.203 F 
ATOM     88  C   UNL A   1      46.233  28.516  35.830  1.00  0.00     0.198 A 
ATOM     89  C   UNL A   1      44.663  27.007  36.839  1.00  0.00     0.198 A 
ATOM     90  F   UNL A   1      42.384  27.123  36.271  1.00  0.00    -0.203 F 
ATOM     91  F   UNL A   1      47.494  28.938  35.663  1.00  0.00    -0.200 F 
ATOM     92  C   UNL A   1      45.965  27.462  36.691  1.00  0.00     0.200 A 
ATOM     93  F   UNL A   1      44.399  25.999  37.681  1.00  0.00    -0.200 F 
ATOM     94  F   UNL A   1      46.962  26.881  37.372  1.00  0.00    -0.200 F 
ENDBRANCH  61  84
ENDBRANCH  35  36
ENDBRANCH  27  30
ENDBRANCH  25  26
ENDBRANCH  24  25
ENDBRANCH  23  24
ENDBRANCH   1  23
TORSDOF 19
ENDMDL
MODEL 2
REMARK VINA RESULT:     -11.6      6.421     11.843
REMARK SMILES CC(C)C[C@@H](C[C@H](O)c1ccccc1)C(=O)NCCCCCCNC(=O)c1ccc(-c2c3nc(c(-c4c(F)c(F)c(F)c(F)c4F)c4ccc([nH]4)c(-c4c(F)c(F)c(F)c(F)c4F)c4nc(c(-c5c(F)c(F)c(F)c(F)c5F)c5ccc2[nH]5)C=C4)C=C3)cc1
REMARK SMILES IDX 20 1 19 2 18 3 17 4 15 5 16 6 5 8 4 9 2 10 1 11 3 12 6 13
REMARK SMILES IDX 7 14 9 15 10 16 14 17 11 18 13 19 12 20 8 21 21 23 22 24
REMARK SMILES IDX 23 25 24 26 25 27 26 29 27 30 28 31 89 32 29 33 88 34 30 35
REMARK SMILES IDX 31 36 32 37 82 38 33 39 87 40 81 41 83 42 34 43 86 44 80 45
REMARK SMILES IDX 79 46 35 48 67 49 47 50 66 51 48 52 51 53 65 54 84 55 49 56
REMARK SMILES IDX 50 57 64 59 85 60 52 61 36 62 37 63 45 64 38 65 39 66 43 67
REMARK SMILES IDX 46 68 40 69 41 70 44 71 42 72 68 73 69 74 77 75 70 76 71 77
REMARK SMILES IDX 75 78 78 79 72 80 73 81 76 82 74 83 53 84 54 85 62 86 55 87
REMARK SMILES IDX 56 88 60 89 63 90 57 91 58 92 61 93 59 94
REMARK H PARENT 17 7 8 22 24 28 83 47 51 58
REMARK Flexibility Score: inf
ROOT
ATOM      1  C   UNL A   1      37.179  22.184  24.632  1.00  0.00     0.002 C 
ENDROOT
BRANCH   1   2
ATOM      2  C   UNL A   1      36.669  23.204  25.650  1.00  0.00     0.021 C 
BRANCH   2   3
ATOM      3  C   UNL A   1      35.590  24.131  25.118  1.00  0.00     0.116 C 
BRANCH   3   4
ATOM      4  N   UNL A   1      35.151  23.843  23.767  1.00  0.00    -0.356 N 
ATOM      5  C   UNL A   1      34.022  23.245  23.294  1.00  0.00     0.223 C 
ATOM      6  O   UNL A   1      33.819  23.335  22.078  1.00  0.00    -0.275 OA
ATOM      7  H   UNL A   1      35.781  24.131  23.066  1.00  0.00     0.163 HD
BRANCH   5   8
ATOM      8  C   UNL A   1      33.006  22.492  24.175  1.00  0.00     0.081 C 
BRANCH   8   9
ATOM      9  C   UNL A   1      31.649  23.227  24.260  1.00  0.00     0.016 C 
BRANCH   9  10
ATOM     10  C   UNL A   1      31.167  23.650  25.658  1.00  0.00    -0.017 C 
ATOM     11  C   UNL A   1      30.306  22.575  26.314  1.00  0.00     0.007 C 
ATOM     12  C   UNL A   1      32.381  23.963  26.540  1.00  0.00     0.007 C 
ENDBRANCH   9  10
ENDBRANCH   8   9
BRANCH   8  13
ATOM     13  C   UNL A   1      33.034  20.949  23.972  1.00  0.00     0.050 C 
BRANCH  13  14
ATOM     14  C   UNL A   1      32.959  20.096  25.237  1.00  0.00     0.145 C 
BRANCH  14  15
ATOM     15  C   UNL A   1      33.294  18.625  25.137  1.00  0.00    -0.020 A 
ATOM     16  C   UNL A   1      34.304  18.209  24.250  1.00  0.00     0.006 A 
ATOM     17  C   UNL A   1      32.528  17.644  25.784  1.00  0.00     0.006 A 
ATOM     18  C   UNL A   1      34.495  16.857  23.964  1.00  0.00     0.000 A 
ATOM     19  C   UNL A   1      32.718  16.291  25.492  1.00  0.00     0.000 A 
ATOM     20  C   UNL A   1      33.690  15.899  24.573  1.00  0.00     0.000 A 
ENDBRANCH  14  15
BRANCH  14  21
ATOM     21  O   UNL A   1      33.764  20.653  26.272  1.00  0.00    -0.388 OA
ATOM     22  H   UNL A   1      34.539  21.087  25.882  1.00  0.00     0.211 HD
ENDBRANCH  14  21
ENDBRANCH  13  14
ENDBRANCH   8  13
ENDBRANCH   5   8
ENDBRANCH   3   4
ENDBRANCH   2   3
ENDBRANCH   1   2
BRANCH   1  23
ATOM     23  C   UNL A   1      36.872  20.713  24.944  1.00  0.00     0.002 C 
BRANCH  23  24
ATOM     24  C   UNL A   1      38.065  19.752  24.924  1.00  0.00     0.021 C 
BRANCH  24  25
ATOM     25  C   UNL A   1      39.264  20.185  25.759  1.00  0.00     0.116 C 
BRANCH  25  26
ATOM     26  N   UNL A   1      40.249  19.127  25.904  1.00  0.00    -0.352 N 
ATOM     27  C   UNL A   1      41.601  19.207  26.120  1.00  0.00     0.251 C 
ATOM     28  H   UNL A   1      39.891  18.213  25.837  1.00  0.00     0.163 HD
ATOM     29  O   UNL A   1      42.300  18.204  26.039  1.00  0.00    -0.269 OA
BRANCH  27  30
ATOM     30  C   UNL A   1      42.220  20.512  26.429  1.00  0.00     0.039 A 
ATOM     31  C   UNL A   1      42.751  21.265  25.378  1.00  0.00     0.014 A 
ATOM     32  C   UNL A   1      42.280  20.991  27.741  1.00  0.00     0.014 A 
ATOM     33  C   UNL A   1      43.277  22.532  25.634  1.00  0.00     0.010 A 
ATOM     34  C   UNL A   1      42.737  22.282  27.983  1.00  0.00     0.010 A 
ATOM     35  C   UNL A   1      43.234  23.067  26.933  1.00  0.00    -0.014 A 
BRANCH  35  36
ATOM     36  C   UNL A   1      43.666  24.462  27.197  1.00  0.00     0.031 A 
ATOM     37  C   UNL A   1      42.681  25.488  27.673  1.00  0.00     0.074 A 
ATOM     38  C   UNL A   1      44.938  24.817  26.936  1.00  0.00     0.049 A 
ATOM     39  N   UNL A   1      42.857  26.768  27.890  1.00  0.00    -0.248 NA
ATOM     40  C   UNL A   1      41.308  25.022  27.912  1.00  0.00     0.031 C 
ATOM     41  C   UNL A   1      45.973  23.919  26.418  1.00  0.00     0.029 A 
ATOM     42  N   UNL A   1      45.574  26.027  27.049  1.00  0.00    -0.354 N 
ATOM     43  C   UNL A   1      41.621  27.258  28.288  1.00  0.00     0.074 A 
ATOM     44  C   UNL A   1      40.689  26.152  28.220  1.00  0.00     0.031 C 
ATOM     45  C   UNL A   1      47.116  24.605  26.270  1.00  0.00     0.029 A 
ATOM     46  C   UNL A   1      46.883  26.000  26.638  1.00  0.00     0.049 A 
ATOM     47  H   UNL A   1      45.133  26.838  27.393  1.00  0.00     0.167 HD
ATOM     48  C   UNL A   1      41.299  28.510  28.695  1.00  0.00     0.037 A 
ATOM     49  C   UNL A   1      47.791  26.990  26.547  1.00  0.00     0.037 A 
ATOM     50  C   UNL A   1      42.233  29.605  28.754  1.00  0.00     0.049 A 
ATOM     51  C   UNL A   1      47.405  28.378  26.973  1.00  0.00     0.074 A 
ATOM     52  C   UNL A   1      42.022  30.897  29.199  1.00  0.00     0.029 A 
ATOM     53  N   UNL A   1      43.556  29.538  28.337  1.00  0.00    -0.354 N 
ATOM     54  N   UNL A   1      46.254  28.815  27.422  1.00  0.00    -0.248 NA
ATOM     55  C   UNL A   1      48.446  29.412  26.884  1.00  0.00     0.031 C 
ATOM     56  C   UNL A   1      43.197  31.628  28.994  1.00  0.00     0.029 A 
ATOM     57  C   UNL A   1      44.163  30.777  28.481  1.00  0.00     0.049 A 
ATOM     58  H   UNL A   1      43.999  28.730  27.991  1.00  0.00     0.167 HD
ATOM     59  C   UNL A   1      46.433  30.166  27.684  1.00  0.00     0.074 A 
ATOM     60  C   UNL A   1      47.812  30.473  27.364  1.00  0.00     0.031 C 
ATOM     61  C   UNL A   1      45.535  31.071  28.146  1.00  0.00     0.037 A 
BRANCH  48  62
ATOM     62  C   UNL A   1      39.872  28.757  29.097  1.00  0.00     0.064 A 
ATOM     63  C   UNL A   1      39.438  28.587  30.422  1.00  0.00     0.173 A 
ATOM     64  C   UNL A   1      38.926  29.180  28.151  1.00  0.00     0.173 A 
ATOM     65  F   UNL A   1      40.299  28.178  31.367  1.00  0.00    -0.203 F 
ATOM     66  C   UNL A   1      38.105  28.786  30.773  1.00  0.00     0.198 A 
ATOM     67  C   UNL A   1      37.601  29.413  28.513  1.00  0.00     0.198 A 
ATOM     68  F   UNL A   1      39.284  29.368  26.871  1.00  0.00    -0.203 F 
ATOM     69  F   UNL A   1      37.704  28.549  32.030  1.00  0.00    -0.200 F 
ATOM     70  C   UNL A   1      37.189  29.203  29.820  1.00  0.00     0.200 A 
ATOM     71  F   UNL A   1      36.721  29.833  27.594  1.00  0.00    -0.200 F 
ATOM     72  F   UNL A   1      35.906  29.392  30.159  1.00  0.00    -0.200 F 
ENDBRANCH  48  62
BRANCH  49  73
ATOM     73  C   UNL A   1      49.152  26.688  26.029  1.00  0.00     0.064 A 
ATOM     74  C   UNL A   1      49.501  26.969  24.702  1.00  0.00     0.173 A 
ATOM     75  C   UNL A   1      50.140  26.138  26.861  1.00  0.00     0.173 A 
ATOM     76  F   UNL A   1      48.587  27.478  23.862  1.00  0.00    -0.203 F 
ATOM     77  C   UNL A   1      50.782  26.702  24.223  1.00  0.00     0.198 A 
ATOM     78  C   UNL A   1      51.428  25.899  26.390  1.00  0.00     0.198 A 
ATOM     79  F   UNL A   1      49.857  25.856  28.142  1.00  0.00    -0.203 F 
ATOM     80  F   UNL A   1      51.079  26.946  22.940  1.00  0.00    -0.200 F 
ATOM     81  C   UNL A   1      51.747  26.176  25.070  1.00  0.00     0.200 A 
ATOM     82  F   UNL A   1      52.361  25.409  27.217  1.00  0.00    -0.200 F 
ATOM     83  F   UNL A   1      52.982  25.932  24.612  1.00  0.00    -0.200 F 
ENDBRANCH  49  73
BRANCH  61  84
ATOM     84  C   UNL A   1      46.017  32.480  28.344  1.00  0.00     0.064 A 
ATOM     85  C   UNL A   1      46.603  32.894  29.550  1.00  0.00     0.173 A 
ATOM     86  C   UNL A   1      45.930  33.416  27.302  1.00  0.00     0.173 A 
ATOM     87  F   UNL A   1      46.696  32.044  30.583  1.00  0.00    -0.203 F 
ATOM     88  C   UNL A   1      47.063  34.199  29.711  1.00  0.00     0.198 A 
ATOM     89  C   UNL A   1      46.421  34.709  27.456  1.00  0.00     0.198 A 
ATOM     90  F   UNL A   1      45.383  33.071  26.126  1.00  0.00    -0.203 F 
ATOM     91  F   UNL A   1      47.576  34.585  30.888  1.00  0.00    -0.200 F 
ATOM     92  C   UNL A   1      46.981  35.102  28.662  1.00  0.00     0.200 A 
ATOM     93  F   UNL A   1      46.355  35.575  26.435  1.00  0.00    -0.200 F 
ATOM     94  F   UNL A   1      47.435  36.353  28.817  1.00  0.00    -0.200 F 
ENDBRANCH  61  84
ENDBRANCH  35  36
ENDBRANCH  27  30
ENDBRANCH  25  26
ENDBRANCH  24  25
ENDBRANCH  23  24
ENDBRANCH   1  23
TORSDOF 19
ENDMDL
MODEL 3
REMARK VINA RESULT:     -11.5      1.121      2.147
REMARK SMILES CC(C)C[C@@H](C[C@H](O)c1ccccc1)C(=O)NCCCCCCNC(=O)c1ccc(-c2c3nc(c(-c4c(F)c(F)c(F)c(F)c4F)c4ccc([nH]4)c(-c4c(F)c(F)c(F)c(F)c4F)c4nc(c(-c5c(F)c(F)c(F)c(F)c5F)c5ccc2[nH]5)C=C4)C=C3)cc1
REMARK SMILES IDX 20 1 19 2 18 3 17 4 15 5 16 6 5 8 4 9 2 10 1 11 3 12 6 13
REMARK SMILES IDX 7 14 9 15 10 16 14 17 11 18 13 19 12 20 8 21 21 23 22 24
REMARK SMILES IDX 23 25 24 26 25 27 26 29 27 30 28 31 89 32 29 33 88 34 30 35
REMARK SMILES IDX 31 36 32 37 82 38 33 39 87 40 81 41 83 42 34 43 86 44 80 45
REMARK SMILES IDX 79 46 35 48 67 49 47 50 66 51 48 52 51 53 65 54 84 55 49 56
REMARK SMILES IDX 50 57 64 59 85 60 52 61 36 62 37 63 45 64 38 65 39 66 43 67
REMARK SMILES IDX 46 68 40 69 41 70 44 71 42 72 68 73 69 74 77 75 70 76 71 77
REMARK SMILES IDX 75 78 78 79 72 80 73 81 76 82 74 83 53 84 54 85 62 86 55 87
REMARK SMILES IDX 56 88 60 89 63 90 57 91 58 92 61 93 59 94
REMARK H PARENT 17 7 8 22 24 28 83 47 51 58
REMARK Flexibility Score: inf
ROOT
ATOM      1  C   UNL A   1      32.331  29.596  26.765  1.00  0.00     0.002 C 
ENDROOT
BRANCH   1   2
ATOM      2  C   UNL A   1      31.467  28.339  26.863  1.00  0.00     0.021 C 
BRANCH   2   3
ATOM      3  C   UNL A   1      32.198  27.050  26.532  1.00  0.00     0.116 C 
BRANCH   3   4
ATOM      4  N   UNL A   1      31.549  25.843  27.005  1.00  0.00    -0.356 N 
ATOM      5  C   UNL A   1      31.612  24.555  26.567  1.00  0.00     0.223 C 
ATOM      6  O   UNL A   1      31.119  23.697  27.307  1.00  0.00    -0.275 OA
ATOM      7  H   UNL A   1      30.959  25.978  27.782  1.00  0.00     0.163 HD
BRANCH   5   8
ATOM      8  C   UNL A   1      32.260  24.123  25.236  1.00  0.00     0.081 C 
BRANCH   8   9
ATOM      9  C   UNL A   1      33.537  23.282  25.455  1.00  0.00     0.016 C 
BRANCH   9  10
ATOM     10  C   UNL A   1      34.805  23.726  24.706  1.00  0.00    -0.017 C 
ATOM     11  C   UNL A   1      35.946  24.062  25.661  1.00  0.00     0.007 C 
ATOM     12  C   UNL A   1      35.238  22.616  23.740  1.00  0.00     0.007 C 
ENDBRANCH   9  10
ENDBRANCH   8   9
BRANCH   8  13
ATOM     13  C   UNL A   1      31.225  23.685  24.158  1.00  0.00     0.050 C 
BRANCH  13  14
ATOM     14  C   UNL A   1      31.102  24.586  22.931  1.00  0.00     0.145 C 
BRANCH  14  15
ATOM     15  C   UNL A   1      31.057  26.084  23.137  1.00  0.00    -0.020 A 
ATOM     16  C   UNL A   1      29.856  26.684  23.558  1.00  0.00     0.006 A 
ATOM     17  C   UNL A   1      32.128  26.914  22.775  1.00  0.00     0.006 A 
ATOM     18  C   UNL A   1      29.707  28.071  23.550  1.00  0.00     0.000 A 
ATOM     19  C   UNL A   1      31.974  28.303  22.763  1.00  0.00     0.000 A 
ATOM     20  C   UNL A   1      30.760  28.880  23.135  1.00  0.00     0.000 A 
ENDBRANCH  14  15
BRANCH  14  21
ATOM     21  O   UNL A   1      32.138  24.309  21.993  1.00  0.00    -0.388 OA
ATOM     22  H   UNL A   1      32.627  23.521  22.274  1.00  0.00     0.211 HD
ENDBRANCH  14  21
ENDBRANCH  13  14
ENDBRANCH   8  13
ENDBRANCH   5   8
ENDBRANCH   3   4
ENDBRANCH   2   3
ENDBRANCH   1   2
BRANCH   1  23
ATOM     23  C   UNL A   1      31.694  30.796  26.052  1.00  0.00     0.002 C 
BRANCH  23  24
ATOM     24  C   UNL A   1      31.461  32.047  26.905  1.00  0.00     0.021 C 
BRANCH  24  25
ATOM     25  C   UNL A   1      32.722  32.795  27.322  1.00  0.00     0.116 C 
BRANCH  25  26
ATOM     26  N   UNL A   1      32.456  34.181  27.668  1.00  0.00    -0.352 N 
ATOM     27  C   UNL A   1      33.026  34.972  28.632  1.00  0.00     0.251 C 
ATOM     28  H   UNL A   1      31.758  34.618  27.128  1.00  0.00     0.163 HD
ATOM     29  O   UNL A   1      32.546  36.068  28.895  1.00  0.00    -0.269 OA
BRANCH  27  30
ATOM     30  C   UNL A   1      34.209  34.490  29.373  1.00  0.00     0.039 A 
ATOM     31  C   UNL A   1      34.021  33.917  30.633  1.00  0.00     0.014 A 
ATOM     32  C   UNL A   1      35.494  34.603  28.834  1.00  0.00     0.014 A 
ATOM     33  C   UNL A   1      35.114  33.390  31.322  1.00  0.00     0.010 A 
ATOM     34  C   UNL A   1      36.571  34.013  29.488  1.00  0.00     0.010 A 
ATOM     35  C   UNL A   1      36.391  33.396  30.734  1.00  0.00    -0.014 A 
BRANCH  35  36
ATOM     36  C   UNL A   1      37.537  32.723  31.393  1.00  0.00     0.031 A 
ATOM     37  C   UNL A   1      38.200  31.541  30.750  1.00  0.00     0.074 A 
ATOM     38  C   UNL A   1      37.931  33.137  32.612  1.00  0.00     0.049 A 
ATOM     39  N   UNL A   1      39.166  30.783  31.206  1.00  0.00    -0.248 NA
ATOM     40  C   UNL A   1      37.694  31.140  29.430  1.00  0.00     0.031 C 
ATOM     41  C   UNL A   1      37.326  34.240  33.362  1.00  0.00     0.029 A 
ATOM     42  N   UNL A   1      38.916  32.671  33.444  1.00  0.00    -0.354 N 
ATOM     43  C   UNL A   1      39.380  29.817  30.232  1.00  0.00     0.074 A 
ATOM     44  C   UNL A   1      38.401  30.045  29.191  1.00  0.00     0.031 C 
ATOM     45  C   UNL A   1      37.961  34.374  34.536  1.00  0.00     0.029 A 
ATOM     46  C   UNL A   1      38.985  33.338  34.642  1.00  0.00     0.049 A 
ATOM     47  H   UNL A   1      39.518  31.928  33.205  1.00  0.00     0.167 HD
ATOM     48  C   UNL A   1      40.323  28.844  30.200  1.00  0.00     0.037 A 
ATOM     49  C   UNL A   1      39.769  33.127  35.716  1.00  0.00     0.037 A 
ATOM     50  C   UNL A   1      41.290  28.621  31.245  1.00  0.00     0.049 A 
ATOM     51  C   UNL A   1      40.787  32.022  35.674  1.00  0.00     0.074 A 
ATOM     52  C   UNL A   1      42.318  27.698  31.287  1.00  0.00     0.029 A 
ATOM     53  N   UNL A   1      41.335  29.324  32.442  1.00  0.00    -0.354 N 
ATOM     54  N   UNL A   1      41.034  31.163  34.715  1.00  0.00    -0.248 NA
ATOM     55  C   UNL A   1      41.638  31.859  36.860  1.00  0.00     0.031 C 
ATOM     56  C   UNL A   1      42.946  27.798  32.533  1.00  0.00     0.029 A 
ATOM     57  C   UNL A   1      42.352  28.828  33.245  1.00  0.00     0.049 A 
ATOM     58  H   UNL A   1      40.735  30.065  32.686  1.00  0.00     0.167 HD
ATOM     59  C   UNL A   1      42.077  30.369  35.172  1.00  0.00     0.074 A 
ATOM     60  C   UNL A   1      42.431  30.864  36.487  1.00  0.00     0.031 C 
ATOM     61  C   UNL A   1      42.684  29.323  34.559  1.00  0.00     0.037 A 
BRANCH  48  62
ATOM     62  C   UNL A   1      40.342  27.943  28.997  1.00  0.00     0.064 A 
ATOM     63  C   UNL A   1      41.088  28.258  27.850  1.00  0.00     0.173 A 
ATOM     64  C   UNL A   1      39.614  26.744  28.992  1.00  0.00     0.173 A 
ATOM     65  F   UNL A   1      41.798  29.396  27.798  1.00  0.00    -0.203 F 
ATOM     66  C   UNL A   1      41.068  27.431  26.729  1.00  0.00     0.198 A 
ATOM     67  C   UNL A   1      39.625  25.900  27.882  1.00  0.00     0.198 A 
ATOM     68  F   UNL A   1      38.889  26.385  30.063  1.00  0.00    -0.203 F 
ATOM     69  F   UNL A   1      41.734  27.790  25.623  1.00  0.00    -0.200 F 
ATOM     70  C   UNL A   1      40.340  26.252  26.748  1.00  0.00     0.200 A 
ATOM     71  F   UNL A   1      38.934  24.752  27.909  1.00  0.00    -0.200 F 
ATOM     72  F   UNL A   1      40.320  25.458  25.668  1.00  0.00    -0.200 F 
ENDBRANCH  48  62
BRANCH  49  73
ATOM     73  C   UNL A   1      39.612  33.989  36.917  1.00  0.00     0.064 A 
ATOM     74  C   UNL A   1      40.228  35.245  36.993  1.00  0.00     0.173 A 
ATOM     75  C   UNL A   1      38.818  33.585  38.002  1.00  0.00     0.173 A 
ATOM     76  F   UNL A   1      41.013  35.668  35.990  1.00  0.00    -0.203 F 
ATOM     77  C   UNL A   1      40.066  36.059  38.113  1.00  0.00     0.198 A 
ATOM     78  C   UNL A   1      38.632  34.411  39.106  1.00  0.00     0.198 A 
ATOM     79  F   UNL A   1      38.202  32.394  37.975  1.00  0.00    -0.203 F 
ATOM     80  F   UNL A   1      40.696  37.239  38.176  1.00  0.00    -0.200 F 
ATOM     81  C   UNL A   1      39.261  35.646  39.164  1.00  0.00     0.200 A 
ATOM     82  F   UNL A   1      37.838  34.016  40.110  1.00  0.00    -0.200 F 
ATOM     83  F   UNL A   1      39.094  36.435  40.233  1.00  0.00    -0.200 F 
ENDBRANCH  49  73
BRANCH  61  84
ATOM     84  C   UNL A   1      43.804  28.647  35.298  1.00  0.00     0.064 A 
ATOM     85  C   UNL A   1      43.563  27.593  36.194  1.00  0.00     0.173 A 
ATOM     86  C   UNL A   1      45.136  29.027  35.078  1.00  0.00     0.173 A 
ATOM     87  F   UNL A   1      42.307  27.200  36.454  1.00  0.00    -0.203 F 
ATOM     88  C   UNL A   1      44.613  26.963  36.857  1.00  0.00     0.198 A 
ATOM     89  C   UNL A   1      46.186  28.373  35.716  1.00  0.00     0.198 A 
ATOM     90  F   UNL A   1      45.423  30.025  34.227  1.00  0.00    -0.203 F 
ATOM     91  F   UNL A   1      44.356  25.992  37.744  1.00  0.00    -0.200 F 
ATOM     92  C   UNL A   1      45.924  27.346  36.611  1.00  0.00     0.200 A 
ATOM     93  F   UNL A   1      47.451  28.734  35.465  1.00  0.00    -0.200 F 
ATOM     94  F   UNL A   1      46.933  26.730  37.242  1.00  0.00    -0.200 F 
ENDBRANCH  61  84
ENDBRANCH  35  36
ENDBRANCH  27  30
ENDBRANCH  25  26
ENDBRANCH  24  25
ENDBRANCH  23  24
ENDBRANCH   1  23
TORSDOF 19
ENDMDL
