MODEL 1
REMARK VINA RESULT:     -11.9      0.000      0.000
REMARK SMILES NC(=O)[C@@H]1CCCCN1C(=O)N[C@H]1C=C[C@@H](C(=O)NCCCCCCNC(=O)c2ccc(-c3c4nc(c(-c5c(F)c(F)c(F)c(F)c5F)c5ccc([nH]5)c(-c5c(F)c(F)c(F)c(F)c5F)c5nc(c(-c6c(F)c(F)c(F)c(F)c6F)c6ccc3[nH]6)C=C5)C=C4)cc2)C1
REMARK SMILES IDX 22 1 21 2 20 3 19 4 17 5 18 6 16 8 13 9 14 10 92 11 15 12
REMARK SMILES IDX 12 13 10 14 11 15 9 17 4 18 5 19 6 20 8 21 7 22 2 23 1 24
REMARK SMILES IDX 3 27 23 28 24 29 25 30 26 31 27 32 28 34 29 35 30 36 91 37
REMARK SMILES IDX 31 38 90 39 32 40 33 41 34 42 84 43 35 44 89 45 83 46 85 47
REMARK SMILES IDX 36 48 88 49 82 50 81 51 37 53 69 54 49 55 68 56 50 57 53 58
REMARK SMILES IDX 67 59 86 60 51 61 52 62 66 64 87 65 54 66 38 67 39 68 47 69
REMARK SMILES IDX 40 70 41 71 45 72 48 73 42 74 43 75 46 76 44 77 70 78 71 79
REMARK SMILES IDX 79 80 72 81 73 82 77 83 80 84 74 85 75 86 78 87 76 88 55 89
REMARK SMILES IDX 56 90 64 91 57 92 58 93 62 94 65 95 59 96 60 97 63 98 61 99
REMARK H PARENT 19 7 12 16 1 25 1 26 26 33 85 52 53 63
REMARK Flexibility Score: inf
ROOT
ATOM      1  C   UNL A   1      35.260  33.005  28.170  1.00  0.00     0.002 C 
ENDROOT
BRANCH   1   2
ATOM      2  C   UNL A   1      34.038  32.090  28.283  1.00  0.00     0.021 C 
BRANCH   2   3
ATOM      3  C   UNL A   1      34.198  30.745  27.584  1.00  0.00     0.116 C 
BRANCH   3   4
ATOM      4  N   UNL A   1      32.973  29.972  27.621  1.00  0.00    -0.356 N 
ATOM      5  C   UNL A   1      32.671  28.768  27.063  1.00  0.00     0.227 C 
ATOM      6  O   UNL A   1      31.536  28.322  27.255  1.00  0.00    -0.274 OA
ATOM      7  H   UNL A   1      32.240  30.383  28.133  1.00  0.00     0.163 HD
BRANCH   5   8
ATOM      8  C   UNL A   1      33.671  27.984  26.209  1.00  0.00     0.103 C 
ATOM      9  C   UNL A   1      33.547  26.204  24.509  1.00  0.00     0.107 C 
ATOM     10  C   UNL A   1      33.756  27.559  23.901  1.00  0.00    -0.006 C 
ATOM     11  C   UNL A   1      33.283  26.519  25.992  1.00  0.00     0.047 C 
ATOM     12  C   UNL A   1      33.851  28.522  24.824  1.00  0.00    -0.016 C 
BRANCH   9  13
ATOM     13  N   UNL A   1      32.407  25.561  23.892  1.00  0.00    -0.332 N 
ATOM     14  C   UNL A   1      31.870  24.326  23.895  1.00  0.00     0.318 C 
ATOM     15  O   UNL A   1      30.742  24.281  23.396  1.00  0.00    -0.249 OA
ATOM     16  H   UNL A   1      31.894  26.183  23.327  1.00  0.00     0.165 HD
BRANCH  14  17
ATOM     17  N   UNL A   1      32.494  23.218  24.394  1.00  0.00    -0.313 N 
ATOM     18  C   UNL A   1      32.285  22.815  25.811  1.00  0.00     0.176 C 
ATOM     19  C   UNL A   1      33.560  23.075  26.637  1.00  0.00     0.035 C 
ATOM     20  C   UNL A   1      34.783  22.411  25.996  1.00  0.00     0.004 C 
ATOM     21  C   UNL A   1      33.586  22.454  23.796  1.00  0.00     0.122 C 
ATOM     22  C   UNL A   1      34.894  22.777  24.519  1.00  0.00     0.022 C 
BRANCH  18  23
ATOM     23  C   UNL A   1      31.006  23.197  26.600  1.00  0.00     0.240 C 
ATOM     24  N   UNL A   1      29.965  22.313  26.538  1.00  0.00    -0.368 N 
ATOM     25  H   UNL A   1      29.128  22.505  27.019  1.00  0.00     0.159 HD
ATOM     26  H   UNL A   1      30.052  21.486  26.010  1.00  0.00     0.159 HD
ATOM     27  O   UNL A   1      30.906  24.229  27.258  1.00  0.00    -0.273 OA
ENDBRANCH  18  23
ENDBRANCH  14  17
ENDBRANCH   9  13
ENDBRANCH   5   8
ENDBRANCH   3   4
ENDBRANCH   2   3
ENDBRANCH   1   2
BRANCH   1  28
ATOM     28  C   UNL A   1      34.972  34.497  28.366  1.00  0.00     0.002 C 
BRANCH  28  29
ATOM     29  C   UNL A   1      33.542  34.829  28.802  1.00  0.00     0.021 C 
BRANCH  29  30
ATOM     30  C   UNL A   1      33.359  36.240  29.349  1.00  0.00     0.116 C 
BRANCH  30  31
ATOM     31  N   UNL A   1      32.519  36.261  30.535  1.00  0.00    -0.352 N 
ATOM     32  C   UNL A   1      32.654  35.563  31.706  1.00  0.00     0.251 C 
ATOM     33  H   UNL A   1      31.743  36.864  30.492  1.00  0.00     0.163 HD
ATOM     34  O   UNL A   1      31.740  35.549  32.529  1.00  0.00    -0.269 OA
BRANCH  32  35
ATOM     35  C   UNL A   1      33.895  34.807  31.975  1.00  0.00     0.039 A 
ATOM     36  C   UNL A   1      35.086  35.510  32.173  1.00  0.00     0.014 A 
ATOM     37  C   UNL A   1      33.885  33.410  32.025  1.00  0.00     0.014 A 
ATOM     38  C   UNL A   1      36.256  34.813  32.476  1.00  0.00     0.010 A 
ATOM     39  C   UNL A   1      35.034  32.723  32.403  1.00  0.00     0.010 A 
ATOM     40  C   UNL A   1      36.233  33.417  32.628  1.00  0.00    -0.014 A 
BRANCH  40  41
ATOM     41  C   UNL A   1      37.454  32.667  33.017  1.00  0.00     0.031 A 
ATOM     42  C   UNL A   1      38.151  32.978  34.312  1.00  0.00     0.074 A 
ATOM     43  C   UNL A   1      37.966  31.749  32.177  1.00  0.00     0.049 A 
ATOM     44  N   UNL A   1      39.259  32.477  34.798  1.00  0.00    -0.248 NA
ATOM     45  C   UNL A   1      37.537  34.009  35.164  1.00  0.00     0.031 C 
ATOM     46  C   UNL A   1      37.406  31.393  30.872  1.00  0.00     0.029 A 
ATOM     47  N   UNL A   1      39.080  30.954  32.289  1.00  0.00    -0.354 N 
ATOM     48  C   UNL A   1      39.477  33.136  36.000  1.00  0.00     0.074 A 
ATOM     49  C   UNL A   1      38.422  34.114  36.144  1.00  0.00     0.031 C 
ATOM     50  C   UNL A   1      38.165  30.436  30.314  1.00  0.00     0.029 A 
ATOM     51  C   UNL A   1      39.287  30.142  31.200  1.00  0.00     0.049 A 
ATOM     52  H   UNL A   1      39.673  30.964  33.074  1.00  0.00     0.167 HD
ATOM     53  C   UNL A   1      40.455  32.926  36.914  1.00  0.00     0.037 A 
ATOM     54  C   UNL A   1      40.277  29.267  30.942  1.00  0.00     0.037 A 
ATOM     55  C   UNL A   1      41.495  31.940  36.772  1.00  0.00     0.049 A 
ATOM     56  C   UNL A   1      41.363  29.065  31.965  1.00  0.00     0.074 A 
ATOM     57  C   UNL A   1      42.502  31.613  37.664  1.00  0.00     0.029 A 
ATOM     58  N   UNL A   1      41.667  31.128  35.660  1.00  0.00    -0.354 N 
ATOM     59  N   UNL A   1      41.518  29.642  33.132  1.00  0.00    -0.248 NA
ATOM     60  C   UNL A   1      42.407  28.085  31.637  1.00  0.00     0.031 C 
ATOM     61  C   UNL A   1      43.313  30.642  37.070  1.00  0.00     0.029 A 
ATOM     62  C   UNL A   1      42.778  30.317  35.834  1.00  0.00     0.049 A 
ATOM     63  H   UNL A   1      41.086  31.127  34.866  1.00  0.00     0.167 HD
ATOM     64  C   UNL A   1      42.656  29.075  33.691  1.00  0.00     0.074 A 
ATOM     65  C   UNL A   1      43.142  28.096  32.740  1.00  0.00     0.031 C 
ATOM     66  C   UNL A   1      43.246  29.342  34.882  1.00  0.00     0.037 A 
BRANCH  53  67
ATOM     67  C   UNL A   1      40.447  33.780  38.150  1.00  0.00     0.064 A 
ATOM     68  C   UNL A   1      41.224  34.945  38.246  1.00  0.00     0.173 A 
ATOM     69  C   UNL A   1      39.625  33.451  39.239  1.00  0.00     0.173 A 
ATOM     70  F   UNL A   1      42.035  35.301  37.238  1.00  0.00    -0.203 F 
ATOM     71  C   UNL A   1      41.203  35.729  39.396  1.00  0.00     0.198 A 
ATOM     72  C   UNL A   1      39.582  34.256  40.374  1.00  0.00     0.198 A 
ATOM     73  F   UNL A   1      38.856  32.353  39.199  1.00  0.00    -0.203 F 
ATOM     74  F   UNL A   1      41.996  36.807  39.485  1.00  0.00    -0.200 F 
ATOM     75  C   UNL A   1      40.377  35.389  40.456  1.00  0.00     0.200 A 
ATOM     76  F   UNL A   1      38.770  33.935  41.391  1.00  0.00    -0.200 F 
ATOM     77  F   UNL A   1      40.352  36.150  41.559  1.00  0.00    -0.200 F 
ENDBRANCH  53  67
BRANCH  54  78
ATOM     78  C   UNL A   1      40.278  28.501  29.668  1.00  0.00     0.064 A 
ATOM     79  C   UNL A   1      39.581  27.289  29.553  1.00  0.00     0.173 A 
ATOM     80  C   UNL A   1      40.979  28.958  28.542  1.00  0.00     0.173 A 
ATOM     81  F   UNL A   1      38.912  26.801  30.608  1.00  0.00    -0.203 F 
ATOM     82  C   UNL A   1      39.605  26.553  28.371  1.00  0.00     0.198 A 
ATOM     83  C   UNL A   1      40.975  28.236  27.350  1.00  0.00     0.198 A 
ATOM     84  F   UNL A   1      41.656  30.114  28.595  1.00  0.00    -0.203 F 
ATOM     85  F   UNL A   1      38.971  25.375  28.306  1.00  0.00    -0.200 F 
ATOM     86  C   UNL A   1      40.296  27.030  27.268  1.00  0.00     0.200 A 
ATOM     87  F   UNL A   1      41.630  28.710  26.281  1.00  0.00    -0.200 F 
ATOM     88  F   UNL A   1      40.315  26.324  26.129  1.00  0.00    -0.200 F 
ENDBRANCH  54  78
BRANCH  66  89
ATOM     89  C   UNL A   1      44.460  28.536  35.246  1.00  0.00     0.064 A 
ATOM     90  C   UNL A   1      44.359  27.312  35.924  1.00  0.00     0.173 A 
ATOM     91  C   UNL A   1      45.740  28.978  34.878  1.00  0.00     0.173 A 
ATOM     92  F   UNL A   1      43.161  26.851  36.312  1.00  0.00    -0.203 F 
ATOM     93  C   UNL A   1      45.497  26.574  36.242  1.00  0.00     0.198 A 
ATOM     94  C   UNL A   1      46.872  28.222  35.167  1.00  0.00     0.198 A 
ATOM     95  F   UNL A   1      45.893  30.138  34.222  1.00  0.00    -0.203 F 
ATOM     96  F   UNL A   1      45.381  25.434  36.937  1.00  0.00    -0.200 F 
ATOM     97  C   UNL A   1      46.751  27.026  35.857  1.00  0.00     0.200 A 
ATOM     98  F   UNL A   1      48.081  28.652  34.780  1.00  0.00    -0.200 F 
ATOM     99  F   UNL A   1      47.843  26.310  36.157  1.00  0.00    -0.200 F 
ENDBRANCH  66  89
ENDBRANCH  40  41
ENDBRANCH  32  35
ENDBRANCH  30  31
ENDBRANCH  29  30
ENDBRANCH  28  29
ENDBRANCH   1  28
TORSDOF 16
ENDMDL
MODEL 2
REMARK VINA RESULT:     -11.8      6.369     11.867
REMARK SMILES NC(=O)[C@@H]1CCCCN1C(=O)N[C@H]1C=C[C@@H](C(=O)NCCCCCCNC(=O)c2ccc(-c3c4nc(c(-c5c(F)c(F)c(F)c(F)c5F)c5ccc([nH]5)c(-c5c(F)c(F)c(F)c(F)c5F)c5nc(c(-c6c(F)c(F)c(F)c(F)c6F)c6ccc3[nH]6)C=C5)C=C4)cc2)C1
REMARK SMILES IDX 22 1 21 2 20 3 19 4 17 5 18 6 16 8 13 9 14 10 92 11 15 12
REMARK SMILES IDX 12 13 10 14 11 15 9 17 4 18 5 19 6 20 8 21 7 22 2 23 1 24
REMARK SMILES IDX 3 27 23 28 24 29 25 30 26 31 27 32 28 34 29 35 30 36 91 37
REMARK SMILES IDX 31 38 90 39 32 40 33 41 34 42 84 43 35 44 89 45 83 46 85 47
REMARK SMILES IDX 36 48 88 49 82 50 81 51 37 53 69 54 49 55 68 56 50 57 53 58
REMARK SMILES IDX 67 59 86 60 51 61 52 62 66 64 87 65 54 66 38 67 39 68 47 69
REMARK SMILES IDX 40 70 41 71 45 72 48 73 42 74 43 75 46 76 44 77 70 78 71 79
REMARK SMILES IDX 79 80 72 81 73 82 77 83 80 84 74 85 75 86 78 87 76 88 55 89
REMARK SMILES IDX 56 90 64 91 57 92 58 93 62 94 65 95 59 96 60 97 63 98 61 99
REMARK H PARENT 19 7 12 16 1 25 1 26 26 33 85 52 53 63
REMARK Flexibility Score: inf
ROOT
ATOM      1  C   UNL A   1      39.998  21.683  26.323  1.00  0.00     0.002 C 
ENDROOT
BRANCH   1   2
ATOM      2  C   UNL A   1      39.772  22.985  27.095  1.00  0.00     0.021 C 
BRANCH   2   3
ATOM      3  C   UNL A   1      38.766  23.929  26.449  1.00  0.00     0.116 C 
BRANCH   3   4
ATOM      4  N   UNL A   1      38.099  23.312  25.319  1.00  0.00    -0.356 N 
ATOM      5  C   UNL A   1      36.788  23.314  24.959  1.00  0.00     0.227 C 
ATOM      6  O   UNL A   1      36.480  22.705  23.930  1.00  0.00    -0.274 OA
ATOM      7  H   UNL A   1      38.692  22.809  24.715  1.00  0.00     0.163 HD
BRANCH   5   8
ATOM      8  C   UNL A   1      35.709  24.020  25.786  1.00  0.00     0.103 C 
ATOM      9  C   UNL A   1      33.264  24.295  25.654  1.00  0.00     0.107 C 
ATOM     10  C   UNL A   1      33.667  23.259  26.661  1.00  0.00    -0.006 C 
ATOM     11  C   UNL A   1      34.586  24.631  24.944  1.00  0.00     0.047 C 
ATOM     12  C   UNL A   1      34.995  23.128  26.753  1.00  0.00    -0.016 C 
BRANCH   9  13
ATOM     13  N   UNL A   1      32.295  23.735  24.737  1.00  0.00    -0.332 N 
ATOM     14  C   UNL A   1      31.402  24.219  23.853  1.00  0.00     0.318 C 
ATOM     15  O   UNL A   1      30.933  23.356  23.105  1.00  0.00    -0.249 OA
ATOM     16  H   UNL A   1      32.286  22.751  24.766  1.00  0.00     0.165 HD
BRANCH  14  17
ATOM     17  N   UNL A   1      31.034  25.533  23.775  1.00  0.00    -0.313 N 
ATOM     18  C   UNL A   1      31.789  26.472  22.900  1.00  0.00     0.176 C 
ATOM     19  C   UNL A   1      32.614  27.454  23.753  1.00  0.00     0.035 C 
ATOM     20  C   UNL A   1      31.736  28.168  24.786  1.00  0.00     0.004 C 
ATOM     21  C   UNL A   1      30.114  26.264  24.642  1.00  0.00     0.122 C 
ATOM     22  C   UNL A   1      30.909  27.166  25.587  1.00  0.00     0.022 C 
BRANCH  18  23
ATOM     23  C   UNL A   1      32.582  25.989  21.658  1.00  0.00     0.240 C 
ATOM     24  N   UNL A   1      31.862  25.796  20.513  1.00  0.00    -0.368 N 
ATOM     25  H   UNL A   1      32.314  25.490  19.693  1.00  0.00     0.159 HD
ATOM     26  H   UNL A   1      30.891  25.963  20.507  1.00  0.00     0.159 HD
ATOM     27  O   UNL A   1      33.793  25.786  21.672  1.00  0.00    -0.273 OA
ENDBRANCH  18  23
ENDBRANCH  14  17
ENDBRANCH   9  13
ENDBRANCH   5   8
ENDBRANCH   3   4
ENDBRANCH   2   3
ENDBRANCH   1   2
BRANCH   1  28
ATOM     28  C   UNL A   1      41.291  20.940  26.672  1.00  0.00     0.002 C 
BRANCH  28  29
ATOM     29  C   UNL A   1      41.498  19.614  25.933  1.00  0.00     0.021 C 
BRANCH  29  30
ATOM     30  C   UNL A   1      42.805  18.904  26.261  1.00  0.00     0.116 C 
BRANCH  30  31
ATOM     31  N   UNL A   1      43.650  18.748  25.088  1.00  0.00    -0.352 N 
ATOM     32  C   UNL A   1      44.315  19.702  24.365  1.00  0.00     0.251 C 
ATOM     33  H   UNL A   1      43.762  17.823  24.769  1.00  0.00     0.163 HD
ATOM     34  O   UNL A   1      44.821  19.418  23.280  1.00  0.00    -0.269 OA
BRANCH  32  35
ATOM     35  C   UNL A   1      44.409  21.085  24.878  1.00  0.00     0.039 A 
ATOM     36  C   UNL A   1      45.088  21.316  26.076  1.00  0.00     0.014 A 
ATOM     37  C   UNL A   1      43.823  22.147  24.184  1.00  0.00     0.014 A 
ATOM     38  C   UNL A   1      45.227  22.622  26.548  1.00  0.00     0.010 A 
ATOM     39  C   UNL A   1      44.029  23.453  24.615  1.00  0.00     0.010 A 
ATOM     40  C   UNL A   1      44.729  23.704  25.805  1.00  0.00    -0.014 A 
BRANCH  40  41
ATOM     41  C   UNL A   1      44.929  25.103  26.258  1.00  0.00     0.031 A 
ATOM     42  C   UNL A   1      46.296  25.725  26.213  1.00  0.00     0.074 A 
ATOM     43  C   UNL A   1      43.889  25.792  26.766  1.00  0.00     0.049 A 
ATOM     44  N   UNL A   1      46.682  26.909  26.619  1.00  0.00    -0.248 NA
ATOM     45  C   UNL A   1      47.382  24.899  25.662  1.00  0.00     0.031 C 
ATOM     46  C   UNL A   1      42.525  25.280  26.906  1.00  0.00     0.029 A 
ATOM     47  N   UNL A   1      43.819  27.067  27.270  1.00  0.00    -0.354 N 
ATOM     48  C   UNL A   1      48.049  26.963  26.382  1.00  0.00     0.074 A 
ATOM     49  C   UNL A   1      48.438  25.674  25.853  1.00  0.00     0.031 C 
ATOM     50  C   UNL A   1      41.748  26.237  27.438  1.00  0.00     0.029 A 
ATOM     51  C   UNL A   1      42.566  27.414  27.716  1.00  0.00     0.049 A 
ATOM     52  H   UNL A   1      44.592  27.675  27.308  1.00  0.00     0.167 HD
ATOM     53  C   UNL A   1      48.899  28.002  26.567  1.00  0.00     0.037 A 
ATOM     54  C   UNL A   1      42.131  28.550  28.293  1.00  0.00     0.037 A 
ATOM     55  C   UNL A   1      48.503  29.288  27.081  1.00  0.00     0.049 A 
ATOM     56  C   UNL A   1      43.098  29.683  28.504  1.00  0.00     0.074 A 
ATOM     57  C   UNL A   1      49.275  30.423  27.255  1.00  0.00     0.029 A 
ATOM     58  N   UNL A   1      47.223  29.607  27.511  1.00  0.00    -0.354 N 
ATOM     59  N   UNL A   1      44.375  29.748  28.209  1.00  0.00    -0.248 NA
ATOM     60  C   UNL A   1      42.563  30.903  29.123  1.00  0.00     0.031 C 
ATOM     61  C   UNL A   1      48.477  31.409  27.841  1.00  0.00     0.029 A 
ATOM     62  C   UNL A   1      47.191  30.913  27.974  1.00  0.00     0.049 A 
ATOM     63  H   UNL A   1      46.451  28.996  27.490  1.00  0.00     0.167 HD
ATOM     64  C   UNL A   1      44.787  31.023  28.575  1.00  0.00     0.074 A 
ATOM     65  C   UNL A   1      43.620  31.702  29.100  1.00  0.00     0.031 C 
ATOM     66  C   UNL A   1      46.021  31.579  28.487  1.00  0.00     0.037 A 
BRANCH  53  67
ATOM     67  C   UNL A   1      50.343  27.792  26.210  1.00  0.00     0.064 A 
ATOM     68  C   UNL A   1      51.309  27.502  27.186  1.00  0.00     0.173 A 
ATOM     69  C   UNL A   1      50.762  27.844  24.871  1.00  0.00     0.173 A 
ATOM     70  F   UNL A   1      50.964  27.450  28.482  1.00  0.00    -0.203 F 
ATOM     71  C   UNL A   1      52.643  27.305  26.840  1.00  0.00     0.198 A 
ATOM     72  C   UNL A   1      52.090  27.612  24.526  1.00  0.00     0.198 A 
ATOM     73  F   UNL A   1      49.880  28.109  23.896  1.00  0.00    -0.203 F 
ATOM     74  F   UNL A   1      53.556  27.084  27.797  1.00  0.00    -0.200 F 
ATOM     75  C   UNL A   1      53.032  27.353  25.510  1.00  0.00     0.200 A 
ATOM     76  F   UNL A   1      52.462  27.642  23.239  1.00  0.00    -0.200 F 
ATOM     77  F   UNL A   1      54.315  27.154  25.179  1.00  0.00    -0.200 F 
ENDBRANCH  53  67
BRANCH  54  78
ATOM     78  C   UNL A   1      40.706  28.678  28.697  1.00  0.00     0.064 A 
ATOM     79  C   UNL A   1      39.734  29.118  27.786  1.00  0.00     0.173 A 
ATOM     80  C   UNL A   1      40.285  28.371  30.000  1.00  0.00     0.173 A 
ATOM     81  F   UNL A   1      40.090  29.443  26.534  1.00  0.00    -0.203 F 
ATOM     82  C   UNL A   1      38.403  29.270  28.169  1.00  0.00     0.198 A 
ATOM     83  C   UNL A   1      38.948  28.492  30.372  1.00  0.00     0.198 A 
ATOM     84  F   UNL A   1      41.172  27.939  30.908  1.00  0.00    -0.203 F 
ATOM     85  F   UNL A   1      37.506  29.740  27.292  1.00  0.00    -0.200 F 
ATOM     86  C   UNL A   1      38.010  28.950  29.459  1.00  0.00     0.200 A 
ATOM     87  F   UNL A   1      38.569  28.166  31.615  1.00  0.00    -0.200 F 
ATOM     88  F   UNL A   1      36.729  29.092  29.826  1.00  0.00    -0.200 F 
ENDBRANCH  54  78
BRANCH  66  89
ATOM     89  C   UNL A   1      46.166  33.007  28.929  1.00  0.00     0.064 A 
ATOM     90  C   UNL A   1      46.526  33.341  30.244  1.00  0.00     0.173 A 
ATOM     91  C   UNL A   1      45.980  34.054  28.014  1.00  0.00     0.173 A 
ATOM     92  F   UNL A   1      46.700  32.379  31.162  1.00  0.00    -0.203 F 
ATOM     93  C   UNL A   1      46.666  34.671  30.631  1.00  0.00     0.198 A 
ATOM     94  C   UNL A   1      46.155  35.381  28.395  1.00  0.00     0.198 A 
ATOM     95  F   UNL A   1      45.643  33.790  26.743  1.00  0.00    -0.203 F 
ATOM     96  F   UNL A   1      46.957  34.969  31.904  1.00  0.00    -0.200 F 
ATOM     97  C   UNL A   1      46.489  35.689  29.705  1.00  0.00     0.200 A 
ATOM     98  F   UNL A   1      45.999  36.362  27.495  1.00  0.00    -0.200 F 
ATOM     99  F   UNL A   1      46.633  36.968  30.077  1.00  0.00    -0.200 F 
ENDBRANCH  66  89
ENDBRANCH  40  41
ENDBRANCH  32  35
ENDBRANCH  30  31
ENDBRANCH  29  30
ENDBRANCH  28  29
ENDBRANCH   1  28
TORSDOF 16
ENDMDL
MODEL 3
REMARK VINA RESULT:     -11.8      5.312     11.407
REMARK SMILES NC(=O)[C@@H]1CCCCN1C(=O)N[C@H]1C=C[C@@H](C(=O)NCCCCCCNC(=O)c2ccc(-c3c4nc(c(-c5c(F)c(F)c(F)c(F)c5F)c5ccc([nH]5)c(-c5c(F)c(F)c(F)c(F)c5F)c5nc(c(-c6c(F)c(F)c(F)c(F)c6F)c6ccc3[nH]6)C=C5)C=C4)cc2)C1
REMARK SMILES IDX 22 1 21 2 20 3 19 4 17 5 18 6 16 8 13 9 14 10 92 11 15 12
REMARK SMILES IDX 12 13 10 14 11 15 9 17 4 18 5 19 6 20 8 21 7 22 2 23 1 24
REMARK SMILES IDX 3 27 23 28 24 29 25 30 26 31 27 32 28 34 29 35 30 36 91 37
REMARK SMILES IDX 31 38 90 39 32 40 33 41 34 42 84 43 35 44 89 45 83 46 85 47
REMARK SMILES IDX 36 48 88 49 82 50 81 51 37 53 69 54 49 55 68 56 50 57 53 58
REMARK SMILES IDX 67 59 86 60 51 61 52 62 66 64 87 65 54 66 38 67 39 68 47 69
REMARK SMILES IDX 40 70 41 71 45 72 48 73 42 74 43 75 46 76 44 77 70 78 71 79
REMARK SMILES IDX 79 80 72 81 73 82 77 83 80 84 74 85 75 86 78 87 76 88 55 89
REMARK SMILES IDX 56 90 64 91 57 92 58 93 62 94 65 95 59 96 60 97 63 98 61 99
REMARK H PARENT 19 7 12 16 1 25 1 26 26 33 85 52 53 63
REMARK Flexibility Score: inf
ROOT
ATOM      1  C   UNL A   1      43.694  24.589  26.805  1.00  0.00     0.002 C 
ENDROOT
BRANCH   1   2
ATOM      2  C   UNL A   1      45.179  24.394  27.120  1.00  0.00     0.021 C 
BRANCH   2   3
ATOM      3  C   UNL A   1      45.955  25.692  27.308  1.00  0.00     0.116 C 
BRANCH   3   4
ATOM      4  N   UNL A   1      46.059  26.439  26.071  1.00  0.00    -0.356 N 
ATOM      5  C   UNL A   1      45.664  27.705  25.767  1.00  0.00     0.227 C 
ATOM      6  O   UNL A   1      45.880  28.108  24.620  1.00  0.00    -0.274 OA
ATOM      7  H   UNL A   1      46.486  25.952  25.329  1.00  0.00     0.163 HD
BRANCH   5   8
ATOM      8  C   UNL A   1      44.959  28.611  26.781  1.00  0.00     0.103 C 
ATOM      9  C   UNL A   1      44.146  30.937  26.822  1.00  0.00     0.107 C 
ATOM     10  C   UNL A   1      43.038  29.950  26.606  1.00  0.00    -0.006 C 
ATOM     11  C   UNL A   1      45.414  30.072  26.725  1.00  0.00     0.047 C 
ATOM     12  C   UNL A   1      43.474  28.686  26.609  1.00  0.00    -0.016 C 
BRANCH   9  13
ATOM     13  N   UNL A   1      44.112  31.948  25.787  1.00  0.00    -0.332 N 
ATOM     14  C   UNL A   1      44.443  33.249  25.689  1.00  0.00     0.318 C 
ATOM     15  O   UNL A   1      44.459  33.666  24.528  1.00  0.00    -0.249 OA
ATOM     16  H   UNL A   1      43.756  31.594  24.940  1.00  0.00     0.165 HD
BRANCH  14  17
ATOM     17  N   UNL A   1      44.735  34.050  26.758  1.00  0.00    -0.313 N 
ATOM     18  C   UNL A   1      46.125  34.117  27.285  1.00  0.00     0.176 C 
ATOM     19  C   UNL A   1      46.216  33.410  28.651  1.00  0.00     0.035 C 
ATOM     20  C   UNL A   1      45.173  33.957  29.632  1.00  0.00     0.004 C 
ATOM     21  C   UNL A   1      43.805  34.707  27.672  1.00  0.00     0.122 C 
ATOM     22  C   UNL A   1      43.781  33.959  29.005  1.00  0.00     0.022 C 
BRANCH  18  23
ATOM     23  C   UNL A   1      47.361  33.811  26.401  1.00  0.00     0.240 C 
ATOM     24  N   UNL A   1      48.193  32.818  26.838  1.00  0.00    -0.368 N 
ATOM     25  H   UNL A   1      48.994  32.582  26.316  1.00  0.00     0.159 HD
ATOM     26  H   UNL A   1      47.992  32.341  27.676  1.00  0.00     0.159 HD
ATOM     27  O   UNL A   1      47.604  34.408  25.356  1.00  0.00    -0.273 OA
ENDBRANCH  18  23
ENDBRANCH  14  17
ENDBRANCH   9  13
ENDBRANCH   5   8
ENDBRANCH   3   4
ENDBRANCH   2   3
ENDBRANCH   1   2
BRANCH   1  28
ATOM     28  C   UNL A   1      43.257  24.107  25.418  1.00  0.00     0.002 C 
BRANCH  28  29
ATOM     29  C   UNL A   1      42.670  22.693  25.378  1.00  0.00     0.021 C 
BRANCH  29  30
ATOM     30  C   UNL A   1      41.667  22.392  26.484  1.00  0.00     0.116 C 
BRANCH  30  31
ATOM     31  N   UNL A   1      40.298  22.391  25.994  1.00  0.00    -0.352 N 
ATOM     32  C   UNL A   1      39.280  23.268  26.260  1.00  0.00     0.251 C 
ATOM     33  H   UNL A   1      40.071  21.655  25.381  1.00  0.00     0.163 HD
ATOM     34  O   UNL A   1      38.128  23.002  25.920  1.00  0.00    -0.269 OA
BRANCH  32  35
ATOM     35  C   UNL A   1      39.561  24.529  26.977  1.00  0.00     0.039 A 
ATOM     36  C   UNL A   1      39.255  24.617  28.336  1.00  0.00     0.014 A 
ATOM     37  C   UNL A   1      40.120  25.622  26.308  1.00  0.00     0.014 A 
ATOM     38  C   UNL A   1      39.559  25.784  29.037  1.00  0.00     0.010 A 
ATOM     39  C   UNL A   1      40.494  26.754  27.024  1.00  0.00     0.010 A 
ATOM     40  C   UNL A   1      40.212  26.849  28.396  1.00  0.00    -0.014 A 
BRANCH  40  41
ATOM     41  C   UNL A   1      40.606  28.070  29.143  1.00  0.00     0.031 A 
ATOM     42  C   UNL A   1      41.984  28.187  29.730  1.00  0.00     0.074 A 
ATOM     43  C   UNL A   1      39.701  29.048  29.342  1.00  0.00     0.049 A 
ATOM     44  N   UNL A   1      42.495  29.144  30.464  1.00  0.00    -0.248 NA
ATOM     45  C   UNL A   1      42.906  27.066  29.483  1.00  0.00     0.031 C 
ATOM     46  C   UNL A   1      38.318  29.029  28.862  1.00  0.00     0.029 A 
ATOM     47  N   UNL A   1      39.804  30.242  30.011  1.00  0.00    -0.354 N 
ATOM     48  C   UNL A   1      43.786  28.737  30.772  1.00  0.00     0.074 A 
ATOM     49  C   UNL A   1      43.963  27.422  30.198  1.00  0.00     0.031 C 
ATOM     50  C   UNL A   1      37.709  30.167  29.232  1.00  0.00     0.029 A 
ATOM     51  C   UNL A   1      38.643  30.975  30.010  1.00  0.00     0.049 A 
ATOM     52  H   UNL A   1      40.633  30.545  30.448  1.00  0.00     0.167 HD
ATOM     53  C   UNL A   1      44.745  29.411  31.452  1.00  0.00     0.037 A 
ATOM     54  C   UNL A   1      38.360  32.161  30.583  1.00  0.00     0.037 A 
ATOM     55  C   UNL A   1      44.567  30.726  32.009  1.00  0.00     0.049 A 
ATOM     56  C   UNL A   1      39.437  32.880  31.348  1.00  0.00     0.074 A 
ATOM     57  C   UNL A   1      45.492  31.517  32.668  1.00  0.00     0.029 A 
ATOM     58  N   UNL A   1      43.379  31.443  31.979  1.00  0.00    -0.354 N 
ATOM     59  N   UNL A   1      40.678  32.519  31.571  1.00  0.00    -0.248 NA
ATOM     60  C   UNL A   1      39.077  34.178  31.936  1.00  0.00     0.031 C 
ATOM     61  C   UNL A   1      44.850  32.686  33.085  1.00  0.00     0.029 A 
ATOM     62  C   UNL A   1      43.542  32.656  32.631  1.00  0.00     0.049 A 
ATOM     63  H   UNL A   1      42.545  31.136  31.557  1.00  0.00     0.167 HD
ATOM     64  C   UNL A   1      41.254  33.554  32.296  1.00  0.00     0.074 A 
ATOM     65  C   UNL A   1      40.231  34.565  32.461  1.00  0.00     0.031 C 
ATOM     66  C   UNL A   1      42.516  33.656  32.781  1.00  0.00     0.037 A 
BRANCH  53  67
ATOM     67  C   UNL A   1      46.075  28.735  31.630  1.00  0.00     0.064 A 
ATOM     68  C   UNL A   1      46.327  27.876  32.711  1.00  0.00     0.173 A 
ATOM     69  C   UNL A   1      47.101  28.920  30.689  1.00  0.00     0.173 A 
ATOM     70  F   UNL A   1      45.384  27.673  33.645  1.00  0.00    -0.203 F 
ATOM     71  C   UNL A   1      47.563  27.254  32.861  1.00  0.00     0.198 A 
ATOM     72  C   UNL A   1      48.324  28.268  30.825  1.00  0.00     0.198 A 
ATOM     73  F   UNL A   1      46.913  29.724  29.633  1.00  0.00    -0.203 F 
ATOM     74  F   UNL A   1      47.796  26.481  33.932  1.00  0.00    -0.200 F 
ATOM     75  C   UNL A   1      48.558  27.444  31.915  1.00  0.00     0.200 A 
ATOM     76  F   UNL A   1      49.279  28.440  29.901  1.00  0.00    -0.200 F 
ATOM     77  F   UNL A   1      49.744  26.837  32.057  1.00  0.00    -0.200 F 
ENDBRANCH  53  67
BRANCH  54  78
ATOM     78  C   UNL A   1      37.003  32.750  30.439  1.00  0.00     0.064 A 
ATOM     79  C   UNL A   1      36.664  33.518  29.315  1.00  0.00     0.173 A 
ATOM     80  C   UNL A   1      36.018  32.566  31.421  1.00  0.00     0.173 A 
ATOM     81  F   UNL A   1      37.577  33.739  28.357  1.00  0.00    -0.203 F 
ATOM     82  C   UNL A   1      35.404  34.098  29.190  1.00  0.00     0.198 A 
ATOM     83  C   UNL A   1      34.748  33.120  31.281  1.00  0.00     0.198 A 
ATOM     84  F   UNL A   1      36.287  31.834  32.513  1.00  0.00    -0.203 F 
ATOM     85  F   UNL A   1      35.125  34.867  28.130  1.00  0.00    -0.200 F 
ATOM     86  C   UNL A   1      34.444  33.892  30.170  1.00  0.00     0.200 A 
ATOM     87  F   UNL A   1      33.818  32.905  32.221  1.00  0.00    -0.200 F 
ATOM     88  F   UNL A   1      33.230  34.447  30.048  1.00  0.00    -0.200 F 
ENDBRANCH  54  78
BRANCH  66  89
ATOM     89  C   UNL A   1      42.876  34.923  33.503  1.00  0.00     0.064 A 
ATOM     90  C   UNL A   1      43.264  36.083  32.814  1.00  0.00     0.173 A 
ATOM     91  C   UNL A   1      42.794  34.989  34.903  1.00  0.00     0.173 A 
ATOM     92  F   UNL A   1      43.372  36.069  31.477  1.00  0.00    -0.203 F 
ATOM     93  C   UNL A   1      43.583  37.251  33.501  1.00  0.00     0.198 A 
ATOM     94  C   UNL A   1      43.080  36.168  35.584  1.00  0.00     0.198 A 
ATOM     95  F   UNL A   1      42.422  33.912  35.610  1.00  0.00    -0.203 F 
ATOM     96  F   UNL A   1      44.002  38.329  32.827  1.00  0.00    -0.200 F 
ATOM     97  C   UNL A   1      43.483  37.295  34.885  1.00  0.00     0.200 A 
ATOM     98  F   UNL A   1      42.968  36.213  36.919  1.00  0.00    -0.200 F 
ATOM     99  F   UNL A   1      43.783  38.423  35.544  1.00  0.00    -0.200 F 
ENDBRANCH  66  89
ENDBRANCH  40  41
ENDBRANCH  32  35
ENDBRANCH  30  31
ENDBRANCH  29  30
ENDBRANCH  28  29
ENDBRANCH   1  28
TORSDOF 16
ENDMDL
