MODEL 1
REMARK VINA RESULT:     -11.6      0.000      0.000
REMARK SMILES [NH3+][C@]1(C(=O)NCCCCCCNC(=O)c2ccc(-c3c4nc(c(-c5c(F)c(F)c(F)c(F)c5F)c5ccc([nH]5)c(-c5c(F)c(F)c(F)c(F)c5F)c5nc(c(-c6c(F)c(F)c(F)c(F)c6F)c6ccc3[nH]6)C=C5)C=C4)cc2)CCC[C@@H](OC2CCC2)C1
REMARK SMILES IDX 8 1 7 2 6 3 5 4 3 5 4 6 2 8 78 9 87 10 79 11 81 12 80 13
REMARK SMILES IDX 1 14 82 18 83 19 84 20 86 21 85 22 9 23 10 24 11 25 12 26
REMARK SMILES IDX 13 27 14 29 15 30 16 31 77 32 17 33 76 34 18 35 19 36 20 37
REMARK SMILES IDX 70 38 21 39 75 40 69 41 71 42 22 43 74 44 68 45 67 46 23 48
REMARK SMILES IDX 55 49 35 50 54 51 36 52 39 53 53 54 72 55 37 56 38 57 52 59
REMARK SMILES IDX 73 60 40 61 24 62 25 63 33 64 26 65 27 66 31 67 34 68 28 69
REMARK SMILES IDX 29 70 32 71 30 72 56 73 57 74 65 75 58 76 59 77 63 78 66 79
REMARK SMILES IDX 60 80 61 81 64 82 62 83 41 84 42 85 50 86 43 87 44 88 48 89
REMARK SMILES IDX 51 90 45 91 46 92 49 93 47 94
REMARK H PARENT 5 7 1 15 1 16 1 17 12 28 71 47 39 58
REMARK Flexibility Score: inf
ROOT
ATOM      1  C   UNL A   1      32.024  29.572  27.210  1.00  0.00     0.002 C 
ENDROOT
BRANCH   1   2
ATOM      2  C   UNL A   1      33.520  29.238  27.201  1.00  0.00     0.021 C 
BRANCH   2   3
ATOM      3  C   UNL A   1      34.007  28.258  26.128  1.00  0.00     0.116 C 
BRANCH   3   4
ATOM      4  N   UNL A   1      34.002  28.806  24.794  1.00  0.00    -0.351 N 
ATOM      5  C   UNL A   1      33.373  28.460  23.637  1.00  0.00     0.281 C 
ATOM      6  O   UNL A   1      33.443  29.328  22.755  1.00  0.00    -0.268 OA
ATOM      7  H   UNL A   1      34.575  29.600  24.699  1.00  0.00     0.163 HD
BRANCH   5   8
ATOM      8  C   UNL A   1      32.498  27.154  23.446  1.00  0.00     0.176 C 
ATOM      9  C   UNL A   1      31.887  26.765  24.826  1.00  0.00     0.079 C 
ATOM     10  C   UNL A   1      31.422  27.194  22.347  1.00  0.00     0.111 C 
ATOM     11  C   UNL A   1      30.419  26.340  24.890  1.00  0.00     0.010 C 
ATOM     12  C   UNL A   1      30.063  27.757  22.760  1.00  0.00     0.125 C 
ATOM     13  C   UNL A   1      29.441  26.972  23.901  1.00  0.00     0.032 C 
BRANCH   8  14
ATOM     14  N   UNL A   1      33.475  26.086  23.077  1.00  0.00    -0.345 N 
ATOM     15  H   UNL A   1      33.009  25.382  22.505  1.00  0.00     0.345 HD
ATOM     16  H   UNL A   1      33.837  25.650  23.925  1.00  0.00     0.345 HD
ATOM     17  H   UNL A   1      34.245  26.497  22.551  1.00  0.00     0.345 HD
ENDBRANCH   8  14
BRANCH  12  18
ATOM     18  O   UNL A   1      30.144  29.168  22.764  1.00  0.00    -0.375 OA
BRANCH  18  19
ATOM     19  C   UNL A   1      29.198  30.160  22.333  1.00  0.00     0.118 C 
ATOM     20  C   UNL A   1      27.672  30.054  22.446  1.00  0.00     0.032 C 
ATOM     21  C   UNL A   1      29.155  31.342  23.329  1.00  0.00     0.032 C 
ATOM     22  C   UNL A   1      27.652  31.159  23.501  1.00  0.00     0.005 C 
ENDBRANCH  18  19
ENDBRANCH  12  18
ENDBRANCH   5   8
ENDBRANCH   3   4
ENDBRANCH   2   3
ENDBRANCH   1   2
BRANCH   1  23
ATOM     23  C   UNL A   1      31.526  30.532  26.130  1.00  0.00     0.002 C 
BRANCH  23  24
ATOM     24  C   UNL A   1      31.374  31.994  26.552  1.00  0.00     0.021 C 
BRANCH  24  25
ATOM     25  C   UNL A   1      32.655  32.683  27.006  1.00  0.00     0.116 C 
BRANCH  25  26
ATOM     26  N   UNL A   1      32.409  33.996  27.578  1.00  0.00    -0.352 N 
ATOM     27  C   UNL A   1      33.016  34.623  28.631  1.00  0.00     0.251 C 
ATOM     28  H   UNL A   1      31.695  34.513  27.139  1.00  0.00     0.163 HD
ATOM     29  O   UNL A   1      32.528  35.669  29.078  1.00  0.00    -0.269 OA
BRANCH  27  30
ATOM     30  C   UNL A   1      34.231  34.066  29.267  1.00  0.00     0.039 A 
ATOM     31  C   UNL A   1      34.077  33.119  30.283  1.00  0.00     0.014 A 
ATOM     32  C   UNL A   1      35.515  34.489  28.906  1.00  0.00     0.014 A 
ATOM     33  C   UNL A   1      35.202  32.562  30.895  1.00  0.00     0.010 A 
ATOM     34  C   UNL A   1      36.638  33.870  29.459  1.00  0.00     0.010 A 
ATOM     35  C   UNL A   1      36.495  32.906  30.466  1.00  0.00    -0.014 A 
BRANCH  35  36
ATOM     36  C   UNL A   1      37.684  32.239  31.063  1.00  0.00     0.031 A 
ATOM     37  C   UNL A   1      38.152  32.580  32.450  1.00  0.00     0.074 A 
ATOM     38  C   UNL A   1      38.352  31.319  30.337  1.00  0.00     0.049 A 
ATOM     39  N   UNL A   1      39.130  32.052  33.147  1.00  0.00    -0.248 NA
ATOM     40  C   UNL A   1      37.451  33.673  33.141  1.00  0.00     0.031 C 
ATOM     41  C   UNL A   1      38.041  30.948  28.956  1.00  0.00     0.029 A 
ATOM     42  N   UNL A   1      39.424  30.524  30.661  1.00  0.00    -0.354 N 
ATOM     43  C   UNL A   1      39.157  32.744  34.351  1.00  0.00     0.074 A 
ATOM     44  C   UNL A   1      38.144  33.773  34.266  1.00  0.00     0.031 C 
ATOM     45  C   UNL A   1      38.867  29.965  28.568  1.00  0.00     0.029 A 
ATOM     46  C   UNL A   1      39.790  29.661  29.657  1.00  0.00     0.049 A 
ATOM     47  H   UNL A   1      39.885  30.569  31.530  1.00  0.00     0.167 HD
ATOM     48  C   UNL A   1      39.937  32.524  35.437  1.00  0.00     0.037 A 
ATOM     49  C   UNL A   1      40.755  28.723  29.620  1.00  0.00     0.037 A 
ATOM     50  C   UNL A   1      40.938  31.491  35.522  1.00  0.00     0.049 A 
ATOM     51  C   UNL A   1      41.604  28.497  30.842  1.00  0.00     0.074 A 
ATOM     52  C   UNL A   1      41.738  31.150  36.599  1.00  0.00     0.029 A 
ATOM     53  N   UNL A   1      41.284  30.638  34.483  1.00  0.00    -0.354 N 
ATOM     54  N   UNL A   1      41.558  29.097  32.006  1.00  0.00    -0.248 NA
ATOM     55  C   UNL A   1      42.631  27.452  30.746  1.00  0.00     0.031 C 
ATOM     56  C   UNL A   1      42.607  30.130  36.195  1.00  0.00     0.029 A 
ATOM     57  C   UNL A   1      42.308  29.792  34.885  1.00  0.00     0.049 A 
ATOM     58  H   UNL A   1      40.866  30.635  33.593  1.00  0.00     0.167 HD
ATOM     59  C   UNL A   1      42.533  28.491  32.787  1.00  0.00     0.074 A 
ATOM     60  C   UNL A   1      43.131  27.453  31.973  1.00  0.00     0.031 C 
ATOM     61  C   UNL A   1      42.904  28.771  34.061  1.00  0.00     0.037 A 
BRANCH  48  62
ATOM     62  C   UNL A   1      39.736  33.417  36.630  1.00  0.00     0.064 A 
ATOM     63  C   UNL A   1      40.426  34.632  36.766  1.00  0.00     0.173 A 
ATOM     64  C   UNL A   1      38.813  33.076  37.631  1.00  0.00     0.173 A 
ATOM     65  F   UNL A   1      41.327  35.004  35.844  1.00  0.00    -0.203 F 
ATOM     66  C   UNL A   1      40.221  35.456  37.870  1.00  0.00     0.198 A 
ATOM     67  C   UNL A   1      38.585  33.918  38.716  1.00  0.00     0.198 A 
ATOM     68  F   UNL A   1      38.119  31.931  37.550  1.00  0.00    -0.203 F 
ATOM     69  F   UNL A   1      40.929  36.587  38.002  1.00  0.00    -0.200 F 
ATOM     70  C   UNL A   1      39.295  35.103  38.839  1.00  0.00     0.200 A 
ATOM     71  F   UNL A   1      37.679  33.582  39.645  1.00  0.00    -0.200 F 
ATOM     72  F   UNL A   1      39.092  35.901  39.897  1.00  0.00    -0.200 F 
ENDBRANCH  48  62
BRANCH  49  73
ATOM     73  C   UNL A   1      40.949  27.902  28.395  1.00  0.00     0.064 A 
ATOM     74  C   UNL A   1      40.298  26.670  28.239  1.00  0.00     0.173 A 
ATOM     75  C   UNL A   1      41.793  28.328  27.360  1.00  0.00     0.173 A 
ATOM     76  F   UNL A   1      39.495  26.209  29.210  1.00  0.00    -0.203 F 
ATOM     77  C   UNL A   1      40.503  25.885  27.107  1.00  0.00     0.198 A 
ATOM     78  C   UNL A   1      41.973  27.557  26.213  1.00  0.00     0.198 A 
ATOM     79  F   UNL A   1      42.435  29.501  27.456  1.00  0.00    -0.203 F 
ATOM     80  F   UNL A   1      39.910  24.687  27.008  1.00  0.00    -0.200 F 
ATOM     81  C   UNL A   1      41.336  26.331  26.092  1.00  0.00     0.200 A 
ATOM     82  F   UNL A   1      42.764  28.001  25.228  1.00  0.00    -0.200 F 
ATOM     83  F   UNL A   1      41.530  25.577  25.001  1.00  0.00    -0.200 F 
ENDBRANCH  49  73
BRANCH  61  84
ATOM     84  C   UNL A   1      43.999  27.928  34.653  1.00  0.00     0.064 A 
ATOM     85  C   UNL A   1      45.346  28.317  34.585  1.00  0.00     0.173 A 
ATOM     86  C   UNL A   1      43.700  26.718  35.297  1.00  0.00     0.173 A 
ATOM     87  F   UNL A   1      45.689  29.458  33.968  1.00  0.00    -0.203 F 
ATOM     88  C   UNL A   1      46.354  27.504  35.098  1.00  0.00     0.198 A 
ATOM     89  C   UNL A   1      44.706  25.926  35.843  1.00  0.00     0.198 A 
ATOM     90  F   UNL A   1      42.428  26.302  35.399  1.00  0.00    -0.203 F 
ATOM     91  F   UNL A   1      47.637  27.863  34.958  1.00  0.00    -0.200 F 
ATOM     92  C   UNL A   1      46.033  26.313  35.731  1.00  0.00     0.200 A 
ATOM     93  F   UNL A   1      44.393  24.783  36.467  1.00  0.00    -0.200 F 
ATOM     94  F   UNL A   1      47.005  25.530  36.221  1.00  0.00    -0.200 F 
ENDBRANCH  61  84
ENDBRANCH  35  36
ENDBRANCH  27  30
ENDBRANCH  25  26
ENDBRANCH  24  25
ENDBRANCH  23  24
ENDBRANCH   1  23
TORSDOF 16
ENDMDL
MODEL 2
REMARK VINA RESULT:     -11.4      6.137     11.432
REMARK SMILES [NH3+][C@]1(C(=O)NCCCCCCNC(=O)c2ccc(-c3c4nc(c(-c5c(F)c(F)c(F)c(F)c5F)c5ccc([nH]5)c(-c5c(F)c(F)c(F)c(F)c5F)c5nc(c(-c6c(F)c(F)c(F)c(F)c6F)c6ccc3[nH]6)C=C5)C=C4)cc2)CCC[C@@H](OC2CCC2)C1
REMARK SMILES IDX 8 1 7 2 6 3 5 4 3 5 4 6 2 8 78 9 87 10 79 11 81 12 80 13
REMARK SMILES IDX 1 14 82 18 83 19 84 20 86 21 85 22 9 23 10 24 11 25 12 26
REMARK SMILES IDX 13 27 14 29 15 30 16 31 77 32 17 33 76 34 18 35 19 36 20 37
REMARK SMILES IDX 70 38 21 39 75 40 69 41 71 42 22 43 74 44 68 45 67 46 23 48
REMARK SMILES IDX 55 49 35 50 54 51 36 52 39 53 53 54 72 55 37 56 38 57 52 59
REMARK SMILES IDX 73 60 40 61 24 62 25 63 33 64 26 65 27 66 31 67 34 68 28 69
REMARK SMILES IDX 29 70 32 71 30 72 56 73 57 74 65 75 58 76 59 77 63 78 66 79
REMARK SMILES IDX 60 80 61 81 64 82 62 83 41 84 42 85 50 86 43 87 44 88 48 89
REMARK SMILES IDX 51 90 45 91 46 92 49 93 47 94
REMARK H PARENT 5 7 1 15 1 16 1 17 12 28 71 47 39 58
REMARK Flexibility Score: inf
ROOT
ATOM      1  C   UNL A   1      37.223  22.183  24.361  1.00  0.00     0.002 C 
ENDROOT
BRANCH   1   2
ATOM      2  C   UNL A   1      37.233  23.220  25.491  1.00  0.00     0.021 C 
BRANCH   2   3
ATOM      3  C   UNL A   1      35.877  23.775  25.938  1.00  0.00     0.116 C 
BRANCH   3   4
ATOM      4  N   UNL A   1      35.164  22.911  26.847  1.00  0.00    -0.351 N 
ATOM      5  C   UNL A   1      33.937  22.324  26.820  1.00  0.00     0.281 C 
ATOM      6  O   UNL A   1      33.783  21.455  27.691  1.00  0.00    -0.268 OA
ATOM      7  H   UNL A   1      35.675  22.700  27.661  1.00  0.00     0.163 HD
BRANCH   5   8
ATOM      8  C   UNL A   1      32.840  22.585  25.708  1.00  0.00     0.176 C 
ATOM      9  C   UNL A   1      33.562  23.019  24.397  1.00  0.00     0.079 C 
ATOM     10  C   UNL A   1      31.833  21.452  25.446  1.00  0.00     0.111 C 
ATOM     11  C   UNL A   1      33.101  22.419  23.067  1.00  0.00     0.010 C 
ATOM     12  C   UNL A   1      32.265  20.393  24.433  1.00  0.00     0.125 C 
ATOM     13  C   UNL A   1      32.559  20.991  23.069  1.00  0.00     0.032 C 
BRANCH   8  14
ATOM     14  N   UNL A   1      32.067  23.766  26.199  1.00  0.00    -0.345 N 
ATOM     15  H   UNL A   1      31.785  23.608  27.166  1.00  0.00     0.345 HD
ATOM     16  H   UNL A   1      31.238  23.894  25.619  1.00  0.00     0.345 HD
ATOM     17  H   UNL A   1      32.651  24.600  26.146  1.00  0.00     0.345 HD
ENDBRANCH   8  14
BRANCH  12  18
ATOM     18  O   UNL A   1      33.147  19.493  25.072  1.00  0.00    -0.375 OA
BRANCH  18  19
ATOM     19  C   UNL A   1      33.330  18.079  24.895  1.00  0.00     0.118 C 
ATOM     20  C   UNL A   1      32.675  17.218  23.809  1.00  0.00     0.032 C 
ATOM     21  C   UNL A   1      34.705  17.783  24.252  1.00  0.00     0.032 C 
ATOM     22  C   UNL A   1      34.026  17.011  23.126  1.00  0.00     0.005 C 
ENDBRANCH  18  19
ENDBRANCH  12  18
ENDBRANCH   5   8
ENDBRANCH   3   4
ENDBRANCH   2   3
ENDBRANCH   1   2
BRANCH   1  23
ATOM     23  C   UNL A   1      36.783  20.766  24.730  1.00  0.00     0.002 C 
BRANCH  23  24
ATOM     24  C   UNL A   1      37.904  19.742  24.910  1.00  0.00     0.021 C 
BRANCH  24  25
ATOM     25  C   UNL A   1      38.992  20.129  25.904  1.00  0.00     0.116 C 
BRANCH  25  26
ATOM     26  N   UNL A   1      40.111  19.201  25.894  1.00  0.00    -0.352 N 
ATOM     27  C   UNL A   1      41.453  19.440  26.016  1.00  0.00     0.251 C 
ATOM     28  H   UNL A   1      39.864  18.254  25.784  1.00  0.00     0.163 HD
ATOM     29  O   UNL A   1      42.255  18.525  25.793  1.00  0.00    -0.269 OA
BRANCH  27  30
ATOM     30  C   UNL A   1      41.969  20.778  26.384  1.00  0.00     0.039 A 
ATOM     31  C   UNL A   1      42.173  21.716  25.368  1.00  0.00     0.014 A 
ATOM     32  C   UNL A   1      42.291  21.109  27.704  1.00  0.00     0.014 A 
ATOM     33  C   UNL A   1      42.646  22.992  25.681  1.00  0.00     0.010 A 
ATOM     34  C   UNL A   1      42.684  22.410  28.026  1.00  0.00     0.010 A 
ATOM     35  C   UNL A   1      42.874  23.364  27.017  1.00  0.00    -0.014 A 
BRANCH  35  36
ATOM     36  C   UNL A   1      43.290  24.754  27.347  1.00  0.00     0.031 A 
ATOM     37  C   UNL A   1      44.687  25.234  27.068  1.00  0.00     0.074 A 
ATOM     38  C   UNL A   1      42.395  25.590  27.913  1.00  0.00     0.049 A 
ATOM     39  N   UNL A   1      45.201  26.429  27.234  1.00  0.00    -0.248 NA
ATOM     40  C   UNL A   1      45.645  24.240  26.559  1.00  0.00     0.031 C 
ATOM     41  C   UNL A   1      41.030  25.227  28.295  1.00  0.00     0.029 A 
ATOM     42  N   UNL A   1      42.495  26.915  28.256  1.00  0.00    -0.354 N 
ATOM     43  C   UNL A   1      46.531  26.330  26.850  1.00  0.00     0.074 A 
ATOM     44  C   UNL A   1      46.766  24.944  26.505  1.00  0.00     0.031 C 
ATOM     45  C   UNL A   1      40.404  26.313  28.773  1.00  0.00     0.029 A 
ATOM     46  C   UNL A   1      41.332  27.440  28.766  1.00  0.00     0.049 A 
ATOM     47  H   UNL A   1      43.321  27.440  28.146  1.00  0.00     0.167 HD
ATOM     48  C   UNL A   1      47.465  27.308  26.765  1.00  0.00     0.037 A 
ATOM     49  C   UNL A   1      41.042  28.690  29.173  1.00  0.00     0.037 A 
ATOM     50  C   UNL A   1      47.226  28.690  27.099  1.00  0.00     0.049 A 
ATOM     51  C   UNL A   1      42.096  29.758  29.066  1.00  0.00     0.074 A 
ATOM     52  C   UNL A   1      48.088  29.767  26.992  1.00  0.00     0.029 A 
ATOM     53  N   UNL A   1      46.036  29.183  27.617  1.00  0.00    -0.354 N 
ATOM     54  N   UNL A   1      43.323  29.670  28.614  1.00  0.00    -0.248 NA
ATOM     55  C   UNL A   1      41.717  31.104  29.513  1.00  0.00     0.031 C 
ATOM     56  C   UNL A   1      47.441  30.900  27.497  1.00  0.00     0.029 A 
ATOM     57  C   UNL A   1      46.153  30.544  27.863  1.00  0.00     0.049 A 
ATOM     58  H   UNL A   1      45.228  28.647  27.785  1.00  0.00     0.167 HD
ATOM     59  C   UNL A   1      43.857  30.949  28.704  1.00  0.00     0.074 A 
ATOM     60  C   UNL A   1      42.806  31.800  29.222  1.00  0.00     0.031 C 
ATOM     61  C   UNL A   1      45.104  31.379  28.390  1.00  0.00     0.037 A 
BRANCH  48  62
ATOM     62  C   UNL A   1      48.837  26.923  26.288  1.00  0.00     0.064 A 
ATOM     63  C   UNL A   1      49.807  26.412  27.166  1.00  0.00     0.173 A 
ATOM     64  C   UNL A   1      49.176  27.023  24.930  1.00  0.00     0.173 A 
ATOM     65  F   UNL A   1      49.541  26.302  28.476  1.00  0.00    -0.203 F 
ATOM     66  C   UNL A   1      51.071  26.046  26.708  1.00  0.00     0.198 A 
ATOM     67  C   UNL A   1      50.429  26.625  24.470  1.00  0.00     0.198 A 
ATOM     68  F   UNL A   1      48.288  27.497  24.044  1.00  0.00    -0.203 F 
ATOM     69  F   UNL A   1      51.996  25.609  27.575  1.00  0.00    -0.200 F 
ATOM     70  C   UNL A   1      51.378  26.144  25.360  1.00  0.00     0.200 A 
ATOM     71  F   UNL A   1      50.719  26.706  23.163  1.00  0.00    -0.200 F 
ATOM     72  F   UNL A   1      52.591  25.784  24.919  1.00  0.00    -0.200 F 
ENDBRANCH  48  62
BRANCH  49  73
ATOM     73  C   UNL A   1      39.684  29.008  29.689  1.00  0.00     0.064 A 
ATOM     74  C   UNL A   1      39.381  28.887  31.052  1.00  0.00     0.173 A 
ATOM     75  C   UNL A   1      38.660  29.433  28.830  1.00  0.00     0.173 A 
ATOM     76  F   UNL A   1      40.321  28.466  31.912  1.00  0.00    -0.203 F 
ATOM     77  C   UNL A   1      38.101  29.154  31.533  1.00  0.00     0.198 A 
ATOM     78  C   UNL A   1      37.389  29.731  29.316  1.00  0.00     0.198 A 
ATOM     79  F   UNL A   1      38.898  29.571  27.518  1.00  0.00    -0.203 F 
ATOM     80  F   UNL A   1      37.826  28.978  32.833  1.00  0.00    -0.200 F 
ATOM     81  C   UNL A   1      37.107  29.581  30.666  1.00  0.00     0.200 A 
ATOM     82  F   UNL A   1      36.437  30.161  28.477  1.00  0.00    -0.200 F 
ATOM     83  F   UNL A   1      35.877  29.842  31.129  1.00  0.00    -0.200 F 
ENDBRANCH  49  73
BRANCH  61  84
ATOM     84  C   UNL A   1      45.391  32.841  28.588  1.00  0.00     0.064 A 
ATOM     85  C   UNL A   1      45.929  33.330  29.789  1.00  0.00     0.173 A 
ATOM     86  C   UNL A   1      45.124  33.765  27.566  1.00  0.00     0.173 A 
ATOM     87  F   UNL A   1      46.189  32.492  30.803  1.00  0.00    -0.203 F 
ATOM     88  C   UNL A   1      46.147  34.694  29.973  1.00  0.00     0.198 A 
ATOM     89  C   UNL A   1      45.379  35.123  27.740  1.00  0.00     0.198 A 
ATOM     90  F   UNL A   1      44.618  33.351  26.395  1.00  0.00    -0.203 F 
ATOM     91  F   UNL A   1      46.595  35.144  31.153  1.00  0.00    -0.200 F 
ATOM     92  C   UNL A   1      45.877  35.588  28.948  1.00  0.00     0.200 A 
ATOM     93  F   UNL A   1      45.133  35.982  26.743  1.00  0.00    -0.200 F 
ATOM     94  F   UNL A   1      46.084  36.899  29.129  1.00  0.00    -0.200 F 
ENDBRANCH  61  84
ENDBRANCH  35  36
ENDBRANCH  27  30
ENDBRANCH  25  26
ENDBRANCH  24  25
ENDBRANCH  23  24
ENDBRANCH   1  23
TORSDOF 16
ENDMDL
MODEL 3
REMARK VINA RESULT:     -11.3      1.079      2.484
REMARK SMILES [NH3+][C@]1(C(=O)NCCCCCCNC(=O)c2ccc(-c3c4nc(c(-c5c(F)c(F)c(F)c(F)c5F)c5ccc([nH]5)c(-c5c(F)c(F)c(F)c(F)c5F)c5nc(c(-c6c(F)c(F)c(F)c(F)c6F)c6ccc3[nH]6)C=C5)C=C4)cc2)CCC[C@@H](OC2CCC2)C1
REMARK SMILES IDX 8 1 7 2 6 3 5 4 3 5 4 6 2 8 78 9 87 10 79 11 81 12 80 13
REMARK SMILES IDX 1 14 82 18 83 19 84 20 86 21 85 22 9 23 10 24 11 25 12 26
REMARK SMILES IDX 13 27 14 29 15 30 16 31 77 32 17 33 76 34 18 35 19 36 20 37
REMARK SMILES IDX 70 38 21 39 75 40 69 41 71 42 22 43 74 44 68 45 67 46 23 48
REMARK SMILES IDX 55 49 35 50 54 51 36 52 39 53 53 54 72 55 37 56 38 57 52 59
REMARK SMILES IDX 73 60 40 61 24 62 25 63 33 64 26 65 27 66 31 67 34 68 28 69
REMARK SMILES IDX 29 70 32 71 30 72 56 73 57 74 65 75 58 76 59 77 63 78 66 79
REMARK SMILES IDX 60 80 61 81 64 82 62 83 41 84 42 85 50 86 43 87 44 88 48 89
REMARK SMILES IDX 51 90 45 91 46 92 49 93 47 94
REMARK H PARENT 5 7 1 15 1 16 1 17 12 28 71 47 39 58
REMARK Flexibility Score: inf
ROOT
ATOM      1  C   UNL A   1      32.254  29.898  26.695  1.00  0.00     0.002 C 
ENDROOT
BRANCH   1   2
ATOM      2  C   UNL A   1      31.532  28.778  27.454  1.00  0.00     0.021 C 
BRANCH   2   3
ATOM      3  C   UNL A   1      32.154  27.379  27.385  1.00  0.00     0.116 C 
BRANCH   3   4
ATOM      4  N   UNL A   1      31.345  26.417  26.678  1.00  0.00    -0.351 N 
ATOM      5  C   UNL A   1      31.598  25.531  25.676  1.00  0.00     0.281 C 
ATOM      6  O   UNL A   1      30.689  24.706  25.502  1.00  0.00    -0.268 OA
ATOM      7  H   UNL A   1      30.411  26.395  26.986  1.00  0.00     0.163 HD
BRANCH   5   8
ATOM      8  C   UNL A   1      32.969  25.432  24.888  1.00  0.00     0.176 C 
ATOM      9  C   UNL A   1      32.743  24.562  23.615  1.00  0.00     0.079 C 
ATOM     10  C   UNL A   1      33.668  26.758  24.544  1.00  0.00     0.111 C 
ATOM     11  C   UNL A   1      33.346  25.024  22.287  1.00  0.00     0.010 C 
ATOM     12  C   UNL A   1      33.238  27.423  23.237  1.00  0.00     0.125 C 
ATOM     13  C   UNL A   1      33.469  26.526  22.035  1.00  0.00     0.032 C 
BRANCH   8  14
ATOM     14  N   UNL A   1      33.878  24.667  25.792  1.00  0.00    -0.345 N 
ATOM     15  H   UNL A   1      34.758  25.172  25.895  1.00  0.00     0.345 HD
ATOM     16  H   UNL A   1      34.059  23.747  25.392  1.00  0.00     0.345 HD
ATOM     17  H   UNL A   1      33.439  24.560  26.705  1.00  0.00     0.345 HD
ENDBRANCH   8  14
BRANCH  12  18
ATOM     18  O   UNL A   1      32.017  28.099  23.457  1.00  0.00    -0.375 OA
BRANCH  18  19
ATOM     19  C   UNL A   1      30.758  28.004  22.770  1.00  0.00     0.118 C 
ATOM     20  C   UNL A   1      29.383  27.867  23.434  1.00  0.00     0.032 C 
ATOM     21  C   UNL A   1      30.324  29.388  22.234  1.00  0.00     0.032 C 
ATOM     22  C   UNL A   1      28.999  29.274  22.979  1.00  0.00     0.005 C 
ENDBRANCH  18  19
ENDBRANCH  12  18
ENDBRANCH   5   8
ENDBRANCH   3   4
ENDBRANCH   2   3
ENDBRANCH   1   2
BRANCH   1  23
ATOM     23  C   UNL A   1      31.378  30.871  25.906  1.00  0.00     0.002 C 
BRANCH  23  24
ATOM     24  C   UNL A   1      31.238  32.275  26.496  1.00  0.00     0.021 C 
BRANCH  24  25
ATOM     25  C   UNL A   1      32.510  32.866  27.091  1.00  0.00     0.116 C 
BRANCH  25  26
ATOM     26  N   UNL A   1      32.309  34.207  27.615  1.00  0.00    -0.352 N 
ATOM     27  C   UNL A   1      32.961  34.863  28.623  1.00  0.00     0.251 C 
ATOM     28  H   UNL A   1      31.593  34.721  27.177  1.00  0.00     0.163 HD
ATOM     29  O   UNL A   1      32.509  35.937  29.040  1.00  0.00    -0.269 OA
BRANCH  27  30
ATOM     30  C   UNL A   1      34.184  34.305  29.244  1.00  0.00     0.039 A 
ATOM     31  C   UNL A   1      34.045  33.490  30.371  1.00  0.00     0.014 A 
ATOM     32  C   UNL A   1      35.462  34.604  28.761  1.00  0.00     0.014 A 
ATOM     33  C   UNL A   1      35.176  32.936  30.975  1.00  0.00     0.010 A 
ATOM     34  C   UNL A   1      36.584  33.983  29.313  1.00  0.00     0.010 A 
ATOM     35  C   UNL A   1      36.454  33.147  30.432  1.00  0.00    -0.014 A 
BRANCH  35  36
ATOM     36  C   UNL A   1      37.642  32.478  31.029  1.00  0.00     0.031 A 
ATOM     37  C   UNL A   1      38.142  32.856  32.395  1.00  0.00     0.074 A 
ATOM     38  C   UNL A   1      38.281  31.523  30.322  1.00  0.00     0.049 A 
ATOM     39  N   UNL A   1      39.122  32.333  33.092  1.00  0.00    -0.248 NA
ATOM     40  C   UNL A   1      37.474  33.983  33.063  1.00  0.00     0.031 C 
ATOM     41  C   UNL A   1      37.937  31.113  28.960  1.00  0.00     0.029 A 
ATOM     42  N   UNL A   1      39.343  30.720  30.653  1.00  0.00    -0.354 N 
ATOM     43  C   UNL A   1      39.184  33.063  34.272  1.00  0.00     0.074 A 
ATOM     44  C   UNL A   1      38.188  34.108  34.171  1.00  0.00     0.031 C 
ATOM     45  C   UNL A   1      38.739  30.103  28.590  1.00  0.00     0.029 A 
ATOM     46  C   UNL A   1      39.676  29.817  29.672  1.00  0.00     0.049 A 
ATOM     47  H   UNL A   1      39.821  30.784  31.512  1.00  0.00     0.167 HD
ATOM     48  C   UNL A   1      39.979  32.864  35.351  1.00  0.00     0.037 A 
ATOM     49  C   UNL A   1      40.623  28.861  29.649  1.00  0.00     0.037 A 
ATOM     50  C   UNL A   1      40.963  31.817  35.453  1.00  0.00     0.049 A 
ATOM     51  C   UNL A   1      41.490  28.659  30.862  1.00  0.00     0.074 A 
ATOM     52  C   UNL A   1      41.777  31.495  36.526  1.00  0.00     0.029 A 
ATOM     53  N   UNL A   1      41.275  30.924  34.436  1.00  0.00    -0.354 N 
ATOM     54  N   UNL A   1      41.476  29.297  32.007  1.00  0.00    -0.248 NA
ATOM     55  C   UNL A   1      42.496  27.592  30.782  1.00  0.00     0.031 C 
ATOM     56  C   UNL A   1      42.620  30.447  36.140  1.00  0.00     0.029 A 
ATOM     57  C   UNL A   1      42.291  30.072  34.847  1.00  0.00     0.049 A 
ATOM     58  H   UNL A   1      40.841  30.899  33.554  1.00  0.00     0.167 HD
ATOM     59  C   UNL A   1      42.454  28.699  32.790  1.00  0.00     0.074 A 
ATOM     60  C   UNL A   1      43.018  27.625  32.000  1.00  0.00     0.031 C 
ATOM     61  C   UNL A   1      42.853  29.014  34.047  1.00  0.00     0.037 A 
BRANCH  48  62
ATOM     62  C   UNL A   1      39.817  33.799  36.517  1.00  0.00     0.064 A 
ATOM     63  C   UNL A   1      38.970  33.493  37.595  1.00  0.00     0.173 A 
ATOM     64  C   UNL A   1      40.548  34.995  36.582  1.00  0.00     0.173 A 
ATOM     65  F   UNL A   1      38.240  32.368  37.583  1.00  0.00    -0.203 F 
ATOM     66  C   UNL A   1      38.839  34.363  38.675  1.00  0.00     0.198 A 
ATOM     67  C   UNL A   1      40.440  35.846  37.679  1.00  0.00     0.198 A 
ATOM     68  F   UNL A   1      41.378  35.335  35.585  1.00  0.00    -0.203 F 
ATOM     69  F   UNL A   1      37.985  34.073  39.668  1.00  0.00    -0.200 F 
ATOM     70  C   UNL A   1      39.580  35.533  38.721  1.00  0.00     0.200 A 
ATOM     71  F   UNL A   1      41.169  36.970  37.728  1.00  0.00    -0.200 F 
ATOM     72  F   UNL A   1      39.460  36.365  39.765  1.00  0.00    -0.200 F 
ENDBRANCH  48  62
BRANCH  49  73
ATOM     73  C   UNL A   1      40.779  27.997  28.448  1.00  0.00     0.064 A 
ATOM     74  C   UNL A   1      41.585  28.393  27.372  1.00  0.00     0.173 A 
ATOM     75  C   UNL A   1      40.122  26.762  28.350  1.00  0.00     0.173 A 
ATOM     76  F   UNL A   1      42.219  29.575  27.410  1.00  0.00    -0.203 F 
ATOM     77  C   UNL A   1      41.707  27.601  26.233  1.00  0.00     0.198 A 
ATOM     78  C   UNL A   1      40.271  25.955  27.224  1.00  0.00     0.198 A 
ATOM     79  F   UNL A   1      39.344  26.332  29.354  1.00  0.00    -0.203 F 
ATOM     80  F   UNL A   1      42.441  28.029  25.197  1.00  0.00    -0.200 F 
ATOM     81  C   UNL A   1      41.055  26.379  26.161  1.00  0.00     0.200 A 
ATOM     82  F   UNL A   1      39.654  24.767  27.167  1.00  0.00    -0.200 F 
ATOM     83  F   UNL A   1      41.176  25.615  25.068  1.00  0.00    -0.200 F 
ENDBRANCH  49  73
BRANCH  61  84
ATOM     84  C   UNL A   1      43.943  28.171  34.647  1.00  0.00     0.064 A 
ATOM     85  C   UNL A   1      43.658  27.001  35.368  1.00  0.00     0.173 A 
ATOM     86  C   UNL A   1      45.290  28.537  34.500  1.00  0.00     0.173 A 
ATOM     87  F   UNL A   1      42.387  26.614  35.551  1.00  0.00    -0.203 F 
ATOM     88  C   UNL A   1      44.677  26.255  35.957  1.00  0.00     0.198 A 
ATOM     89  C   UNL A   1      46.309  27.768  35.058  1.00  0.00     0.198 A 
ATOM     90  F   UNL A   1      45.620  29.640  33.813  1.00  0.00    -0.203 F 
ATOM     91  F   UNL A   1      44.374  25.182  36.700  1.00  0.00    -0.200 F 
ATOM     92  C   UNL A   1      46.000  26.636  35.797  1.00  0.00     0.200 A 
ATOM     93  F   UNL A   1      47.587  28.129  34.888  1.00  0.00    -0.200 F 
ATOM     94  F   UNL A   1      46.979  25.919  36.367  1.00  0.00    -0.200 F 
ENDBRANCH  61  84
ENDBRANCH  35  36
ENDBRANCH  27  30
ENDBRANCH  25  26
ENDBRANCH  24  25
ENDBRANCH  23  24
ENDBRANCH   1  23
TORSDOF 16
ENDMDL
