MODEL 1
REMARK VINA RESULT:     -13.3      0.000      0.000
REMARK SMILES O=C(NCCCCCCNC(=O)c1cc(Cl)cc(Cl)c1NC(=S)NC(=O)c1cccc2ccccc12)c1ccc(-c2c3nc(c(-c4c(F)c(F)c(F)c(F)c4F)c4ccc([nH]4)c(-c4c(F)c(F)c(F)c(F)c4F)c4nc(c(-c5c(F)c(F)c(F)c(F)c5F)c5ccc2[nH]5)C=C4)C=C3)cc1
REMARK SMILES IDX 7 1 6 2 5 3 4 4 3 5 1 6 2 7 37 9 38 10 99 11 39 12 98 13
REMARK SMILES IDX 40 14 41 15 42 16 92 17 43 18 97 19 91 20 93 21 44 22 96 23
REMARK SMILES IDX 90 24 89 25 45 27 77 28 57 29 76 30 58 31 61 32 75 33 94 34
REMARK SMILES IDX 59 35 60 36 74 38 95 39 62 40 46 41 47 42 55 43 48 44 49 45
REMARK SMILES IDX 53 46 56 47 50 48 51 49 54 50 52 51 78 52 79 53 87 54 80 55
REMARK SMILES IDX 81 56 85 57 88 58 82 59 83 60 86 61 84 62 63 63 64 64 72 65
REMARK SMILES IDX 65 66 66 67 70 68 73 69 67 70 68 71 71 72 69 73 8 74 9 75
REMARK SMILES IDX 10 76 11 77 12 79 13 80 14 81 20 82 15 83 18 84 16 85 17 86
REMARK SMILES IDX 19 87 21 88 22 90 23 91 24 92 25 93 26 95 27 96 28 97 36 98
REMARK SMILES IDX 29 99 31 100 35 101 30 102 32 103 34 104 33 105
REMARK H PARENT 3 8 93 26 61 37 10 78 21 89 24 94
REMARK Flexibility Score: inf
ROOT
ATOM      1  C   UNL A   1      37.146  21.664  24.424  1.00  0.00     0.002 C 
ENDROOT
BRANCH   1   2
ATOM      2  C   UNL A   1      36.941  20.254  24.989  1.00  0.00     0.002 C 
BRANCH   2   3
ATOM      3  C   UNL A   1      38.157  19.319  25.005  1.00  0.00     0.021 C 
BRANCH   3   4
ATOM      4  C   UNL A   1      39.371  19.786  25.806  1.00  0.00     0.116 C 
BRANCH   4   5
ATOM      5  N   UNL A   1      40.498  18.874  25.741  1.00  0.00    -0.352 N 
ATOM      6  O   UNL A   1      42.648  18.211  25.821  1.00  0.00    -0.269 OA
ATOM      7  C   UNL A   1      41.828  19.106  26.007  1.00  0.00     0.251 C 
ATOM      8  H   UNL A   1      40.279  17.954  25.465  1.00  0.00     0.163 HD
BRANCH   7   9
ATOM      9  C   UNL A   1      42.296  20.436  26.474  1.00  0.00     0.039 A 
ATOM     10  C   UNL A   1      42.281  20.799  27.825  1.00  0.00     0.014 A 
ATOM     11  C   UNL A   1      42.799  21.333  25.522  1.00  0.00     0.014 A 
ATOM     12  C   UNL A   1      42.653  22.090  28.204  1.00  0.00     0.010 A 
ATOM     13  C   UNL A   1      43.214  22.612  25.907  1.00  0.00     0.010 A 
ATOM     14  C   UNL A   1      43.109  23.012  27.246  1.00  0.00    -0.014 A 
BRANCH  14  15
ATOM     15  C   UNL A   1      43.459  24.392  27.666  1.00  0.00     0.031 A 
ATOM     16  C   UNL A   1      44.886  24.862  27.632  1.00  0.00     0.074 A 
ATOM     17  C   UNL A   1      42.486  25.242  28.042  1.00  0.00     0.049 A 
ATOM     18  N   UNL A   1      45.367  26.058  27.868  1.00  0.00    -0.248 NA
ATOM     19  C   UNL A   1      45.908  23.861  27.289  1.00  0.00     0.031 C 
ATOM     20  C   UNL A   1      41.066  24.906  28.145  1.00  0.00     0.029 A 
ATOM     21  N   UNL A   1      42.544  26.570  28.381  1.00  0.00    -0.354 N 
ATOM     22  C   UNL A   1      46.742  25.949  27.726  1.00  0.00     0.074 A 
ATOM     23  C   UNL A   1      47.024  24.569  27.385  1.00  0.00     0.031 C 
ATOM     24  C   UNL A   1      40.380  26.011  28.479  1.00  0.00     0.029 A 
ATOM     25  C   UNL A   1      41.314  27.127  28.618  1.00  0.00     0.049 A 
ATOM     26  H   UNL A   1      43.387  27.074  28.448  1.00  0.00     0.167 HD
ATOM     27  C   UNL A   1      47.686  26.909  27.863  1.00  0.00     0.037 A 
ATOM     28  C   UNL A   1      40.973  28.399  28.892  1.00  0.00     0.037 A 
ATOM     29  C   UNL A   1      47.421  28.288  28.170  1.00  0.00     0.049 A 
ATOM     30  C   UNL A   1      42.030  29.460  28.975  1.00  0.00     0.074 A 
ATOM     31  C   UNL A   1      48.318  29.335  28.300  1.00  0.00     0.029 A 
ATOM     32  N   UNL A   1      46.159  28.815  28.390  1.00  0.00    -0.354 N 
ATOM     33  N   UNL A   1      43.324  29.348  28.806  1.00  0.00    -0.248 NA
ATOM     34  C   UNL A   1      41.578  30.824  29.283  1.00  0.00     0.031 C 
ATOM     35  C   UNL A   1      47.598  30.496  28.602  1.00  0.00     0.029 A 
ATOM     36  C   UNL A   1      46.253  30.171  28.653  1.00  0.00     0.049 A 
ATOM     37  H   UNL A   1      45.320  28.300  28.363  1.00  0.00     0.167 HD
ATOM     38  C   UNL A   1      43.840  30.623  28.983  1.00  0.00     0.074 A 
ATOM     39  C   UNL A   1      42.721  31.498  29.262  1.00  0.00     0.031 C 
ATOM     40  C   UNL A   1      45.130  31.028  28.921  1.00  0.00     0.037 A 
BRANCH  27  41
ATOM     41  C   UNL A   1      49.111  26.496  27.682  1.00  0.00     0.064 A 
ATOM     42  C   UNL A   1      49.671  26.369  26.402  1.00  0.00     0.173 A 
ATOM     43  C   UNL A   1      49.929  26.258  28.797  1.00  0.00     0.173 A 
ATOM     44  F   UNL A   1      48.917  26.574  25.310  1.00  0.00    -0.203 F 
ATOM     45  C   UNL A   1      51.006  26.011  26.244  1.00  0.00     0.198 A 
ATOM     46  C   UNL A   1      51.267  25.906  28.635  1.00  0.00     0.198 A 
ATOM     47  F   UNL A   1      49.432  26.364  30.039  1.00  0.00    -0.203 F 
ATOM     48  F   UNL A   1      51.520  25.877  25.012  1.00  0.00    -0.200 F 
ATOM     49  C   UNL A   1      51.803  25.784  27.359  1.00  0.00     0.200 A 
ATOM     50  F   UNL A   1      52.034  25.683  29.712  1.00  0.00    -0.200 F 
ATOM     51  F   UNL A   1      53.088  25.436  27.205  1.00  0.00    -0.200 F 
ENDBRANCH  27  41
BRANCH  28  52
ATOM     52  C   UNL A   1      39.543  28.748  29.052  1.00  0.00     0.064 A 
ATOM     53  C   UNL A   1      38.919  28.623  30.302  1.00  0.00     0.173 A 
ATOM     54  C   UNL A   1      38.789  29.230  27.972  1.00  0.00     0.173 A 
ATOM     55  F   UNL A   1      39.607  28.151  31.353  1.00  0.00    -0.203 F 
ATOM     56  C   UNL A   1      37.582  28.970  30.467  1.00  0.00     0.198 A 
ATOM     57  C   UNL A   1      37.453  29.583  28.141  1.00  0.00     0.198 A 
ATOM     58  F   UNL A   1      39.352  29.359  26.761  1.00  0.00    -0.203 F 
ATOM     59  F   UNL A   1      37.001  28.833  31.669  1.00  0.00    -0.200 F 
ATOM     60  C   UNL A   1      36.851  29.452  29.387  1.00  0.00     0.200 A 
ATOM     61  F   UNL A   1      36.748  30.047  27.098  1.00  0.00    -0.200 F 
ATOM     62  F   UNL A   1      35.563  29.787  29.547  1.00  0.00    -0.200 F 
ENDBRANCH  28  52
BRANCH  40  63
ATOM     63  C   UNL A   1      45.400  32.480  29.155  1.00  0.00     0.064 A 
ATOM     64  C   UNL A   1      45.374  33.396  28.093  1.00  0.00     0.173 A 
ATOM     65  C   UNL A   1      45.648  32.961  30.449  1.00  0.00     0.173 A 
ATOM     66  F   UNL A   1      45.152  32.974  26.839  1.00  0.00    -0.203 F 
ATOM     67  C   UNL A   1      45.593  34.753  28.320  1.00  0.00     0.198 A 
ATOM     68  C   UNL A   1      45.861  34.318  30.673  1.00  0.00     0.198 A 
ATOM     69  F   UNL A   1      45.686  32.116  31.491  1.00  0.00    -0.203 F 
ATOM     70  F   UNL A   1      45.580  35.612  27.292  1.00  0.00    -0.200 F 
ATOM     71  C   UNL A   1      45.833  35.211  29.608  1.00  0.00     0.200 A 
ATOM     72  F   UNL A   1      46.097  34.761  31.915  1.00  0.00    -0.200 F 
ATOM     73  F   UNL A   1      46.046  36.517  29.824  1.00  0.00    -0.200 F 
ENDBRANCH  40  63
ENDBRANCH  14  15
ENDBRANCH   7   9
ENDBRANCH   4   5
ENDBRANCH   3   4
ENDBRANCH   2   3
ENDBRANCH   1   2
BRANCH   1  74
ATOM     74  C   UNL A   1      37.591  22.755  25.406  1.00  0.00     0.021 C 
BRANCH  74  75
ATOM     75  C   UNL A   1      36.544  23.799  25.782  1.00  0.00     0.116 C 
BRANCH  75  76
ATOM     76  N   UNL A   1      35.679  23.386  26.866  1.00  0.00    -0.352 N 
ATOM     77  C   UNL A   1      34.506  22.660  26.928  1.00  0.00     0.253 C 
ATOM     78  H   UNL A   1      35.995  23.686  27.748  1.00  0.00     0.163 HD
ATOM     79  O   UNL A   1      34.048  22.476  28.063  1.00  0.00    -0.269 OA
BRANCH  77  80
ATOM     80  C   UNL A   1      33.556  22.203  25.492  1.00  0.00     0.066 A 
ATOM     81  C   UNL A   1      33.166  20.332  24.742  1.00  0.00     0.036 A 
ATOM     82  C   UNL A   1      33.182  23.437  25.381  1.00  0.00     0.072 A 
ATOM     83  C   UNL A   1      32.444  19.591  23.971  1.00  0.00     0.043 A 
ATOM     84  C   UNL A   1      33.404  22.590  24.436  1.00  0.00     0.066 A 
ATOM     85  Cl  UNL A   1      32.697  18.048  23.343  1.00  0.00    -0.084 Cl
ATOM     86  C   UNL A   1      33.048  20.698  23.743  1.00  0.00     0.043 A 
ATOM     87  Cl  UNL A   1      34.340  24.214  23.418  1.00  0.00    -0.082 Cl
BRANCH  82  88
ATOM     88  N   UNL A   1      32.091  23.987  26.082  1.00  0.00    -0.330 N 
ATOM     89  H   UNL A   1      32.384  24.618  26.779  1.00  0.00     0.169 HD
BRANCH  88  90
ATOM     90  C   UNL A   1      30.745  23.870  26.043  1.00  0.00     0.177 C 
ATOM     91  S   UNL A   1      30.047  22.714  27.037  1.00  0.00    -0.040 S 
BRANCH  90  92
ATOM     92  N   UNL A   1      29.905  24.615  25.274  1.00  0.00    -0.299 N 
ATOM     93  C   UNL A   1      29.856  25.942  24.911  1.00  0.00     0.258 C 
ATOM     94  H   UNL A   1      29.168  24.087  24.892  1.00  0.00     0.172 HD
ATOM     95  O   UNL A   1      28.892  26.478  24.389  1.00  0.00    -0.269 OA
BRANCH  93  96
ATOM     96  C   UNL A   1      31.042  26.702  25.252  1.00  0.00     0.048 A 
ATOM     97  C   UNL A   1      31.113  27.492  27.047  1.00  0.00     0.014 A 
ATOM     98  C   UNL A   1      32.180  27.206  23.702  1.00  0.00    -0.006 A 
ATOM     99  C   UNL A   1      32.366  28.937  27.527  1.00  0.00     0.001 A 
ATOM    100  C   UNL A   1      33.440  28.682  24.172  1.00  0.00    -0.018 A 
ATOM    101  C   UNL A   1      32.320  26.670  22.408  1.00  0.00     0.009 A 
ATOM    102  C   UNL A   1      33.493  29.483  25.972  1.00  0.00     0.009 A 
ATOM    103  C   UNL A   1      34.328  28.977  23.137  1.00  0.00     0.009 A 
ATOM    104  C   UNL A   1      33.340  27.187  21.582  1.00  0.00     0.001 A 
ATOM    105  C   UNL A   1      34.263  28.247  21.920  1.00  0.00     0.001 A 
ENDBRANCH  93  96
ENDBRANCH  90  92
ENDBRANCH  88  90
ENDBRANCH  82  88
ENDBRANCH  77  80
ENDBRANCH  75  76
ENDBRANCH  74  75
ENDBRANCH   1  74
TORSDOF 17
ENDMDL
MODEL 2
REMARK VINA RESULT:     -13.0      1.416      2.263
REMARK SMILES O=C(NCCCCCCNC(=O)c1cc(Cl)cc(Cl)c1NC(=S)NC(=O)c1cccc2ccccc12)c1ccc(-c2c3nc(c(-c4c(F)c(F)c(F)c(F)c4F)c4ccc([nH]4)c(-c4c(F)c(F)c(F)c(F)c4F)c4nc(c(-c5c(F)c(F)c(F)c(F)c5F)c5ccc2[nH]5)C=C4)C=C3)cc1
REMARK SMILES IDX 7 1 6 2 5 3 4 4 3 5 1 6 2 7 37 9 38 10 99 11 39 12 98 13
REMARK SMILES IDX 40 14 41 15 42 16 92 17 43 18 97 19 91 20 93 21 44 22 96 23
REMARK SMILES IDX 90 24 89 25 45 27 77 28 57 29 76 30 58 31 61 32 75 33 94 34
REMARK SMILES IDX 59 35 60 36 74 38 95 39 62 40 46 41 47 42 55 43 48 44 49 45
REMARK SMILES IDX 53 46 56 47 50 48 51 49 54 50 52 51 78 52 79 53 87 54 80 55
REMARK SMILES IDX 81 56 85 57 88 58 82 59 83 60 86 61 84 62 63 63 64 64 72 65
REMARK SMILES IDX 65 66 66 67 70 68 73 69 67 70 68 71 71 72 69 73 8 74 9 75
REMARK SMILES IDX 10 76 11 77 12 79 13 80 14 81 20 82 15 83 18 84 16 85 17 86
REMARK SMILES IDX 19 87 21 88 22 90 23 91 24 92 25 93 26 95 27 96 28 97 36 98
REMARK SMILES IDX 29 99 31 100 35 101 30 102 32 103 34 104 33 105
REMARK H PARENT 3 8 93 26 61 37 10 78 21 89 24 94
REMARK Flexibility Score: inf
ROOT
ATOM      1  C   UNL A   1      37.273  21.787  24.707  1.00  0.00     0.002 C 
ENDROOT
BRANCH   1   2
ATOM      2  C   UNL A   1      36.939  20.302  24.887  1.00  0.00     0.002 C 
BRANCH   2   3
ATOM      3  C   UNL A   1      38.116  19.325  24.994  1.00  0.00     0.021 C 
BRANCH   3   4
ATOM      4  C   UNL A   1      39.327  19.794  25.796  1.00  0.00     0.116 C 
BRANCH   4   5
ATOM      5  N   UNL A   1      40.447  18.870  25.756  1.00  0.00    -0.352 N 
ATOM      6  O   UNL A   1      42.594  18.195  25.826  1.00  0.00    -0.269 OA
ATOM      7  C   UNL A   1      41.784  19.105  25.981  1.00  0.00     0.251 C 
ATOM      8  H   UNL A   1      40.215  17.939  25.534  1.00  0.00     0.163 HD
BRANCH   7   9
ATOM      9  C   UNL A   1      42.271  20.454  26.368  1.00  0.00     0.039 A 
ATOM     10  C   UNL A   1      42.284  20.889  27.697  1.00  0.00     0.014 A 
ATOM     11  C   UNL A   1      42.763  21.294  25.360  1.00  0.00     0.014 A 
ATOM     12  C   UNL A   1      42.674  22.196  27.999  1.00  0.00     0.010 A 
ATOM     13  C   UNL A   1      43.196  22.588  25.668  1.00  0.00     0.010 A 
ATOM     14  C   UNL A   1      43.119  23.061  26.985  1.00  0.00    -0.014 A 
BRANCH  14  15
ATOM     15  C   UNL A   1      43.488  24.458  27.324  1.00  0.00     0.031 A 
ATOM     16  C   UNL A   1      44.862  24.982  27.013  1.00  0.00     0.074 A 
ATOM     17  C   UNL A   1      42.572  25.274  27.876  1.00  0.00     0.049 A 
ATOM     18  N   UNL A   1      45.331  26.197  27.148  1.00  0.00    -0.248 NA
ATOM     19  C   UNL A   1      45.838  24.016  26.485  1.00  0.00     0.031 C 
ATOM     20  C   UNL A   1      41.213  24.885  28.252  1.00  0.00     0.029 A 
ATOM     21  N   UNL A   1      42.641  26.607  28.192  1.00  0.00    -0.354 N 
ATOM     22  C   UNL A   1      46.656  26.140  26.744  1.00  0.00     0.074 A 
ATOM     23  C   UNL A   1      46.923  24.768  26.360  1.00  0.00     0.031 C 
ATOM     24  C   UNL A   1      40.560  25.967  28.708  1.00  0.00     0.029 A 
ATOM     25  C   UNL A   1      41.458  27.119  28.659  1.00  0.00     0.049 A 
ATOM     26  H   UNL A   1      43.461  27.144  28.093  1.00  0.00     0.167 HD
ATOM     27  C   UNL A   1      47.570  27.138  26.693  1.00  0.00     0.037 A 
ATOM     28  C   UNL A   1      41.126  28.381  28.988  1.00  0.00     0.037 A 
ATOM     29  C   UNL A   1      47.314  28.508  27.039  1.00  0.00     0.049 A 
ATOM     30  C   UNL A   1      42.136  29.482  28.862  1.00  0.00     0.074 A 
ATOM     31  C   UNL A   1      48.177  29.590  26.989  1.00  0.00     0.029 A 
ATOM     32  N   UNL A   1      46.098  28.989  27.496  1.00  0.00    -0.354 N 
ATOM     33  N   UNL A   1      43.377  29.418  28.447  1.00  0.00    -0.248 NA
ATOM     34  C   UNL A   1      41.697  30.831  29.245  1.00  0.00     0.031 C 
ATOM     35  C   UNL A   1      47.482  30.727  27.419  1.00  0.00     0.029 A 
ATOM     36  C   UNL A   1      46.186  30.351  27.730  1.00  0.00     0.049 A 
ATOM     37  H   UNL A   1      45.290  28.443  27.632  1.00  0.00     0.167 HD
ATOM     38  C   UNL A   1      43.866  30.714  28.516  1.00  0.00     0.074 A 
ATOM     39  C   UNL A   1      42.787  31.548  29.001  1.00  0.00     0.031 C 
ATOM     40  C   UNL A   1      45.103  31.168  28.205  1.00  0.00     0.037 A 
BRANCH  27  41
ATOM     41  C   UNL A   1      48.949  26.777  26.242  1.00  0.00     0.064 A 
ATOM     42  C   UNL A   1      49.890  26.251  27.140  1.00  0.00     0.173 A 
ATOM     43  C   UNL A   1      49.319  26.927  24.897  1.00  0.00     0.173 A 
ATOM     44  F   UNL A   1      49.579  26.106  28.438  1.00  0.00    -0.203 F 
ATOM     45  C   UNL A   1      51.162  25.891  26.704  1.00  0.00     0.198 A 
ATOM     46  C   UNL A   1      50.590  26.561  24.463  1.00  0.00     0.198 A 
ATOM     47  F   UNL A   1      48.449  27.431  24.006  1.00  0.00    -0.203 F 
ATOM     48  F   UNL A   1      52.055  25.407  27.580  1.00  0.00    -0.200 F 
ATOM     49  C   UNL A   1      51.509  26.044  25.367  1.00  0.00     0.200 A 
ATOM     50  F   UNL A   1      50.926  26.711  23.173  1.00  0.00    -0.200 F 
ATOM     51  F   UNL A   1      52.736  25.700  24.950  1.00  0.00    -0.200 F 
ENDBRANCH  27  41
BRANCH  28  52
ATOM     52  C   UNL A   1      39.740  28.677  29.419  1.00  0.00     0.064 A 
ATOM     53  C   UNL A   1      39.366  28.513  30.761  1.00  0.00     0.173 A 
ATOM     54  C   UNL A   1      38.783  29.146  28.508  1.00  0.00     0.173 A 
ATOM     55  F   UNL A   1      40.253  28.051  31.656  1.00  0.00    -0.203 F 
ATOM     56  C   UNL A   1      38.073  28.810  31.179  1.00  0.00     0.198 A 
ATOM     57  C   UNL A   1      37.491  29.448  28.931  1.00  0.00     0.198 A 
ATOM     58  F   UNL A   1      39.105  29.311  27.217  1.00  0.00    -0.203 F 
ATOM     59  F   UNL A   1      37.731  28.636  32.465  1.00  0.00    -0.200 F 
ATOM     60  C   UNL A   1      37.138  29.280  30.264  1.00  0.00     0.200 A 
ATOM     61  F   UNL A   1      36.589  29.901  28.047  1.00  0.00    -0.200 F 
ATOM     62  F   UNL A   1      35.892  29.566  30.669  1.00  0.00    -0.200 F 
ENDBRANCH  28  52
BRANCH  40  63
ATOM     63  C   UNL A   1      45.354  32.632  28.376  1.00  0.00     0.064 A 
ATOM     64  C   UNL A   1      45.889  33.134  29.571  1.00  0.00     0.173 A 
ATOM     65  C   UNL A   1      45.094  33.527  27.329  1.00  0.00     0.173 A 
ATOM     66  F   UNL A   1      46.140  32.310  30.600  1.00  0.00    -0.203 F 
ATOM     67  C   UNL A   1      46.153  34.494  29.715  1.00  0.00     0.198 A 
ATOM     68  C   UNL A   1      45.364  34.885  27.474  1.00  0.00     0.198 A 
ATOM     69  F   UNL A   1      44.577  33.087  26.172  1.00  0.00    -0.203 F 
ATOM     70  F   UNL A   1      46.650  34.959  30.869  1.00  0.00    -0.200 F 
ATOM     71  C   UNL A   1      45.893  35.366  28.666  1.00  0.00     0.200 A 
ATOM     72  F   UNL A   1      45.109  35.729  26.464  1.00  0.00    -0.200 F 
ATOM     73  F   UNL A   1      46.145  36.675  28.807  1.00  0.00    -0.200 F 
ENDBRANCH  40  63
ENDBRANCH  14  15
ENDBRANCH   7   9
ENDBRANCH   4   5
ENDBRANCH   3   4
ENDBRANCH   2   3
ENDBRANCH   1   2
BRANCH   1  74
ATOM     74  C   UNL A   1      36.931  22.729  25.868  1.00  0.00     0.021 C 
BRANCH  74  75
ATOM     75  C   UNL A   1      35.985  23.883  25.552  1.00  0.00     0.116 C 
BRANCH  75  76
ATOM     76  N   UNL A   1      34.815  23.920  26.403  1.00  0.00    -0.352 N 
ATOM     77  C   UNL A   1      33.663  23.162  26.477  1.00  0.00     0.253 C 
ATOM     78  H   UNL A   1      34.847  24.640  27.073  1.00  0.00     0.163 HD
ATOM     79  O   UNL A   1      32.870  23.476  27.373  1.00  0.00    -0.269 OA
BRANCH  77  80
ATOM     80  C   UNL A   1      33.198  21.959  25.248  1.00  0.00     0.066 A 
ATOM     81  C   UNL A   1      33.121  19.914  25.405  1.00  0.00     0.036 A 
ATOM     82  C   UNL A   1      32.824  22.930  24.479  1.00  0.00     0.072 A 
ATOM     83  C   UNL A   1      32.688  18.795  24.929  1.00  0.00     0.043 A 
ATOM     84  C   UNL A   1      33.349  21.805  24.134  1.00  0.00     0.066 A 
ATOM     85  Cl  UNL A   1      33.176  17.203  25.190  1.00  0.00    -0.084 Cl
ATOM     86  C   UNL A   1      33.289  19.773  24.357  1.00  0.00     0.043 A 
ATOM     87  Cl  UNL A   1      34.477  22.945  22.729  1.00  0.00    -0.082 Cl
BRANCH  82  88
ATOM     88  N   UNL A   1      31.554  23.536  24.548  1.00  0.00    -0.330 N 
ATOM     89  H   UNL A   1      30.978  23.104  25.219  1.00  0.00     0.169 HD
BRANCH  88  90
ATOM     90  C   UNL A   1      30.924  24.558  23.927  1.00  0.00     0.177 C 
ATOM     91  S   UNL A   1      29.824  25.444  24.830  1.00  0.00    -0.040 S 
BRANCH  90  92
ATOM     92  N   UNL A   1      31.114  24.939  22.634  1.00  0.00    -0.299 N 
ATOM     93  C   UNL A   1      31.503  26.109  22.022  1.00  0.00     0.258 C 
ATOM     94  H   UNL A   1      30.932  24.215  21.992  1.00  0.00     0.172 HD
ATOM     95  O   UNL A   1      31.401  26.328  20.825  1.00  0.00    -0.269 OA
BRANCH  93  96
ATOM     96  C   UNL A   1      32.007  27.120  22.929  1.00  0.00     0.048 A 
ATOM     97  C   UNL A   1      33.523  26.623  24.071  1.00  0.00     0.014 A 
ATOM     98  C   UNL A   1      30.794  28.673  23.198  1.00  0.00    -0.006 A 
ATOM     99  C   UNL A   1      34.026  27.646  25.680  1.00  0.00     0.001 A 
ATOM    100  C   UNL A   1      31.283  29.704  24.837  1.00  0.00    -0.018 A 
ATOM    101  C   UNL A   1      29.750  29.212  22.424  1.00  0.00     0.009 A 
ATOM    102  C   UNL A   1      32.797  29.188  25.989  1.00  0.00     0.009 A 
ATOM    103  C   UNL A   1      30.521  30.863  24.986  1.00  0.00     0.009 A 
ATOM    104  C   UNL A   1      29.173  30.429  22.843  1.00  0.00     0.001 A 
ATOM    105  C   UNL A   1      29.529  31.187  24.021  1.00  0.00     0.001 A 
ENDBRANCH  93  96
ENDBRANCH  90  92
ENDBRANCH  88  90
ENDBRANCH  82  88
ENDBRANCH  77  80
ENDBRANCH  75  76
ENDBRANCH  74  75
ENDBRANCH   1  74
TORSDOF 17
ENDMDL
MODEL 3
REMARK VINA RESULT:     -12.7      1.373      7.050
REMARK SMILES O=C(NCCCCCCNC(=O)c1cc(Cl)cc(Cl)c1NC(=S)NC(=O)c1cccc2ccccc12)c1ccc(-c2c3nc(c(-c4c(F)c(F)c(F)c(F)c4F)c4ccc([nH]4)c(-c4c(F)c(F)c(F)c(F)c4F)c4nc(c(-c5c(F)c(F)c(F)c(F)c5F)c5ccc2[nH]5)C=C4)C=C3)cc1
REMARK SMILES IDX 7 1 6 2 5 3 4 4 3 5 1 6 2 7 37 9 38 10 99 11 39 12 98 13
REMARK SMILES IDX 40 14 41 15 42 16 92 17 43 18 97 19 91 20 93 21 44 22 96 23
REMARK SMILES IDX 90 24 89 25 45 27 77 28 57 29 76 30 58 31 61 32 75 33 94 34
REMARK SMILES IDX 59 35 60 36 74 38 95 39 62 40 46 41 47 42 55 43 48 44 49 45
REMARK SMILES IDX 53 46 56 47 50 48 51 49 54 50 52 51 78 52 79 53 87 54 80 55
REMARK SMILES IDX 81 56 85 57 88 58 82 59 83 60 86 61 84 62 63 63 64 64 72 65
REMARK SMILES IDX 65 66 66 67 70 68 73 69 67 70 68 71 71 72 69 73 8 74 9 75
REMARK SMILES IDX 10 76 11 77 12 79 13 80 14 81 20 82 15 83 18 84 16 85 17 86
REMARK SMILES IDX 19 87 21 88 22 90 23 91 24 92 25 93 26 95 27 96 28 97 36 98
REMARK SMILES IDX 29 99 31 100 35 101 30 102 32 103 34 104 33 105
REMARK H PARENT 3 8 93 26 61 37 10 78 21 89 24 94
REMARK Flexibility Score: inf
ROOT
ATOM      1  C   UNL A   1      37.104  21.739  24.815  1.00  0.00     0.002 C 
ENDROOT
BRANCH   1   2
ATOM      2  C   UNL A   1      36.840  20.232  24.892  1.00  0.00     0.002 C 
BRANCH   2   3
ATOM      3  C   UNL A   1      38.057  19.310  25.036  1.00  0.00     0.021 C 
BRANCH   3   4
ATOM      4  C   UNL A   1      39.309  19.920  25.662  1.00  0.00     0.116 C 
BRANCH   4   5
ATOM      5  N   UNL A   1      40.363  18.955  25.918  1.00  0.00    -0.352 N 
ATOM      6  O   UNL A   1      42.437  18.208  26.373  1.00  0.00    -0.269 OA
ATOM      7  C   UNL A   1      41.676  19.166  26.272  1.00  0.00     0.251 C 
ATOM      8  H   UNL A   1      40.099  18.011  25.823  1.00  0.00     0.163 HD
BRANCH   7   9
ATOM      9  C   UNL A   1      42.200  20.537  26.492  1.00  0.00     0.039 A 
ATOM     10  C   UNL A   1      42.350  21.082  27.772  1.00  0.00     0.014 A 
ATOM     11  C   UNL A   1      42.585  21.286  25.372  1.00  0.00     0.014 A 
ATOM     12  C   UNL A   1      42.769  22.406  27.922  1.00  0.00     0.010 A 
ATOM     13  C   UNL A   1      43.048  22.598  25.524  1.00  0.00     0.010 A 
ATOM     14  C   UNL A   1      43.106  23.180  26.798  1.00  0.00    -0.014 A 
BRANCH  14  15
ATOM     15  C   UNL A   1      43.509  24.597  26.979  1.00  0.00     0.031 A 
ATOM     16  C   UNL A   1      42.548  25.595  27.563  1.00  0.00     0.074 A 
ATOM     17  C   UNL A   1      44.757  24.981  26.657  1.00  0.00     0.049 A 
ATOM     18  N   UNL A   1      42.756  26.848  27.884  1.00  0.00    -0.248 NA
ATOM     19  C   UNL A   1      41.177  25.128  27.818  1.00  0.00     0.031 C 
ATOM     20  C   UNL A   1      45.777  24.121  26.059  1.00  0.00     0.029 A 
ATOM     21  N   UNL A   1      45.385  26.191  26.813  1.00  0.00    -0.354 N 
ATOM     22  C   UNL A   1      41.542  27.324  28.356  1.00  0.00     0.074 A 
ATOM     23  C   UNL A   1      40.598  26.228  28.278  1.00  0.00     0.031 C 
ATOM     24  C   UNL A   1      46.919  24.817  25.939  1.00  0.00     0.029 A 
ATOM     25  C   UNL A   1      46.707  26.171  26.446  1.00  0.00     0.049 A 
ATOM     26  H   UNL A   1      44.932  26.995  27.155  1.00  0.00     0.167 HD
ATOM     27  C   UNL A   1      41.238  28.562  28.815  1.00  0.00     0.037 A 
ATOM     28  C   UNL A   1      47.648  27.128  26.533  1.00  0.00     0.037 A 
ATOM     29  C   UNL A   1      42.170  29.650  28.929  1.00  0.00     0.049 A 
ATOM     30  C   UNL A   1      47.305  28.471  27.106  1.00  0.00     0.074 A 
ATOM     31  C   UNL A   1      41.952  30.930  29.411  1.00  0.00     0.029 A 
ATOM     32  N   UNL A   1      43.503  29.585  28.558  1.00  0.00    -0.354 N 
ATOM     33  N   UNL A   1      46.160  28.897  27.578  1.00  0.00    -0.248 NA
ATOM     34  C   UNL A   1      48.387  29.464  27.161  1.00  0.00     0.031 C 
ATOM     35  C   UNL A   1      43.155  31.641  29.329  1.00  0.00     0.029 A 
ATOM     36  C   UNL A   1      44.121  30.800  28.802  1.00  0.00     0.049 A 
ATOM     37  H   UNL A   1      43.945  28.791  28.178  1.00  0.00     0.167 HD
ATOM     38  C   UNL A   1      46.383  30.203  27.990  1.00  0.00     0.074 A 
ATOM     39  C   UNL A   1      47.774  30.499  27.722  1.00  0.00     0.031 C 
ATOM     40  C   UNL A   1      45.507  31.076  28.538  1.00  0.00     0.037 A 
BRANCH  27  41
ATOM     41  C   UNL A   1      39.825  28.806  29.234  1.00  0.00     0.064 A 
ATOM     42  C   UNL A   1      38.863  29.250  28.314  1.00  0.00     0.173 A 
ATOM     43  C   UNL A   1      39.423  28.561  30.556  1.00  0.00     0.173 A 
ATOM     44  F   UNL A   1      39.211  29.510  27.044  1.00  0.00    -0.203 F 
ATOM     45  C   UNL A   1      37.543  29.447  28.708  1.00  0.00     0.198 A 
ATOM     46  C   UNL A   1      38.100  28.752  30.945  1.00  0.00     0.198 A 
ATOM     47  F   UNL A   1      40.313  28.139  31.469  1.00  0.00    -0.203 F 
ATOM     48  F   UNL A   1      36.640  29.889  27.819  1.00  0.00    -0.200 F 
ATOM     49  C   UNL A   1      37.162  29.195  30.020  1.00  0.00     0.200 A 
ATOM     50  F   UNL A   1      37.734  28.512  32.212  1.00  0.00    -0.200 F 
ATOM     51  F   UNL A   1      35.891  29.388  30.398  1.00  0.00    -0.200 F 
ENDBRANCH  27  41
BRANCH  28  52
ATOM     52  C   UNL A   1      49.034  26.822  26.110  1.00  0.00     0.064 A 
ATOM     53  C   UNL A   1      49.952  26.289  27.026  1.00  0.00     0.173 A 
ATOM     54  C   UNL A   1      49.452  27.036  24.789  1.00  0.00     0.173 A 
ATOM     55  F   UNL A   1      49.589  26.086  28.302  1.00  0.00    -0.203 F 
ATOM     56  C   UNL A   1      51.249  25.977  26.633  1.00  0.00     0.198 A 
ATOM     57  C   UNL A   1      50.750  26.718  24.395  1.00  0.00     0.198 A 
ATOM     58  F   UNL A   1      48.602  27.549  23.887  1.00  0.00    -0.203 F 
ATOM     59  F   UNL A   1      52.116  25.478  27.527  1.00  0.00    -0.200 F 
ATOM     60  C   UNL A   1      51.646  26.190  25.317  1.00  0.00     0.200 A 
ATOM     61  F   UNL A   1      51.131  26.924  23.126  1.00  0.00    -0.200 F 
ATOM     62  F   UNL A   1      52.896  25.889  24.939  1.00  0.00    -0.200 F 
ENDBRANCH  28  52
BRANCH  40  63
ATOM     63  C   UNL A   1      46.027  32.433  28.889  1.00  0.00     0.064 A 
ATOM     64  C   UNL A   1      46.550  32.695  30.164  1.00  0.00     0.173 A 
ATOM     65  C   UNL A   1      46.037  33.462  27.937  1.00  0.00     0.173 A 
ATOM     66  F   UNL A   1      46.547  31.740  31.107  1.00  0.00    -0.203 F 
ATOM     67  C   UNL A   1      47.065  33.950  30.477  1.00  0.00     0.198 A 
ATOM     68  C   UNL A   1      46.557  34.715  28.251  1.00  0.00     0.198 A 
ATOM     69  F   UNL A   1      45.542  33.254  26.707  1.00  0.00    -0.203 F 
ATOM     70  F   UNL A   1      47.547  34.187  31.705  1.00  0.00    -0.200 F 
ATOM     71  C   UNL A   1      47.070  34.956  29.520  1.00  0.00     0.200 A 
ATOM     72  F   UNL A   1      46.559  35.688  27.329  1.00  0.00    -0.200 F 
ATOM     73  F   UNL A   1      47.564  36.165  29.824  1.00  0.00    -0.200 F 
ENDBRANCH  40  63
ENDBRANCH  14  15
ENDBRANCH   7   9
ENDBRANCH   4   5
ENDBRANCH   3   4
ENDBRANCH   2   3
ENDBRANCH   1   2
BRANCH   1  74
ATOM     74  C   UNL A   1      36.690  22.587  26.024  1.00  0.00     0.021 C 
BRANCH  74  75
ATOM     75  C   UNL A   1      35.801  23.793  25.737  1.00  0.00     0.116 C 
BRANCH  75  76
ATOM     76  N   UNL A   1      34.597  23.826  26.539  1.00  0.00    -0.352 N 
ATOM     77  C   UNL A   1      33.426  23.094  26.536  1.00  0.00     0.253 C 
ATOM     78  H   UNL A   1      34.617  24.520  27.237  1.00  0.00     0.163 HD
ATOM     79  O   UNL A   1      32.603  23.394  27.410  1.00  0.00    -0.269 OA
BRANCH  77  80
ATOM     80  C   UNL A   1      32.987  21.950  25.243  1.00  0.00     0.066 A 
ATOM     81  C   UNL A   1      32.908  19.899  25.303  1.00  0.00     0.036 A 
ATOM     82  C   UNL A   1      32.628  22.956  24.513  1.00  0.00     0.072 A 
ATOM     83  C   UNL A   1      32.485  18.805  24.767  1.00  0.00     0.043 A 
ATOM     84  C   UNL A   1      33.160  21.848  24.127  1.00  0.00     0.066 A 
ATOM     85  Cl  UNL A   1      32.970  17.202  24.963  1.00  0.00    -0.084 Cl
ATOM     86  C   UNL A   1      33.097  19.807  24.253  1.00  0.00     0.043 A 
ATOM     87  Cl  UNL A   1      34.315  23.052  22.798  1.00  0.00    -0.082 Cl
BRANCH  82  88
ATOM     88  N   UNL A   1      31.356  23.558  24.585  1.00  0.00    -0.330 N 
ATOM     89  H   UNL A   1      30.694  22.967  25.011  1.00  0.00     0.169 HD
BRANCH  88  90
ATOM     90  C   UNL A   1      30.812  24.739  24.216  1.00  0.00     0.177 C 
ATOM     91  S   UNL A   1      30.040  25.634  25.406  1.00  0.00    -0.040 S 
BRANCH  90  92
ATOM     92  N   UNL A   1      30.847  25.272  22.964  1.00  0.00    -0.299 N 
ATOM     93  C   UNL A   1      31.256  26.479  22.443  1.00  0.00     0.258 C 
ATOM     94  H   UNL A   1      30.502  24.657  22.277  1.00  0.00     0.172 HD
ATOM     95  O   UNL A   1      31.002  26.863  21.312  1.00  0.00    -0.269 OA
BRANCH  93  96
ATOM     96  C   UNL A   1      31.985  27.317  23.373  1.00  0.00     0.048 A 
ATOM     97  C   UNL A   1      33.537  26.519  24.270  1.00  0.00     0.014 A 
ATOM     98  C   UNL A   1      31.026  28.966  23.932  1.00  0.00    -0.006 A 
ATOM     99  C   UNL A   1      34.343  27.292  25.895  1.00  0.00     0.001 A 
ATOM    100  C   UNL A   1      31.823  29.746  25.589  1.00  0.00    -0.018 A 
ATOM    101  C   UNL A   1      29.985  29.710  23.345  1.00  0.00     0.009 A 
ATOM    102  C   UNL A   1      33.371  28.928  26.495  1.00  0.00     0.009 A 
ATOM    103  C   UNL A   1      31.242  30.966  25.939  1.00  0.00     0.009 A 
ATOM    104  C   UNL A   1      29.623  30.934  23.944  1.00  0.00     0.001 A 
ATOM    105  C   UNL A   1      30.203  31.510  25.136  1.00  0.00     0.001 A 
ENDBRANCH  93  96
ENDBRANCH  90  92
ENDBRANCH  88  90
ENDBRANCH  82  88
ENDBRANCH  77  80
ENDBRANCH  75  76
ENDBRANCH  74  75
ENDBRANCH   1  74
TORSDOF 17
ENDMDL
