MODEL 1
REMARK VINA RESULT:     -12.1      0.000      0.000
REMARK SMILES CC(C)C[C@H](NC(=O)[C@@H](NC(=O)N1CC(NCCCCCCNC(=O)c2ccc(-c3c4nc(c(-c5c(F)c(F)c(F)c(F)c5F)c5ccc([nH]5)c(-c5c(F)c(F)c(F)c(F)c5F)c5nc(c(-c6c(F)c(F)c(F)c(F)c6F)c6ccc3[nH]6)C=C5)C=C4)cc2)=[NH+]c2ccccc21)C(C)C)C(=O)[O-]
REMARK SMILES IDX 18 1 17 2 16 3 13 4 14 5 95 6 15 7 90 8 94 9 89 10 91 11
REMARK SMILES IDX 93 12 92 15 11 16 10 17 12 19 9 20 7 21 6 22 8 24 5 25 4 26
REMARK SMILES IDX 2 27 1 28 3 29 99 30 100 31 101 32 96 33 97 34 98 35 19 36
REMARK SMILES IDX 20 37 21 38 22 39 23 40 24 41 25 43 26 44 27 45 88 46 28 47
REMARK SMILES IDX 87 48 29 49 30 50 31 51 81 52 32 53 86 54 80 55 82 56 33 57
REMARK SMILES IDX 85 58 79 59 78 60 34 62 66 63 46 64 65 65 47 66 50 67 64 68
REMARK SMILES IDX 83 69 48 70 49 71 63 73 84 74 51 75 35 76 36 77 44 78 37 79
REMARK SMILES IDX 38 80 42 81 45 82 39 83 40 84 43 85 41 86 67 87 68 88 76 89
REMARK SMILES IDX 69 90 70 91 74 92 77 93 71 94 72 95 75 96 73 97 52 98 53 99
REMARK SMILES IDX 61 100 54 101 55 102 59 103 62 104 56 105 57 106 60 107
REMARK SMILES IDX 58 108
REMARK H PARENT 16 13 89 14 10 18 6 23 23 42 82 61 50 72
REMARK Flexibility Score: inf
ROOT
ATOM      1  C   UNL A   1      37.923  22.931  25.317  1.00  0.00     0.046 C 
ENDROOT
BRANCH   1   2
ATOM      2  C   UNL A   1      36.757  23.477  26.150  1.00  0.00     0.233 C 
BRANCH   2   3
ATOM      3  N   UNL A   1      35.842  22.405  26.442  1.00  0.00    -0.277 N 
ATOM      4  N   UNL A   1      33.324  21.691  23.818  1.00  0.00    -0.278 N 
ATOM      5  C   UNL A   1      34.693  22.099  24.164  1.00  0.00     0.255 C 
ATOM      6  C   UNL A   1      33.102  20.322  24.127  1.00  0.00     0.093 A 
ATOM      7  C   UNL A   1      34.977  21.718  25.630  1.00  0.00     0.268 C 
ATOM      8  C   UNL A   1      33.612  19.864  25.358  1.00  0.00     0.148 A 
ATOM      9  C   UNL A   1      32.430  19.445  23.276  1.00  0.00     0.031 A 
ATOM     10  N   UNL A   1      34.428  20.664  26.178  1.00  0.00    -0.241 N 
ATOM     11  C   UNL A   1      33.275  18.587  25.799  1.00  0.00     0.054 A 
ATOM     12  C   UNL A   1      32.151  18.145  23.706  1.00  0.00     0.002 A 
ATOM     13  H   UNL A   1      35.837  22.118  27.383  1.00  0.00     0.304 HD
ATOM     14  H   UNL A   1      34.581  20.440  27.123  1.00  0.00     0.312 HD
ATOM     15  C   UNL A   1      32.534  17.733  24.983  1.00  0.00     0.005 A 
BRANCH   4  16
ATOM     16  C   UNL A   1      32.623  22.373  22.872  1.00  0.00     0.323 C 
ATOM     17  N   UNL A   1      31.919  23.499  23.182  1.00  0.00    -0.326 N 
ATOM     18  H   UNL A   1      31.399  23.790  22.398  1.00  0.00     0.166 HD
ATOM     19  O   UNL A   1      32.705  22.084  21.675  1.00  0.00    -0.248 OA
BRANCH  17  20
ATOM     20  C   UNL A   1      31.677  24.439  24.323  1.00  0.00     0.175 C 
BRANCH  20  21
ATOM     21  C   UNL A   1      32.867  25.240  24.953  1.00  0.00     0.243 C 
ATOM     22  N   UNL A   1      33.371  26.411  24.499  1.00  0.00    -0.346 N 
ATOM     23  H   UNL A   1      34.231  26.656  24.911  1.00  0.00     0.164 HD
ATOM     24  O   UNL A   1      33.508  24.724  25.881  1.00  0.00    -0.273 OA
BRANCH  22  25
ATOM     25  C   UNL A   1      32.890  27.383  23.519  1.00  0.00     0.128 C 
BRANCH  25  26
ATOM     26  C   UNL A   1      33.086  28.784  24.098  1.00  0.00     0.034 C 
BRANCH  26  27
ATOM     27  C   UNL A   1      31.943  29.588  24.721  1.00  0.00    -0.015 C 
ATOM     28  C   UNL A   1      30.639  29.417  23.971  1.00  0.00     0.007 C 
ATOM     29  C   UNL A   1      31.762  29.093  26.164  1.00  0.00     0.007 C 
ENDBRANCH  26  27
ENDBRANCH  25  26
BRANCH  25  30
ATOM     30  C   UNL A   1      33.660  27.170  22.211  1.00  0.00     0.064 C 
ATOM     31  O   UNL A   1      33.869  26.100  21.661  1.00  0.00    -0.548 OA
ATOM     32  O   UNL A   1      34.063  28.320  21.630  1.00  0.00    -0.548 OA
ENDBRANCH  25  30
ENDBRANCH  22  25
ENDBRANCH  20  21
BRANCH  20  33
ATOM     33  C   UNL A   1      30.597  24.048  25.352  1.00  0.00     0.015 C 
ATOM     34  C   UNL A   1      30.956  22.933  26.340  1.00  0.00     0.010 C 
ATOM     35  C   UNL A   1      30.247  25.290  26.186  1.00  0.00     0.010 C 
ENDBRANCH  20  33
ENDBRANCH  17  20
ENDBRANCH   4  16
ENDBRANCH   2   3
ENDBRANCH   1   2
BRANCH   1  36
ATOM     36  C   UNL A   1      38.552  21.637  25.840  1.00  0.00     0.004 C 
BRANCH  36  37
ATOM     37  C   UNL A   1      39.799  21.824  26.706  1.00  0.00     0.002 C 
BRANCH  37  38
ATOM     38  C   UNL A   1      41.106  21.316  26.092  1.00  0.00     0.021 C 
BRANCH  38  39
ATOM     39  C   UNL A   1      42.375  21.891  26.715  1.00  0.00     0.116 C 
BRANCH  39  40
ATOM     40  N   UNL A   1      43.223  22.546  25.730  1.00  0.00    -0.352 N 
ATOM     41  C   UNL A   1      43.419  23.885  25.506  1.00  0.00     0.251 C 
ATOM     42  H   UNL A   1      43.728  21.941  25.139  1.00  0.00     0.163 HD
ATOM     43  O   UNL A   1      44.002  24.272  24.494  1.00  0.00    -0.269 OA
BRANCH  41  44
ATOM     44  C   UNL A   1      42.912  24.871  26.481  1.00  0.00     0.039 A 
ATOM     45  C   UNL A   1      41.882  24.504  27.351  1.00  0.00     0.014 A 
ATOM     46  C   UNL A   1      43.464  26.154  26.541  1.00  0.00     0.014 A 
ATOM     47  C   UNL A   1      41.455  25.403  28.332  1.00  0.00     0.010 A 
ATOM     48  C   UNL A   1      43.090  27.017  27.564  1.00  0.00     0.010 A 
ATOM     49  C   UNL A   1      42.083  26.651  28.472  1.00  0.00    -0.014 A 
BRANCH  49  50
ATOM     50  C   UNL A   1      41.716  27.589  29.564  1.00  0.00     0.031 A 
ATOM     51  C   UNL A   1      42.449  27.543  30.876  1.00  0.00     0.074 A 
ATOM     52  C   UNL A   1      40.669  28.422  29.405  1.00  0.00     0.049 A 
ATOM     53  N   UNL A   1      42.206  28.193  31.985  1.00  0.00    -0.248 NA
ATOM     54  C   UNL A   1      43.590  26.618  30.959  1.00  0.00     0.031 C 
ATOM     55  C   UNL A   1      39.855  28.535  28.194  1.00  0.00     0.029 A 
ATOM     56  N   UNL A   1      40.098  29.321  30.273  1.00  0.00    -0.354 N 
ATOM     57  C   UNL A   1      43.151  27.746  32.899  1.00  0.00     0.074 A 
ATOM     58  C   UNL A   1      43.936  26.729  32.233  1.00  0.00     0.031 C 
ATOM     59  C   UNL A   1      38.901  29.460  28.390  1.00  0.00     0.029 A 
ATOM     60  C   UNL A   1      39.004  29.970  29.754  1.00  0.00     0.049 A 
ATOM     61  H   UNL A   1      40.440  29.483  31.182  1.00  0.00     0.167 HD
ATOM     62  C   UNL A   1      43.359  28.162  34.172  1.00  0.00     0.037 A 
ATOM     63  C   UNL A   1      38.169  30.863  30.319  1.00  0.00     0.037 A 
ATOM     64  C   UNL A   1      42.584  29.185  34.823  1.00  0.00     0.049 A 
ATOM     65  C   UNL A   1      38.404  31.288  31.744  1.00  0.00     0.074 A 
ATOM     66  C   UNL A   1      42.747  29.713  36.092  1.00  0.00     0.029 A 
ATOM     67  N   UNL A   1      41.494  29.832  34.258  1.00  0.00    -0.354 N 
ATOM     68  N   UNL A   1      39.338  30.903  32.579  1.00  0.00    -0.248 NA
ATOM     69  C   UNL A   1      37.471  32.275  32.304  1.00  0.00     0.031 C 
ATOM     70  C   UNL A   1      41.721  30.637  36.316  1.00  0.00     0.029 A 
ATOM     71  C   UNL A   1      40.960  30.736  35.163  1.00  0.00     0.049 A 
ATOM     72  H   UNL A   1      41.152  29.673  33.349  1.00  0.00     0.167 HD
ATOM     73  C   UNL A   1      39.132  31.629  33.745  1.00  0.00     0.074 A 
ATOM     74  C   UNL A   1      37.986  32.481  33.508  1.00  0.00     0.031 C 
ATOM     75  C   UNL A   1      39.830  31.593  34.906  1.00  0.00     0.037 A 
BRANCH  62  76
ATOM     76  C   UNL A   1      44.464  27.504  34.949  1.00  0.00     0.064 A 
ATOM     77  C   UNL A   1      44.245  26.344  35.708  1.00  0.00     0.173 A 
ATOM     78  C   UNL A   1      45.769  28.019  34.904  1.00  0.00     0.173 A 
ATOM     79  F   UNL A   1      43.016  25.815  35.794  1.00  0.00    -0.203 F 
ATOM     80  C   UNL A   1      45.283  25.744  36.417  1.00  0.00     0.198 A 
ATOM     81  C   UNL A   1      46.811  27.396  35.586  1.00  0.00     0.198 A 
ATOM     82  F   UNL A   1      46.037  29.123  34.188  1.00  0.00    -0.203 F 
ATOM     83  F   UNL A   1      45.037  24.669  37.179  1.00  0.00    -0.200 F 
ATOM     84  C   UNL A   1      46.566  26.266  36.349  1.00  0.00     0.200 A 
ATOM     85  F   UNL A   1      48.053  27.893  35.505  1.00  0.00    -0.200 F 
ATOM     86  F   UNL A   1      47.565  25.681  37.025  1.00  0.00    -0.200 F 
ENDBRANCH  62  76
BRANCH  63  87
ATOM     87  C   UNL A   1      37.038  31.426  29.533  1.00  0.00     0.064 A 
ATOM     88  C   UNL A   1      35.948  30.624  29.164  1.00  0.00     0.173 A 
ATOM     89  C   UNL A   1      37.026  32.769  29.127  1.00  0.00     0.173 A 
ATOM     90  F   UNL A   1      35.922  29.329  29.512  1.00  0.00    -0.203 F 
ATOM     91  C   UNL A   1      34.902  31.136  28.399  1.00  0.00     0.198 A 
ATOM     92  C   UNL A   1      35.963  33.288  28.391  1.00  0.00     0.198 A 
ATOM     93  F   UNL A   1      38.040  33.581  29.459  1.00  0.00    -0.203 F 
ATOM     94  F   UNL A   1      33.900  30.335  28.017  1.00  0.00    -0.200 F 
ATOM     95  C   UNL A   1      34.908  32.470  28.018  1.00  0.00     0.200 A 
ATOM     96  F   UNL A   1      35.964  34.581  28.039  1.00  0.00    -0.200 F 
ATOM     97  F   UNL A   1      33.901  32.964  27.285  1.00  0.00    -0.200 F 
ENDBRANCH  63  87
BRANCH  75  98
ATOM     98  C   UNL A   1      39.417  32.543  35.995  1.00  0.00     0.064 A 
ATOM     99  C   UNL A   1      38.461  32.198  36.960  1.00  0.00     0.173 A 
ATOM    100  C   UNL A   1      40.032  33.802  36.101  1.00  0.00     0.173 A 
ATOM    101  F   UNL A   1      37.834  31.014  36.896  1.00  0.00    -0.203 F 
ATOM    102  C   UNL A   1      38.119  33.085  37.978  1.00  0.00     0.198 A 
ATOM    103  C   UNL A   1      39.713  34.671  37.139  1.00  0.00     0.198 A 
ATOM    104  F   UNL A   1      40.958  34.179  35.207  1.00  0.00    -0.203 F 
ATOM    105  F   UNL A   1      37.168  32.752  38.862  1.00  0.00    -0.200 F 
ATOM    106  C   UNL A   1      38.751  34.316  38.073  1.00  0.00     0.200 A 
ATOM    107  F   UNL A   1      40.338  35.853  37.238  1.00  0.00    -0.200 F 
ATOM    108  F   UNL A   1      38.430  35.162  39.061  1.00  0.00    -0.200 F 
ENDBRANCH  75  98
ENDBRANCH  49  50
ENDBRANCH  41  44
ENDBRANCH  39  40
ENDBRANCH  38  39
ENDBRANCH  37  38
ENDBRANCH  36  37
ENDBRANCH   1  36
TORSDOF 20
ENDMDL
MODEL 2
REMARK VINA RESULT:     -11.5      4.998     10.344
REMARK SMILES CC(C)C[C@H](NC(=O)[C@@H](NC(=O)N1CC(NCCCCCCNC(=O)c2ccc(-c3c4nc(c(-c5c(F)c(F)c(F)c(F)c5F)c5ccc([nH]5)c(-c5c(F)c(F)c(F)c(F)c5F)c5nc(c(-c6c(F)c(F)c(F)c(F)c6F)c6ccc3[nH]6)C=C5)C=C4)cc2)=[NH+]c2ccccc21)C(C)C)C(=O)[O-]
REMARK SMILES IDX 18 1 17 2 16 3 13 4 14 5 95 6 15 7 90 8 94 9 89 10 91 11
REMARK SMILES IDX 93 12 92 15 11 16 10 17 12 19 9 20 7 21 6 22 8 24 5 25 4 26
REMARK SMILES IDX 2 27 1 28 3 29 99 30 100 31 101 32 96 33 97 34 98 35 19 36
REMARK SMILES IDX 20 37 21 38 22 39 23 40 24 41 25 43 26 44 27 45 88 46 28 47
REMARK SMILES IDX 87 48 29 49 30 50 31 51 81 52 32 53 86 54 80 55 82 56 33 57
REMARK SMILES IDX 85 58 79 59 78 60 34 62 66 63 46 64 65 65 47 66 50 67 64 68
REMARK SMILES IDX 83 69 48 70 49 71 63 73 84 74 51 75 35 76 36 77 44 78 37 79
REMARK SMILES IDX 38 80 42 81 45 82 39 83 40 84 43 85 41 86 67 87 68 88 76 89
REMARK SMILES IDX 69 90 70 91 74 92 77 93 71 94 72 95 75 96 73 97 52 98 53 99
REMARK SMILES IDX 61 100 54 101 55 102 59 103 62 104 56 105 57 106 60 107
REMARK SMILES IDX 58 108
REMARK H PARENT 16 13 89 14 10 18 6 23 23 42 82 61 50 72
REMARK Flexibility Score: inf
ROOT
ATOM      1  C   UNL A   1      35.531  30.444  27.623  1.00  0.00     0.046 C 
ENDROOT
BRANCH   1   2
ATOM      2  C   UNL A   1      34.569  29.272  27.390  1.00  0.00     0.233 C 
BRANCH   2   3
ATOM      3  N   UNL A   1      34.036  29.355  26.057  1.00  0.00    -0.277 N 
ATOM      4  N   UNL A   1      31.124  27.172  25.359  1.00  0.00    -0.278 N 
ATOM      5  C   UNL A   1      31.855  28.021  26.310  1.00  0.00     0.255 C 
ATOM      6  C   UNL A   1      30.542  27.947  24.320  1.00  0.00     0.093 A 
ATOM      7  C   UNL A   1      32.851  28.904  25.536  1.00  0.00     0.268 C 
ATOM      8  C   UNL A   1      31.341  28.971  23.777  1.00  0.00     0.148 A 
ATOM      9  C   UNL A   1      29.247  27.741  23.846  1.00  0.00     0.031 A 
ATOM     10  N   UNL A   1      32.591  29.320  24.322  1.00  0.00    -0.241 N 
ATOM     11  C   UNL A   1      30.900  29.646  22.641  1.00  0.00     0.054 A 
ATOM     12  C   UNL A   1      28.793  28.469  22.744  1.00  0.00     0.002 A 
ATOM     13  H   UNL A   1      34.621  29.812  25.410  1.00  0.00     0.304 HD
ATOM     14  H   UNL A   1      33.241  29.854  23.813  1.00  0.00     0.312 HD
ATOM     15  C   UNL A   1      29.635  29.387  22.116  1.00  0.00     0.005 A 
BRANCH   4  16
ATOM     16  C   UNL A   1      30.652  25.956  25.747  1.00  0.00     0.323 C 
ATOM     17  N   UNL A   1      31.308  24.804  25.431  1.00  0.00    -0.326 N 
ATOM     18  H   UNL A   1      30.766  24.029  25.705  1.00  0.00     0.166 HD
ATOM     19  O   UNL A   1      29.690  25.852  26.514  1.00  0.00    -0.248 OA
BRANCH  17  20
ATOM     20  C   UNL A   1      32.583  24.329  24.804  1.00  0.00     0.175 C 
BRANCH  20  21
ATOM     21  C   UNL A   1      33.948  24.518  25.549  1.00  0.00     0.243 C 
ATOM     22  N   UNL A   1      34.770  23.531  25.974  1.00  0.00    -0.346 N 
ATOM     23  H   UNL A   1      35.477  23.842  26.584  1.00  0.00     0.164 HD
ATOM     24  O   UNL A   1      34.280  25.659  25.905  1.00  0.00    -0.273 OA
BRANCH  22  25
ATOM     25  C   UNL A   1      34.813  22.094  25.707  1.00  0.00     0.128 C 
BRANCH  25  26
ATOM     26  C   UNL A   1      36.213  21.585  26.054  1.00  0.00     0.034 C 
BRANCH  26  27
ATOM     27  C   UNL A   1      37.286  21.334  24.994  1.00  0.00    -0.015 C 
ATOM     28  C   UNL A   1      37.407  19.870  24.627  1.00  0.00     0.007 C 
ATOM     29  C   UNL A   1      36.898  22.136  23.743  1.00  0.00     0.007 C 
ENDBRANCH  26  27
ENDBRANCH  25  26
BRANCH  25  30
ATOM     30  C   UNL A   1      33.715  21.417  26.534  1.00  0.00     0.064 C 
ATOM     31  O   UNL A   1      33.064  20.436  26.207  1.00  0.00    -0.548 OA
ATOM     32  O   UNL A   1      33.545  21.966  27.755  1.00  0.00    -0.548 OA
ENDBRANCH  25  30
ENDBRANCH  22  25
ENDBRANCH  20  21
BRANCH  20  33
ATOM     33  C   UNL A   1      32.708  24.439  23.271  1.00  0.00     0.015 C 
ATOM     34  C   UNL A   1      33.730  23.520  22.593  1.00  0.00     0.010 C 
ATOM     35  C   UNL A   1      31.340  24.125  22.647  1.00  0.00     0.010 C 
ENDBRANCH  20  33
ENDBRANCH  17  20
ENDBRANCH   4  16
ENDBRANCH   2   3
ENDBRANCH   1   2
BRANCH   1  36
ATOM     36  C   UNL A   1      35.142  31.395  28.756  1.00  0.00     0.004 C 
BRANCH  36  37
ATOM     37  C   UNL A   1      34.238  32.559  28.346  1.00  0.00     0.002 C 
BRANCH  37  38
ATOM     38  C   UNL A   1      34.043  33.645  29.408  1.00  0.00     0.021 C 
BRANCH  38  39
ATOM     39  C   UNL A   1      35.301  34.008  30.194  1.00  0.00     0.116 C 
BRANCH  39  40
ATOM     40  N   UNL A   1      35.211  33.608  31.591  1.00  0.00    -0.352 N 
ATOM     41  C   UNL A   1      36.039  32.788  32.314  1.00  0.00     0.251 C 
ATOM     42  H   UNL A   1      34.446  33.979  32.087  1.00  0.00     0.163 HD
ATOM     43  O   UNL A   1      35.702  32.380  33.424  1.00  0.00    -0.269 OA
BRANCH  41  44
ATOM     44  C   UNL A   1      37.339  32.379  31.747  1.00  0.00     0.039 A 
ATOM     45  C   UNL A   1      38.244  31.677  32.546  1.00  0.00     0.014 A 
ATOM     46  C   UNL A   1      37.658  32.683  30.420  1.00  0.00     0.014 A 
ATOM     47  C   UNL A   1      39.440  31.214  31.992  1.00  0.00     0.010 A 
ATOM     48  C   UNL A   1      38.813  32.157  29.851  1.00  0.00     0.010 A 
ATOM     49  C   UNL A   1      39.715  31.415  30.630  1.00  0.00    -0.014 A 
BRANCH  49  50
ATOM     50  C   UNL A   1      40.933  30.854  29.990  1.00  0.00     0.031 A 
ATOM     51  C   UNL A   1      42.124  31.735  29.734  1.00  0.00     0.074 A 
ATOM     52  C   UNL A   1      40.934  29.576  29.563  1.00  0.00     0.049 A 
ATOM     53  N   UNL A   1      43.230  31.468  29.088  1.00  0.00    -0.248 NA
ATOM     54  C   UNL A   1      42.047  33.111  30.249  1.00  0.00     0.031 C 
ATOM     55  C   UNL A   1      39.827  28.631  29.718  1.00  0.00     0.029 A 
ATOM     56  N   UNL A   1      41.893  28.856  28.893  1.00  0.00    -0.354 N 
ATOM     57  C   UNL A   1      43.971  32.643  29.105  1.00  0.00     0.074 A 
ATOM     58  C   UNL A   1      43.166  33.640  29.777  1.00  0.00     0.031 C 
ATOM     59  C   UNL A   1      40.175  27.454  29.175  1.00  0.00     0.029 A 
ATOM     60  C   UNL A   1      41.508  27.572  28.591  1.00  0.00     0.049 A 
ATOM     61  H   UNL A   1      42.773  29.225  28.652  1.00  0.00     0.167 HD
ATOM     62  C   UNL A   1      45.218  32.862  28.624  1.00  0.00     0.037 A 
ATOM     63  C   UNL A   1      42.148  26.606  27.905  1.00  0.00     0.037 A 
ATOM     64  C   UNL A   1      46.019  31.861  27.971  1.00  0.00     0.049 A 
ATOM     65  C   UNL A   1      43.522  26.885  27.356  1.00  0.00     0.074 A 
ATOM     66  C   UNL A   1      47.314  31.969  27.494  1.00  0.00     0.029 A 
ATOM     67  N   UNL A   1      45.600  30.566  27.699  1.00  0.00    -0.354 N 
ATOM     68  N   UNL A   1      44.238  27.980  27.432  1.00  0.00    -0.248 NA
ATOM     69  C   UNL A   1      44.180  25.790  26.629  1.00  0.00     0.031 C 
ATOM     70  C   UNL A   1      47.656  30.760  26.880  1.00  0.00     0.029 A 
ATOM     71  C   UNL A   1      46.602  29.875  27.036  1.00  0.00     0.049 A 
ATOM     72  H   UNL A   1      44.721  30.194  27.941  1.00  0.00     0.167 HD
ATOM     73  C   UNL A   1      45.442  27.696  26.801  1.00  0.00     0.074 A 
ATOM     74  C   UNL A   1      45.363  26.321  26.353  1.00  0.00     0.031 C 
ATOM     75  C   UNL A   1      46.517  28.500  26.612  1.00  0.00     0.037 A 
BRANCH  62  76
ATOM     76  C   UNL A   1      45.791  34.243  28.778  1.00  0.00     0.064 A 
ATOM     77  C   UNL A   1      45.614  35.231  27.797  1.00  0.00     0.173 A 
ATOM     78  C   UNL A   1      46.497  34.594  29.939  1.00  0.00     0.173 A 
ATOM     79  F   UNL A   1      44.956  34.946  26.664  1.00  0.00    -0.203 F 
ATOM     80  C   UNL A   1      46.147  36.507  27.959  1.00  0.00     0.198 A 
ATOM     81  C   UNL A   1      46.998  35.881  30.113  1.00  0.00     0.198 A 
ATOM     82  F   UNL A   1      46.691  33.691  30.913  1.00  0.00    -0.203 F 
ATOM     83  F   UNL A   1      46.011  37.416  26.984  1.00  0.00    -0.200 F 
ATOM     84  C   UNL A   1      46.832  36.833  29.120  1.00  0.00     0.200 A 
ATOM     85  F   UNL A   1      47.645  36.199  31.243  1.00  0.00    -0.200 F 
ATOM     86  F   UNL A   1      47.337  38.065  29.278  1.00  0.00    -0.200 F 
ENDBRANCH  62  76
BRANCH  63  87
ATOM     87  C   UNL A   1      41.504  25.280  27.709  1.00  0.00     0.064 A 
ATOM     88  C   UNL A   1      40.439  25.123  26.810  1.00  0.00     0.173 A 
ATOM     89  C   UNL A   1      41.930  24.147  28.417  1.00  0.00     0.173 A 
ATOM     90  F   UNL A   1      39.982  26.180  26.123  1.00  0.00    -0.203 F 
ATOM     91  C   UNL A   1      39.808  23.891  26.646  1.00  0.00     0.198 A 
ATOM     92  C   UNL A   1      41.321  22.908  28.228  1.00  0.00     0.198 A 
ATOM     93  F   UNL A   1      42.949  24.240  29.284  1.00  0.00    -0.203 F 
ATOM     94  F   UNL A   1      38.760  23.782  25.821  1.00  0.00    -0.200 F 
ATOM     95  C   UNL A   1      40.254  22.783  27.352  1.00  0.00     0.200 A 
ATOM     96  F   UNL A   1      41.766  21.836  28.899  1.00  0.00    -0.200 F 
ATOM     97  F   UNL A   1      39.651  21.598  27.192  1.00  0.00    -0.200 F 
ENDBRANCH  63  87
BRANCH  75  98
ATOM     98  C   UNL A   1      47.723  27.903  25.944  1.00  0.00     0.064 A 
ATOM     99  C   UNL A   1      47.832  27.813  24.550  1.00  0.00     0.173 A 
ATOM    100  C   UNL A   1      48.810  27.461  26.717  1.00  0.00     0.173 A 
ATOM    101  F   UNL A   1      46.817  28.207  23.766  1.00  0.00    -0.203 F 
ATOM    102  C   UNL A   1      48.975  27.285  23.954  1.00  0.00     0.198 A 
ATOM    103  C   UNL A   1      49.962  26.966  26.118  1.00  0.00     0.198 A 
ATOM    104  F   UNL A   1      48.759  27.530  28.056  1.00  0.00    -0.203 F 
ATOM    105  F   UNL A   1      49.038  27.166  22.621  1.00  0.00    -0.200 F 
ATOM    106  C   UNL A   1      50.042  26.870  24.737  1.00  0.00     0.200 A 
ATOM    107  F   UNL A   1      51.000  26.583  26.876  1.00  0.00    -0.200 F 
ATOM    108  F   UNL A   1      51.145  26.375  24.160  1.00  0.00    -0.200 F 
ENDBRANCH  75  98
ENDBRANCH  49  50
ENDBRANCH  41  44
ENDBRANCH  39  40
ENDBRANCH  38  39
ENDBRANCH  37  38
ENDBRANCH  36  37
ENDBRANCH   1  36
TORSDOF 20
ENDMDL
MODEL 3
REMARK VINA RESULT:     -11.3      7.195     12.827
REMARK SMILES CC(C)C[C@H](NC(=O)[C@@H](NC(=O)N1CC(NCCCCCCNC(=O)c2ccc(-c3c4nc(c(-c5c(F)c(F)c(F)c(F)c5F)c5ccc([nH]5)c(-c5c(F)c(F)c(F)c(F)c5F)c5nc(c(-c6c(F)c(F)c(F)c(F)c6F)c6ccc3[nH]6)C=C5)C=C4)cc2)=[NH+]c2ccccc21)C(C)C)C(=O)[O-]
REMARK SMILES IDX 18 1 17 2 16 3 13 4 14 5 95 6 15 7 90 8 94 9 89 10 91 11
REMARK SMILES IDX 93 12 92 15 11 16 10 17 12 19 9 20 7 21 6 22 8 24 5 25 4 26
REMARK SMILES IDX 2 27 1 28 3 29 99 30 100 31 101 32 96 33 97 34 98 35 19 36
REMARK SMILES IDX 20 37 21 38 22 39 23 40 24 41 25 43 26 44 27 45 88 46 28 47
REMARK SMILES IDX 87 48 29 49 30 50 31 51 81 52 32 53 86 54 80 55 82 56 33 57
REMARK SMILES IDX 85 58 79 59 78 60 34 62 66 63 46 64 65 65 47 66 50 67 64 68
REMARK SMILES IDX 83 69 48 70 49 71 63 73 84 74 51 75 35 76 36 77 44 78 37 79
REMARK SMILES IDX 38 80 42 81 45 82 39 83 40 84 43 85 41 86 67 87 68 88 76 89
REMARK SMILES IDX 69 90 70 91 74 92 77 93 71 94 72 95 75 96 73 97 52 98 53 99
REMARK SMILES IDX 61 100 54 101 55 102 59 103 62 104 56 105 57 106 60 107
REMARK SMILES IDX 58 108
REMARK H PARENT 16 13 89 14 10 18 6 23 23 42 82 61 50 72
REMARK Flexibility Score: inf
ROOT
ATOM      1  C   UNL A   1      40.091  28.929  28.096  1.00  0.00     0.046 C 
ENDROOT
BRANCH   1   2
ATOM      2  C   UNL A   1      39.607  29.210  29.524  1.00  0.00     0.233 C 
BRANCH   2   3
ATOM      3  N   UNL A   1      38.214  29.567  29.489  1.00  0.00    -0.277 N 
ATOM      4  N   UNL A   1      37.482  33.186  29.813  1.00  0.00    -0.278 N 
ATOM      5  C   UNL A   1      38.363  32.125  29.302  1.00  0.00     0.255 C 
ATOM      6  C   UNL A   1      36.239  33.197  29.125  1.00  0.00     0.093 A 
ATOM      7  C   UNL A   1      37.605  30.785  29.328  1.00  0.00     0.268 C 
ATOM      8  C   UNL A   1      35.648  31.943  28.875  1.00  0.00     0.148 A 
ATOM      9  C   UNL A   1      35.613  34.367  28.696  1.00  0.00     0.031 A 
ATOM     10  N   UNL A   1      36.310  30.732  29.147  1.00  0.00    -0.241 N 
ATOM     11  C   UNL A   1      34.352  31.893  28.368  1.00  0.00     0.054 A 
ATOM     12  C   UNL A   1      34.336  34.298  28.132  1.00  0.00     0.002 A 
ATOM     13  H   UNL A   1      37.595  28.810  29.600  1.00  0.00     0.304 HD
ATOM     14  H   UNL A   1      35.819  29.881  29.198  1.00  0.00     0.312 HD
ATOM     15  C   UNL A   1      33.690  33.067  28.010  1.00  0.00     0.005 A 
BRANCH   4  16
ATOM     16  C   UNL A   1      38.010  34.276  30.434  1.00  0.00     0.323 C 
ATOM     17  N   UNL A   1      37.477  34.763  31.590  1.00  0.00    -0.326 N 
ATOM     18  H   UNL A   1      37.924  35.607  31.830  1.00  0.00     0.166 HD
ATOM     19  O   UNL A   1      39.068  34.785  30.055  1.00  0.00    -0.248 OA
BRANCH  17  20
ATOM     20  C   UNL A   1      36.436  34.436  32.617  1.00  0.00     0.175 C 
BRANCH  20  21
ATOM     21  C   UNL A   1      36.819  33.621  33.898  1.00  0.00     0.243 C 
ATOM     22  N   UNL A   1      37.418  32.408  33.924  1.00  0.00    -0.346 N 
ATOM     23  H   UNL A   1      37.401  31.978  34.809  1.00  0.00     0.164 HD
ATOM     24  O   UNL A   1      36.445  34.038  35.005  1.00  0.00    -0.273 OA
BRANCH  22  25
ATOM     25  C   UNL A   1      38.086  31.610  32.896  1.00  0.00     0.128 C 
BRANCH  25  26
ATOM     26  C   UNL A   1      39.584  31.908  32.957  1.00  0.00     0.034 C 
BRANCH  26  27
ATOM     27  C   UNL A   1      40.633  31.002  32.310  1.00  0.00    -0.015 C 
ATOM     28  C   UNL A   1      41.507  31.742  31.319  1.00  0.00     0.007 C 
ATOM     29  C   UNL A   1      41.514  30.438  33.434  1.00  0.00     0.007 C 
ENDBRANCH  26  27
ENDBRANCH  25  26
BRANCH  25  30
ATOM     30  C   UNL A   1      37.765  30.133  33.148  1.00  0.00     0.064 C 
ATOM     31  O   UNL A   1      38.198  29.444  34.058  1.00  0.00    -0.548 OA
ATOM     32  O   UNL A   1      36.861  29.624  32.284  1.00  0.00    -0.548 OA
ENDBRANCH  25  30
ENDBRANCH  22  25
ENDBRANCH  20  21
BRANCH  20  33
ATOM     33  C   UNL A   1      35.008  34.142  32.115  1.00  0.00     0.015 C 
ATOM     34  C   UNL A   1      34.454  32.740  32.391  1.00  0.00     0.010 C 
ATOM     35  C   UNL A   1      34.045  35.142  32.773  1.00  0.00     0.010 C 
ENDBRANCH  20  33
ENDBRANCH  17  20
ENDBRANCH   4  16
ENDBRANCH   2   3
ENDBRANCH   1   2
BRANCH   1  36
ATOM     36  C   UNL A   1      40.433  27.468  27.795  1.00  0.00     0.004 C 
BRANCH  36  37
ATOM     37  C   UNL A   1      39.770  26.443  28.717  1.00  0.00     0.002 C 
BRANCH  37  38
ATOM     38  C   UNL A   1      39.396  25.112  28.058  1.00  0.00     0.021 C 
BRANCH  38  39
ATOM     39  C   UNL A   1      39.804  24.985  26.593  1.00  0.00     0.116 C 
BRANCH  39  40
ATOM     40  N   UNL A   1      40.581  23.780  26.341  1.00  0.00    -0.352 N 
ATOM     41  C   UNL A   1      41.922  23.651  26.080  1.00  0.00     0.251 C 
ATOM     42  H   UNL A   1      40.072  22.937  26.361  1.00  0.00     0.163 HD
ATOM     43  O   UNL A   1      42.380  22.583  25.677  1.00  0.00    -0.269 OA
BRANCH  41  44
ATOM     44  C   UNL A   1      42.818  24.809  26.268  1.00  0.00     0.039 A 
ATOM     45  C   UNL A   1      43.343  25.068  27.537  1.00  0.00     0.014 A 
ATOM     46  C   UNL A   1      43.146  25.631  25.187  1.00  0.00     0.014 A 
ATOM     47  C   UNL A   1      44.256  26.111  27.705  1.00  0.00     0.010 A 
ATOM     48  C   UNL A   1      44.112  26.619  25.341  1.00  0.00     0.010 A 
ATOM     49  C   UNL A   1      44.679  26.869  26.601  1.00  0.00    -0.014 A 
BRANCH  49  50
ATOM     50  C   UNL A   1      45.720  27.921  26.732  1.00  0.00     0.031 A 
ATOM     51  C   UNL A   1      45.322  29.344  27.009  1.00  0.00     0.074 A 
ATOM     52  C   UNL A   1      47.013  27.612  26.516  1.00  0.00     0.049 A 
ATOM     53  N   UNL A   1      46.064  30.421  27.044  1.00  0.00    -0.248 NA
ATOM     54  C   UNL A   1      43.892  29.591  27.251  1.00  0.00     0.031 C 
ATOM     55  C   UNL A   1      47.522  26.276  26.201  1.00  0.00     0.029 A 
ATOM     56  N   UNL A   1      48.136  28.404  26.508  1.00  0.00    -0.354 N 
ATOM     57  C   UNL A   1      45.192  31.473  27.295  1.00  0.00     0.074 A 
ATOM     58  C   UNL A   1      43.859  30.912  27.349  1.00  0.00     0.031 C 
ATOM     59  C   UNL A   1      48.855  26.338  26.048  1.00  0.00     0.029 A 
ATOM     60  C   UNL A   1      49.290  27.723  26.205  1.00  0.00     0.049 A 
ATOM     61  H   UNL A   1      48.114  29.369  26.702  1.00  0.00     0.167 HD
ATOM     62  C   UNL A   1      45.480  32.783  27.485  1.00  0.00     0.037 A 
ATOM     63  C   UNL A   1      50.552  28.167  26.053  1.00  0.00     0.037 A 
ATOM     64  C   UNL A   1      46.810  33.330  27.447  1.00  0.00     0.049 A 
ATOM     65  C   UNL A   1      50.841  29.633  26.242  1.00  0.00     0.074 A 
ATOM     66  C   UNL A   1      47.212  34.634  27.677  1.00  0.00     0.029 A 
ATOM     67  N   UNL A   1      47.956  32.605  27.153  1.00  0.00    -0.354 N 
ATOM     68  N   UNL A   1      50.018  30.608  26.539  1.00  0.00    -0.248 NA
ATOM     69  C   UNL A   1      52.238  30.059  26.078  1.00  0.00     0.031 C 
ATOM     70  C   UNL A   1      48.593  34.710  27.464  1.00  0.00     0.029 A 
ATOM     71  C   UNL A   1      49.062  33.441  27.170  1.00  0.00     0.049 A 
ATOM     72  H   UNL A   1      47.980  31.639  26.961  1.00  0.00     0.167 HD
ATOM     73  C   UNL A   1      50.799  31.752  26.639  1.00  0.00     0.074 A 
ATOM     74  C   UNL A   1      52.164  31.349  26.375  1.00  0.00     0.031 C 
ATOM     75  C   UNL A   1      50.419  33.021  26.925  1.00  0.00     0.037 A 
BRANCH  62  76
ATOM     76  C   UNL A   1      44.333  33.718  27.746  1.00  0.00     0.064 A 
ATOM     77  C   UNL A   1      43.787  33.878  29.029  1.00  0.00     0.173 A 
ATOM     78  C   UNL A   1      43.796  34.492  26.706  1.00  0.00     0.173 A 
ATOM     79  F   UNL A   1      44.256  33.156  30.057  1.00  0.00    -0.203 F 
ATOM     80  C   UNL A   1      42.728  34.754  29.254  1.00  0.00     0.198 A 
ATOM     81  C   UNL A   1      42.760  35.393  26.942  1.00  0.00     0.198 A 
ATOM     82  F   UNL A   1      44.283  34.384  25.460  1.00  0.00    -0.203 F 
ATOM     83  F   UNL A   1      42.188  34.849  30.477  1.00  0.00    -0.200 F 
ATOM     84  C   UNL A   1      42.221  35.516  28.212  1.00  0.00     0.200 A 
ATOM     85  F   UNL A   1      42.283  36.140  25.936  1.00  0.00    -0.200 F 
ATOM     86  F   UNL A   1      41.207  36.365  28.433  1.00  0.00    -0.200 F 
ENDBRANCH  62  76
BRANCH  63  87
ATOM     87  C   UNL A   1      51.642  27.213  25.715  1.00  0.00     0.064 A 
ATOM     88  C   UNL A   1      52.376  26.573  26.723  1.00  0.00     0.173 A 
ATOM     89  C   UNL A   1      51.979  26.928  24.383  1.00  0.00     0.173 A 
ATOM     90  F   UNL A   1      52.105  26.826  28.012  1.00  0.00    -0.203 F 
ATOM     91  C   UNL A   1      53.421  25.704  26.414  1.00  0.00     0.198 A 
ATOM     92  C   UNL A   1      53.002  26.034  24.075  1.00  0.00     0.198 A 
ATOM     93  F   UNL A   1      51.304  27.509  23.380  1.00  0.00    -0.203 F 
ATOM     94  F   UNL A   1      54.140  25.147  27.397  1.00  0.00    -0.200 F 
ATOM     95  C   UNL A   1      53.729  25.431  25.089  1.00  0.00     0.200 A 
ATOM     96  F   UNL A   1      53.285  25.760  22.794  1.00  0.00    -0.200 F 
ATOM     97  F   UNL A   1      54.732  24.594  24.792  1.00  0.00    -0.200 F 
ENDBRANCH  63  87
BRANCH  75  98
ATOM     98  C   UNL A   1      51.497  34.063  27.029  1.00  0.00     0.064 A 
ATOM     99  C   UNL A   1      52.216  34.272  28.213  1.00  0.00     0.173 A 
ATOM    100  C   UNL A   1      51.849  34.826  25.904  1.00  0.00     0.173 A 
ATOM    101  F   UNL A   1      51.910  33.579  29.321  1.00  0.00    -0.203 F 
ATOM    102  C   UNL A   1      53.233  35.222  28.275  1.00  0.00     0.198 A 
ATOM    103  C   UNL A   1      52.888  35.750  25.960  1.00  0.00     0.198 A 
ATOM    104  F   UNL A   1      51.197  34.661  24.743  1.00  0.00    -0.203 F 
ATOM    105  F   UNL A   1      53.875  35.438  29.431  1.00  0.00    -0.200 F 
ATOM    106  C   UNL A   1      53.574  35.953  27.147  1.00  0.00     0.200 A 
ATOM    107  F   UNL A   1      53.228  36.442  24.863  1.00  0.00    -0.200 F 
ATOM    108  F   UNL A   1      54.562  36.857  27.206  1.00  0.00    -0.200 F 
ENDBRANCH  75  98
ENDBRANCH  49  50
ENDBRANCH  41  44
ENDBRANCH  39  40
ENDBRANCH  38  39
ENDBRANCH  37  38
ENDBRANCH  36  37
ENDBRANCH   1  36
TORSDOF 20
ENDMDL
