MODEL 1
REMARK VINA RESULT:     -10.4      0.000      0.000
REMARK SMILES CC(C)CN(C)/C=C\C(=O)NCCCCCCNC(=O)c1ccc(-c2c3nc(c(-c4c(F)c(F)c(F)c(F)c4F)c4ccc([nH]4)c(-c4c(F)c(F)c(F)c(F)c4F)c4nc(c(-c5c(F)c(F)c(F)c(F)c5F)c5ccc2[nH]5)C=C4)C=C3)cc1
REMARK SMILES IDX 14 1 13 2 12 3 11 4 9 5 10 6 8 8 7 9 5 10 6 11 4 12 2 13
REMARK SMILES IDX 1 14 3 15 15 16 16 17 17 18 18 19 19 20 20 22 21 23 22 24
REMARK SMILES IDX 83 25 23 26 82 27 24 28 25 29 26 30 76 31 27 32 81 33 75 34
REMARK SMILES IDX 77 35 28 36 80 37 74 38 73 39 29 41 61 42 41 43 60 44 42 45
REMARK SMILES IDX 45 46 59 47 78 48 43 49 44 50 58 52 79 53 46 54 30 55 31 56
REMARK SMILES IDX 39 57 32 58 33 59 37 60 40 61 34 62 35 63 38 64 36 65 62 66
REMARK SMILES IDX 63 67 71 68 64 69 65 70 69 71 72 72 66 73 67 74 70 75 68 76
REMARK SMILES IDX 47 77 48 78 56 79 49 80 50 81 54 82 57 83 51 84 52 85 55 86
REMARK SMILES IDX 53 87
REMARK H PARENT 11 7 18 21 77 40 45 51
REMARK Flexibility Score: inf
ROOT
ATOM      1  C   UNL A   1      32.360  29.953  26.872  1.00  0.00     0.002 C 
ENDROOT
BRANCH   1   2
ATOM      2  C   UNL A   1      31.777  28.602  27.315  1.00  0.00     0.021 C 
BRANCH   2   3
ATOM      3  C   UNL A   1      31.439  27.616  26.192  1.00  0.00     0.116 C 
BRANCH   3   4
ATOM      4  N   UNL A   1      31.067  26.282  26.634  1.00  0.00    -0.353 N 
ATOM      5  C   UNL A   1      31.791  25.126  26.647  1.00  0.00     0.245 C 
ATOM      6  O   UNL A   1      31.386  24.157  27.284  1.00  0.00    -0.270 OA
ATOM      7  H   UNL A   1      30.148  26.200  26.978  1.00  0.00     0.163 HD
BRANCH   5   8
ATOM      8  C   UNL A   1      33.084  25.051  25.938  1.00  0.00     0.088 C 
ATOM      9  C   UNL A   1      33.253  24.680  24.661  1.00  0.00     0.086 C 
BRANCH   9  10
ATOM     10  N   UNL A   1      32.350  24.249  23.696  1.00  0.00    -0.380 N 
ATOM     11  C   UNL A   1      32.155  22.811  23.498  1.00  0.00     0.143 C 
BRANCH  10  12
ATOM     12  C   UNL A   1      31.807  25.168  22.679  1.00  0.00     0.118 C 
BRANCH  12  13
ATOM     13  C   UNL A   1      32.138  26.652  22.860  1.00  0.00     0.002 C 
ATOM     14  C   UNL A   1      33.348  27.038  22.013  1.00  0.00     0.009 C 
ATOM     15  C   UNL A   1      30.908  27.460  22.420  1.00  0.00     0.009 C 
ENDBRANCH  12  13
ENDBRANCH  10  12
ENDBRANCH   9  10
ENDBRANCH   5   8
ENDBRANCH   3   4
ENDBRANCH   2   3
ENDBRANCH   1   2
BRANCH   1  16
ATOM     16  C   UNL A   1      31.401  30.825  26.057  1.00  0.00     0.002 C 
BRANCH  16  17
ATOM     17  C   UNL A   1      31.332  32.292  26.493  1.00  0.00     0.021 C 
BRANCH  17  18
ATOM     18  C   UNL A   1      32.597  32.810  27.174  1.00  0.00     0.116 C 
BRANCH  18  19
ATOM     19  N   UNL A   1      32.445  34.196  27.585  1.00  0.00    -0.352 N 
ATOM     20  C   UNL A   1      33.048  34.829  28.641  1.00  0.00     0.251 C 
ATOM     21  H   UNL A   1      31.836  34.746  27.041  1.00  0.00     0.163 HD
ATOM     22  O   UNL A   1      32.620  35.903  29.064  1.00  0.00    -0.269 OA
BRANCH  20  23
ATOM     23  C   UNL A   1      34.223  34.203  29.277  1.00  0.00     0.039 A 
ATOM     24  C   UNL A   1      34.037  33.290  30.317  1.00  0.00     0.014 A 
ATOM     25  C   UNL A   1      35.513  34.523  28.836  1.00  0.00     0.014 A 
ATOM     26  C   UNL A   1      35.147  32.670  30.892  1.00  0.00     0.010 A 
ATOM     27  C   UNL A   1      36.612  33.852  29.364  1.00  0.00     0.010 A 
ATOM     28  C   UNL A   1      36.441  32.931  30.409  1.00  0.00    -0.014 A 
BRANCH  28  29
ATOM     29  C   UNL A   1      37.621  32.257  31.006  1.00  0.00     0.031 A 
ATOM     30  C   UNL A   1      38.096  32.637  32.382  1.00  0.00     0.074 A 
ATOM     31  C   UNL A   1      38.283  31.322  30.297  1.00  0.00     0.049 A 
ATOM     32  N   UNL A   1      39.091  32.149  33.078  1.00  0.00    -0.248 NA
ATOM     33  C   UNL A   1      37.375  33.729  33.054  1.00  0.00     0.031 C 
ATOM     34  C   UNL A   1      37.959  30.915  28.929  1.00  0.00     0.029 A 
ATOM     35  N   UNL A   1      39.363  30.544  30.629  1.00  0.00    -0.354 N 
ATOM     36  C   UNL A   1      39.116  32.874  34.262  1.00  0.00     0.074 A 
ATOM     37  C   UNL A   1      38.079  33.878  34.166  1.00  0.00     0.031 C 
ATOM     38  C   UNL A   1      38.802  29.940  28.550  1.00  0.00     0.029 A 
ATOM     39  C   UNL A   1      39.739  29.671  29.637  1.00  0.00     0.049 A 
ATOM     40  H   UNL A   1      39.826  30.606  31.496  1.00  0.00     0.167 HD
ATOM     41  C   UNL A   1      39.914  32.701  35.344  1.00  0.00     0.037 A 
ATOM     42  C   UNL A   1      40.722  28.752  29.612  1.00  0.00     0.037 A 
ATOM     43  C   UNL A   1      40.929  31.686  35.445  1.00  0.00     0.049 A 
ATOM     44  C   UNL A   1      41.579  28.565  30.835  1.00  0.00     0.074 A 
ATOM     45  C   UNL A   1      41.747  31.386  36.520  1.00  0.00     0.029 A 
ATOM     46  N   UNL A   1      41.268  30.805  34.427  1.00  0.00    -0.354 N 
ATOM     47  N   UNL A   1      41.537  29.200  31.982  1.00  0.00    -0.248 NA
ATOM     48  C   UNL A   1      42.613  27.523  30.764  1.00  0.00     0.031 C 
ATOM     49  C   UNL A   1      42.612  30.353  36.137  1.00  0.00     0.029 A 
ATOM     50  C   UNL A   1      42.297  29.976  34.841  1.00  0.00     0.049 A 
ATOM     51  H   UNL A   1      40.839  30.775  33.541  1.00  0.00     0.167 HD
ATOM     52  C   UNL A   1      42.517  28.620  32.775  1.00  0.00     0.074 A 
ATOM     53  C   UNL A   1      43.121  27.566  31.987  1.00  0.00     0.031 C 
ATOM     54  C   UNL A   1      42.888  28.933  34.041  1.00  0.00     0.037 A 
BRANCH  41  55
ATOM     55  C   UNL A   1      39.716  33.627  36.510  1.00  0.00     0.064 A 
ATOM     56  C   UNL A   1      38.879  33.289  37.584  1.00  0.00     0.173 A 
ATOM     57  C   UNL A   1      40.400  34.851  36.574  1.00  0.00     0.173 A 
ATOM     58  F   UNL A   1      38.191  32.136  37.567  1.00  0.00    -0.203 F 
ATOM     59  C   UNL A   1      38.712  34.151  38.665  1.00  0.00     0.198 A 
ATOM     60  C   UNL A   1      40.256  35.697  37.671  1.00  0.00     0.198 A 
ATOM     61  F   UNL A   1      41.216  35.223  35.577  1.00  0.00    -0.203 F 
ATOM     62  F   UNL A   1      37.870  33.826  39.655  1.00  0.00    -0.200 F 
ATOM     63  C   UNL A   1      39.406  35.350  38.711  1.00  0.00     0.200 A 
ATOM     64  F   UNL A   1      40.937  36.849  37.720  1.00  0.00    -0.200 F 
ATOM     65  F   UNL A   1      39.253  36.174  39.756  1.00  0.00    -0.200 F 
ENDBRANCH  41  55
BRANCH  42  66
ATOM     66  C   UNL A   1      40.925  27.912  28.403  1.00  0.00     0.064 A 
ATOM     67  C   UNL A   1      41.760  28.337  27.361  1.00  0.00     0.173 A 
ATOM     68  C   UNL A   1      40.284  26.672  28.260  1.00  0.00     0.173 A 
ATOM     69  F   UNL A   1      42.381  29.523  27.442  1.00  0.00    -0.203 F 
ATOM     70  C   UNL A   1      41.928  27.567  26.211  1.00  0.00     0.198 A 
ATOM     71  C   UNL A   1      40.475  25.890  27.123  1.00  0.00     0.198 A 
ATOM     72  F   UNL A   1      39.479  26.217  29.231  1.00  0.00    -0.203 F 
ATOM     73  F   UNL A   1      42.693  28.020  25.210  1.00  0.00    -0.200 F 
ATOM     74  C   UNL A   1      41.289  26.342  26.096  1.00  0.00     0.200 A 
ATOM     75  F   UNL A   1      39.868  24.699  27.023  1.00  0.00    -0.200 F 
ATOM     76  F   UNL A   1      41.453  25.600  24.992  1.00  0.00    -0.200 F 
ENDBRANCH  42  66
BRANCH  54  77
ATOM     77  C   UNL A   1      43.981  28.109  34.656  1.00  0.00     0.064 A 
ATOM     78  C   UNL A   1      45.332  28.469  34.533  1.00  0.00     0.173 A 
ATOM     79  C   UNL A   1      43.675  26.954  35.392  1.00  0.00     0.173 A 
ATOM     80  F   UNL A   1      45.679  29.556  33.827  1.00  0.00    -0.203 F 
ATOM     81  C   UNL A   1      46.336  27.683  35.091  1.00  0.00     0.198 A 
ATOM     82  C   UNL A   1      44.679  26.189  35.977  1.00  0.00     0.198 A 
ATOM     83  F   UNL A   1      42.399  26.571  35.549  1.00  0.00    -0.203 F 
ATOM     84  F   UNL A   1      47.622  28.013  34.908  1.00  0.00    -0.200 F 
ATOM     85  C   UNL A   1      46.009  26.547  35.817  1.00  0.00     0.200 A 
ATOM     86  F   UNL A   1      44.361  25.100  36.691  1.00  0.00    -0.200 F 
ATOM     87  F   UNL A   1      46.977  25.792  36.353  1.00  0.00    -0.200 F 
ENDBRANCH  54  77
ENDBRANCH  28  29
ENDBRANCH  20  23
ENDBRANCH  18  19
ENDBRANCH  17  18
ENDBRANCH  16  17
ENDBRANCH   1  16
TORSDOF 16
ENDMDL
MODEL 2
REMARK VINA RESULT:     -10.4      5.805     11.312
REMARK SMILES CC(C)CN(C)/C=C\C(=O)NCCCCCCNC(=O)c1ccc(-c2c3nc(c(-c4c(F)c(F)c(F)c(F)c4F)c4ccc([nH]4)c(-c4c(F)c(F)c(F)c(F)c4F)c4nc(c(-c5c(F)c(F)c(F)c(F)c5F)c5ccc2[nH]5)C=C4)C=C3)cc1
REMARK SMILES IDX 14 1 13 2 12 3 11 4 9 5 10 6 8 8 7 9 5 10 6 11 4 12 2 13
REMARK SMILES IDX 1 14 3 15 15 16 16 17 17 18 18 19 19 20 20 22 21 23 22 24
REMARK SMILES IDX 83 25 23 26 82 27 24 28 25 29 26 30 76 31 27 32 81 33 75 34
REMARK SMILES IDX 77 35 28 36 80 37 74 38 73 39 29 41 61 42 41 43 60 44 42 45
REMARK SMILES IDX 45 46 59 47 78 48 43 49 44 50 58 52 79 53 46 54 30 55 31 56
REMARK SMILES IDX 39 57 32 58 33 59 37 60 40 61 34 62 35 63 38 64 36 65 62 66
REMARK SMILES IDX 63 67 71 68 64 69 65 70 69 71 72 72 66 73 67 74 70 75 68 76
REMARK SMILES IDX 47 77 48 78 56 79 49 80 50 81 54 82 57 83 51 84 52 85 55 86
REMARK SMILES IDX 53 87
REMARK H PARENT 11 7 18 21 77 40 45 51
REMARK Flexibility Score: inf
ROOT
ATOM      1  C   UNL A   1      37.311  21.884  24.924  1.00  0.00     0.002 C 
ENDROOT
BRANCH   1   2
ATOM      2  C   UNL A   1      36.288  22.891  24.377  1.00  0.00     0.021 C 
BRANCH   2   3
ATOM      3  C   UNL A   1      34.823  22.628  24.745  1.00  0.00     0.116 C 
BRANCH   3   4
ATOM      4  N   UNL A   1      33.941  22.367  23.619  1.00  0.00    -0.353 N 
ATOM      5  C   UNL A   1      32.784  21.649  23.557  1.00  0.00     0.245 C 
ATOM      6  O   UNL A   1      32.054  21.747  22.573  1.00  0.00    -0.270 OA
ATOM      7  H   UNL A   1      34.225  22.772  22.768  1.00  0.00     0.163 HD
BRANCH   5   8
ATOM      8  C   UNL A   1      32.379  20.792  24.689  1.00  0.00     0.088 C 
ATOM      9  C   UNL A   1      32.595  19.472  24.784  1.00  0.00     0.086 C 
BRANCH   9  10
ATOM     10  N   UNL A   1      33.181  18.566  23.910  1.00  0.00    -0.380 N 
ATOM     11  C   UNL A   1      32.425  18.120  22.737  1.00  0.00     0.143 C 
BRANCH  10  12
ATOM     12  C   UNL A   1      34.404  17.824  24.269  1.00  0.00     0.118 C 
BRANCH  12  13
ATOM     13  C   UNL A   1      34.216  16.354  24.653  1.00  0.00     0.002 C 
ATOM     14  C   UNL A   1      35.468  15.816  25.342  1.00  0.00     0.009 C 
ATOM     15  C   UNL A   1      33.013  16.271  25.605  1.00  0.00     0.009 C 
ENDBRANCH  12  13
ENDBRANCH  10  12
ENDBRANCH   9  10
ENDBRANCH   5   8
ENDBRANCH   3   4
ENDBRANCH   2   3
ENDBRANCH   1   2
BRANCH   1  16
ATOM     16  C   UNL A   1      36.986  20.418  24.624  1.00  0.00     0.002 C 
BRANCH  16  17
ATOM     17  C   UNL A   1      38.076  19.420  25.027  1.00  0.00     0.021 C 
BRANCH  17  18
ATOM     18  C   UNL A   1      39.269  20.043  25.749  1.00  0.00     0.116 C 
BRANCH  18  19
ATOM     19  N   UNL A   1      40.344  19.079  25.920  1.00  0.00    -0.352 N 
ATOM     20  C   UNL A   1      41.685  19.334  26.055  1.00  0.00     0.251 C 
ATOM     21  H   UNL A   1      40.079  18.131  25.941  1.00  0.00     0.163 HD
ATOM     22  O   UNL A   1      42.517  18.442  25.894  1.00  0.00    -0.269 OA
BRANCH  20  23
ATOM     23  C   UNL A   1      42.127  20.700  26.392  1.00  0.00     0.039 A 
ATOM     24  C   UNL A   1      42.371  21.616  25.367  1.00  0.00     0.014 A 
ATOM     25  C   UNL A   1      42.295  21.073  27.731  1.00  0.00     0.014 A 
ATOM     26  C   UNL A   1      42.751  22.920  25.688  1.00  0.00     0.010 A 
ATOM     27  C   UNL A   1      42.606  22.391  28.050  1.00  0.00     0.010 A 
ATOM     28  C   UNL A   1      42.854  23.324  27.031  1.00  0.00    -0.014 A 
BRANCH  28  29
ATOM     29  C   UNL A   1      43.239  24.715  27.375  1.00  0.00     0.031 A 
ATOM     30  C   UNL A   1      44.639  25.200  27.117  1.00  0.00     0.074 A 
ATOM     31  C   UNL A   1      42.335  25.534  27.946  1.00  0.00     0.049 A 
ATOM     32  N   UNL A   1      45.157  26.384  27.329  1.00  0.00    -0.248 NA
ATOM     33  C   UNL A   1      45.592  24.219  26.575  1.00  0.00     0.031 C 
ATOM     34  C   UNL A   1      40.966  25.159  28.305  1.00  0.00     0.029 A 
ATOM     35  N   UNL A   1      42.428  26.850  28.323  1.00  0.00    -0.354 N 
ATOM     36  C   UNL A   1      46.490  26.286  26.952  1.00  0.00     0.074 A 
ATOM     37  C   UNL A   1      46.720  24.914  26.557  1.00  0.00     0.031 C 
ATOM     38  C   UNL A   1      40.339  26.229  28.821  1.00  0.00     0.029 A 
ATOM     39  C   UNL A   1      41.267  27.356  28.851  1.00  0.00     0.049 A 
ATOM     40  H   UNL A   1      43.252  27.381  28.224  1.00  0.00     0.167 HD
ATOM     41  C   UNL A   1      47.432  27.260  26.912  1.00  0.00     0.037 A 
ATOM     42  C   UNL A   1      40.980  28.593  29.299  1.00  0.00     0.037 A 
ATOM     43  C   UNL A   1      47.193  28.630  27.283  1.00  0.00     0.049 A 
ATOM     44  C   UNL A   1      42.037  29.662  29.222  1.00  0.00     0.074 A 
ATOM     45  C   UNL A   1      48.060  29.707  27.217  1.00  0.00     0.029 A 
ATOM     46  N   UNL A   1      45.996  29.112  27.794  1.00  0.00    -0.354 N 
ATOM     47  N   UNL A   1      43.269  29.578  28.782  1.00  0.00    -0.248 NA
ATOM     48  C   UNL A   1      41.657  31.001  29.692  1.00  0.00     0.031 C 
ATOM     49  C   UNL A   1      47.402  30.830  27.731  1.00  0.00     0.029 A 
ATOM     50  C   UNL A   1      46.109  30.465  28.069  1.00  0.00     0.049 A 
ATOM     51  H   UNL A   1      45.186  28.570  27.940  1.00  0.00     0.167 HD
ATOM     52  C   UNL A   1      43.803  30.854  28.898  1.00  0.00     0.074 A 
ATOM     53  C   UNL A   1      42.752  31.699  29.428  1.00  0.00     0.031 C 
ATOM     54  C   UNL A   1      45.052  31.289  28.598  1.00  0.00     0.037 A 
BRANCH  41  55
ATOM     55  C   UNL A   1      48.807  26.880  26.442  1.00  0.00     0.064 A 
ATOM     56  C   UNL A   1      49.764  26.348  27.321  1.00  0.00     0.173 A 
ATOM     57  C   UNL A   1      49.161  27.009  25.090  1.00  0.00     0.173 A 
ATOM     58  F   UNL A   1      49.481  26.214  28.626  1.00  0.00    -0.203 F 
ATOM     59  C   UNL A   1      51.031  25.988  26.870  1.00  0.00     0.198 A 
ATOM     60  C   UNL A   1      50.419  26.619  24.637  1.00  0.00     0.198 A 
ATOM     61  F   UNL A   1      48.283  27.508  24.206  1.00  0.00    -0.203 F 
ATOM     62  F   UNL A   1      51.944  25.529  27.738  1.00  0.00    -0.200 F 
ATOM     63  C   UNL A   1      51.355  26.116  25.529  1.00  0.00     0.200 A 
ATOM     64  F   UNL A   1      50.725  26.732  23.338  1.00  0.00    -0.200 F 
ATOM     65  F   UNL A   1      52.572  25.761  25.095  1.00  0.00    -0.200 F 
ENDBRANCH  41  55
BRANCH  42  66
ATOM     66  C   UNL A   1      39.624  28.898  29.825  1.00  0.00     0.064 A 
ATOM     67  C   UNL A   1      38.616  29.386  28.981  1.00  0.00     0.173 A 
ATOM     68  C   UNL A   1      39.308  28.716  31.179  1.00  0.00     0.173 A 
ATOM     69  F   UNL A   1      38.874  29.595  27.681  1.00  0.00    -0.203 F 
ATOM     70  C   UNL A   1      37.352  29.704  29.475  1.00  0.00     0.198 A 
ATOM     71  C   UNL A   1      38.035  29.006  31.667  1.00  0.00     0.198 A 
ATOM     72  F   UNL A   1      40.234  28.246  32.027  1.00  0.00    -0.203 F 
ATOM     73  F   UNL A   1      36.424  30.216  28.657  1.00  0.00    -0.200 F 
ATOM     74  C   UNL A   1      37.062  29.509  30.817  1.00  0.00     0.200 A 
ATOM     75  F   UNL A   1      37.754  28.801  32.961  1.00  0.00    -0.200 F 
ATOM     76  F   UNL A   1      35.846  29.812  31.292  1.00  0.00    -0.200 F 
ENDBRANCH  42  66
BRANCH  54  77
ATOM     77  C   UNL A   1      45.338  32.747  28.814  1.00  0.00     0.064 A 
ATOM     78  C   UNL A   1      45.863  33.221  30.026  1.00  0.00     0.173 A 
ATOM     79  C   UNL A   1      45.099  33.679  27.792  1.00  0.00     0.173 A 
ATOM     80  F   UNL A   1      46.095  32.373  31.039  1.00  0.00    -0.203 F 
ATOM     81  C   UNL A   1      46.103  34.579  30.219  1.00  0.00     0.198 A 
ATOM     82  C   UNL A   1      45.373  35.030  27.977  1.00  0.00     0.198 A 
ATOM     83  F   UNL A   1      44.607  33.276  26.611  1.00  0.00    -0.203 F 
ATOM     84  F   UNL A   1      46.548  35.017  31.404  1.00  0.00    -0.200 F 
ATOM     85  C   UNL A   1      45.863  35.481  29.193  1.00  0.00     0.200 A 
ATOM     86  F   UNL A   1      45.154  35.899  26.980  1.00  0.00    -0.200 F 
ATOM     87  F   UNL A   1      46.095  36.787  29.381  1.00  0.00    -0.200 F 
ENDBRANCH  54  77
ENDBRANCH  28  29
ENDBRANCH  20  23
ENDBRANCH  18  19
ENDBRANCH  17  18
ENDBRANCH  16  17
ENDBRANCH   1  16
TORSDOF 16
ENDMDL
MODEL 3
REMARK VINA RESULT:     -10.1      1.047      7.769
REMARK SMILES CC(C)CN(C)/C=C\C(=O)NCCCCCCNC(=O)c1ccc(-c2c3nc(c(-c4c(F)c(F)c(F)c(F)c4F)c4ccc([nH]4)c(-c4c(F)c(F)c(F)c(F)c4F)c4nc(c(-c5c(F)c(F)c(F)c(F)c5F)c5ccc2[nH]5)C=C4)C=C3)cc1
REMARK SMILES IDX 14 1 13 2 12 3 11 4 9 5 10 6 8 8 7 9 5 10 6 11 4 12 2 13
REMARK SMILES IDX 1 14 3 15 15 16 16 17 17 18 18 19 19 20 20 22 21 23 22 24
REMARK SMILES IDX 83 25 23 26 82 27 24 28 25 29 26 30 76 31 27 32 81 33 75 34
REMARK SMILES IDX 77 35 28 36 80 37 74 38 73 39 29 41 61 42 41 43 60 44 42 45
REMARK SMILES IDX 45 46 59 47 78 48 43 49 44 50 58 52 79 53 46 54 30 55 31 56
REMARK SMILES IDX 39 57 32 58 33 59 37 60 40 61 34 62 35 63 38 64 36 65 62 66
REMARK SMILES IDX 63 67 71 68 64 69 65 70 69 71 72 72 66 73 67 74 70 75 68 76
REMARK SMILES IDX 47 77 48 78 56 79 49 80 50 81 54 82 57 83 51 84 52 85 55 86
REMARK SMILES IDX 53 87
REMARK H PARENT 11 7 18 21 77 40 45 51
REMARK Flexibility Score: inf
ROOT
ATOM      1  C   UNL A   1      32.769  30.354  26.215  1.00  0.00     0.002 C 
ENDROOT
BRANCH   1   2
ATOM      2  C   UNL A   1      33.112  29.329  27.307  1.00  0.00     0.021 C 
BRANCH   2   3
ATOM      3  C   UNL A   1      33.037  27.855  26.892  1.00  0.00     0.116 C 
BRANCH   3   4
ATOM      4  N   UNL A   1      31.693  27.311  26.789  1.00  0.00    -0.353 N 
ATOM      5  C   UNL A   1      31.251  26.166  26.196  1.00  0.00     0.245 C 
ATOM      6  O   UNL A   1      30.116  25.755  26.426  1.00  0.00    -0.270 OA
ATOM      7  H   UNL A   1      30.992  27.855  27.216  1.00  0.00     0.163 HD
BRANCH   5   8
ATOM      8  C   UNL A   1      32.148  25.391  25.315  1.00  0.00     0.088 C 
ATOM      9  C   UNL A   1      32.496  25.728  24.065  1.00  0.00     0.086 C 
BRANCH   9  10
ATOM     10  N   UNL A   1      32.127  26.798  23.259  1.00  0.00    -0.380 N 
ATOM     11  C   UNL A   1      32.991  27.980  23.209  1.00  0.00     0.143 C 
BRANCH  10  12
ATOM     12  C   UNL A   1      30.772  26.906  22.688  1.00  0.00     0.118 C 
BRANCH  12  13
ATOM     13  C   UNL A   1      29.809  27.857  23.402  1.00  0.00     0.002 C 
ATOM     14  C   UNL A   1      29.546  29.095  22.548  1.00  0.00     0.009 C 
ATOM     15  C   UNL A   1      28.497  27.096  23.645  1.00  0.00     0.009 C 
ENDBRANCH  12  13
ENDBRANCH  10  12
ENDBRANCH   9  10
ENDBRANCH   5   8
ENDBRANCH   3   4
ENDBRANCH   2   3
ENDBRANCH   1   2
BRANCH   1  16
ATOM     16  C   UNL A   1      31.385  30.994  26.353  1.00  0.00     0.002 C 
BRANCH  16  17
ATOM     17  C   UNL A   1      31.394  32.508  26.590  1.00  0.00     0.021 C 
BRANCH  17  18
ATOM     18  C   UNL A   1      32.610  33.021  27.359  1.00  0.00     0.116 C 
BRANCH  18  19
ATOM     19  N   UNL A   1      32.465  34.426  27.700  1.00  0.00    -0.352 N 
ATOM     20  C   UNL A   1      33.022  35.094  28.760  1.00  0.00     0.251 C 
ATOM     21  H   UNL A   1      31.899  34.962  27.099  1.00  0.00     0.163 HD
ATOM     22  O   UNL A   1      32.594  36.193  29.111  1.00  0.00    -0.269 OA
BRANCH  20  23
ATOM     23  C   UNL A   1      34.147  34.476  29.488  1.00  0.00     0.039 A 
ATOM     24  C   UNL A   1      33.907  33.832  30.703  1.00  0.00     0.014 A 
ATOM     25  C   UNL A   1      35.442  34.534  28.959  1.00  0.00     0.014 A 
ATOM     26  C   UNL A   1      34.965  33.214  31.372  1.00  0.00     0.010 A 
ATOM     27  C   UNL A   1      36.480  33.859  29.592  1.00  0.00     0.010 A 
ATOM     28  C   UNL A   1      36.256  33.206  30.813  1.00  0.00    -0.014 A 
BRANCH  28  29
ATOM     29  C   UNL A   1      37.378  32.532  31.514  1.00  0.00     0.031 A 
ATOM     30  C   UNL A   1      38.103  31.389  30.859  1.00  0.00     0.074 A 
ATOM     31  C   UNL A   1      37.725  32.933  32.752  1.00  0.00     0.049 A 
ATOM     32  N   UNL A   1      39.118  30.690  31.302  1.00  0.00    -0.248 NA
ATOM     33  C   UNL A   1      37.605  30.953  29.545  1.00  0.00     0.031 C 
ATOM     34  C   UNL A   1      37.055  33.986  33.517  1.00  0.00     0.029 A 
ATOM     35  N   UNL A   1      38.728  32.504  33.585  1.00  0.00    -0.354 N 
ATOM     36  C   UNL A   1      39.375  29.735  30.327  1.00  0.00     0.074 A 
ATOM     37  C   UNL A   1      38.372  29.901  29.298  1.00  0.00     0.031 C 
ATOM     38  C   UNL A   1      37.686  34.142  34.693  1.00  0.00     0.029 A 
ATOM     39  C   UNL A   1      38.786  33.186  34.774  1.00  0.00     0.049 A 
ATOM     40  H   UNL A   1      39.347  31.775  33.350  1.00  0.00     0.167 HD
ATOM     41  C   UNL A   1      40.374  28.821  30.280  1.00  0.00     0.037 A 
ATOM     42  C   UNL A   1      39.638  33.061  35.809  1.00  0.00     0.037 A 
ATOM     43  C   UNL A   1      41.384  28.675  31.295  1.00  0.00     0.049 A 
ATOM     44  C   UNL A   1      40.752  32.053  35.722  1.00  0.00     0.074 A 
ATOM     45  C   UNL A   1      42.475  27.825  31.312  1.00  0.00     0.029 A 
ATOM     46  N   UNL A   1      41.423  29.400  32.477  1.00  0.00    -0.354 N 
ATOM     47  N   UNL A   1      41.036  31.214  34.755  1.00  0.00    -0.248 NA
ATOM     48  C   UNL A   1      41.673  31.985  36.865  1.00  0.00     0.031 C 
ATOM     49  C   UNL A   1      43.149  28.002  32.526  1.00  0.00     0.029 A 
ATOM     50  C   UNL A   1      42.508  29.000  33.242  1.00  0.00     0.049 A 
ATOM     51  H   UNL A   1      40.775  30.095  32.735  1.00  0.00     0.167 HD
ATOM     52  C   UNL A   1      42.178  30.537  35.160  1.00  0.00     0.074 A 
ATOM     53  C   UNL A   1      42.549  31.082  36.451  1.00  0.00     0.031 C 
ATOM     54  C   UNL A   1      42.859  29.552  34.526  1.00  0.00     0.037 A 
BRANCH  41  55
ATOM     55  C   UNL A   1      40.427  27.910  29.087  1.00  0.00     0.064 A 
ATOM     56  C   UNL A   1      41.261  28.182  27.990  1.00  0.00     0.173 A 
ATOM     57  C   UNL A   1      39.668  26.731  29.054  1.00  0.00     0.173 A 
ATOM     58  F   UNL A   1      41.998  29.303  27.965  1.00  0.00    -0.203 F 
ATOM     59  C   UNL A   1      41.310  27.324  26.895  1.00  0.00     0.198 A 
ATOM     60  C   UNL A   1      39.744  25.858  27.971  1.00  0.00     0.198 A 
ATOM     61  F   UNL A   1      38.858  26.419  30.077  1.00  0.00    -0.203 F 
ATOM     62  F   UNL A   1      42.077  27.630  25.839  1.00  0.00    -0.200 F 
ATOM     63  C   UNL A   1      40.558  26.159  26.890  1.00  0.00     0.200 A 
ATOM     64  F   UNL A   1      39.026  24.727  27.973  1.00  0.00    -0.200 F 
ATOM     65  F   UNL A   1      40.614  25.329  25.839  1.00  0.00    -0.200 F 
ENDBRANCH  41  55
BRANCH  42  66
ATOM     66  C   UNL A   1      39.494  33.938  37.001  1.00  0.00     0.064 A 
ATOM     67  C   UNL A   1      40.096  35.204  37.043  1.00  0.00     0.173 A 
ATOM     68  C   UNL A   1      38.761  33.528  38.124  1.00  0.00     0.173 A 
ATOM     69  F   UNL A   1      40.824  35.633  36.000  1.00  0.00    -0.203 F 
ATOM     70  C   UNL A   1      39.991  36.016  38.170  1.00  0.00     0.198 A 
ATOM     71  C   UNL A   1      38.632  34.353  39.240  1.00  0.00     0.198 A 
ATOM     72  F   UNL A   1      38.161  32.329  38.133  1.00  0.00    -0.203 F 
ATOM     73  F   UNL A   1      40.618  37.199  38.201  1.00  0.00    -0.200 F 
ATOM     74  C   UNL A   1      39.255  35.591  39.266  1.00  0.00     0.200 A 
ATOM     75  F   UNL A   1      37.907  33.946  40.291  1.00  0.00    -0.200 F 
ATOM     76  F   UNL A   1      39.151  36.374  40.349  1.00  0.00    -0.200 F 
ENDBRANCH  42  66
BRANCH  54  77
ATOM     77  C   UNL A   1      44.084  29.018  35.209  1.00  0.00     0.064 A 
ATOM     78  C   UNL A   1      44.019  27.928  36.091  1.00  0.00     0.173 A 
ATOM     79  C   UNL A   1      45.342  29.592  34.967  1.00  0.00     0.173 A 
ATOM     80  F   UNL A   1      42.838  27.354  36.367  1.00  0.00    -0.203 F 
ATOM     81  C   UNL A   1      45.161  27.458  36.733  1.00  0.00     0.198 A 
ATOM     82  C   UNL A   1      46.486  29.097  35.585  1.00  0.00     0.198 A 
ATOM     83  F   UNL A   1      45.461  30.629  34.125  1.00  0.00    -0.203 F 
ATOM     84  F   UNL A   1      45.065  26.456  37.618  1.00  0.00    -0.200 F 
ATOM     85  C   UNL A   1      46.394  28.039  36.476  1.00  0.00     0.200 A 
ATOM     86  F   UNL A   1      47.679  29.650  35.325  1.00  0.00    -0.200 F 
ATOM     87  F   UNL A   1      47.492  27.584  37.095  1.00  0.00    -0.200 F 
ENDBRANCH  54  77
ENDBRANCH  28  29
ENDBRANCH  20  23
ENDBRANCH  18  19
ENDBRANCH  17  18
ENDBRANCH  16  17
ENDBRANCH   1  16
TORSDOF 16
ENDMDL
