MODEL 1
REMARK VINA RESULT:     -12.5      0.000      0.000
REMARK SMILES CS(=O)(=O)c1ccc(N2N=C(C(=O)NCCCCCCNC(=O)c3ccc(-c4c5nc(c(-c6c(F)c(F)c(F)c(F)c6F)c6ccc([nH]6)c(-c6c(F)c(F)c(F)c(F)c6F)c6nc(c(-c7c(F)c(F)c(F)c(F)c7F)c7ccc4[nH]7)C=C6)C=C5)cc3)C[C@H]2c2cccs2)cc1
REMARK SMILES IDX 17 1 16 2 15 3 14 4 12 5 13 6 11 8 9 9 10 10 88 11 87 12
REMARK SMILES IDX 8 13 5 14 6 15 95 16 7 17 94 18 2 19 1 20 3 21 4 22 89 23
REMARK SMILES IDX 90 24 93 25 91 26 92 27 18 28 19 29 20 30 21 31 22 32 23 34
REMARK SMILES IDX 24 35 25 36 86 37 26 38 85 39 27 40 28 41 29 42 79 43 30 44
REMARK SMILES IDX 84 45 78 46 80 47 31 48 83 49 77 50 76 51 32 53 64 54 44 55
REMARK SMILES IDX 63 56 45 57 48 58 62 59 81 60 46 61 47 62 61 64 82 65 49 66
REMARK SMILES IDX 33 67 34 68 42 69 35 70 36 71 40 72 43 73 37 74 38 75 41 76
REMARK SMILES IDX 39 77 65 78 66 79 74 80 67 81 68 82 72 83 75 84 69 85 70 86
REMARK SMILES IDX 73 87 71 88 50 89 51 90 59 91 52 92 53 93 57 94 60 95 54 96
REMARK SMILES IDX 55 97 58 98 56 99
REMARK H PARENT 14 7 21 33 80 52 48 63
REMARK Flexibility Score: inf
ROOT
ATOM      1  C   UNL A   1      37.199  22.081  24.538  1.00  0.00     0.002 C 
ENDROOT
BRANCH   1   2
ATOM      2  C   UNL A   1      36.488  22.777  23.378  1.00  0.00     0.021 C 
BRANCH   2   3
ATOM      3  C   UNL A   1      35.218  23.519  23.776  1.00  0.00     0.116 C 
BRANCH   3   4
ATOM      4  N   UNL A   1      34.044  22.886  23.219  1.00  0.00    -0.351 N 
ATOM      5  C   UNL A   1      32.702  23.163  23.257  1.00  0.00     0.267 C 
ATOM      6  O   UNL A   1      31.939  22.343  22.750  1.00  0.00    -0.268 OA
ATOM      7  H   UNL A   1      34.254  22.078  22.696  1.00  0.00     0.163 HD
BRANCH   5   8
ATOM      8  C   UNL A   1      32.116  24.441  23.838  1.00  0.00     0.128 C 
ATOM      9  N   UNL A   1      31.346  26.428  23.859  1.00  0.00    -0.256 N 
ATOM     10  N   UNL A   1      31.628  25.362  23.066  1.00  0.00    -0.171 NA
ATOM     11  C   UNL A   1      31.558  26.187  25.286  1.00  0.00     0.154 C 
ATOM     12  C   UNL A   1      32.049  24.738  25.298  1.00  0.00     0.097 C 
BRANCH   9  13
ATOM     13  C   UNL A   1      30.540  27.455  23.390  1.00  0.00     0.060 A 
ATOM     14  C   UNL A   1      28.961  29.579  22.457  1.00  0.00     0.067 A 
ATOM     15  C   UNL A   1      28.353  28.478  23.063  1.00  0.00     0.022 A 
ATOM     16  C   UNL A   1      30.343  29.620  22.288  1.00  0.00     0.022 A 
ATOM     17  C   UNL A   1      29.144  27.414  23.512  1.00  0.00     0.029 A 
ATOM     18  C   UNL A   1      31.119  28.562  22.757  1.00  0.00     0.029 A 
BRANCH  14  19
ATOM     19  S   UNL A   1      27.958  30.936  21.907  1.00  0.00     0.175 S 
ATOM     20  C   UNL A   1      29.002  32.368  22.006  1.00  0.00     0.163 C 
ATOM     21  O   UNL A   1      26.905  31.118  22.887  1.00  0.00    -0.224 OA
ATOM     22  O   UNL A   1      27.655  30.695  20.509  1.00  0.00    -0.224 OA
ENDBRANCH  14  19
ENDBRANCH   9  13
BRANCH  11  23
ATOM     23  C   UNL A   1      32.460  27.166  26.026  1.00  0.00     0.030 A 
ATOM     24  C   UNL A   1      33.823  27.333  25.841  1.00  0.00     0.017 A 
ATOM     25  S   UNL A   1      31.894  28.211  27.269  1.00  0.00    -0.147 S 
ATOM     26  C   UNL A   1      34.383  28.328  26.692  1.00  0.00     0.012 A 
ATOM     27  C   UNL A   1      33.428  28.922  27.483  1.00  0.00     0.065 A 
ENDBRANCH  11  23
ENDBRANCH   5   8
ENDBRANCH   3   4
ENDBRANCH   2   3
ENDBRANCH   1   2
BRANCH   1  28
ATOM     28  C   UNL A   1      36.746  20.642  24.805  1.00  0.00     0.002 C 
BRANCH  28  29
ATOM     29  C   UNL A   1      37.876  19.628  25.001  1.00  0.00     0.021 C 
BRANCH  29  30
ATOM     30  C   UNL A   1      39.112  20.182  25.700  1.00  0.00     0.116 C 
BRANCH  30  31
ATOM     31  N   UNL A   1      40.123  19.161  25.908  1.00  0.00    -0.352 N 
ATOM     32  C   UNL A   1      41.470  19.305  26.129  1.00  0.00     0.251 C 
ATOM     33  H   UNL A   1      39.797  18.233  25.888  1.00  0.00     0.163 HD
ATOM     34  O   UNL A   1      42.212  18.329  26.077  1.00  0.00    -0.269 OA
BRANCH  32  35
ATOM     35  C   UNL A   1      42.028  20.642  26.412  1.00  0.00     0.039 A 
ATOM     36  C   UNL A   1      42.307  21.496  25.342  1.00  0.00     0.014 A 
ATOM     37  C   UNL A   1      42.289  21.049  27.723  1.00  0.00     0.014 A 
ATOM     38  C   UNL A   1      42.800  22.777  25.591  1.00  0.00     0.010 A 
ATOM     39  C   UNL A   1      42.705  22.353  27.974  1.00  0.00     0.010 A 
ATOM     40  C   UNL A   1      42.974  23.227  26.910  1.00  0.00    -0.014 A 
BRANCH  40  41
ATOM     41  C   UNL A   1      43.449  24.606  27.194  1.00  0.00     0.031 A 
ATOM     42  C   UNL A   1      42.498  25.633  27.742  1.00  0.00     0.074 A 
ATOM     43  C   UNL A   1      44.719  24.946  26.906  1.00  0.00     0.049 A 
ATOM     44  N   UNL A   1      42.705  26.900  27.999  1.00  0.00    -0.248 NA
ATOM     45  C   UNL A   1      41.122  25.185  28.012  1.00  0.00     0.031 C 
ATOM     46  C   UNL A   1      45.725  24.050  26.331  1.00  0.00     0.029 A 
ATOM     47  N   UNL A   1      45.383  26.138  27.050  1.00  0.00    -0.354 N 
ATOM     48  C   UNL A   1      41.489  27.399  28.446  1.00  0.00     0.074 A 
ATOM     49  C   UNL A   1      40.533  26.316  28.370  1.00  0.00     0.031 C 
ATOM     50  C   UNL A   1      46.881  24.716  26.193  1.00  0.00     0.029 A 
ATOM     51  C   UNL A   1      46.690  26.097  26.629  1.00  0.00     0.049 A 
ATOM     52  H   UNL A   1      44.962  26.948  27.421  1.00  0.00     0.167 HD
ATOM     53  C   UNL A   1      41.201  28.642  28.902  1.00  0.00     0.037 A 
ATOM     54  C   UNL A   1      47.624  27.065  26.589  1.00  0.00     0.037 A 
ATOM     55  C   UNL A   1      42.162  29.710  28.994  1.00  0.00     0.049 A 
ATOM     56  C   UNL A   1      47.274  28.442  27.086  1.00  0.00     0.074 A 
ATOM     57  C   UNL A   1      41.985  30.988  29.496  1.00  0.00     0.029 A 
ATOM     58  N   UNL A   1      43.480  29.627  28.568  1.00  0.00    -0.354 N 
ATOM     59  N   UNL A   1      46.140  28.884  27.574  1.00  0.00    -0.248 NA
ATOM     60  C   UNL A   1      48.338  29.454  27.037  1.00  0.00     0.031 C 
ATOM     61  C   UNL A   1      43.177  31.696  29.317  1.00  0.00     0.029 A 
ATOM     62  C   UNL A   1      44.118  30.840  28.769  1.00  0.00     0.049 A 
ATOM     63  H   UNL A   1      43.898  28.825  28.180  1.00  0.00     0.167 HD
ATOM     64  C   UNL A   1      46.362  30.211  27.917  1.00  0.00     0.074 A 
ATOM     65  C   UNL A   1      47.744  30.497  27.598  1.00  0.00     0.031 C 
ATOM     66  C   UNL A   1      45.499  31.109  28.453  1.00  0.00     0.037 A 
BRANCH  53  67
ATOM     67  C   UNL A   1      39.788  28.917  29.334  1.00  0.00     0.064 A 
ATOM     68  C   UNL A   1      39.358  28.688  30.651  1.00  0.00     0.173 A 
ATOM     69  C   UNL A   1      38.859  29.452  28.428  1.00  0.00     0.173 A 
ATOM     70  F   UNL A   1      40.202  28.168  31.556  1.00  0.00    -0.203 F 
ATOM     71  C   UNL A   1      38.047  28.954  31.034  1.00  0.00     0.198 A 
ATOM     72  C   UNL A   1      37.558  29.750  28.825  1.00  0.00     0.198 A 
ATOM     73  F   UNL A   1      39.216  29.695  27.158  1.00  0.00    -0.203 F 
ATOM     74  F   UNL A   1      37.647  28.676  32.283  1.00  0.00    -0.200 F 
ATOM     75  C   UNL A   1      37.151  29.492  30.124  1.00  0.00     0.200 A 
ATOM     76  F   UNL A   1      36.698  30.285  27.947  1.00  0.00    -0.200 F 
ATOM     77  F   UNL A   1      35.891  29.757  30.498  1.00  0.00    -0.200 F 
ENDBRANCH  53  67
BRANCH  54  78
ATOM     78  C   UNL A   1      48.986  26.764  26.073  1.00  0.00     0.064 A 
ATOM     79  C   UNL A   1      49.983  26.256  26.918  1.00  0.00     0.173 A 
ATOM     80  C   UNL A   1      49.323  26.985  24.730  1.00  0.00     0.173 A 
ATOM     81  F   UNL A   1      49.717  26.044  28.215  1.00  0.00    -0.203 F 
ATOM     82  C   UNL A   1      51.270  26.007  26.446  1.00  0.00     0.198 A 
ATOM     83  C   UNL A   1      50.601  26.705  24.251  1.00  0.00     0.198 A 
ATOM     84  F   UNL A   1      48.405  27.464  23.876  1.00  0.00    -0.203 F 
ATOM     85  F   UNL A   1      52.218  25.572  27.288  1.00  0.00    -0.200 F 
ATOM     86  C   UNL A   1      51.576  26.225  25.112  1.00  0.00     0.200 A 
ATOM     87  F   UNL A   1      50.887  26.901  22.957  1.00  0.00    -0.200 F 
ATOM     88  F   UNL A   1      52.814  25.983  24.657  1.00  0.00    -0.200 F 
ENDBRANCH  54  78
BRANCH  66  89
ATOM     89  C   UNL A   1      46.034  32.477  28.768  1.00  0.00     0.064 A 
ATOM     90  C   UNL A   1      45.944  33.538  27.856  1.00  0.00     0.173 A 
ATOM     91  C   UNL A   1      46.610  32.738  30.022  1.00  0.00     0.173 A 
ATOM     92  F   UNL A   1      45.414  33.338  26.639  1.00  0.00    -0.203 F 
ATOM     93  C   UNL A   1      46.437  34.801  28.174  1.00  0.00     0.198 A 
ATOM     94  C   UNL A   1      47.070  34.011  30.350  1.00  0.00     0.198 A 
ATOM     95  F   UNL A   1      46.714  31.761  30.936  1.00  0.00    -0.203 F 
ATOM     96  F   UNL A   1      46.390  35.785  27.265  1.00  0.00    -0.200 F 
ATOM     97  C   UNL A   1      46.992  35.038  29.423  1.00  0.00     0.200 A 
ATOM     98  F   UNL A   1      47.588  34.242  31.564  1.00  0.00    -0.200 F 
ATOM     99  F   UNL A   1      47.457  36.257  29.730  1.00  0.00    -0.200 F 
ENDBRANCH  66  89
ENDBRANCH  40  41
ENDBRANCH  32  35
ENDBRANCH  30  31
ENDBRANCH  29  30
ENDBRANCH  28  29
ENDBRANCH   1  28
TORSDOF 16
ENDMDL
MODEL 2
REMARK VINA RESULT:     -12.1      3.889      8.462
REMARK SMILES CS(=O)(=O)c1ccc(N2N=C(C(=O)NCCCCCCNC(=O)c3ccc(-c4c5nc(c(-c6c(F)c(F)c(F)c(F)c6F)c6ccc([nH]6)c(-c6c(F)c(F)c(F)c(F)c6F)c6nc(c(-c7c(F)c(F)c(F)c(F)c7F)c7ccc4[nH]7)C=C6)C=C5)cc3)C[C@H]2c2cccs2)cc1
REMARK SMILES IDX 17 1 16 2 15 3 14 4 12 5 13 6 11 8 9 9 10 10 88 11 87 12
REMARK SMILES IDX 8 13 5 14 6 15 95 16 7 17 94 18 2 19 1 20 3 21 4 22 89 23
REMARK SMILES IDX 90 24 93 25 91 26 92 27 18 28 19 29 20 30 21 31 22 32 23 34
REMARK SMILES IDX 24 35 25 36 86 37 26 38 85 39 27 40 28 41 29 42 79 43 30 44
REMARK SMILES IDX 84 45 78 46 80 47 31 48 83 49 77 50 76 51 32 53 64 54 44 55
REMARK SMILES IDX 63 56 45 57 48 58 62 59 81 60 46 61 47 62 61 64 82 65 49 66
REMARK SMILES IDX 33 67 34 68 42 69 35 70 36 71 40 72 43 73 37 74 38 75 41 76
REMARK SMILES IDX 39 77 65 78 66 79 74 80 67 81 68 82 72 83 75 84 69 85 70 86
REMARK SMILES IDX 73 87 71 88 50 89 51 90 59 91 52 92 53 93 57 94 60 95 54 96
REMARK SMILES IDX 55 97 58 98 56 99
REMARK H PARENT 14 7 21 33 80 52 48 63
REMARK Flexibility Score: inf
ROOT
ATOM      1  C   UNL A   1      31.230  28.878  24.392  1.00  0.00     0.002 C 
ENDROOT
BRANCH   1   2
ATOM      2  C   UNL A   1      31.869  28.402  23.088  1.00  0.00     0.021 C 
BRANCH   2   3
ATOM      3  C   UNL A   1      31.048  27.368  22.329  1.00  0.00     0.116 C 
BRANCH   3   4
ATOM      4  N   UNL A   1      31.852  26.682  21.341  1.00  0.00    -0.351 N 
ATOM      5  C   UNL A   1      32.621  25.548  21.357  1.00  0.00     0.267 C 
ATOM      6  O   UNL A   1      33.275  25.291  20.349  1.00  0.00    -0.268 OA
ATOM      7  H   UNL A   1      31.844  27.128  20.463  1.00  0.00     0.163 HD
BRANCH   5   8
ATOM      8  C   UNL A   1      32.668  24.572  22.524  1.00  0.00     0.128 C 
ATOM      9  N   UNL A   1      32.572  22.699  23.536  1.00  0.00    -0.256 N 
ATOM     10  N   UNL A   1      32.707  23.291  22.321  1.00  0.00    -0.171 NA
ATOM     11  C   UNL A   1      32.542  23.634  24.659  1.00  0.00     0.154 C 
ATOM     12  C   UNL A   1      32.678  24.986  23.957  1.00  0.00     0.097 C 
BRANCH   9  13
ATOM     13  C   UNL A   1      32.874  21.354  23.695  1.00  0.00     0.060 A 
ATOM     14  C   UNL A   1      33.554  18.651  24.020  1.00  0.00     0.067 A 
ATOM     15  C   UNL A   1      32.457  18.999  23.229  1.00  0.00     0.022 A 
ATOM     16  C   UNL A   1      34.297  19.633  24.670  1.00  0.00     0.022 A 
ATOM     17  C   UNL A   1      32.113  20.348  23.083  1.00  0.00     0.029 A 
ATOM     18  C   UNL A   1      33.954  20.973  24.500  1.00  0.00     0.029 A 
BRANCH  14  19
ATOM     19  S   UNL A   1      34.002  16.941  24.186  1.00  0.00     0.175 S 
ATOM     20  C   UNL A   1      32.741  16.219  25.205  1.00  0.00     0.163 C 
ATOM     21  O   UNL A   1      35.234  16.891  24.947  1.00  0.00    -0.224 OA
ATOM     22  O   UNL A   1      33.906  16.352  22.864  1.00  0.00    -0.224 OA
ENDBRANCH  14  19
ENDBRANCH   9  13
BRANCH  11  23
ATOM     23  C   UNL A   1      31.357  23.533  25.611  1.00  0.00     0.030 A 
ATOM     24  C   UNL A   1      30.953  22.405  26.308  1.00  0.00     0.017 A 
ATOM     25  S   UNL A   1      30.297  24.848  25.936  1.00  0.00    -0.147 S 
ATOM     26  C   UNL A   1      29.803  22.633  27.116  1.00  0.00     0.012 A 
ATOM     27  C   UNL A   1      29.377  23.938  27.046  1.00  0.00     0.065 A 
ENDBRANCH  11  23
ENDBRANCH   5   8
ENDBRANCH   3   4
ENDBRANCH   2   3
ENDBRANCH   1   2
BRANCH   1  28
ATOM     28  C   UNL A   1      31.796  28.236  25.662  1.00  0.00     0.002 C 
BRANCH  28  29
ATOM     29  C   UNL A   1      33.322  28.264  25.784  1.00  0.00     0.021 C 
BRANCH  29  30
ATOM     30  C   UNL A   1      33.841  28.518  27.195  1.00  0.00     0.116 C 
BRANCH  30  31
ATOM     31  N   UNL A   1      33.713  29.912  27.580  1.00  0.00    -0.352 N 
ATOM     32  C   UNL A   1      34.584  30.702  28.286  1.00  0.00     0.251 C 
ATOM     33  H   UNL A   1      32.881  30.354  27.294  1.00  0.00     0.163 HD
ATOM     34  O   UNL A   1      34.225  31.799  28.702  1.00  0.00    -0.269 OA
BRANCH  32  35
ATOM     35  C   UNL A   1      35.953  30.220  28.560  1.00  0.00     0.039 A 
ATOM     36  C   UNL A   1      36.968  30.521  27.649  1.00  0.00     0.014 A 
ATOM     37  C   UNL A   1      36.233  29.464  29.702  1.00  0.00     0.014 A 
ATOM     38  C   UNL A   1      38.274  30.106  27.909  1.00  0.00     0.010 A 
ATOM     39  C   UNL A   1      37.549  29.121  29.999  1.00  0.00     0.010 A 
ATOM     40  C   UNL A   1      38.581  29.430  29.101  1.00  0.00    -0.014 A 
BRANCH  40  41
ATOM     41  C   UNL A   1      39.975  29.027  29.418  1.00  0.00     0.031 A 
ATOM     42  C   UNL A   1      40.862  29.942  30.216  1.00  0.00     0.074 A 
ATOM     43  C   UNL A   1      40.458  27.864  28.941  1.00  0.00     0.049 A 
ATOM     44  N   UNL A   1      42.121  29.797  30.544  1.00  0.00    -0.248 NA
ATOM     45  C   UNL A   1      40.262  31.202  30.685  1.00  0.00     0.031 C 
ATOM     46  C   UNL A   1      39.709  26.912  28.119  1.00  0.00     0.029 A 
ATOM     47  N   UNL A   1      41.696  27.287  29.071  1.00  0.00    -0.354 N 
ATOM     48  C   UNL A   1      42.465  30.947  31.243  1.00  0.00     0.074 A 
ATOM     49  C   UNL A   1      41.301  31.806  31.241  1.00  0.00     0.031 C 
ATOM     50  C   UNL A   1      40.494  25.860  27.838  1.00  0.00     0.029 A 
ATOM     51  C   UNL A   1      41.814  26.082  28.422  1.00  0.00     0.049 A 
ATOM     52  H   UNL A   1      42.432  27.698  29.581  1.00  0.00     0.167 HD
ATOM     53  C   UNL A   1      43.637  31.248  31.852  1.00  0.00     0.037 A 
ATOM     54  C   UNL A   1      42.869  25.255  28.303  1.00  0.00     0.037 A 
ATOM     55  C   UNL A   1      44.784  30.379  31.866  1.00  0.00     0.049 A 
ATOM     56  C   UNL A   1      44.165  25.621  28.975  1.00  0.00     0.074 A 
ATOM     57  C   UNL A   1      45.999  30.565  32.504  1.00  0.00     0.029 A 
ATOM     58  N   UNL A   1      44.862  29.160  31.207  1.00  0.00    -0.354 N 
ATOM     59  N   UNL A   1      44.458  26.677  29.694  1.00  0.00    -0.248 NA
ATOM     60  C   UNL A   1      45.278  24.672  28.829  1.00  0.00     0.031 C 
ATOM     61  C   UNL A   1      46.832  29.490  32.180  1.00  0.00     0.029 A 
ATOM     62  C   UNL A   1      46.114  28.598  31.399  1.00  0.00     0.049 A 
ATOM     63  H   UNL A   1      44.135  28.755  30.682  1.00  0.00     0.167 HD
ATOM     64  C   UNL A   1      45.771  26.507  30.110  1.00  0.00     0.074 A 
ATOM     65  C   UNL A   1      46.214  25.236  29.576  1.00  0.00     0.031 C 
ATOM     66  C   UNL A   1      46.539  27.327  30.868  1.00  0.00     0.037 A 
BRANCH  53  67
ATOM     67  C   UNL A   1      43.739  32.574  32.551  1.00  0.00     0.064 A 
ATOM     68  C   UNL A   1      44.194  33.726  31.891  1.00  0.00     0.173 A 
ATOM     69  C   UNL A   1      43.340  32.704  33.890  1.00  0.00     0.173 A 
ATOM     70  F   UNL A   1      44.598  33.657  30.613  1.00  0.00    -0.203 F 
ATOM     71  C   UNL A   1      44.275  34.948  32.553  1.00  0.00     0.198 A 
ATOM     72  C   UNL A   1      43.390  33.935  34.539  1.00  0.00     0.198 A 
ATOM     73  F   UNL A   1      42.892  31.637  34.569  1.00  0.00    -0.203 F 
ATOM     74  F   UNL A   1      44.765  36.021  31.916  1.00  0.00    -0.200 F 
ATOM     75  C   UNL A   1      43.866  35.053  33.873  1.00  0.00     0.200 A 
ATOM     76  F   UNL A   1      42.978  34.037  35.810  1.00  0.00    -0.200 F 
ATOM     77  F   UNL A   1      43.936  36.232  34.506  1.00  0.00    -0.200 F 
ENDBRANCH  53  67
BRANCH  54  78
ATOM     78  C   UNL A   1      42.741  23.991  27.529  1.00  0.00     0.064 A 
ATOM     79  C   UNL A   1      42.356  22.797  28.153  1.00  0.00     0.173 A 
ATOM     80  C   UNL A   1      43.010  23.949  26.153  1.00  0.00     0.173 A 
ATOM     81  F   UNL A   1      42.104  22.781  29.471  1.00  0.00    -0.203 F 
ATOM     82  C   UNL A   1      42.269  21.605  27.438  1.00  0.00     0.198 A 
ATOM     83  C   UNL A   1      42.892  22.763  25.431  1.00  0.00     0.198 A 
ATOM     84  F   UNL A   1      43.377  25.064  25.504  1.00  0.00    -0.203 F 
ATOM     85  F   UNL A   1      41.950  20.468  28.071  1.00  0.00    -0.200 F 
ATOM     86  C   UNL A   1      42.531  21.590  26.076  1.00  0.00     0.200 A 
ATOM     87  F   UNL A   1      43.129  22.757  24.113  1.00  0.00    -0.200 F 
ATOM     88  F   UNL A   1      42.446  20.443  25.387  1.00  0.00    -0.200 F 
ENDBRANCH  54  78
BRANCH  66  89
ATOM     89  C   UNL A   1      47.927  26.859  31.204  1.00  0.00     0.064 A 
ATOM     90  C   UNL A   1      48.186  26.039  32.312  1.00  0.00     0.173 A 
ATOM     91  C   UNL A   1      49.009  27.204  30.378  1.00  0.00     0.173 A 
ATOM     92  F   UNL A   1      47.189  25.691  33.141  1.00  0.00    -0.203 F 
ATOM     93  C   UNL A   1      49.478  25.608  32.598  1.00  0.00     0.198 A 
ATOM     94  C   UNL A   1      50.294  26.742  30.646  1.00  0.00     0.198 A 
ATOM     95  F   UNL A   1      48.816  27.980  29.300  1.00  0.00    -0.203 F 
ATOM     96  F   UNL A   1      49.709  24.870  33.694  1.00  0.00    -0.200 F 
ATOM     97  C   UNL A   1      50.530  25.952  31.761  1.00  0.00     0.200 A 
ATOM     98  F   UNL A   1      51.304  27.061  29.826  1.00  0.00    -0.200 F 
ATOM     99  F   UNL A   1      51.771  25.528  32.034  1.00  0.00    -0.200 F 
ENDBRANCH  66  89
ENDBRANCH  40  41
ENDBRANCH  32  35
ENDBRANCH  30  31
ENDBRANCH  29  30
ENDBRANCH  28  29
ENDBRANCH   1  28
TORSDOF 16
ENDMDL
MODEL 3
REMARK VINA RESULT:     -12.0      1.957      3.279
REMARK SMILES CS(=O)(=O)c1ccc(N2N=C(C(=O)NCCCCCCNC(=O)c3ccc(-c4c5nc(c(-c6c(F)c(F)c(F)c(F)c6F)c6ccc([nH]6)c(-c6c(F)c(F)c(F)c(F)c6F)c6nc(c(-c7c(F)c(F)c(F)c(F)c7F)c7ccc4[nH]7)C=C6)C=C5)cc3)C[C@H]2c2cccs2)cc1
REMARK SMILES IDX 17 1 16 2 15 3 14 4 12 5 13 6 11 8 9 9 10 10 88 11 87 12
REMARK SMILES IDX 8 13 5 14 6 15 95 16 7 17 94 18 2 19 1 20 3 21 4 22 89 23
REMARK SMILES IDX 90 24 93 25 91 26 92 27 18 28 19 29 20 30 21 31 22 32 23 34
REMARK SMILES IDX 24 35 25 36 86 37 26 38 85 39 27 40 28 41 29 42 79 43 30 44
REMARK SMILES IDX 84 45 78 46 80 47 31 48 83 49 77 50 76 51 32 53 64 54 44 55
REMARK SMILES IDX 63 56 45 57 48 58 62 59 81 60 46 61 47 62 61 64 82 65 49 66
REMARK SMILES IDX 33 67 34 68 42 69 35 70 36 71 40 72 43 73 37 74 38 75 41 76
REMARK SMILES IDX 39 77 65 78 66 79 74 80 67 81 68 82 72 83 75 84 69 85 70 86
REMARK SMILES IDX 73 87 71 88 50 89 51 90 59 91 52 92 53 93 57 94 60 95 54 96
REMARK SMILES IDX 55 97 58 98 56 99
REMARK H PARENT 14 7 21 33 80 52 48 63
REMARK Flexibility Score: inf
ROOT
ATOM      1  C   UNL A   1      36.369  22.012  24.662  1.00  0.00     0.002 C 
ENDROOT
BRANCH   1   2
ATOM      2  C   UNL A   1      34.956  22.557  24.870  1.00  0.00     0.021 C 
BRANCH   2   3
ATOM      3  C   UNL A   1      34.667  23.021  26.292  1.00  0.00     0.116 C 
BRANCH   3   4
ATOM      4  N   UNL A   1      33.252  22.967  26.584  1.00  0.00    -0.351 N 
ATOM      5  C   UNL A   1      32.237  23.887  26.563  1.00  0.00     0.267 C 
ATOM      6  O   UNL A   1      31.138  23.528  26.979  1.00  0.00    -0.268 OA
ATOM      7  H   UNL A   1      32.951  22.069  26.857  1.00  0.00     0.163 HD
BRANCH   5   8
ATOM      8  C   UNL A   1      32.383  25.297  26.010  1.00  0.00     0.128 C 
ATOM      9  N   UNL A   1      32.455  27.427  26.029  1.00  0.00    -0.256 N 
ATOM     10  N   UNL A   1      32.521  26.314  26.805  1.00  0.00    -0.171 NA
ATOM     11  C   UNL A   1      32.370  27.155  24.595  1.00  0.00     0.154 C 
ATOM     12  C   UNL A   1      32.384  25.626  24.555  1.00  0.00     0.097 C 
BRANCH   9  13
ATOM     13  C   UNL A   1      32.867  28.654  26.531  1.00  0.00     0.060 A 
ATOM     14  C   UNL A   1      33.747  31.100  27.587  1.00  0.00     0.067 A 
ATOM     15  C   UNL A   1      32.403  30.935  27.248  1.00  0.00     0.022 A 
ATOM     16  C   UNL A   1      34.660  30.068  27.380  1.00  0.00     0.022 A 
ATOM     17  C   UNL A   1      31.972  29.718  26.707  1.00  0.00     0.029 A 
ATOM     18  C   UNL A   1      34.213  28.856  26.859  1.00  0.00     0.029 A 
BRANCH  14  19
ATOM     19  S   UNL A   1      34.287  32.637  28.292  1.00  0.00     0.175 S 
ATOM     20  C   UNL A   1      32.965  33.783  27.999  1.00  0.00     0.163 C 
ATOM     21  O   UNL A   1      35.419  33.095  27.512  1.00  0.00    -0.224 OA
ATOM     22  O   UNL A   1      34.393  32.427  29.724  1.00  0.00    -0.224 OA
ENDBRANCH  14  19
ENDBRANCH   9  13
BRANCH  11  23
ATOM     23  C   UNL A   1      31.214  27.796  23.837  1.00  0.00     0.030 A 
ATOM     24  C   UNL A   1      29.867  27.505  23.988  1.00  0.00     0.017 A 
ATOM     25  S   UNL A   1      31.434  28.988  22.617  1.00  0.00    -0.147 S 
ATOM     26  C   UNL A   1      29.032  28.274  23.129  1.00  0.00     0.012 A 
ATOM     27  C   UNL A   1      29.757  29.160  22.367  1.00  0.00     0.065 A 
ENDBRANCH  11  23
ENDBRANCH   5   8
ENDBRANCH   3   4
ENDBRANCH   2   3
ENDBRANCH   1   2
BRANCH   1  28
ATOM     28  C   UNL A   1      36.557  20.541  25.048  1.00  0.00     0.002 C 
BRANCH  28  29
ATOM     29  C   UNL A   1      37.941  19.958  24.745  1.00  0.00     0.021 C 
BRANCH  29  30
ATOM     30  C   UNL A   1      39.023  20.342  25.747  1.00  0.00     0.116 C 
BRANCH  30  31
ATOM     31  N   UNL A   1      40.014  19.293  25.907  1.00  0.00    -0.352 N 
ATOM     32  C   UNL A   1      41.366  19.398  26.112  1.00  0.00     0.251 C 
ATOM     33  H   UNL A   1      39.666  18.374  25.862  1.00  0.00     0.163 HD
ATOM     34  O   UNL A   1      42.085  18.408  26.018  1.00  0.00    -0.269 OA
BRANCH  32  35
ATOM     35  C   UNL A   1      41.959  20.713  26.430  1.00  0.00     0.039 A 
ATOM     36  C   UNL A   1      42.272  21.581  25.382  1.00  0.00     0.014 A 
ATOM     37  C   UNL A   1      42.219  21.083  27.752  1.00  0.00     0.014 A 
ATOM     38  C   UNL A   1      42.799  22.842  25.664  1.00  0.00     0.010 A 
ATOM     39  C   UNL A   1      42.669  22.369  28.036  1.00  0.00     0.010 A 
ATOM     40  C   UNL A   1      42.973  23.258  26.994  1.00  0.00    -0.014 A 
BRANCH  40  41
ATOM     41  C   UNL A   1      43.484  24.616  27.313  1.00  0.00     0.031 A 
ATOM     42  C   UNL A   1      42.571  25.640  27.929  1.00  0.00     0.074 A 
ATOM     43  C   UNL A   1      44.751  24.942  26.998  1.00  0.00     0.049 A 
ATOM     44  N   UNL A   1      42.811  26.893  28.225  1.00  0.00    -0.248 NA
ATOM     45  C   UNL A   1      41.196  25.208  28.226  1.00  0.00     0.031 C 
ATOM     46  C   UNL A   1      45.720  24.050  26.358  1.00  0.00     0.029 A 
ATOM     47  N   UNL A   1      45.443  26.116  27.164  1.00  0.00    -0.354 N 
ATOM     48  C   UNL A   1      41.619  27.397  28.729  1.00  0.00     0.074 A 
ATOM     49  C   UNL A   1      40.641  26.335  28.643  1.00  0.00     0.031 C 
ATOM     50  C   UNL A   1      46.885  24.699  26.208  1.00  0.00     0.029 A 
ATOM     51  C   UNL A   1      46.735  26.066  26.700  1.00  0.00     0.049 A 
ATOM     52  H   UNL A   1      45.050  26.919  27.577  1.00  0.00     0.167 HD
ATOM     53  C   UNL A   1      41.371  28.628  29.238  1.00  0.00     0.037 A 
ATOM     54  C   UNL A   1      47.687  27.017  26.666  1.00  0.00     0.037 A 
ATOM     55  C   UNL A   1      42.355  29.673  29.339  1.00  0.00     0.049 A 
ATOM     56  C   UNL A   1      47.379  28.381  27.224  1.00  0.00     0.074 A 
ATOM     57  C   UNL A   1      42.220  30.934  29.892  1.00  0.00     0.029 A 
ATOM     58  N   UNL A   1      43.657  29.582  28.868  1.00  0.00    -0.354 N 
ATOM     59  N   UNL A   1      46.270  28.826  27.763  1.00  0.00    -0.248 NA
ATOM     60  C   UNL A   1      48.461  29.374  27.178  1.00  0.00     0.031 C 
ATOM     61  C   UNL A   1      43.420  31.626  29.702  1.00  0.00     0.029 A 
ATOM     62  C   UNL A   1      44.326  30.774  29.093  1.00  0.00     0.049 A 
ATOM     63  H   UNL A   1      44.047  28.786  28.438  1.00  0.00     0.167 HD
ATOM     64  C   UNL A   1      46.529  30.135  28.148  1.00  0.00     0.074 A 
ATOM     65  C   UNL A   1      47.906  30.407  27.795  1.00  0.00     0.031 C 
ATOM     66  C   UNL A   1      45.701  31.028  28.743  1.00  0.00     0.037 A 
BRANCH  53  67
ATOM     67  C   UNL A   1      39.977  28.912  29.725  1.00  0.00     0.064 A 
ATOM     68  C   UNL A   1      39.016  29.520  28.904  1.00  0.00     0.173 A 
ATOM     69  C   UNL A   1      39.587  28.536  31.020  1.00  0.00     0.173 A 
ATOM     70  F   UNL A   1      39.338  29.910  27.661  1.00  0.00    -0.203 F 
ATOM     71  C   UNL A   1      37.728  29.769  29.370  1.00  0.00     0.198 A 
ATOM     72  C   UNL A   1      38.287  28.755  31.470  1.00  0.00     0.198 A 
ATOM     73  F   UNL A   1      40.464  27.946  31.847  1.00  0.00    -0.203 F 
ATOM     74  F   UNL A   1      36.844  30.401  28.585  1.00  0.00    -0.200 F 
ATOM     75  C   UNL A   1      37.363  29.380  30.649  1.00  0.00     0.200 A 
ATOM     76  F   UNL A   1      37.933  28.362  32.702  1.00  0.00    -0.200 F 
ATOM     77  F   UNL A   1      36.120  29.611  31.093  1.00  0.00    -0.200 F 
ENDBRANCH  53  67
BRANCH  54  78
ATOM     78  C   UNL A   1      49.025  26.710  26.096  1.00  0.00     0.064 A 
ATOM     79  C   UNL A   1      49.339  27.037  24.770  1.00  0.00     0.173 A 
ATOM     80  C   UNL A   1      50.015  26.075  26.861  1.00  0.00     0.173 A 
ATOM     81  F   UNL A   1      48.421  27.629  23.992  1.00  0.00    -0.203 F 
ATOM     82  C   UNL A   1      50.580  26.718  24.222  1.00  0.00     0.198 A 
ATOM     83  C   UNL A   1      51.267  25.785  26.323  1.00  0.00     0.198 A 
ATOM     84  F   UNL A   1      49.770  25.745  28.138  1.00  0.00    -0.203 F 
ATOM     85  F   UNL A   1      50.833  26.995  22.936  1.00  0.00    -0.200 F 
ATOM     86  C   UNL A   1      51.545  26.099  25.001  1.00  0.00     0.200 A 
ATOM     87  F   UNL A   1      52.203  25.202  27.085  1.00  0.00    -0.200 F 
ATOM     88  F   UNL A   1      52.740  25.794  24.475  1.00  0.00    -0.200 F 
ENDBRANCH  54  78
BRANCH  66  89
ATOM     89  C   UNL A   1      46.273  32.374  29.091  1.00  0.00     0.064 A 
ATOM     90  C   UNL A   1      46.256  33.445  28.186  1.00  0.00     0.173 A 
ATOM     91  C   UNL A   1      46.810  32.604  30.368  1.00  0.00     0.173 A 
ATOM     92  F   UNL A   1      45.766  33.273  26.948  1.00  0.00    -0.203 F 
ATOM     93  C   UNL A   1      46.782  34.685  28.534  1.00  0.00     0.198 A 
ATOM     94  C   UNL A   1      47.302  33.856  30.725  1.00  0.00     0.198 A 
ATOM     95  F   UNL A   1      46.844  31.617  31.276  1.00  0.00    -0.203 F 
ATOM     96  F   UNL A   1      46.805  35.678  27.633  1.00  0.00    -0.200 F 
ATOM     97  C   UNL A   1      47.297  34.893  29.806  1.00  0.00     0.200 A 
ATOM     98  F   UNL A   1      47.782  34.059  31.960  1.00  0.00    -0.200 F 
ATOM     99  F   UNL A   1      47.794  36.091  30.141  1.00  0.00    -0.200 F 
ENDBRANCH  66  89
ENDBRANCH  40  41
ENDBRANCH  32  35
ENDBRANCH  30  31
ENDBRANCH  29  30
ENDBRANCH  28  29
ENDBRANCH   1  28
TORSDOF 16
ENDMDL
