MODEL 1
REMARK VINA RESULT:     -13.4      0.000      0.000
REMARK SMILES COc1ccc([C@@H]2Nc3c(C(=O)NCCCCCCNC(=O)c4ccc(-c5c6nc(c(-c7c(F)c(F)c(F)c(F)c7F)c7ccc([nH]7)c(-c7c(F)c(F)c(F)c(F)c7F)c7nc(c(-c8c(F)c(F)c(F)c(F)c8F)c8ccc5[nH]8)C=C7)C=C6)cc4)cccc3[C@@H]3[C@H]4CC[C@H](C4)[C@H]32)cc1[N+](=O)[O-]
REMARK SMILES IDX 16 1 15 2 14 3 13 4 11 5 12 6 10 8 7 9 8 10 96 11 9 12 90 14
REMARK SMILES IDX 94 15 89 16 91 17 93 18 95 19 86 20 88 21 92 22 87 23 6 24
REMARK SMILES IDX 3 25 4 26 98 27 5 28 97 29 2 30 1 31 99 32 100 33 101 34
REMARK SMILES IDX 17 35 18 36 19 37 20 38 21 39 22 41 23 42 24 43 85 44 25 45
REMARK SMILES IDX 84 46 26 47 27 48 28 49 78 50 29 51 83 52 77 53 79 54 30 55
REMARK SMILES IDX 82 56 76 57 75 58 31 60 63 61 43 62 62 63 44 64 47 65 61 66
REMARK SMILES IDX 80 67 45 68 46 69 60 71 81 72 48 73 32 74 33 75 41 76 34 77
REMARK SMILES IDX 35 78 39 79 42 80 36 81 37 82 40 83 38 84 64 85 65 86 73 87
REMARK SMILES IDX 66 88 67 89 71 90 74 91 68 92 69 93 72 94 70 95 49 96 50 97
REMARK SMILES IDX 58 98 51 99 52 100 56 101 59 102 53 103 54 104 57 105 55 106
REMARK H PARENT 13 7 8 13 20 40 79 59 47 70
REMARK Flexibility Score: inf
ROOT
ATOM      1  C   UNL A   1      37.277  22.445  25.386  1.00  0.00     0.002 C 
ENDROOT
BRANCH   1   2
ATOM      2  C   UNL A   1      36.265  23.237  26.219  1.00  0.00     0.021 C 
BRANCH   2   3
ATOM      3  C   UNL A   1      34.818  23.225  25.744  1.00  0.00     0.116 C 
BRANCH   3   4
ATOM      4  N   UNL A   1      33.827  23.408  26.780  1.00  0.00    -0.352 N 
ATOM      5  C   UNL A   1      32.515  23.806  26.652  1.00  0.00     0.253 C 
ATOM      6  O   UNL A   1      31.792  23.789  27.647  1.00  0.00    -0.269 OA
ATOM      7  H   UNL A   1      34.129  23.226  27.699  1.00  0.00     0.163 HD
BRANCH   5   8
ATOM      8  C   UNL A   1      31.992  24.379  25.381  1.00  0.00     0.063 A 
ATOM      9  C   UNL A   1      31.295  28.127  25.853  1.00  0.00     0.114 C 
ATOM     10  N   UNL A   1      31.734  26.740  26.122  1.00  0.00    -0.377 N 
ATOM     11  C   UNL A   1      31.265  28.295  24.336  1.00  0.00     0.027 C 
ATOM     12  C   UNL A   1      31.537  25.697  25.188  1.00  0.00     0.051 A 
ATOM     13  H   UNL A   1      32.177  26.537  26.977  1.00  0.00     0.161 HD
ATOM     14  C   UNL A   1      30.180  27.311  23.867  1.00  0.00     0.030 C 
ATOM     15  C   UNL A   1      30.947  29.560  23.533  1.00  0.00    -0.005 C 
ATOM     16  C   UNL A   1      30.850  25.974  23.958  1.00  0.00    -0.020 A 
ATOM     17  C   UNL A   1      29.617  28.002  22.608  1.00  0.00    -0.003 C 
ATOM     18  C   UNL A   1      29.542  30.105  23.807  1.00  0.00     0.004 C 
ATOM     19  C   UNL A   1      30.761  28.905  22.145  1.00  0.00     0.008 C 
ATOM     20  C   UNL A   1      31.961  23.466  24.306  1.00  0.00     0.016 A 
ATOM     21  C   UNL A   1      30.796  25.046  22.916  1.00  0.00     0.006 A 
ATOM     22  C   UNL A   1      28.624  29.082  23.114  1.00  0.00     0.004 C 
ATOM     23  C   UNL A   1      31.394  23.805  23.077  1.00  0.00     0.001 A 
BRANCH   9  24
ATOM     24  C   UNL A   1      32.158  29.158  26.553  1.00  0.00    -0.018 A 
ATOM     25  C   UNL A   1      33.884  31.232  27.436  1.00  0.00     0.196 A 
ATOM     26  C   UNL A   1      34.320  29.903  27.402  1.00  0.00     0.054 A 
ATOM     27  C   UNL A   1      32.559  31.506  27.098  1.00  0.00     0.311 A 
ATOM     28  C   UNL A   1      33.462  28.875  26.983  1.00  0.00     0.010 A 
ATOM     29  C   UNL A   1      31.697  30.483  26.663  1.00  0.00     0.095 A 
BRANCH  25  30
ATOM     30  O   UNL A   1      34.852  32.190  27.553  1.00  0.00    -0.490 OA
ATOM     31  C   UNL A   1      35.194  32.524  28.895  1.00  0.00     0.278 C 
ENDBRANCH  25  30
BRANCH  27  32
ATOM     32  N   UNL A   1      32.040  32.864  27.103  1.00  0.00     0.066 N 
ATOM     33  O   UNL A   1      31.220  33.155  26.222  1.00  0.00    -0.258 OA
ATOM     34  O   UNL A   1      32.375  33.607  28.038  1.00  0.00    -0.258 OA
ENDBRANCH  27  32
ENDBRANCH   9  24
ENDBRANCH   5   8
ENDBRANCH   3   4
ENDBRANCH   2   3
ENDBRANCH   1   2
BRANCH   1  35
ATOM     35  C   UNL A   1      36.915  21.003  25.021  1.00  0.00     0.002 C 
BRANCH  35  36
ATOM     36  C   UNL A   1      38.052  19.979  25.002  1.00  0.00     0.021 C 
BRANCH  36  37
ATOM     37  C   UNL A   1      39.275  20.314  25.848  1.00  0.00     0.116 C 
BRANCH  37  38
ATOM     38  N   UNL A   1      40.251  19.241  25.885  1.00  0.00    -0.352 N 
ATOM     39  C   UNL A   1      41.611  19.290  26.069  1.00  0.00     0.251 C 
ATOM     40  H   UNL A   1      39.881  18.338  25.758  1.00  0.00     0.163 HD
ATOM     41  O   UNL A   1      42.285  18.277  25.932  1.00  0.00    -0.269 OA
BRANCH  39  42
ATOM     42  C   UNL A   1      42.273  20.572  26.398  1.00  0.00     0.039 A 
ATOM     43  C   UNL A   1      42.778  21.347  25.351  1.00  0.00     0.014 A 
ATOM     44  C   UNL A   1      42.401  21.010  27.719  1.00  0.00     0.014 A 
ATOM     45  C   UNL A   1      43.337  22.597  25.621  1.00  0.00     0.010 A 
ATOM     46  C   UNL A   1      42.897  22.287  27.981  1.00  0.00     0.010 A 
ATOM     47  C   UNL A   1      43.359  23.097  26.933  1.00  0.00    -0.014 A 
BRANCH  47  48
ATOM     48  C   UNL A   1      43.813  24.483  27.213  1.00  0.00     0.031 A 
ATOM     49  C   UNL A   1      42.850  25.523  27.710  1.00  0.00     0.074 A 
ATOM     50  C   UNL A   1      45.092  24.819  26.951  1.00  0.00     0.049 A 
ATOM     51  N   UNL A   1      43.056  26.794  27.953  1.00  0.00    -0.248 NA
ATOM     52  C   UNL A   1      41.466  25.085  27.944  1.00  0.00     0.031 C 
ATOM     53  C   UNL A   1      46.108  23.914  26.411  1.00  0.00     0.029 A 
ATOM     54  N   UNL A   1      45.752  26.014  27.089  1.00  0.00    -0.354 N 
ATOM     55  C   UNL A   1      41.832  27.306  28.359  1.00  0.00     0.074 A 
ATOM     56  C   UNL A   1      40.875  26.222  28.283  1.00  0.00     0.031 C 
ATOM     57  C   UNL A   1      47.266  24.578  26.282  1.00  0.00     0.029 A 
ATOM     58  C   UNL A   1      47.066  25.964  26.690  1.00  0.00     0.049 A 
ATOM     59  H   UNL A   1      45.325  26.829  27.440  1.00  0.00     0.167 HD
ATOM     60  C   UNL A   1      41.538  28.562  28.774  1.00  0.00     0.037 A 
ATOM     61  C   UNL A   1      48.001  26.933  26.645  1.00  0.00     0.037 A 
ATOM     62  C   UNL A   1      42.496  29.635  28.855  1.00  0.00     0.049 A 
ATOM     63  C   UNL A   1      47.642  28.322  27.093  1.00  0.00     0.074 A 
ATOM     64  C   UNL A   1      42.309  30.926  29.320  1.00  0.00     0.029 A 
ATOM     65  N   UNL A   1      43.821  29.547  28.449  1.00  0.00    -0.354 N 
ATOM     66  N   UNL A   1      46.500  28.777  27.548  1.00  0.00    -0.248 NA
ATOM     67  C   UNL A   1      48.706  29.334  27.022  1.00  0.00     0.031 C 
ATOM     68  C   UNL A   1      43.502  31.635  29.140  1.00  0.00     0.029 A 
ATOM     69  C   UNL A   1      44.451  30.770  28.622  1.00  0.00     0.049 A 
ATOM     70  H   UNL A   1      44.249  28.735  28.092  1.00  0.00     0.167 HD
ATOM     71  C   UNL A   1      46.711  30.120  27.834  1.00  0.00     0.074 A 
ATOM     72  C   UNL A   1      48.097  30.398  27.526  1.00  0.00     0.031 C 
ATOM     73  C   UNL A   1      45.832  31.038  28.305  1.00  0.00     0.037 A 
BRANCH  60  74
ATOM     74  C   UNL A   1      40.118  28.851  29.172  1.00  0.00     0.064 A 
ATOM     75  C   UNL A   1      39.681  28.716  30.499  1.00  0.00     0.173 A 
ATOM     76  C   UNL A   1      39.193  29.315  28.224  1.00  0.00     0.173 A 
ATOM     77  F   UNL A   1      40.520  28.268  31.445  1.00  0.00    -0.203 F 
ATOM     78  C   UNL A   1      38.366  29.007  30.855  1.00  0.00     0.198 A 
ATOM     79  C   UNL A   1      37.888  29.636  28.590  1.00  0.00     0.198 A 
ATOM     80  F   UNL A   1      39.558  29.470  26.942  1.00  0.00    -0.203 F 
ATOM     81  F   UNL A   1      37.960  28.823  32.119  1.00  0.00    -0.200 F 
ATOM     82  C   UNL A   1      37.474  29.474  29.902  1.00  0.00     0.200 A 
ATOM     83  F   UNL A   1      37.032  30.103  27.670  1.00  0.00    -0.200 F 
ATOM     84  F   UNL A   1      36.211  29.763  30.249  1.00  0.00    -0.200 F 
ENDBRANCH  60  74
BRANCH  61  85
ATOM     85  C   UNL A   1      49.373  26.616  26.167  1.00  0.00     0.064 A 
ATOM     86  C   UNL A   1      49.745  26.863  24.839  1.00  0.00     0.173 A 
ATOM     87  C   UNL A   1      50.332  26.055  27.022  1.00  0.00     0.173 A 
ATOM     88  F   UNL A   1      48.854  27.375  23.977  1.00  0.00    -0.203 F 
ATOM     89  C   UNL A   1      51.019  26.540  24.378  1.00  0.00     0.198 A 
ATOM     90  C   UNL A   1      51.616  25.763  26.568  1.00  0.00     0.198 A 
ATOM     91  F   UNL A   1      50.022  25.791  28.299  1.00  0.00    -0.203 F 
ATOM     92  F   UNL A   1      51.333  26.737  23.090  1.00  0.00    -0.200 F 
ATOM     93  C   UNL A   1      51.956  25.997  25.245  1.00  0.00     0.200 A 
ATOM     94  F   UNL A   1      52.523  25.249  27.411  1.00  0.00    -0.200 F 
ATOM     95  F   UNL A   1      53.182  25.690  24.801  1.00  0.00    -0.200 F 
ENDBRANCH  61  85
BRANCH  73  96
ATOM     96  C   UNL A   1      46.350  32.429  28.535  1.00  0.00     0.064 A 
ATOM     97  C   UNL A   1      46.924  32.809  29.759  1.00  0.00     0.173 A 
ATOM     98  C   UNL A   1      46.299  33.387  27.511  1.00  0.00     0.173 A 
ATOM     99  F   UNL A   1      46.982  31.937  30.777  1.00  0.00    -0.203 F 
ATOM    100  C   UNL A   1      47.399  34.103  29.956  1.00  0.00     0.198 A 
ATOM    101  C   UNL A   1      46.809  34.669  27.701  1.00  0.00     0.198 A 
ATOM    102  F   UNL A   1      45.768  33.076  26.319  1.00  0.00    -0.203 F 
ATOM    103  F   UNL A   1      47.893  34.457  31.151  1.00  0.00    -0.200 F 
ATOM    104  C   UNL A   1      47.349  35.028  28.925  1.00  0.00     0.200 A 
ATOM    105  F   UNL A   1      46.773  35.557  26.697  1.00  0.00    -0.200 F 
ATOM    106  F   UNL A   1      47.814  36.271  29.115  1.00  0.00    -0.200 F 
ENDBRANCH  73  96
ENDBRANCH  47  48
ENDBRANCH  39  42
ENDBRANCH  37  38
ENDBRANCH  36  37
ENDBRANCH  35  36
ENDBRANCH   1  35
TORSDOF 16
ENDMDL
MODEL 2
REMARK VINA RESULT:     -13.4      3.752      8.855
REMARK SMILES COc1ccc([C@@H]2Nc3c(C(=O)NCCCCCCNC(=O)c4ccc(-c5c6nc(c(-c7c(F)c(F)c(F)c(F)c7F)c7ccc([nH]7)c(-c7c(F)c(F)c(F)c(F)c7F)c7nc(c(-c8c(F)c(F)c(F)c(F)c8F)c8ccc5[nH]8)C=C7)C=C6)cc4)cccc3[C@@H]3[C@H]4CC[C@H](C4)[C@H]32)cc1[N+](=O)[O-]
REMARK SMILES IDX 16 1 15 2 14 3 13 4 11 5 12 6 10 8 7 9 8 10 96 11 9 12 90 14
REMARK SMILES IDX 94 15 89 16 91 17 93 18 95 19 86 20 88 21 92 22 87 23 6 24
REMARK SMILES IDX 3 25 4 26 98 27 5 28 97 29 2 30 1 31 99 32 100 33 101 34
REMARK SMILES IDX 17 35 18 36 19 37 20 38 21 39 22 41 23 42 24 43 85 44 25 45
REMARK SMILES IDX 84 46 26 47 27 48 28 49 78 50 29 51 83 52 77 53 79 54 30 55
REMARK SMILES IDX 82 56 76 57 75 58 31 60 63 61 43 62 62 63 44 64 47 65 61 66
REMARK SMILES IDX 80 67 45 68 46 69 60 71 81 72 48 73 32 74 33 75 41 76 34 77
REMARK SMILES IDX 35 78 39 79 42 80 36 81 37 82 40 83 38 84 64 85 65 86 73 87
REMARK SMILES IDX 66 88 67 89 71 90 74 91 68 92 69 93 72 94 70 95 49 96 50 97
REMARK SMILES IDX 58 98 51 99 52 100 56 101 59 102 53 103 54 104 57 105 55 106
REMARK H PARENT 13 7 8 13 20 40 79 59 47 70
REMARK Flexibility Score: inf
ROOT
ATOM      1  C   UNL A   1      31.055  28.647  24.448  1.00  0.00     0.002 C 
ENDROOT
BRANCH   1   2
ATOM      2  C   UNL A   1      30.047  27.621  23.925  1.00  0.00     0.021 C 
BRANCH   2   3
ATOM      3  C   UNL A   1      29.876  26.344  24.735  1.00  0.00     0.116 C 
BRANCH   3   4
ATOM      4  N   UNL A   1      29.527  25.168  23.970  1.00  0.00    -0.352 N 
ATOM      5  C   UNL A   1      30.364  24.246  23.383  1.00  0.00     0.253 C 
ATOM      6  O   UNL A   1      29.871  23.242  22.870  1.00  0.00    -0.269 OA
ATOM      7  H   UNL A   1      28.563  25.005  23.851  1.00  0.00     0.163 HD
BRANCH   5   8
ATOM      8  C   UNL A   1      31.824  24.497  23.236  1.00  0.00     0.063 A 
ATOM      9  C   UNL A   1      33.788  21.797  25.135  1.00  0.00     0.114 C 
ATOM     10  N   UNL A   1      32.663  22.554  24.543  1.00  0.00    -0.377 N 
ATOM     11  C   UNL A   1      35.041  22.181  24.350  1.00  0.00     0.027 C 
ATOM     12  C   UNL A   1      32.859  23.777  23.863  1.00  0.00     0.051 A 
ATOM     13  H   UNL A   1      31.750  22.194  24.625  1.00  0.00     0.161 HD
ATOM     14  C   UNL A   1      35.222  23.682  24.636  1.00  0.00     0.030 C 
ATOM     15  C   UNL A   1      36.461  21.630  24.512  1.00  0.00    -0.005 C 
ATOM     16  C   UNL A   1      34.180  24.333  23.780  1.00  0.00    -0.020 A 
ATOM     17  C   UNL A   1      36.752  23.857  24.561  1.00  0.00    -0.003 C 
ATOM     18  C   UNL A   1      37.039  21.866  25.910  1.00  0.00     0.004 C 
ATOM     19  C   UNL A   1      37.212  22.695  23.680  1.00  0.00     0.008 C 
ATOM     20  C   UNL A   1      32.141  25.577  22.386  1.00  0.00     0.016 A 
ATOM     21  C   UNL A   1      34.471  25.427  22.962  1.00  0.00     0.006 A 
ATOM     22  C   UNL A   1      37.310  23.382  25.929  1.00  0.00     0.004 C 
ATOM     23  C   UNL A   1      33.455  26.020  22.228  1.00  0.00     0.001 A 
BRANCH   9  24
ATOM     24  C   UNL A   1      33.534  20.303  25.166  1.00  0.00    -0.018 A 
ATOM     25  C   UNL A   1      32.635  17.612  25.065  1.00  0.00     0.196 A 
ATOM     26  C   UNL A   1      32.663  18.313  26.275  1.00  0.00     0.054 A 
ATOM     27  C   UNL A   1      33.129  18.239  23.921  1.00  0.00     0.311 A 
ATOM     28  C   UNL A   1      33.124  19.637  26.329  1.00  0.00     0.010 A 
ATOM     29  C   UNL A   1      33.580  19.571  23.965  1.00  0.00     0.095 A 
BRANCH  25  30
ATOM     30  O   UNL A   1      31.896  16.462  25.042  1.00  0.00    -0.490 OA
ATOM     31  C   UNL A   1      32.531  15.339  25.648  1.00  0.00     0.278 C 
ENDBRANCH  25  30
BRANCH  27  32
ATOM     32  N   UNL A   1      33.124  17.574  22.629  1.00  0.00     0.066 N 
ATOM     33  O   UNL A   1      32.300  17.973  21.796  1.00  0.00    -0.258 OA
ATOM     34  O   UNL A   1      34.000  16.723  22.413  1.00  0.00    -0.258 OA
ENDBRANCH  27  32
ENDBRANCH   9  24
ENDBRANCH   5   8
ENDBRANCH   3   4
ENDBRANCH   2   3
ENDBRANCH   1   2
BRANCH   1  35
ATOM     35  C   UNL A   1      32.347  28.112  25.072  1.00  0.00     0.002 C 
BRANCH  35  36
ATOM     36  C   UNL A   1      32.406  28.036  26.599  1.00  0.00     0.021 C 
BRANCH  36  37
ATOM     37  C   UNL A   1      33.710  28.487  27.246  1.00  0.00     0.116 C 
BRANCH  37  38
ATOM     38  N   UNL A   1      33.713  29.897  27.592  1.00  0.00    -0.352 N 
ATOM     39  C   UNL A   1      34.692  30.660  28.182  1.00  0.00     0.251 C 
ATOM     40  H   UNL A   1      32.886  30.382  27.370  1.00  0.00     0.163 HD
ATOM     41  O   UNL A   1      34.451  31.812  28.517  1.00  0.00    -0.269 OA
BRANCH  39  42
ATOM     42  C   UNL A   1      36.028  30.082  28.448  1.00  0.00     0.039 A 
ATOM     43  C   UNL A   1      36.998  30.161  27.444  1.00  0.00     0.014 A 
ATOM     44  C   UNL A   1      36.328  29.465  29.665  1.00  0.00     0.014 A 
ATOM     45  C   UNL A   1      38.290  29.697  27.692  1.00  0.00     0.010 A 
ATOM     46  C   UNL A   1      37.636  29.064  29.935  1.00  0.00     0.010 A 
ATOM     47  C   UNL A   1      38.632  29.187  28.955  1.00  0.00    -0.014 A 
BRANCH  47  48
ATOM     48  C   UNL A   1      40.038  28.829  29.277  1.00  0.00     0.031 A 
ATOM     49  C   UNL A   1      40.915  29.775  30.046  1.00  0.00     0.074 A 
ATOM     50  C   UNL A   1      40.541  27.669  28.813  1.00  0.00     0.049 A 
ATOM     51  N   UNL A   1      42.180  29.655  30.368  1.00  0.00    -0.248 NA
ATOM     52  C   UNL A   1      40.300  31.033  30.493  1.00  0.00     0.031 C 
ATOM     53  C   UNL A   1      39.806  26.693  28.006  1.00  0.00     0.029 A 
ATOM     54  N   UNL A   1      41.792  27.119  28.939  1.00  0.00    -0.354 N 
ATOM     55  C   UNL A   1      42.511  30.820  31.046  1.00  0.00     0.074 A 
ATOM     56  C   UNL A   1      41.330  31.658  31.046  1.00  0.00     0.031 C 
ATOM     57  C   UNL A   1      40.611  25.657  27.725  1.00  0.00     0.029 A 
ATOM     58  C   UNL A   1      41.929  25.912  28.297  1.00  0.00     0.049 A 
ATOM     59  H   UNL A   1      42.522  27.548  29.442  1.00  0.00     0.167 HD
ATOM     60  C   UNL A   1      43.689  31.151  31.629  1.00  0.00     0.037 A 
ATOM     61  C   UNL A   1      43.001  25.108  28.170  1.00  0.00     0.037 A 
ATOM     62  C   UNL A   1      44.858  30.310  31.631  1.00  0.00     0.049 A 
ATOM     63  C   UNL A   1      44.300  25.509  28.811  1.00  0.00     0.074 A 
ATOM     64  C   UNL A   1      46.079  30.531  32.246  1.00  0.00     0.029 A 
ATOM     65  N   UNL A   1      44.958  29.090  30.976  1.00  0.00    -0.354 N 
ATOM     66  N   UNL A   1      44.582  26.579  29.515  1.00  0.00    -0.248 NA
ATOM     67  C   UNL A   1      45.434  24.589  28.639  1.00  0.00     0.031 C 
ATOM     68  C   UNL A   1      46.936  29.476  31.914  1.00  0.00     0.029 A 
ATOM     69  C   UNL A   1      46.231  28.565  31.145  1.00  0.00     0.049 A 
ATOM     70  H   UNL A   1      44.232  28.661  30.467  1.00  0.00     0.167 HD
ATOM     71  C   UNL A   1      45.914  26.453  29.885  1.00  0.00     0.074 A 
ATOM     72  C   UNL A   1      46.377  25.191  29.350  1.00  0.00     0.031 C 
ATOM     73  C   UNL A   1      46.684  27.310  30.601  1.00  0.00     0.037 A 
BRANCH  60  74
ATOM     74  C   UNL A   1      43.776  32.486  32.313  1.00  0.00     0.064 A 
ATOM     75  C   UNL A   1      44.159  33.646  31.622  1.00  0.00     0.173 A 
ATOM     76  C   UNL A   1      43.425  32.617  33.666  1.00  0.00     0.173 A 
ATOM     77  F   UNL A   1      44.512  33.578  30.330  1.00  0.00    -0.203 F 
ATOM     78  C   UNL A   1      44.215  34.880  32.267  1.00  0.00     0.198 A 
ATOM     79  C   UNL A   1      43.451  33.858  34.299  1.00  0.00     0.198 A 
ATOM     80  F   UNL A   1      43.044  31.543  34.374  1.00  0.00    -0.203 F 
ATOM     81  F   UNL A   1      44.631  35.964  31.599  1.00  0.00    -0.200 F 
ATOM     82  C   UNL A   1      43.854  34.986  33.602  1.00  0.00     0.200 A 
ATOM     83  F   UNL A   1      43.086  33.960  35.584  1.00  0.00    -0.200 F 
ATOM     84  F   UNL A   1      43.900  36.176  34.217  1.00  0.00    -0.200 F 
ENDBRANCH  60  74
BRANCH  61  85
ATOM     85  C   UNL A   1      42.886  23.833  27.414  1.00  0.00     0.064 A 
ATOM     86  C   UNL A   1      42.410  22.671  28.034  1.00  0.00     0.173 A 
ATOM     87  C   UNL A   1      43.258  23.749  26.064  1.00  0.00     0.173 A 
ATOM     88  F   UNL A   1      42.066  22.695  29.330  1.00  0.00    -0.203 F 
ATOM     89  C   UNL A   1      42.329  21.466  27.339  1.00  0.00     0.198 A 
ATOM     90  C   UNL A   1      43.145  22.552  25.361  1.00  0.00     0.198 A 
ATOM     91  F   UNL A   1      43.729  24.831  25.429  1.00  0.00    -0.203 F 
ATOM     92  F   UNL A   1      41.919  20.357  27.970  1.00  0.00    -0.200 F 
ATOM     93  C   UNL A   1      42.690  21.410  26.000  1.00  0.00     0.200 A 
ATOM     94  F   UNL A   1      43.484  22.503  24.065  1.00  0.00    -0.200 F 
ATOM     95  F   UNL A   1      42.608  20.252  25.332  1.00  0.00    -0.200 F 
ENDBRANCH  61  85
BRANCH  73  96
ATOM     96  C   UNL A   1      48.105  26.899  30.863  1.00  0.00     0.064 A 
ATOM     97  C   UNL A   1      48.455  26.127  31.982  1.00  0.00     0.173 A 
ATOM     98  C   UNL A   1      49.126  27.259  29.970  1.00  0.00     0.173 A 
ATOM     99  F   UNL A   1      47.520  25.771  32.876  1.00  0.00    -0.203 F 
ATOM    100  C   UNL A   1      49.777  25.756  32.211  1.00  0.00     0.198 A 
ATOM    101  C   UNL A   1      50.442  26.855  30.184  1.00  0.00     0.198 A 
ATOM    102  F   UNL A   1      48.847  27.990  28.881  1.00  0.00    -0.203 F 
ATOM    103  F   UNL A   1      50.095  25.065  33.315  1.00  0.00    -0.200 F 
ATOM    104  C   UNL A   1      50.767  26.113  31.308  1.00  0.00     0.200 A 
ATOM    105  F   UNL A   1      51.394  27.188  29.302  1.00  0.00    -0.200 F 
ATOM    106  F   UNL A   1      52.038  25.748  31.527  1.00  0.00    -0.200 F 
ENDBRANCH  73  96
ENDBRANCH  47  48
ENDBRANCH  39  42
ENDBRANCH  37  38
ENDBRANCH  36  37
ENDBRANCH  35  36
ENDBRANCH   1  35
TORSDOF 16
ENDMDL
MODEL 3
REMARK VINA RESULT:     -13.1      4.318      8.941
REMARK SMILES COc1ccc([C@@H]2Nc3c(C(=O)NCCCCCCNC(=O)c4ccc(-c5c6nc(c(-c7c(F)c(F)c(F)c(F)c7F)c7ccc([nH]7)c(-c7c(F)c(F)c(F)c(F)c7F)c7nc(c(-c8c(F)c(F)c(F)c(F)c8F)c8ccc5[nH]8)C=C7)C=C6)cc4)cccc3[C@@H]3[C@H]4CC[C@H](C4)[C@H]32)cc1[N+](=O)[O-]
REMARK SMILES IDX 16 1 15 2 14 3 13 4 11 5 12 6 10 8 7 9 8 10 96 11 9 12 90 14
REMARK SMILES IDX 94 15 89 16 91 17 93 18 95 19 86 20 88 21 92 22 87 23 6 24
REMARK SMILES IDX 3 25 4 26 98 27 5 28 97 29 2 30 1 31 99 32 100 33 101 34
REMARK SMILES IDX 17 35 18 36 19 37 20 38 21 39 22 41 23 42 24 43 85 44 25 45
REMARK SMILES IDX 84 46 26 47 27 48 28 49 78 50 29 51 83 52 77 53 79 54 30 55
REMARK SMILES IDX 82 56 76 57 75 58 31 60 63 61 43 62 62 63 44 64 47 65 61 66
REMARK SMILES IDX 80 67 45 68 46 69 60 71 81 72 48 73 32 74 33 75 41 76 34 77
REMARK SMILES IDX 35 78 39 79 42 80 36 81 37 82 40 83 38 84 64 85 65 86 73 87
REMARK SMILES IDX 66 88 67 89 71 90 74 91 68 92 69 93 72 94 70 95 49 96 50 97
REMARK SMILES IDX 58 98 51 99 52 100 56 101 59 102 53 103 54 104 57 105 55 106
REMARK H PARENT 13 7 8 13 20 40 79 59 47 70
REMARK Flexibility Score: inf
ROOT
ATOM      1  C   UNL A   1      30.726  27.547  23.611  1.00  0.00     0.002 C 
ENDROOT
BRANCH   1   2
ATOM      2  C   UNL A   1      31.523  27.148  22.366  1.00  0.00     0.021 C 
BRANCH   2   3
ATOM      3  C   UNL A   1      32.723  26.235  22.576  1.00  0.00     0.116 C 
BRANCH   3   4
ATOM      4  N   UNL A   1      33.468  26.464  23.794  1.00  0.00    -0.352 N 
ATOM      5  C   UNL A   1      33.667  25.605  24.852  1.00  0.00     0.253 C 
ATOM      6  O   UNL A   1      34.435  25.944  25.752  1.00  0.00    -0.269 OA
ATOM      7  H   UNL A   1      33.887  27.351  23.880  1.00  0.00     0.163 HD
BRANCH   5   8
ATOM      8  C   UNL A   1      32.881  24.349  24.999  1.00  0.00     0.063 A 
ATOM      9  C   UNL A   1      35.197  21.323  24.519  1.00  0.00     0.114 C 
ATOM     10  N   UNL A   1      34.730  22.719  24.663  1.00  0.00    -0.377 N 
ATOM     11  C   UNL A   1      34.144  20.434  25.177  1.00  0.00     0.027 C 
ATOM     12  C   UNL A   1      33.361  23.040  24.801  1.00  0.00     0.051 A 
ATOM     13  H   UNL A   1      35.394  23.447  24.662  1.00  0.00     0.161 HD
ATOM     14  C   UNL A   1      32.883  20.646  24.322  1.00  0.00     0.030 C 
ATOM     15  C   UNL A   1      34.176  18.914  25.364  1.00  0.00    -0.005 C 
ATOM     16  C   UNL A   1      32.383  21.990  24.755  1.00  0.00    -0.020 A 
ATOM     17  C   UNL A   1      32.163  19.287  24.439  1.00  0.00    -0.003 C 
ATOM     18  C   UNL A   1      34.263  18.149  24.040  1.00  0.00     0.004 C 
ATOM     19  C   UNL A   1      32.694  18.703  25.749  1.00  0.00     0.008 C 
ATOM     20  C   UNL A   1      31.533  24.551  25.360  1.00  0.00     0.016 A 
ATOM     21  C   UNL A   1      31.043  22.213  25.080  1.00  0.00     0.006 A 
ATOM     22  C   UNL A   1      32.862  18.338  23.430  1.00  0.00     0.004 C 
ATOM     23  C   UNL A   1      30.629  23.490  25.427  1.00  0.00     0.001 A 
BRANCH   9  24
ATOM     24  C   UNL A   1      36.592  21.114  25.077  1.00  0.00    -0.018 A 
ATOM     25  C   UNL A   1      39.346  20.953  25.745  1.00  0.00     0.196 A 
ATOM     26  C   UNL A   1      38.686  19.865  25.164  1.00  0.00     0.054 A 
ATOM     27  C   UNL A   1      38.605  22.092  26.058  1.00  0.00     0.311 A 
ATOM     28  C   UNL A   1      37.320  19.937  24.850  1.00  0.00     0.010 A 
ATOM     29  C   UNL A   1      37.239  22.177  25.733  1.00  0.00     0.095 A 
BRANCH  25  30
ATOM     30  O   UNL A   1      40.712  20.916  25.732  1.00  0.00    -0.490 OA
ATOM     31  C   UNL A   1      41.287  19.968  26.628  1.00  0.00     0.278 C 
ENDBRANCH  25  30
BRANCH  27  32
ATOM     32  N   UNL A   1      39.226  23.262  26.656  1.00  0.00     0.066 N 
ATOM     33  O   UNL A   1      38.922  24.364  26.180  1.00  0.00    -0.258 OA
ATOM     34  O   UNL A   1      39.941  23.090  27.655  1.00  0.00    -0.258 OA
ENDBRANCH  27  32
ENDBRANCH   9  24
ENDBRANCH   5   8
ENDBRANCH   3   4
ENDBRANCH   2   3
ENDBRANCH   1   2
BRANCH   1  35
ATOM     35  C   UNL A   1      31.087  28.875  24.283  1.00  0.00     0.002 C 
BRANCH  35  36
ATOM     36  C   UNL A   1      31.675  28.808  25.693  1.00  0.00     0.021 C 
BRANCH  36  37
ATOM     37  C   UNL A   1      32.961  29.593  25.925  1.00  0.00     0.116 C 
BRANCH  37  38
ATOM     38  N   UNL A   1      32.724  30.953  26.372  1.00  0.00    -0.352 N 
ATOM     39  C   UNL A   1      33.416  31.719  27.278  1.00  0.00     0.251 C 
ATOM     40  H   UNL A   1      31.946  31.395  25.963  1.00  0.00     0.163 HD
ATOM     41  O   UNL A   1      32.976  32.807  27.624  1.00  0.00    -0.269 OA
BRANCH  39  42
ATOM     42  C   UNL A   1      34.678  31.217  27.868  1.00  0.00     0.039 A 
ATOM     43  C   UNL A   1      35.746  32.108  28.009  1.00  0.00     0.014 A 
ATOM     44  C   UNL A   1      34.816  29.888  28.274  1.00  0.00     0.014 A 
ATOM     45  C   UNL A   1      36.921  31.687  28.632  1.00  0.00     0.010 A 
ATOM     46  C   UNL A   1      35.964  29.488  28.958  1.00  0.00     0.010 A 
ATOM     47  C   UNL A   1      37.023  30.387  29.153  1.00  0.00    -0.014 A 
BRANCH  47  48
ATOM     48  C   UNL A   1      38.208  29.976  29.948  1.00  0.00     0.031 A 
ATOM     49  C   UNL A   1      38.401  30.470  31.353  1.00  0.00     0.074 A 
ATOM     50  C   UNL A   1      39.148  29.202  29.371  1.00  0.00     0.049 A 
ATOM     51  N   UNL A   1      39.400  30.261  32.175  1.00  0.00    -0.248 NA
ATOM     52  C   UNL A   1      37.345  31.334  31.902  1.00  0.00     0.031 C 
ATOM     53  C   UNL A   1      39.103  28.705  27.995  1.00  0.00     0.029 A 
ATOM     54  N   UNL A   1      40.331  28.710  29.862  1.00  0.00    -0.354 N 
ATOM     55  C   UNL A   1      39.097  30.970  33.329  1.00  0.00     0.074 A 
ATOM     56  C   UNL A   1      37.846  31.656  33.086  1.00  0.00     0.031 C 
ATOM     57  C   UNL A   1      40.196  27.965  27.757  1.00  0.00     0.029 A 
ATOM     58  C   UNL A   1      41.038  27.967  28.948  1.00  0.00     0.049 A 
ATOM     59  H   UNL A   1      40.644  28.874  30.782  1.00  0.00     0.167 HD
ATOM     60  C   UNL A   1      39.792  31.028  34.491  1.00  0.00     0.037 A 
ATOM     61  C   UNL A   1      42.239  27.366  29.054  1.00  0.00     0.037 A 
ATOM     62  C   UNL A   1      41.034  30.337  34.730  1.00  0.00     0.049 A 
ATOM     63  C   UNL A   1      42.997  27.463  30.348  1.00  0.00     0.074 A 
ATOM     64  C   UNL A   1      41.783  30.284  35.893  1.00  0.00     0.029 A 
ATOM     65  N   UNL A   1      41.717  29.587  33.782  1.00  0.00    -0.354 N 
ATOM     66  N   UNL A   1      42.665  28.073  31.460  1.00  0.00    -0.248 NA
ATOM     67  C   UNL A   1      44.300  26.785  30.402  1.00  0.00     0.031 C 
ATOM     68  C   UNL A   1      42.947  29.555  35.633  1.00  0.00     0.029 A 
ATOM     69  C   UNL A   1      42.895  29.098  34.327  1.00  0.00     0.049 A 
ATOM     70  H   UNL A   1      41.411  29.426  32.860  1.00  0.00     0.167 HD
ATOM     71  C   UNL A   1      43.705  27.839  32.349  1.00  0.00     0.074 A 
ATOM     72  C   UNL A   1      44.667  27.009  31.656  1.00  0.00     0.031 C 
ATOM     73  C   UNL A   1      43.850  28.277  33.625  1.00  0.00     0.037 A 
BRANCH  60  74
ATOM     74  C   UNL A   1      39.228  31.872  35.599  1.00  0.00     0.064 A 
ATOM     75  C   UNL A   1      38.329  31.349  36.541  1.00  0.00     0.173 A 
ATOM     76  C   UNL A   1      39.630  33.209  35.751  1.00  0.00     0.173 A 
ATOM     77  F   UNL A   1      37.906  30.081  36.439  1.00  0.00    -0.203 F 
ATOM     78  C   UNL A   1      37.831  32.140  37.575  1.00  0.00     0.198 A 
ATOM     79  C   UNL A   1      39.155  33.987  36.804  1.00  0.00     0.198 A 
ATOM     80  F   UNL A   1      40.494  33.759  34.884  1.00  0.00    -0.203 F 
ATOM     81  F   UNL A   1      36.936  31.632  38.432  1.00  0.00    -0.200 F 
ATOM     82  C   UNL A   1      38.251  33.455  37.709  1.00  0.00     0.200 A 
ATOM     83  F   UNL A   1      39.575  35.252  36.942  1.00  0.00    -0.200 F 
ATOM     84  F   UNL A   1      37.778  34.211  38.711  1.00  0.00    -0.200 F 
ENDBRANCH  60  74
BRANCH  61  85
ATOM     85  C   UNL A   1      42.792  26.608  27.901  1.00  0.00     0.064 A 
ATOM     86  C   UNL A   1      43.498  27.264  26.883  1.00  0.00     0.173 A 
ATOM     87  C   UNL A   1      42.620  25.221  27.789  1.00  0.00     0.173 A 
ATOM     88  F   UNL A   1      43.666  28.593  26.933  1.00  0.00    -0.203 F 
ATOM     89  C   UNL A   1      43.992  26.563  25.785  1.00  0.00     0.198 A 
ATOM     90  C   UNL A   1      43.144  24.517  26.708  1.00  0.00     0.198 A 
ATOM     91  F   UNL A   1      41.944  24.550  28.732  1.00  0.00    -0.203 F 
ATOM     92  F   UNL A   1      44.617  27.221  24.799  1.00  0.00    -0.200 F 
ATOM     93  C   UNL A   1      43.821  25.189  25.702  1.00  0.00     0.200 A 
ATOM     94  F   UNL A   1      42.986  23.188  26.635  1.00  0.00    -0.200 F 
ATOM     95  F   UNL A   1      44.299  24.516  24.647  1.00  0.00    -0.200 F 
ENDBRANCH  61  85
BRANCH  73  96
ATOM     96  C   UNL A   1      45.088  27.849  34.361  1.00  0.00     0.064 A 
ATOM     97  C   UNL A   1      46.264  28.614  34.333  1.00  0.00     0.173 A 
ATOM     98  C   UNL A   1      45.089  26.672  35.126  1.00  0.00     0.173 A 
ATOM     99  F   UNL A   1      46.321  29.738  33.603  1.00  0.00    -0.203 F 
ATOM    100  C   UNL A   1      47.403  28.202  35.020  1.00  0.00     0.198 A 
ATOM    101  C   UNL A   1      46.219  26.283  35.841  1.00  0.00     0.198 A 
ATOM    102  F   UNL A   1      43.990  25.906  35.193  1.00  0.00    -0.203 F 
ATOM    103  F   UNL A   1      48.531  28.921  34.936  1.00  0.00    -0.200 F 
ATOM    104  C   UNL A   1      47.376  27.042  35.780  1.00  0.00     0.200 A 
ATOM    105  F   UNL A   1      46.186  25.170  36.587  1.00  0.00    -0.200 F 
ATOM    106  F   UNL A   1      48.471  26.652  36.447  1.00  0.00    -0.200 F 
ENDBRANCH  73  96
ENDBRANCH  47  48
ENDBRANCH  39  42
ENDBRANCH  37  38
ENDBRANCH  36  37
ENDBRANCH  35  36
ENDBRANCH   1  35
TORSDOF 16
ENDMDL
