MODEL 1
REMARK VINA RESULT:     -10.5      0.000      0.000
REMARK SMILES N#CCCNC(=O)COc1ccc(C(=O)NCCCCCCNC(=O)c2ccc(-c3c4nc(c(-c5c(F)c(F)c(F)c(F)c5F)c5ccc([nH]5)c(-c5c(F)c(F)c(F)c(F)c5F)c5nc(c(-c6c(F)c(F)c(F)c(F)c6F)c6ccc3[nH]6)C=C5)C=C4)cc2)nc1
REMARK SMILES IDX 17 1 16 2 14 3 15 4 13 6 10 7 11 8 90 9 12 10 89 11 9 12
REMARK SMILES IDX 8 13 6 14 5 15 7 17 4 18 3 19 2 20 1 21 18 22 19 23 20 24
REMARK SMILES IDX 21 25 22 26 23 27 24 28 25 30 26 31 27 32 88 33 28 34 87 35
REMARK SMILES IDX 29 36 30 37 31 38 81 39 32 40 86 41 80 42 82 43 33 44 85 45
REMARK SMILES IDX 79 46 78 47 34 49 66 50 46 51 65 52 47 53 50 54 64 55 83 56
REMARK SMILES IDX 48 57 49 58 63 60 84 61 51 62 35 63 36 64 44 65 37 66 38 67
REMARK SMILES IDX 42 68 45 69 39 70 40 71 43 72 41 73 67 74 68 75 76 76 69 77
REMARK SMILES IDX 70 78 74 79 77 80 71 81 72 82 75 83 73 84 52 85 53 86 61 87
REMARK SMILES IDX 54 88 55 89 59 90 62 91 56 92 57 93 60 94 58 95
REMARK H PARENT 16 5 5 16 23 29 82 48 50 59
REMARK Flexibility Score: inf
ROOT
ATOM      1  C   UNL A   1      33.999  23.345  26.657  1.00  0.00     0.116 C 
ENDROOT
BRANCH   1   2
ATOM      2  N   UNL A   1      33.051  22.312  26.284  1.00  0.00    -0.351 N 
ATOM      3  C   UNL A   1      31.858  22.337  25.595  1.00  0.00     0.269 C 
ATOM      4  O   UNL A   1      31.290  21.256  25.434  1.00  0.00    -0.268 OA
ATOM      5  H   UNL A   1      33.313  21.411  26.582  1.00  0.00     0.163 HD
BRANCH   3   6
ATOM      6  C   UNL A   1      31.256  23.594  25.031  1.00  0.00     0.128 A 
ATOM      7  C   UNL A   1      30.053  25.916  24.160  1.00  0.00     0.138 A 
ATOM      8  C   UNL A   1      30.696  25.092  23.249  1.00  0.00     0.050 A 
ATOM      9  C   UNL A   1      30.080  25.546  25.493  1.00  0.00     0.158 A 
ATOM     10  C   UNL A   1      31.350  23.948  23.695  1.00  0.00     0.038 A 
ATOM     11  N   UNL A   1      30.634  24.396  25.940  1.00  0.00    -0.247 NA
BRANCH   7  12
ATOM     12  O   UNL A   1      29.548  27.131  23.804  1.00  0.00    -0.482 OA
BRANCH  12  13
ATOM     13  C   UNL A   1      30.551  28.056  23.400  1.00  0.00     0.329 C 
BRANCH  13  14
ATOM     14  C   UNL A   1      30.485  29.475  23.976  1.00  0.00     0.257 C 
ATOM     15  N   UNL A   1      29.599  30.383  23.466  1.00  0.00    -0.352 N 
ATOM     16  H   UNL A   1      29.617  31.271  23.889  1.00  0.00     0.163 HD
ATOM     17  O   UNL A   1      31.230  29.833  24.889  1.00  0.00    -0.271 OA
BRANCH  15  18
ATOM     18  C   UNL A   1      28.632  30.225  22.388  1.00  0.00     0.131 C 
BRANCH  18  19
ATOM     19  C   UNL A   1      28.500  31.467  21.500  1.00  0.00     0.141 C 
BRANCH  19  20
ATOM     20  C   UNL A   1      28.640  32.728  22.338  1.00  0.00     0.064 C 
ATOM     21  N   UNL A   1      28.756  33.773  23.033  1.00  0.00    -0.198 NA
ENDBRANCH  19  20
ENDBRANCH  18  19
ENDBRANCH  15  18
ENDBRANCH  13  14
ENDBRANCH  12  13
ENDBRANCH   7  12
ENDBRANCH   3   6
ENDBRANCH   1   2
BRANCH   1  22
ATOM     22  C   UNL A   1      34.847  23.747  25.446  1.00  0.00     0.021 C 
BRANCH  22  23
ATOM     23  C   UNL A   1      34.771  25.247  25.128  1.00  0.00     0.002 C 
BRANCH  23  24
ATOM     24  C   UNL A   1      33.694  26.014  25.904  1.00  0.00     0.002 C 
BRANCH  24  25
ATOM     25  C   UNL A   1      33.861  27.537  25.908  1.00  0.00     0.021 C 
BRANCH  25  26
ATOM     26  C   UNL A   1      33.458  28.206  27.218  1.00  0.00     0.116 C 
BRANCH  26  27
ATOM     27  N   UNL A   1      33.429  29.654  27.093  1.00  0.00    -0.352 N 
ATOM     28  C   UNL A   1      34.331  30.582  27.546  1.00  0.00     0.251 C 
ATOM     29  H   UNL A   1      32.650  30.021  26.616  1.00  0.00     0.163 HD
ATOM     30  O   UNL A   1      34.039  31.773  27.558  1.00  0.00    -0.269 OA
BRANCH  28  31
ATOM     31  C   UNL A   1      35.659  30.146  28.024  1.00  0.00     0.039 A 
ATOM     32  C   UNL A   1      35.796  29.720  29.348  1.00  0.00     0.014 A 
ATOM     33  C   UNL A   1      36.773  30.196  27.182  1.00  0.00     0.014 A 
ATOM     34  C   UNL A   1      37.045  29.312  29.818  1.00  0.00     0.010 A 
ATOM     35  C   UNL A   1      38.001  29.718  27.628  1.00  0.00     0.010 A 
ATOM     36  C   UNL A   1      38.154  29.294  28.956  1.00  0.00    -0.014 A 
BRANCH  36  37
ATOM     37  C   UNL A   1      39.494  28.880  29.438  1.00  0.00     0.031 A 
ATOM     38  C   UNL A   1      40.218  29.727  30.448  1.00  0.00     0.074 A 
ATOM     39  C   UNL A   1      40.078  27.778  28.933  1.00  0.00     0.049 A 
ATOM     40  N   UNL A   1      41.412  29.572  30.958  1.00  0.00    -0.248 NA
ATOM     41  C   UNL A   1      39.511  30.925  30.928  1.00  0.00     0.031 C 
ATOM     42  C   UNL A   1      39.490  26.897  27.925  1.00  0.00     0.029 A 
ATOM     43  N   UNL A   1      41.300  27.215  29.199  1.00  0.00    -0.354 N 
ATOM     44  C   UNL A   1      41.605  30.658  31.803  1.00  0.00     0.074 A 
ATOM     45  C   UNL A   1      40.432  31.497  31.688  1.00  0.00     0.031 C 
ATOM     46  C   UNL A   1      40.337  25.883  27.683  1.00  0.00     0.029 A 
ATOM     47  C   UNL A   1      41.539  26.064  28.492  1.00  0.00     0.049 A 
ATOM     48  H   UNL A   1      41.943  27.600  29.838  1.00  0.00     0.167 HD
ATOM     49  C   UNL A   1      42.652  30.919  32.622  1.00  0.00     0.037 A 
ATOM     50  C   UNL A   1      42.609  25.247  28.501  1.00  0.00     0.037 A 
ATOM     51  C   UNL A   1      43.808  30.071  32.746  1.00  0.00     0.049 A 
ATOM     52  C   UNL A   1      43.769  25.568  29.402  1.00  0.00     0.074 A 
ATOM     53  C   UNL A   1      44.906  30.219  33.575  1.00  0.00     0.029 A 
ATOM     54  N   UNL A   1      44.016  28.911  32.011  1.00  0.00    -0.354 N 
ATOM     55  N   UNL A   1      43.918  26.564  30.240  1.00  0.00    -0.248 NA
ATOM     56  C   UNL A   1      44.910  24.642  29.361  1.00  0.00     0.031 C 
ATOM     57  C   UNL A   1      45.796  29.172  33.313  1.00  0.00     0.029 A 
ATOM     58  C   UNL A   1      45.232  28.343  32.357  1.00  0.00     0.049 A 
ATOM     59  H   UNL A   1      43.390  28.547  31.344  1.00  0.00     0.167 HD
ATOM     60  C   UNL A   1      45.148  26.368  30.854  1.00  0.00     0.074 A 
ATOM     61  C   UNL A   1      45.702  25.152  30.294  1.00  0.00     0.031 C 
ATOM     62  C   UNL A   1      45.760  27.123  31.799  1.00  0.00     0.037 A 
BRANCH  49  63
ATOM     63  C   UNL A   1      42.584  32.177  33.441  1.00  0.00     0.064 A 
ATOM     64  C   UNL A   1      43.068  33.401  32.950  1.00  0.00     0.173 A 
ATOM     65  C   UNL A   1      42.037  32.161  34.732  1.00  0.00     0.173 A 
ATOM     66  F   UNL A   1      43.613  33.470  31.726  1.00  0.00    -0.203 F 
ATOM     67  C   UNL A   1      43.052  34.547  33.739  1.00  0.00     0.198 A 
ATOM     68  C   UNL A   1      41.991  33.319  35.506  1.00  0.00     0.198 A 
ATOM     69  F   UNL A   1      41.554  31.022  35.249  1.00  0.00    -0.203 F 
ATOM     70  F   UNL A   1      43.585  35.686  33.274  1.00  0.00    -0.200 F 
ATOM     71  C   UNL A   1      42.510  34.507  35.014  1.00  0.00     0.200 A 
ATOM     72  F   UNL A   1      41.454  33.282  36.733  1.00  0.00    -0.200 F 
ATOM     73  F   UNL A   1      42.499  35.611  35.775  1.00  0.00    -0.200 F 
ENDBRANCH  49  63
BRANCH  50  74
ATOM     74  C   UNL A   1      42.605  24.014  27.672  1.00  0.00     0.064 A 
ATOM     75  C   UNL A   1      42.986  24.062  26.324  1.00  0.00     0.173 A 
ATOM     76  C   UNL A   1      42.238  22.770  28.203  1.00  0.00     0.173 A 
ATOM     77  F   UNL A   1      43.328  25.233  25.767  1.00  0.00    -0.203 F 
ATOM     78  C   UNL A   1      42.984  22.915  25.534  1.00  0.00     0.198 A 
ATOM     79  C   UNL A   1      42.260  21.619  27.419  1.00  0.00     0.198 A 
ATOM     80  F   UNL A   1      41.871  22.671  29.490  1.00  0.00    -0.203 F 
ATOM     81  F   UNL A   1      43.316  22.996  24.238  1.00  0.00    -0.200 F 
ATOM     82  C   UNL A   1      42.627  21.694  26.083  1.00  0.00     0.200 A 
ATOM     83  F   UNL A   1      41.928  20.438  27.956  1.00  0.00    -0.200 F 
ATOM     84  F   UNL A   1      42.632  20.589  25.325  1.00  0.00    -0.200 F 
ENDBRANCH  50  74
BRANCH  62  85
ATOM     85  C   UNL A   1      47.076  26.629  32.327  1.00  0.00     0.064 A 
ATOM     86  C   UNL A   1      47.151  25.724  33.395  1.00  0.00     0.173 A 
ATOM     87  C   UNL A   1      48.276  27.044  31.731  1.00  0.00     0.173 A 
ATOM     88  F   UNL A   1      46.033  25.310  34.010  1.00  0.00    -0.203 F 
ATOM     89  C   UNL A   1      48.382  25.273  33.865  1.00  0.00     0.198 A 
ATOM     90  C   UNL A   1      49.503  26.567  32.183  1.00  0.00     0.198 A 
ATOM     91  F   UNL A   1      48.258  27.904  30.702  1.00  0.00    -0.203 F 
ATOM     92  F   UNL A   1      48.433  24.447  34.919  1.00  0.00    -0.200 F 
ATOM     93  C   UNL A   1      49.555  25.689  33.254  1.00  0.00     0.200 A 
ATOM     94  F   UNL A   1      50.636  26.960  31.582  1.00  0.00    -0.200 F 
ATOM     95  F   UNL A   1      50.739  25.249  33.703  1.00  0.00    -0.200 F 
ENDBRANCH  62  85
ENDBRANCH  36  37
ENDBRANCH  28  31
ENDBRANCH  26  27
ENDBRANCH  25  26
ENDBRANCH  24  25
ENDBRANCH  23  24
ENDBRANCH  22  23
ENDBRANCH   1  22
TORSDOF 19
ENDMDL
MODEL 2
REMARK VINA RESULT:     -10.5      4.010      7.145
REMARK SMILES N#CCCNC(=O)COc1ccc(C(=O)NCCCCCCNC(=O)c2ccc(-c3c4nc(c(-c5c(F)c(F)c(F)c(F)c5F)c5ccc([nH]5)c(-c5c(F)c(F)c(F)c(F)c5F)c5nc(c(-c6c(F)c(F)c(F)c(F)c6F)c6ccc3[nH]6)C=C5)C=C4)cc2)nc1
REMARK SMILES IDX 17 1 16 2 14 3 15 4 13 6 10 7 11 8 90 9 12 10 89 11 9 12
REMARK SMILES IDX 8 13 6 14 5 15 7 17 4 18 3 19 2 20 1 21 18 22 19 23 20 24
REMARK SMILES IDX 21 25 22 26 23 27 24 28 25 30 26 31 27 32 88 33 28 34 87 35
REMARK SMILES IDX 29 36 30 37 31 38 81 39 32 40 86 41 80 42 82 43 33 44 85 45
REMARK SMILES IDX 79 46 78 47 34 49 66 50 46 51 65 52 47 53 50 54 64 55 83 56
REMARK SMILES IDX 48 57 49 58 63 60 84 61 51 62 35 63 36 64 44 65 37 66 38 67
REMARK SMILES IDX 42 68 45 69 39 70 40 71 43 72 41 73 67 74 68 75 76 76 69 77
REMARK SMILES IDX 70 78 74 79 77 80 71 81 72 82 75 83 73 84 52 85 53 86 61 87
REMARK SMILES IDX 54 88 55 89 59 90 62 91 56 92 57 93 60 94 58 95
REMARK H PARENT 16 5 5 16 23 29 82 48 50 59
REMARK Flexibility Score: inf
ROOT
ATOM      1  C   UNL A   1      34.523  22.858  26.329  1.00  0.00     0.116 C 
ENDROOT
BRANCH   1   2
ATOM      2  N   UNL A   1      33.269  22.871  27.057  1.00  0.00    -0.351 N 
ATOM      3  C   UNL A   1      32.037  23.427  26.794  1.00  0.00     0.269 C 
ATOM      4  O   UNL A   1      31.155  23.239  27.633  1.00  0.00    -0.268 OA
ATOM      5  H   UNL A   1      33.305  22.382  27.911  1.00  0.00     0.163 HD
BRANCH   3   6
ATOM      6  C   UNL A   1      31.733  24.212  25.548  1.00  0.00     0.128 A 
ATOM      7  C   UNL A   1      31.211  25.809  23.363  1.00  0.00     0.138 A 
ATOM      8  C   UNL A   1      30.816  24.480  23.353  1.00  0.00     0.050 A 
ATOM      9  C   UNL A   1      31.895  26.268  24.475  1.00  0.00     0.158 A 
ATOM     10  C   UNL A   1      31.127  23.659  24.432  1.00  0.00     0.038 A 
ATOM     11  N   UNL A   1      32.133  25.513  25.572  1.00  0.00    -0.247 NA
BRANCH   7  12
ATOM     12  O   UNL A   1      31.087  26.609  22.266  1.00  0.00    -0.482 OA
BRANCH  12  13
ATOM     13  C   UNL A   1      30.283  27.758  22.502  1.00  0.00     0.329 C 
BRANCH  13  14
ATOM     14  C   UNL A   1      30.935  29.133  22.313  1.00  0.00     0.257 C 
ATOM     15  N   UNL A   1      30.181  30.201  21.912  1.00  0.00    -0.352 N 
ATOM     16  H   UNL A   1      30.671  31.049  21.814  1.00  0.00     0.163 HD
ATOM     17  O   UNL A   1      32.140  29.304  22.499  1.00  0.00    -0.271 OA
BRANCH  15  18
ATOM     18  C   UNL A   1      28.757  30.266  21.610  1.00  0.00     0.131 C 
BRANCH  18  19
ATOM     19  C   UNL A   1      28.323  31.602  20.997  1.00  0.00     0.141 C 
BRANCH  19  20
ATOM     20  C   UNL A   1      28.455  32.717  22.022  1.00  0.00     0.064 C 
ATOM     21  N   UNL A   1      28.563  33.641  22.873  1.00  0.00    -0.198 NA
ENDBRANCH  19  20
ENDBRANCH  18  19
ENDBRANCH  15  18
ENDBRANCH  13  14
ENDBRANCH  12  13
ENDBRANCH   7  12
ENDBRANCH   3   6
ENDBRANCH   1   2
BRANCH   1  22
ATOM     22  C   UNL A   1      34.689  21.531  25.583  1.00  0.00     0.021 C 
BRANCH  22  23
ATOM     23  C   UNL A   1      36.071  21.371  24.934  1.00  0.00     0.002 C 
BRANCH  23  24
ATOM     24  C   UNL A   1      36.634  19.944  24.966  1.00  0.00     0.002 C 
BRANCH  24  25
ATOM     25  C   UNL A   1      38.138  19.837  24.699  1.00  0.00     0.021 C 
BRANCH  25  26
ATOM     26  C   UNL A   1      39.010  20.085  25.924  1.00  0.00     0.116 C 
BRANCH  26  27
ATOM     27  N   UNL A   1      40.115  19.145  25.996  1.00  0.00    -0.352 N 
ATOM     28  C   UNL A   1      41.461  19.392  26.089  1.00  0.00     0.251 C 
ATOM     29  H   UNL A   1      39.863  18.193  25.974  1.00  0.00     0.163 HD
ATOM     30  O   UNL A   1      42.270  18.488  25.907  1.00  0.00    -0.269 OA
BRANCH  28  31
ATOM     31  C   UNL A   1      41.939  20.753  26.406  1.00  0.00     0.039 A 
ATOM     32  C   UNL A   1      42.109  21.671  25.366  1.00  0.00     0.014 A 
ATOM     33  C   UNL A   1      42.257  21.110  27.719  1.00  0.00     0.014 A 
ATOM     34  C   UNL A   1      42.567  22.958  25.647  1.00  0.00     0.010 A 
ATOM     35  C   UNL A   1      42.641  22.415  28.008  1.00  0.00     0.010 A 
ATOM     36  C   UNL A   1      42.822  23.344  26.974  1.00  0.00    -0.014 A 
BRANCH  36  37
ATOM     37  C   UNL A   1      43.326  24.702  27.295  1.00  0.00     0.031 A 
ATOM     38  C   UNL A   1      42.398  25.717  27.905  1.00  0.00     0.074 A 
ATOM     39  C   UNL A   1      44.594  25.036  26.993  1.00  0.00     0.049 A 
ATOM     40  N   UNL A   1      42.623  26.969  28.212  1.00  0.00    -0.248 NA
ATOM     41  C   UNL A   1      41.024  25.269  28.180  1.00  0.00     0.031 C 
ATOM     42  C   UNL A   1      45.575  24.150  26.371  1.00  0.00     0.029 A 
ATOM     43  N   UNL A   1      45.271  26.215  27.169  1.00  0.00    -0.354 N 
ATOM     44  C   UNL A   1      41.419  27.459  28.699  1.00  0.00     0.074 A 
ATOM     45  C   UNL A   1      40.450  26.391  28.587  1.00  0.00     0.031 C 
ATOM     46  C   UNL A   1      46.742  24.805  26.248  1.00  0.00     0.029 A 
ATOM     47  C   UNL A   1      46.577  26.165  26.751  1.00  0.00     0.049 A 
ATOM     48  H   UNL A   1      44.859  27.021  27.560  1.00  0.00     0.167 HD
ATOM     49  C   UNL A   1      41.150  28.681  29.219  1.00  0.00     0.037 A 
ATOM     50  C   UNL A   1      47.532  27.114  26.775  1.00  0.00     0.037 A 
ATOM     51  C   UNL A   1      42.122  29.734  29.345  1.00  0.00     0.049 A 
ATOM     52  C   UNL A   1      47.206  28.470  27.338  1.00  0.00     0.074 A 
ATOM     53  C   UNL A   1      41.968  30.994  29.895  1.00  0.00     0.029 A 
ATOM     54  N   UNL A   1      43.438  29.647  28.909  1.00  0.00    -0.354 N 
ATOM     55  N   UNL A   1      46.081  28.906  27.850  1.00  0.00    -0.248 NA
ATOM     56  C   UNL A   1      48.288  29.464  27.330  1.00  0.00     0.031 C 
ATOM     57  C   UNL A   1      43.177  31.684  29.754  1.00  0.00     0.029 A 
ATOM     58  C   UNL A   1      44.101  30.838  29.162  1.00  0.00     0.049 A 
ATOM     59  H   UNL A   1      43.840  28.855  28.482  1.00  0.00     0.167 HD
ATOM     60  C   UNL A   1      46.328  30.210  28.260  1.00  0.00     0.074 A 
ATOM     61  C   UNL A   1      47.712  30.491  27.941  1.00  0.00     0.031 C 
ATOM     62  C   UNL A   1      45.485  31.093  28.851  1.00  0.00     0.037 A 
BRANCH  49  63
ATOM     63  C   UNL A   1      39.744  28.933  29.684  1.00  0.00     0.064 A 
ATOM     64  C   UNL A   1      38.774  29.485  28.831  1.00  0.00     0.173 A 
ATOM     65  C   UNL A   1      39.360  28.627  30.998  1.00  0.00     0.173 A 
ATOM     66  F   UNL A   1      39.092  29.808  27.568  1.00  0.00    -0.203 F 
ATOM     67  C   UNL A   1      37.491  29.767  29.290  1.00  0.00     0.198 A 
ATOM     68  C   UNL A   1      38.064  28.879  31.444  1.00  0.00     0.198 A 
ATOM     69  F   UNL A   1      40.242  28.092  31.854  1.00  0.00    -0.203 F 
ATOM     70  F   UNL A   1      36.605  30.360  28.477  1.00  0.00    -0.200 F 
ATOM     71  C   UNL A   1      37.135  29.460  30.594  1.00  0.00     0.200 A 
ATOM     72  F   UNL A   1      37.717  28.569  32.701  1.00  0.00    -0.200 F 
ATOM     73  F   UNL A   1      35.900  29.736  31.037  1.00  0.00    -0.200 F 
ENDBRANCH  49  63
BRANCH  50  74
ATOM     74  C   UNL A   1      48.905  26.793  26.307  1.00  0.00     0.064 A 
ATOM     75  C   UNL A   1      49.278  27.035  24.978  1.00  0.00     0.173 A 
ATOM     76  C   UNL A   1      49.870  26.255  27.168  1.00  0.00     0.173 A 
ATOM     77  F   UNL A   1      48.382  27.532  24.112  1.00  0.00    -0.203 F 
ATOM     78  C   UNL A   1      50.560  26.736  24.523  1.00  0.00     0.198 A 
ATOM     79  C   UNL A   1      51.160  25.980  26.720  1.00  0.00     0.198 A 
ATOM     80  F   UNL A   1      49.565  26.010  28.452  1.00  0.00    -0.203 F 
ATOM     81  F   UNL A   1      50.878  26.943  23.238  1.00  0.00    -0.200 F 
ATOM     82  C   UNL A   1      51.502  26.215  25.396  1.00  0.00     0.200 A 
ATOM     83  F   UNL A   1      52.073  25.489  27.569  1.00  0.00    -0.200 F 
ATOM     84  F   UNL A   1      52.738  25.933  24.961  1.00  0.00    -0.200 F 
ENDBRANCH  50  74
BRANCH  62  85
ATOM     85  C   UNL A   1      46.052  32.427  29.241  1.00  0.00     0.064 A 
ATOM     86  C   UNL A   1      45.968  33.542  28.395  1.00  0.00     0.173 A 
ATOM     87  C   UNL A   1      46.656  32.598  30.495  1.00  0.00     0.173 A 
ATOM     88  F   UNL A   1      45.414  33.427  27.178  1.00  0.00    -0.203 F 
ATOM     89  C   UNL A   1      46.495  34.773  28.779  1.00  0.00     0.198 A 
ATOM     90  C   UNL A   1      47.153  33.836  30.889  1.00  0.00     0.198 A 
ATOM     91  F   UNL A   1      46.755  31.564  31.345  1.00  0.00    -0.203 F 
ATOM     92  F   UNL A   1      46.449  35.812  27.935  1.00  0.00    -0.200 F 
ATOM     93  C   UNL A   1      47.080  34.920  30.028  1.00  0.00     0.200 A 
ATOM     94  F   UNL A   1      47.706  33.980  32.102  1.00  0.00    -0.200 F 
ATOM     95  F   UNL A   1      47.579  36.107  30.400  1.00  0.00    -0.200 F 
ENDBRANCH  62  85
ENDBRANCH  36  37
ENDBRANCH  28  31
ENDBRANCH  26  27
ENDBRANCH  25  26
ENDBRANCH  24  25
ENDBRANCH  23  24
ENDBRANCH  22  23
ENDBRANCH   1  22
TORSDOF 19
ENDMDL
MODEL 3
REMARK VINA RESULT:     -10.5      3.188      6.107
REMARK SMILES N#CCCNC(=O)COc1ccc(C(=O)NCCCCCCNC(=O)c2ccc(-c3c4nc(c(-c5c(F)c(F)c(F)c(F)c5F)c5ccc([nH]5)c(-c5c(F)c(F)c(F)c(F)c5F)c5nc(c(-c6c(F)c(F)c(F)c(F)c6F)c6ccc3[nH]6)C=C5)C=C4)cc2)nc1
REMARK SMILES IDX 17 1 16 2 14 3 15 4 13 6 10 7 11 8 90 9 12 10 89 11 9 12
REMARK SMILES IDX 8 13 6 14 5 15 7 17 4 18 3 19 2 20 1 21 18 22 19 23 20 24
REMARK SMILES IDX 21 25 22 26 23 27 24 28 25 30 26 31 27 32 88 33 28 34 87 35
REMARK SMILES IDX 29 36 30 37 31 38 81 39 32 40 86 41 80 42 82 43 33 44 85 45
REMARK SMILES IDX 79 46 78 47 34 49 66 50 46 51 65 52 47 53 50 54 64 55 83 56
REMARK SMILES IDX 48 57 49 58 63 60 84 61 51 62 35 63 36 64 44 65 37 66 38 67
REMARK SMILES IDX 42 68 45 69 39 70 40 71 43 72 41 73 67 74 68 75 76 76 69 77
REMARK SMILES IDX 70 78 74 79 77 80 71 81 72 82 75 83 73 84 52 85 53 86 61 87
REMARK SMILES IDX 54 88 55 89 59 90 62 91 56 92 57 93 60 94 58 95
REMARK H PARENT 16 5 5 16 23 29 82 48 50 59
REMARK Flexibility Score: inf
ROOT
ATOM      1  C   UNL A   1      32.434  27.326  26.520  1.00  0.00     0.116 C 
ENDROOT
BRANCH   1   2
ATOM      2  N   UNL A   1      31.082  26.818  26.653  1.00  0.00    -0.351 N 
ATOM      3  C   UNL A   1      30.463  25.670  26.209  1.00  0.00     0.269 C 
ATOM      4  O   UNL A   1      29.276  25.531  26.510  1.00  0.00    -0.268 OA
ATOM      5  H   UNL A   1      30.487  27.412  27.165  1.00  0.00     0.163 HD
BRANCH   3   6
ATOM      6  C   UNL A   1      31.167  24.605  25.416  1.00  0.00     0.128 A 
ATOM      7  C   UNL A   1      32.612  22.681  24.072  1.00  0.00     0.138 A 
ATOM      8  C   UNL A   1      31.444  23.178  23.514  1.00  0.00     0.050 A 
ATOM      9  C   UNL A   1      32.983  23.155  25.318  1.00  0.00     0.158 A 
ATOM     10  C   UNL A   1      30.686  24.109  24.215  1.00  0.00     0.038 A 
ATOM     11  N   UNL A   1      32.308  24.123  25.981  1.00  0.00    -0.247 NA
BRANCH   7  12
ATOM     12  O   UNL A   1      33.298  21.645  23.510  1.00  0.00    -0.482 OA
BRANCH  12  13
ATOM     13  C   UNL A   1      32.934  20.378  24.045  1.00  0.00     0.329 C 
BRANCH  13  14
ATOM     14  C   UNL A   1      34.018  19.577  24.776  1.00  0.00     0.257 C 
ATOM     15  N   UNL A   1      33.733  18.338  25.281  1.00  0.00    -0.352 N 
ATOM     16  H   UNL A   1      34.481  17.887  25.735  1.00  0.00     0.163 HD
ATOM     17  O   UNL A   1      35.151  20.029  24.940  1.00  0.00    -0.271 OA
BRANCH  15  18
ATOM     18  C   UNL A   1      32.484  17.590  25.241  1.00  0.00     0.131 C 
BRANCH  18  19
ATOM     19  C   UNL A   1      32.681  16.070  25.293  1.00  0.00     0.141 C 
BRANCH  19  20
ATOM     20  C   UNL A   1      34.164  15.733  25.287  1.00  0.00     0.064 C 
ATOM     21  N   UNL A   1      35.393  15.454  25.282  1.00  0.00    -0.198 NA
ENDBRANCH  19  20
ENDBRANCH  18  19
ENDBRANCH  15  18
ENDBRANCH  13  14
ENDBRANCH  12  13
ENDBRANCH   7  12
ENDBRANCH   3   6
ENDBRANCH   1   2
BRANCH   1  22
ATOM     22  C   UNL A   1      32.426  28.660  25.768  1.00  0.00     0.021 C 
BRANCH  22  23
ATOM     23  C   UNL A   1      31.977  29.842  26.640  1.00  0.00     0.002 C 
BRANCH  23  24
ATOM     24  C   UNL A   1      31.304  30.986  25.872  1.00  0.00     0.002 C 
BRANCH  24  25
ATOM     25  C   UNL A   1      31.235  32.318  26.625  1.00  0.00     0.021 C 
BRANCH  25  26
ATOM     26  C   UNL A   1      32.595  32.890  27.008  1.00  0.00     0.116 C 
BRANCH  26  27
ATOM     27  N   UNL A   1      32.474  34.216  27.592  1.00  0.00    -0.352 N 
ATOM     28  C   UNL A   1      33.116  34.747  28.682  1.00  0.00     0.251 C 
ATOM     29  H   UNL A   1      31.841  34.820  27.141  1.00  0.00     0.163 HD
ATOM     30  O   UNL A   1      32.728  35.800  29.175  1.00  0.00    -0.269 OA
BRANCH  28  31
ATOM     31  C   UNL A   1      34.278  34.046  29.265  1.00  0.00     0.039 A 
ATOM     32  C   UNL A   1      34.066  33.123  30.293  1.00  0.00     0.014 A 
ATOM     33  C   UNL A   1      35.575  34.327  28.828  1.00  0.00     0.014 A 
ATOM     34  C   UNL A   1      35.154  32.458  30.860  1.00  0.00     0.010 A 
ATOM     35  C   UNL A   1      36.650  33.610  29.341  1.00  0.00     0.010 A 
ATOM     36  C   UNL A   1      36.453  32.685  30.377  1.00  0.00    -0.014 A 
BRANCH  36  37
ATOM     37  C   UNL A   1      37.625  32.002  30.977  1.00  0.00     0.031 A 
ATOM     38  C   UNL A   1      38.068  32.363  32.368  1.00  0.00     0.074 A 
ATOM     39  C   UNL A   1      38.317  31.101  30.256  1.00  0.00     0.049 A 
ATOM     40  N   UNL A   1      39.093  31.925  33.053  1.00  0.00    -0.248 NA
ATOM     41  C   UNL A   1      37.264  33.375  33.072  1.00  0.00     0.031 C 
ATOM     42  C   UNL A   1      38.005  30.694  28.887  1.00  0.00     0.029 A 
ATOM     43  N   UNL A   1      39.430  30.367  30.579  1.00  0.00    -0.354 N 
ATOM     44  C   UNL A   1      39.065  32.616  34.257  1.00  0.00     0.074 A 
ATOM     45  C   UNL A   1      37.962  33.549  34.183  1.00  0.00     0.031 C 
ATOM     46  C   UNL A   1      38.884  29.756  28.498  1.00  0.00     0.029 A 
ATOM     47  C   UNL A   1      39.840  29.524  29.576  1.00  0.00     0.049 A 
ATOM     48  H   UNL A   1      39.889  30.437  31.447  1.00  0.00     0.167 HD
ATOM     49  C   UNL A   1      39.869  32.469  35.338  1.00  0.00     0.037 A 
ATOM     50  C   UNL A   1      40.871  28.659  29.538  1.00  0.00     0.037 A 
ATOM     51  C   UNL A   1      40.954  31.527  35.412  1.00  0.00     0.049 A 
ATOM     52  C   UNL A   1      41.763  28.528  30.741  1.00  0.00     0.074 A 
ATOM     53  C   UNL A   1      41.804  31.266  36.472  1.00  0.00     0.029 A 
ATOM     54  N   UNL A   1      41.340  30.689  34.374  1.00  0.00    -0.354 N 
ATOM     55  N   UNL A   1      41.694  29.143  31.896  1.00  0.00    -0.248 NA
ATOM     56  C   UNL A   1      42.876  27.573  30.635  1.00  0.00     0.031 C 
ATOM     57  C   UNL A   1      42.730  30.301  36.062  1.00  0.00     0.029 A 
ATOM     58  C   UNL A   1      42.427  29.922  34.764  1.00  0.00     0.049 A 
ATOM     59  H   UNL A   1      40.906  30.646  33.492  1.00  0.00     0.167 HD
ATOM     60  C   UNL A   1      42.727  28.626  32.668  1.00  0.00     0.074 A 
ATOM     61  C   UNL A   1      43.404  27.641  31.849  1.00  0.00     0.031 C 
ATOM     62  C   UNL A   1      43.079  28.935  33.940  1.00  0.00     0.037 A 
BRANCH  49  63
ATOM     63  C   UNL A   1      39.596  33.356  36.520  1.00  0.00     0.064 A 
ATOM     64  C   UNL A   1      40.237  34.596  36.673  1.00  0.00     0.173 A 
ATOM     65  C   UNL A   1      38.691  32.961  37.516  1.00  0.00     0.173 A 
ATOM     66  F   UNL A   1      41.121  35.017  35.755  1.00  0.00    -0.203 F 
ATOM     67  C   UNL A   1      40.020  35.383  37.800  1.00  0.00     0.198 A 
ATOM     68  C   UNL A   1      38.450  33.767  38.626  1.00  0.00     0.198 A 
ATOM     69  F   UNL A   1      38.045  31.790  37.418  1.00  0.00    -0.203 F 
ATOM     70  F   UNL A   1      40.697  36.529  37.957  1.00  0.00    -0.200 F 
ATOM     71  C   UNL A   1      39.123  34.970  38.774  1.00  0.00     0.200 A 
ATOM     72  F   UNL A   1      37.573  33.374  39.560  1.00  0.00    -0.200 F 
ATOM     73  F   UNL A   1      38.918  35.726  39.862  1.00  0.00    -0.200 F 
ENDBRANCH  49  63
BRANCH  50  74
ATOM     74  C   UNL A   1      41.077  27.807  28.339  1.00  0.00     0.064 A 
ATOM     75  C   UNL A   1      40.439  26.563  28.232  1.00  0.00     0.173 A 
ATOM     76  C   UNL A   1      41.895  28.215  27.276  1.00  0.00     0.173 A 
ATOM     77  F   UNL A   1      39.661  26.123  29.232  1.00  0.00    -0.203 F 
ATOM     78  C   UNL A   1      40.625  25.752  27.115  1.00  0.00     0.198 A 
ATOM     79  C   UNL A   1      42.061  27.414  26.149  1.00  0.00     0.198 A 
ATOM     80  F   UNL A   1      42.523  29.399  27.328  1.00  0.00    -0.203 F 
ATOM     81  F   UNL A   1      40.033  24.551  27.056  1.00  0.00    -0.200 F 
ATOM     82  C   UNL A   1      41.430  26.180  26.071  1.00  0.00     0.200 A 
ATOM     83  F   UNL A   1      42.829  27.837  25.135  1.00  0.00    -0.200 F 
ATOM     84  F   UNL A   1      41.604  25.403  24.994  1.00  0.00    -0.200 F 
ENDBRANCH  50  74
BRANCH  62  85
ATOM     85  C   UNL A   1      44.215  28.163  34.545  1.00  0.00     0.064 A 
ATOM     86  C   UNL A   1      45.535  28.634  34.504  1.00  0.00     0.173 A 
ATOM     87  C   UNL A   1      43.970  26.950  35.206  1.00  0.00     0.173 A 
ATOM     88  F   UNL A   1      45.823  29.781  33.870  1.00  0.00    -0.203 F 
ATOM     89  C   UNL A   1      46.573  27.905  35.077  1.00  0.00     0.198 A 
ATOM     90  C   UNL A   1      45.006  26.239  35.805  1.00  0.00     0.198 A 
ATOM     91  F   UNL A   1      42.724  26.459  35.279  1.00  0.00    -0.203 F 
ATOM     92  F   UNL A   1      47.833  28.349  34.983  1.00  0.00    -0.200 F 
ATOM     93  C   UNL A   1      46.307  26.713  35.734  1.00  0.00     0.200 A 
ATOM     94  F   UNL A   1      44.744  25.093  36.451  1.00  0.00    -0.200 F 
ATOM     95  F   UNL A   1      47.306  26.015  36.292  1.00  0.00    -0.200 F 
ENDBRANCH  62  85
ENDBRANCH  36  37
ENDBRANCH  28  31
ENDBRANCH  26  27
ENDBRANCH  25  26
ENDBRANCH  24  25
ENDBRANCH  23  24
ENDBRANCH  22  23
ENDBRANCH   1  22
TORSDOF 19
ENDMDL
