MODEL 1
REMARK VINA RESULT:     -10.6      0.000      0.000
REMARK SMILES C=CCSc1ccccc1C(=O)NCCCCCCNC(=O)c1ccc(-c2c3nc(c(-c4c(F)c(F)c(F)c(F)c4F)c4ccc([nH]4)c(-c4c(F)c(F)c(F)c(F)c4F)c4nc(c(-c5c(F)c(F)c(F)c(F)c5F)c5ccc2[nH]5)C=C4)C=C3)cc1
REMARK SMILES IDX 16 1 15 2 14 3 13 4 11 5 12 6 10 8 5 9 6 10 7 11 9 12 8 13
REMARK SMILES IDX 4 14 3 15 2 16 1 17 17 18 18 19 19 20 20 21 21 22 22 24
REMARK SMILES IDX 23 25 24 26 85 27 25 28 84 29 26 30 27 31 28 32 78 33 29 34
REMARK SMILES IDX 83 35 77 36 79 37 30 38 82 39 76 40 75 41 31 43 63 44 43 45
REMARK SMILES IDX 62 46 44 47 47 48 61 49 80 50 45 51 46 52 60 54 81 55 48 56
REMARK SMILES IDX 32 57 33 58 41 59 34 60 35 61 39 62 42 63 36 64 37 65 40 66
REMARK SMILES IDX 38 67 64 68 65 69 73 70 66 71 67 72 71 73 74 74 68 75 69 76
REMARK SMILES IDX 72 77 70 78 49 79 50 80 58 81 51 82 52 83 56 84 59 85 53 86
REMARK SMILES IDX 54 87 57 88 55 89
REMARK H PARENT 13 7 20 23 79 42 47 53
REMARK Flexibility Score: inf
ROOT
ATOM      1  C   UNL A   1      32.786  29.952  27.176  1.00  0.00     0.002 C 
ENDROOT
BRANCH   1   2
ATOM      2  C   UNL A   1      32.847  28.431  27.021  1.00  0.00     0.021 C 
BRANCH   2   3
ATOM      3  C   UNL A   1      31.607  27.821  26.354  1.00  0.00     0.116 C 
BRANCH   3   4
ATOM      4  N   UNL A   1      31.366  26.508  26.906  1.00  0.00    -0.352 N 
ATOM      5  C   UNL A   1      31.714  25.251  26.488  1.00  0.00     0.252 C 
ATOM      6  O   UNL A   1      31.212  24.308  27.106  1.00  0.00    -0.269 OA
ATOM      7  H   UNL A   1      30.852  26.517  27.745  1.00  0.00     0.163 HD
BRANCH   5   8
ATOM      8  C   UNL A   1      32.753  24.938  25.462  1.00  0.00     0.053 A 
ATOM      9  C   UNL A   1      32.611  24.848  24.060  1.00  0.00     0.020 A 
ATOM     10  C   UNL A   1      33.704  24.374  23.304  1.00  0.00     0.016 A 
ATOM     11  C   UNL A   1      34.909  24.003  23.901  1.00  0.00     0.001 A 
ATOM     12  C   UNL A   1      33.981  24.549  26.046  1.00  0.00     0.015 A 
ATOM     13  C   UNL A   1      35.048  24.084  25.278  1.00  0.00     0.001 A 
BRANCH   9  14
ATOM     14  S   UNL A   1      31.080  25.113  23.174  1.00  0.00    -0.121 SA
BRANCH  14  15
ATOM     15  C   UNL A   1      31.352  26.664  22.238  1.00  0.00     0.101 C 
BRANCH  15  16
ATOM     16  C   UNL A   1      30.568  27.842  22.732  1.00  0.00    -0.024 C 
ATOM     17  C   UNL A   1      29.349  27.749  23.283  1.00  0.00     0.005 C 
ENDBRANCH  15  16
ENDBRANCH  14  15
ENDBRANCH   9  14
ENDBRANCH   5   8
ENDBRANCH   3   4
ENDBRANCH   2   3
ENDBRANCH   1   2
BRANCH   1  18
ATOM     18  C   UNL A   1      31.559  30.602  26.528  1.00  0.00     0.002 C 
BRANCH  18  19
ATOM     19  C   UNL A   1      31.402  32.107  26.778  1.00  0.00     0.021 C 
BRANCH  19  20
ATOM     20  C   UNL A   1      32.711  32.886  26.888  1.00  0.00     0.116 C 
BRANCH  20  21
ATOM     21  N   UNL A   1      32.528  34.155  27.573  1.00  0.00    -0.352 N 
ATOM     22  C   UNL A   1      33.133  34.636  28.702  1.00  0.00     0.251 C 
ATOM     23  H   UNL A   1      31.871  34.761  27.161  1.00  0.00     0.163 HD
ATOM     24  O   UNL A   1      32.684  35.641  29.257  1.00  0.00    -0.269 OA
BRANCH  22  25
ATOM     25  C   UNL A   1      34.320  33.962  29.271  1.00  0.00     0.039 A 
ATOM     26  C   UNL A   1      34.126  32.887  30.143  1.00  0.00     0.014 A 
ATOM     27  C   UNL A   1      35.613  34.422  29.006  1.00  0.00     0.014 A 
ATOM     28  C   UNL A   1      35.227  32.253  30.722  1.00  0.00     0.010 A 
ATOM     29  C   UNL A   1      36.714  33.750  29.536  1.00  0.00     0.010 A 
ATOM     30  C   UNL A   1      36.531  32.670  30.413  1.00  0.00    -0.014 A 
BRANCH  30  31
ATOM     31  C   UNL A   1      37.708  32.000  31.022  1.00  0.00     0.031 A 
ATOM     32  C   UNL A   1      38.156  32.373  32.408  1.00  0.00     0.074 A 
ATOM     33  C   UNL A   1      38.394  31.085  30.313  1.00  0.00     0.049 A 
ATOM     34  N   UNL A   1      39.175  31.923  33.099  1.00  0.00    -0.248 NA
ATOM     35  C   UNL A   1      37.373  33.406  33.102  1.00  0.00     0.031 C 
ATOM     36  C   UNL A   1      38.085  30.672  28.944  1.00  0.00     0.029 A 
ATOM     37  N   UNL A   1      39.498  30.339  30.645  1.00  0.00    -0.354 N 
ATOM     38  C   UNL A   1      39.161  32.625  34.296  1.00  0.00     0.074 A 
ATOM     39  C   UNL A   1      38.064  33.567  34.220  1.00  0.00     0.031 C 
ATOM     40  C   UNL A   1      38.964  29.732  28.560  1.00  0.00     0.029 A 
ATOM     41  C   UNL A   1      39.913  29.495  29.644  1.00  0.00     0.049 A 
ATOM     42  H   UNL A   1      39.950  30.404  31.517  1.00  0.00     0.167 HD
ATOM     43  C   UNL A   1      39.973  32.484  35.370  1.00  0.00     0.037 A 
ATOM     44  C   UNL A   1      40.941  28.628  29.608  1.00  0.00     0.037 A 
ATOM     45  C   UNL A   1      41.045  31.526  35.454  1.00  0.00     0.049 A 
ATOM     46  C   UNL A   1      41.816  28.473  30.822  1.00  0.00     0.074 A 
ATOM     47  C   UNL A   1      41.892  31.268  36.517  1.00  0.00     0.029 A 
ATOM     48  N   UNL A   1      41.413  30.665  34.430  1.00  0.00    -0.354 N 
ATOM     49  N   UNL A   1      41.754  29.098  31.972  1.00  0.00    -0.248 NA
ATOM     50  C   UNL A   1      42.897  27.481  30.737  1.00  0.00     0.031 C 
ATOM     51  C   UNL A   1      42.797  30.275  36.126  1.00  0.00     0.029 A 
ATOM     52  C   UNL A   1      42.484  29.882  34.834  1.00  0.00     0.049 A 
ATOM     53  H   UNL A   1      40.979  30.616  33.549  1.00  0.00     0.167 HD
ATOM     54  C   UNL A   1      42.761  28.555  32.757  1.00  0.00     0.074 A 
ATOM     55  C   UNL A   1      43.415  27.541  31.955  1.00  0.00     0.031 C 
ATOM     56  C   UNL A   1      43.113  28.868  34.028  1.00  0.00     0.037 A 
BRANCH  43  57
ATOM     57  C   UNL A   1      39.732  33.384  36.546  1.00  0.00     0.064 A 
ATOM     58  C   UNL A   1      40.389  34.618  36.673  1.00  0.00     0.173 A 
ATOM     59  C   UNL A   1      38.808  33.028  37.540  1.00  0.00     0.173 A 
ATOM     60  F   UNL A   1      41.291  35.000  35.757  1.00  0.00    -0.203 F 
ATOM     61  C   UNL A   1      40.151  35.447  37.767  1.00  0.00     0.198 A 
ATOM     62  C   UNL A   1      38.551  33.873  38.617  1.00  0.00     0.198 A 
ATOM     63  F   UNL A   1      38.147  31.863  37.463  1.00  0.00    -0.203 F 
ATOM     64  F   UNL A   1      40.826  36.598  37.892  1.00  0.00    -0.200 F 
ATOM     65  C   UNL A   1      39.228  35.078  38.733  1.00  0.00     0.200 A 
ATOM     66  F   UNL A   1      37.649  33.521  39.543  1.00  0.00    -0.200 F 
ATOM     67  F   UNL A   1      38.995  35.880  39.781  1.00  0.00    -0.200 F 
ENDBRANCH  43  57
BRANCH  44  68
ATOM     68  C   UNL A   1      41.173  27.806  28.391  1.00  0.00     0.064 A 
ATOM     69  C   UNL A   1      40.517  26.579  28.218  1.00  0.00     0.173 A 
ATOM     70  C   UNL A   1      42.045  28.230  27.380  1.00  0.00     0.173 A 
ATOM     71  F   UNL A   1      39.687  26.124  29.168  1.00  0.00    -0.203 F 
ATOM     72  C   UNL A   1      40.741  25.797  27.087  1.00  0.00     0.198 A 
ATOM     73  C   UNL A   1      42.250  27.458  26.237  1.00  0.00     0.198 A 
ATOM     74  F   UNL A   1      42.692  29.399  27.496  1.00  0.00    -0.203 F 
ATOM     75  F   UNL A   1      40.133  24.609  26.966  1.00  0.00    -0.200 F 
ATOM     76  C   UNL A   1      41.602  26.241  26.095  1.00  0.00     0.200 A 
ATOM     77  F   UNL A   1      43.072  27.896  25.274  1.00  0.00    -0.200 F 
ATOM     78  F   UNL A   1      41.814  25.491  25.005  1.00  0.00    -0.200 F 
ENDBRANCH  44  68
BRANCH  56  79
ATOM     79  C   UNL A   1      44.227  28.076  34.647  1.00  0.00     0.064 A 
ATOM     80  C   UNL A   1      43.989  26.861  35.305  1.00  0.00     0.173 A 
ATOM     81  C   UNL A   1      45.554  28.523  34.544  1.00  0.00     0.173 A 
ATOM     82  F   UNL A   1      42.737  26.400  35.442  1.00  0.00    -0.203 F 
ATOM     83  C   UNL A   1      45.039  26.134  35.863  1.00  0.00     0.198 A 
ATOM     84  C   UNL A   1      46.602  27.780  35.080  1.00  0.00     0.198 A 
ATOM     85  F   UNL A   1      45.833  29.675  33.918  1.00  0.00    -0.203 F 
ATOM     86  F   UNL A   1      44.785  25.000  36.529  1.00  0.00    -0.200 F 
ATOM     87  C   UNL A   1      46.343  26.591  35.745  1.00  0.00     0.200 A 
ATOM     88  F   UNL A   1      47.863  28.216  34.954  1.00  0.00    -0.200 F 
ATOM     89  F   UNL A   1      47.351  25.888  36.278  1.00  0.00    -0.200 F 
ENDBRANCH  56  79
ENDBRANCH  30  31
ENDBRANCH  22  25
ENDBRANCH  20  21
ENDBRANCH  19  20
ENDBRANCH  18  19
ENDBRANCH   1  18
TORSDOF 16
ENDMDL
MODEL 2
REMARK VINA RESULT:     -10.6      0.689      2.350
REMARK SMILES C=CCSc1ccccc1C(=O)NCCCCCCNC(=O)c1ccc(-c2c3nc(c(-c4c(F)c(F)c(F)c(F)c4F)c4ccc([nH]4)c(-c4c(F)c(F)c(F)c(F)c4F)c4nc(c(-c5c(F)c(F)c(F)c(F)c5F)c5ccc2[nH]5)C=C4)C=C3)cc1
REMARK SMILES IDX 16 1 15 2 14 3 13 4 11 5 12 6 10 8 5 9 6 10 7 11 9 12 8 13
REMARK SMILES IDX 4 14 3 15 2 16 1 17 17 18 18 19 19 20 20 21 21 22 22 24
REMARK SMILES IDX 23 25 24 26 85 27 25 28 84 29 26 30 27 31 28 32 78 33 29 34
REMARK SMILES IDX 83 35 77 36 79 37 30 38 82 39 76 40 75 41 31 43 63 44 43 45
REMARK SMILES IDX 62 46 44 47 47 48 61 49 80 50 45 51 46 52 60 54 81 55 48 56
REMARK SMILES IDX 32 57 33 58 41 59 34 60 35 61 39 62 42 63 36 64 37 65 40 66
REMARK SMILES IDX 38 67 64 68 65 69 73 70 66 71 67 72 71 73 74 74 68 75 69 76
REMARK SMILES IDX 72 77 70 78 49 79 50 80 58 81 51 82 52 83 56 84 59 85 53 86
REMARK SMILES IDX 54 87 57 88 55 89
REMARK H PARENT 13 7 20 23 79 42 47 53
REMARK Flexibility Score: inf
ROOT
ATOM      1  C   UNL A   1      32.767  29.849  25.797  1.00  0.00     0.002 C 
ENDROOT
BRANCH   1   2
ATOM      2  C   UNL A   1      32.928  28.727  26.824  1.00  0.00     0.021 C 
BRANCH   2   3
ATOM      3  C   UNL A   1      31.611  28.279  27.470  1.00  0.00     0.116 C 
BRANCH   3   4
ATOM      4  N   UNL A   1      31.429  26.863  27.250  1.00  0.00    -0.352 N 
ATOM      5  C   UNL A   1      31.052  26.138  26.150  1.00  0.00     0.252 C 
ATOM      6  O   UNL A   1      30.832  24.937  26.332  1.00  0.00    -0.269 OA
ATOM      7  H   UNL A   1      31.612  26.310  28.044  1.00  0.00     0.163 HD
BRANCH   5   8
ATOM      8  C   UNL A   1      31.035  26.645  24.746  1.00  0.00     0.053 A 
ATOM      9  C   UNL A   1      32.092  26.688  23.810  1.00  0.00     0.020 A 
ATOM     10  C   UNL A   1      31.881  27.367  22.591  1.00  0.00     0.016 A 
ATOM     11  C   UNL A   1      30.667  27.986  22.291  1.00  0.00     0.001 A 
ATOM     12  C   UNL A   1      29.817  27.286  24.423  1.00  0.00     0.015 A 
ATOM     13  C   UNL A   1      29.632  27.951  23.211  1.00  0.00     0.001 A 
BRANCH   9  14
ATOM     14  S   UNL A   1      33.753  26.104  24.124  1.00  0.00    -0.121 SA
BRANCH  14  15
ATOM     15  C   UNL A   1      33.846  24.494  23.254  1.00  0.00     0.101 C 
BRANCH  15  16
ATOM     16  C   UNL A   1      32.932  23.435  23.794  1.00  0.00    -0.024 C 
ATOM     17  C   UNL A   1      31.879  22.945  23.122  1.00  0.00     0.005 C 
ENDBRANCH  15  16
ENDBRANCH  14  15
ENDBRANCH   9  14
ENDBRANCH   5   8
ENDBRANCH   3   4
ENDBRANCH   2   3
ENDBRANCH   1   2
BRANCH   1  18
ATOM     18  C   UNL A   1      31.387  30.514  25.801  1.00  0.00     0.002 C 
BRANCH  18  19
ATOM     19  C   UNL A   1      31.319  31.885  26.484  1.00  0.00     0.021 C 
BRANCH  19  20
ATOM     20  C   UNL A   1      32.668  32.484  26.873  1.00  0.00     0.116 C 
BRANCH  20  21
ATOM     21  N   UNL A   1      32.529  33.831  27.402  1.00  0.00    -0.352 N 
ATOM     22  C   UNL A   1      33.141  34.417  28.477  1.00  0.00     0.251 C 
ATOM     23  H   UNL A   1      31.900  34.409  26.914  1.00  0.00     0.163 HD
ATOM     24  O   UNL A   1      32.728  35.496  28.904  1.00  0.00    -0.269 OA
BRANCH  22  25
ATOM     25  C   UNL A   1      34.295  33.770  29.138  1.00  0.00     0.039 A 
ATOM     26  C   UNL A   1      35.584  34.187  28.794  1.00  0.00     0.014 A 
ATOM     27  C   UNL A   1      34.119  32.715  30.038  1.00  0.00     0.014 A 
ATOM     28  C   UNL A   1      36.694  33.570  29.376  1.00  0.00     0.010 A 
ATOM     29  C   UNL A   1      35.225  32.142  30.664  1.00  0.00     0.010 A 
ATOM     30  C   UNL A   1      36.523  32.552  30.327  1.00  0.00    -0.014 A 
BRANCH  30  31
ATOM     31  C   UNL A   1      37.697  31.893  30.953  1.00  0.00     0.031 A 
ATOM     32  C   UNL A   1      38.129  32.278  32.341  1.00  0.00     0.074 A 
ATOM     33  C   UNL A   1      38.395  30.976  30.258  1.00  0.00     0.049 A 
ATOM     34  N   UNL A   1      39.143  31.838  33.045  1.00  0.00    -0.248 NA
ATOM     35  C   UNL A   1      37.334  33.312  33.020  1.00  0.00     0.031 C 
ATOM     36  C   UNL A   1      38.102  30.551  28.890  1.00  0.00     0.029 A 
ATOM     37  N   UNL A   1      39.499  30.238  30.607  1.00  0.00    -0.354 N 
ATOM     38  C   UNL A   1      39.114  32.550  34.237  1.00  0.00     0.074 A 
ATOM     39  C   UNL A   1      38.012  33.485  34.143  1.00  0.00     0.031 C 
ATOM     40  C   UNL A   1      38.990  29.613  28.521  1.00  0.00     0.029 A 
ATOM     41  C   UNL A   1      39.929  29.390  29.616  1.00  0.00     0.049 A 
ATOM     42  H   UNL A   1      39.942  30.312  31.483  1.00  0.00     0.167 HD
ATOM     43  C   UNL A   1      39.916  32.420  35.320  1.00  0.00     0.037 A 
ATOM     44  C   UNL A   1      40.962  28.527  29.597  1.00  0.00     0.037 A 
ATOM     45  C   UNL A   1      40.991  31.468  35.422  1.00  0.00     0.049 A 
ATOM     46  C   UNL A   1      41.825  28.385  30.821  1.00  0.00     0.074 A 
ATOM     47  C   UNL A   1      41.829  31.223  36.496  1.00  0.00     0.029 A 
ATOM     48  N   UNL A   1      41.375  30.602  34.409  1.00  0.00    -0.354 N 
ATOM     49  N   UNL A   1      41.748  29.019  31.966  1.00  0.00    -0.248 NA
ATOM     50  C   UNL A   1      42.912  27.399  30.754  1.00  0.00     0.031 C 
ATOM     51  C   UNL A   1      42.743  30.231  36.121  1.00  0.00     0.029 A 
ATOM     52  C   UNL A   1      42.445  29.828  34.829  1.00  0.00     0.049 A 
ATOM     53  H   UNL A   1      40.949  30.545  33.523  1.00  0.00     0.167 HD
ATOM     54  C   UNL A   1      42.750  28.487  32.765  1.00  0.00     0.074 A 
ATOM     55  C   UNL A   1      43.417  27.470  31.977  1.00  0.00     0.031 C 
ATOM     56  C   UNL A   1      43.087  28.811  34.037  1.00  0.00     0.037 A 
BRANCH  43  57
ATOM     57  C   UNL A   1      39.658  33.328  36.487  1.00  0.00     0.064 A 
ATOM     58  C   UNL A   1      38.796  32.956  37.531  1.00  0.00     0.173 A 
ATOM     59  C   UNL A   1      40.308  34.568  36.584  1.00  0.00     0.173 A 
ATOM     60  F   UNL A   1      38.142  31.786  37.481  1.00  0.00    -0.203 F 
ATOM     61  C   UNL A   1      38.571  33.805  38.612  1.00  0.00     0.198 A 
ATOM     62  C   UNL A   1      40.103  35.401  37.681  1.00  0.00     0.198 A 
ATOM     63  F   UNL A   1      41.148  34.969  35.618  1.00  0.00    -0.203 F 
ATOM     64  F   UNL A   1      37.707  33.448  39.572  1.00  0.00    -0.200 F 
ATOM     65  C   UNL A   1      39.230  35.022  38.690  1.00  0.00     0.200 A 
ATOM     66  F   UNL A   1      40.750  36.572  37.762  1.00  0.00    -0.200 F 
ATOM     67  F   UNL A   1      39.018  35.835  39.735  1.00  0.00    -0.200 F 
ENDBRANCH  43  57
BRANCH  44  68
ATOM     68  C   UNL A   1      41.210  27.698  28.389  1.00  0.00     0.064 A 
ATOM     69  C   UNL A   1      42.114  28.116  27.403  1.00  0.00     0.173 A 
ATOM     70  C   UNL A   1      40.555  26.474  28.198  1.00  0.00     0.173 A 
ATOM     71  F   UNL A   1      42.751  29.290  27.534  1.00  0.00    -0.203 F 
ATOM     72  C   UNL A   1      42.340  27.350  26.262  1.00  0.00     0.198 A 
ATOM     73  C   UNL A   1      40.800  25.696  27.068  1.00  0.00     0.198 A 
ATOM     74  F   UNL A   1      39.685  26.027  29.115  1.00  0.00    -0.203 F 
ATOM     75  F   UNL A   1      43.178  27.794  25.316  1.00  0.00    -0.200 F 
ATOM     76  C   UNL A   1      41.687  26.138  26.098  1.00  0.00     0.200 A 
ATOM     77  F   UNL A   1      40.178  24.519  26.919  1.00  0.00    -0.200 F 
ATOM     78  F   UNL A   1      41.907  25.399  25.002  1.00  0.00    -0.200 F 
ENDBRANCH  44  68
BRANCH  56  79
ATOM     79  C   UNL A   1      44.199  28.029  34.673  1.00  0.00     0.064 A 
ATOM     80  C   UNL A   1      43.959  26.828  35.353  1.00  0.00     0.173 A 
ATOM     81  C   UNL A   1      45.527  28.473  34.565  1.00  0.00     0.173 A 
ATOM     82  F   UNL A   1      42.706  26.370  35.495  1.00  0.00    -0.203 F 
ATOM     83  C   UNL A   1      45.006  26.110  35.927  1.00  0.00     0.198 A 
ATOM     84  C   UNL A   1      46.573  27.739  35.116  1.00  0.00     0.198 A 
ATOM     85  F   UNL A   1      45.809  29.613  33.918  1.00  0.00    -0.203 F 
ATOM     86  F   UNL A   1      44.750  24.988  36.613  1.00  0.00    -0.200 F 
ATOM     87  C   UNL A   1      46.312  26.563  35.803  1.00  0.00     0.200 A 
ATOM     88  F   UNL A   1      47.834  28.171  34.985  1.00  0.00    -0.200 F 
ATOM     89  F   UNL A   1      47.317  25.869  36.351  1.00  0.00    -0.200 F 
ENDBRANCH  56  79
ENDBRANCH  30  31
ENDBRANCH  22  25
ENDBRANCH  20  21
ENDBRANCH  19  20
ENDBRANCH  18  19
ENDBRANCH   1  18
TORSDOF 16
ENDMDL
MODEL 3
REMARK VINA RESULT:     -10.5      2.071      3.320
REMARK SMILES C=CCSc1ccccc1C(=O)NCCCCCCNC(=O)c1ccc(-c2c3nc(c(-c4c(F)c(F)c(F)c(F)c4F)c4ccc([nH]4)c(-c4c(F)c(F)c(F)c(F)c4F)c4nc(c(-c5c(F)c(F)c(F)c(F)c5F)c5ccc2[nH]5)C=C4)C=C3)cc1
REMARK SMILES IDX 16 1 15 2 14 3 13 4 11 5 12 6 10 8 5 9 6 10 7 11 9 12 8 13
REMARK SMILES IDX 4 14 3 15 2 16 1 17 17 18 18 19 19 20 20 21 21 22 22 24
REMARK SMILES IDX 23 25 24 26 85 27 25 28 84 29 26 30 27 31 28 32 78 33 29 34
REMARK SMILES IDX 83 35 77 36 79 37 30 38 82 39 76 40 75 41 31 43 63 44 43 45
REMARK SMILES IDX 62 46 44 47 47 48 61 49 80 50 45 51 46 52 60 54 81 55 48 56
REMARK SMILES IDX 32 57 33 58 41 59 34 60 35 61 39 62 42 63 36 64 37 65 40 66
REMARK SMILES IDX 38 67 64 68 65 69 73 70 66 71 67 72 71 73 74 74 68 75 69 76
REMARK SMILES IDX 72 77 70 78 49 79 50 80 58 81 51 82 52 83 56 84 59 85 53 86
REMARK SMILES IDX 54 87 57 88 55 89
REMARK H PARENT 13 7 20 23 79 42 47 53
REMARK Flexibility Score: inf
ROOT
ATOM      1  C   UNL A   1      34.479  32.455  29.050  1.00  0.00     0.002 C 
ENDROOT
BRANCH   1   2
ATOM      2  C   UNL A   1      35.231  31.634  28.001  1.00  0.00     0.021 C 
BRANCH   2   3
ATOM      3  C   UNL A   1      34.370  30.568  27.309  1.00  0.00     0.116 C 
BRANCH   3   4
ATOM      4  N   UNL A   1      33.092  31.142  26.959  1.00  0.00    -0.352 N 
ATOM      5  C   UNL A   1      31.995  30.634  26.315  1.00  0.00     0.252 C 
ATOM      6  O   UNL A   1      31.107  31.440  26.023  1.00  0.00    -0.269 OA
ATOM      7  H   UNL A   1      32.988  32.081  27.236  1.00  0.00     0.163 HD
BRANCH   5   8
ATOM      8  C   UNL A   1      31.725  29.184  26.081  1.00  0.00     0.053 A 
ATOM      9  C   UNL A   1      31.440  28.525  24.866  1.00  0.00     0.020 A 
ATOM     10  C   UNL A   1      31.054  27.168  24.913  1.00  0.00     0.016 A 
ATOM     11  C   UNL A   1      30.955  26.470  26.118  1.00  0.00     0.001 A 
ATOM     12  C   UNL A   1      31.611  28.459  27.289  1.00  0.00     0.015 A 
ATOM     13  C   UNL A   1      31.229  27.119  27.312  1.00  0.00     0.001 A 
BRANCH   9  14
ATOM     14  S   UNL A   1      31.346  29.327  23.269  1.00  0.00    -0.121 SA
BRANCH  14  15
ATOM     15  C   UNL A   1      29.740  28.784  22.575  1.00  0.00     0.101 C 
BRANCH  15  16
ATOM     16  C   UNL A   1      28.579  29.674  22.905  1.00  0.00    -0.024 C 
ATOM     17  C   UNL A   1      28.703  30.875  23.489  1.00  0.00     0.005 C 
ENDBRANCH  15  16
ENDBRANCH  14  15
ENDBRANCH   9  14
ENDBRANCH   5   8
ENDBRANCH   3   4
ENDBRANCH   2   3
ENDBRANCH   1   2
BRANCH   1  18
ATOM     18  C   UNL A   1      34.587  33.971  28.860  1.00  0.00     0.002 C 
BRANCH  18  19
ATOM     19  C   UNL A   1      33.261  34.739  28.923  1.00  0.00     0.021 C 
BRANCH  19  20
ATOM     20  C   UNL A   1      33.354  36.147  29.508  1.00  0.00     0.116 C 
BRANCH  20  21
ATOM     21  N   UNL A   1      32.514  36.299  30.685  1.00  0.00    -0.352 N 
ATOM     22  C   UNL A   1      32.617  35.711  31.916  1.00  0.00     0.251 C 
ATOM     23  H   UNL A   1      31.758  36.920  30.580  1.00  0.00     0.163 HD
ATOM     24  O   UNL A   1      31.682  35.793  32.714  1.00  0.00    -0.269 OA
BRANCH  22  25
ATOM     25  C   UNL A   1      33.838  34.972  32.303  1.00  0.00     0.039 A 
ATOM     26  C   UNL A   1      35.071  35.623  32.213  1.00  0.00     0.014 A 
ATOM     27  C   UNL A   1      33.783  33.629  32.689  1.00  0.00     0.014 A 
ATOM     28  C   UNL A   1      36.245  34.940  32.539  1.00  0.00     0.010 A 
ATOM     29  C   UNL A   1      34.948  32.967  33.073  1.00  0.00     0.010 A 
ATOM     30  C   UNL A   1      36.192  33.610  32.985  1.00  0.00    -0.014 A 
BRANCH  30  31
ATOM     31  C   UNL A   1      37.434  32.876  33.337  1.00  0.00     0.031 A 
ATOM     32  C   UNL A   1      38.147  33.173  34.627  1.00  0.00     0.074 A 
ATOM     33  C   UNL A   1      37.939  31.972  32.478  1.00  0.00     0.049 A 
ATOM     34  N   UNL A   1      39.258  32.661  35.096  1.00  0.00    -0.248 NA
ATOM     35  C   UNL A   1      37.549  34.199  35.494  1.00  0.00     0.031 C 
ATOM     36  C   UNL A   1      37.364  31.630  31.177  1.00  0.00     0.029 A 
ATOM     37  N   UNL A   1      39.055  31.177  32.568  1.00  0.00    -0.354 N 
ATOM     38  C   UNL A   1      39.496  33.310  36.300  1.00  0.00     0.074 A 
ATOM     39  C   UNL A   1      38.442  34.288  36.468  1.00  0.00     0.031 C 
ATOM     40  C   UNL A   1      38.117  30.681  30.600  1.00  0.00     0.029 A 
ATOM     41  C   UNL A   1      39.242  30.366  31.476  1.00  0.00     0.049 A 
ATOM     42  H   UNL A   1      39.664  31.189  33.342  1.00  0.00     0.167 HD
ATOM     43  C   UNL A   1      40.488  33.095  37.196  1.00  0.00     0.037 A 
ATOM     44  C   UNL A   1      40.211  29.469  31.215  1.00  0.00     0.037 A 
ATOM     45  C   UNL A   1      41.518  32.101  37.041  1.00  0.00     0.049 A 
ATOM     46  C   UNL A   1      41.290  29.232  32.236  1.00  0.00     0.074 A 
ATOM     47  C   UNL A   1      42.538  31.769  37.916  1.00  0.00     0.029 A 
ATOM     48  N   UNL A   1      41.655  31.274  35.935  1.00  0.00    -0.354 N 
ATOM     49  N   UNL A   1      41.468  29.808  33.400  1.00  0.00    -0.248 NA
ATOM     50  C   UNL A   1      42.296  28.211  31.912  1.00  0.00     0.031 C 
ATOM     51  C   UNL A   1      43.313  30.766  37.325  1.00  0.00     0.029 A 
ATOM     52  C   UNL A   1      42.750  30.441  36.101  1.00  0.00     0.049 A 
ATOM     53  H   UNL A   1      41.061  31.279  35.150  1.00  0.00     0.167 HD
ATOM     54  C   UNL A   1      42.582  29.199  33.961  1.00  0.00     0.074 A 
ATOM     55  C   UNL A   1      43.033  28.200  33.013  1.00  0.00     0.031 C 
ATOM     56  C   UNL A   1      43.177  29.444  35.154  1.00  0.00     0.037 A 
BRANCH  43  57
ATOM     57  C   UNL A   1      40.507  33.950  38.430  1.00  0.00     0.064 A 
ATOM     58  C   UNL A   1      39.817  33.575  39.593  1.00  0.00     0.173 A 
ATOM     59  C   UNL A   1      41.253  35.138  38.463  1.00  0.00     0.173 A 
ATOM     60  F   UNL A   1      39.081  32.455  39.610  1.00  0.00    -0.203 F 
ATOM     61  C   UNL A   1      39.848  34.374  40.733  1.00  0.00     0.198 A 
ATOM     62  C   UNL A   1      41.305  35.919  39.616  1.00  0.00     0.198 A 
ATOM     63  F   UNL A   1      41.937  35.539  37.381  1.00  0.00    -0.203 F 
ATOM     64  F   UNL A   1      39.143  34.020  41.816  1.00  0.00    -0.200 F 
ATOM     65  C   UNL A   1      40.597  35.541  40.746  1.00  0.00     0.200 A 
ATOM     66  F   UNL A   1      42.040  37.040  39.631  1.00  0.00    -0.200 F 
ATOM     67  F   UNL A   1      40.633  36.305  41.848  1.00  0.00    -0.200 F 
ENDBRANCH  43  57
BRANCH  44  68
ATOM     68  C   UNL A   1      40.178  28.694  29.947  1.00  0.00     0.064 A 
ATOM     69  C   UNL A   1      39.539  27.448  29.882  1.00  0.00     0.173 A 
ATOM     70  C   UNL A   1      40.778  29.183  28.778  1.00  0.00     0.173 A 
ATOM     71  F   UNL A   1      38.968  26.931  30.980  1.00  0.00    -0.203 F 
ATOM     72  C   UNL A   1      39.518  26.711  28.701  1.00  0.00     0.198 A 
ATOM     73  C   UNL A   1      40.734  28.456  27.590  1.00  0.00     0.198 A 
ATOM     74  F   UNL A   1      41.396  30.373  28.787  1.00  0.00    -0.203 F 
ATOM     75  F   UNL A   1      38.937  25.504  28.678  1.00  0.00    -0.200 F 
ATOM     76  C   UNL A   1      40.110  27.218  27.554  1.00  0.00     0.200 A 
ATOM     77  F   UNL A   1      41.295  28.955  26.481  1.00  0.00    -0.200 F 
ATOM     78  F   UNL A   1      40.086  26.511  26.416  1.00  0.00    -0.200 F 
ENDBRANCH  44  68
BRANCH  56  79
ATOM     79  C   UNL A   1      44.354  28.590  35.522  1.00  0.00     0.064 A 
ATOM     80  C   UNL A   1      45.664  28.955  35.181  1.00  0.00     0.173 A 
ATOM     81  C   UNL A   1      44.168  27.408  36.257  1.00  0.00     0.173 A 
ATOM     82  F   UNL A   1      45.890  30.067  34.466  1.00  0.00    -0.203 F 
ATOM     83  C   UNL A   1      46.745  28.155  35.542  1.00  0.00     0.198 A 
ATOM     84  C   UNL A   1      45.254  26.625  36.639  1.00  0.00     0.198 A 
ATOM     85  F   UNL A   1      42.935  27.020  36.613  1.00  0.00    -0.203 F 
ATOM     86  F   UNL A   1      47.985  28.498  35.166  1.00  0.00    -0.200 F 
ATOM     87  C   UNL A   1      46.540  26.995  36.275  1.00  0.00     0.200 A 
ATOM     88  F   UNL A   1      45.055  25.512  37.358  1.00  0.00    -0.200 F 
ATOM     89  F   UNL A   1      47.582  26.229  36.625  1.00  0.00    -0.200 F 
ENDBRANCH  56  79
ENDBRANCH  30  31
ENDBRANCH  22  25
ENDBRANCH  20  21
ENDBRANCH  19  20
ENDBRANCH  18  19
ENDBRANCH   1  18
TORSDOF 16
ENDMDL
