MODEL 1
REMARK VINA RESULT:     -13.2      0.000      0.000
REMARK SMILES CC(C)c1cc(C(=O)N[C@@H](Cc2c[nH]c3ccccc23)C(=O)NCCCCCCNC(=O)c2ccc(-c3c4nc(c(-c5c(F)c(F)c(F)c(F)c5F)c5ccc([nH]5)c(-c5c(F)c(F)c(F)c(F)c5F)c5nc(c(-c6c(F)c(F)c(F)c(F)c6F)c6ccc3[nH]6)C=C5)C=C4)cc2)n(C)n1
REMARK SMILES IDX 26 1 25 2 24 3 23 4 21 5 22 6 10 8 9 9 7 10 8 11 6 13 4 14
REMARK SMILES IDX 5 15 98 16 96 17 97 18 2 19 1 20 3 21 11 22 12 23 13 24
REMARK SMILES IDX 20 25 14 26 15 27 19 28 16 30 18 31 17 32 27 33 28 34 29 35
REMARK SMILES IDX 30 36 31 37 32 39 33 40 34 41 95 42 35 43 94 44 36 45 37 46
REMARK SMILES IDX 38 47 88 48 39 49 93 50 87 51 89 52 40 53 92 54 86 55 85 56
REMARK SMILES IDX 41 58 73 59 53 60 72 61 54 62 57 63 71 64 90 65 55 66 56 67
REMARK SMILES IDX 70 69 91 70 58 71 42 72 43 73 51 74 44 75 45 76 49 77 52 78
REMARK SMILES IDX 46 79 47 80 50 81 48 82 74 83 75 84 83 85 76 86 77 87 81 88
REMARK SMILES IDX 84 89 78 90 79 91 82 92 80 93 59 94 60 95 68 96 61 97 62 98
REMARK SMILES IDX 66 99 69 100 63 101 64 102 67 103 65 104
REMARK H PARENT 23 7 9 12 14 29 30 38 89 57 57 68
REMARK Flexibility Score: inf
ROOT
ATOM      1  C   UNL A   1      33.070  29.718  26.323  1.00  0.00     0.002 C 
ENDROOT
BRANCH   1   2
ATOM      2  C   UNL A   1      32.771  28.527  27.241  1.00  0.00     0.021 C 
BRANCH   2   3
ATOM      3  C   UNL A   1      32.440  27.230  26.523  1.00  0.00     0.116 C 
BRANCH   3   4
ATOM      4  N   UNL A   1      31.053  26.851  26.623  1.00  0.00    -0.354 N 
ATOM      5  C   UNL A   1      30.429  25.754  26.123  1.00  0.00     0.242 C 
ATOM      6  O   UNL A   1      29.391  25.400  26.698  1.00  0.00    -0.273 OA
ATOM      7  H   UNL A   1      30.480  27.474  27.124  1.00  0.00     0.163 HD
BRANCH   5   8
ATOM      8  C   UNL A   1      30.982  24.891  24.969  1.00  0.00     0.176 C 
BRANCH   8   9
ATOM      9  N   UNL A   1      31.063  23.451  25.147  1.00  0.00    -0.339 N 
ATOM     10  C   UNL A   1      31.991  22.508  24.807  1.00  0.00     0.270 C 
ATOM     11  O   UNL A   1      31.636  21.361  25.108  1.00  0.00    -0.268 OA
ATOM     12  H   UNL A   1      30.280  23.075  25.612  1.00  0.00     0.164 HD
BRANCH  10  13
ATOM     13  C   UNL A   1      33.299  22.738  24.209  1.00  0.00     0.126 A 
ATOM     14  C   UNL A   1      35.553  22.778  24.061  1.00  0.00     0.066 A 
ATOM     15  C   UNL A   1      34.478  22.409  24.887  1.00  0.00     0.059 A 
ATOM     16  N   UNL A   1      35.103  23.357  22.952  1.00  0.00    -0.177 NA
ATOM     17  N   UNL A   1      33.768  23.179  22.988  1.00  0.00    -0.263 N 
ATOM     18  C   UNL A   1      33.137  23.314  21.698  1.00  0.00     0.174 C 
BRANCH  14  19
ATOM     19  C   UNL A   1      37.024  22.594  24.288  1.00  0.00     0.034 C 
ATOM     20  C   UNL A   1      37.563  23.561  25.350  1.00  0.00     0.014 C 
ATOM     21  C   UNL A   1      37.351  21.151  24.664  1.00  0.00     0.014 C 
ENDBRANCH  14  19
ENDBRANCH  10  13
ENDBRANCH   8   9
BRANCH   8  22
ATOM     22  C   UNL A   1      30.457  25.259  23.569  1.00  0.00     0.072 C 
BRANCH  22  23
ATOM     23  C   UNL A   1      30.674  26.666  23.104  1.00  0.00    -0.020 A 
ATOM     24  C   UNL A   1      31.865  27.255  22.720  1.00  0.00     0.087 A 
ATOM     25  C   UNL A   1      29.668  27.682  23.020  1.00  0.00     0.003 A 
ATOM     26  N   UNL A   1      31.606  28.547  22.344  1.00  0.00    -0.361 N 
ATOM     27  C   UNL A   1      30.268  28.827  22.497  1.00  0.00     0.046 A 
ATOM     28  C   UNL A   1      28.292  27.719  23.323  1.00  0.00     0.010 A 
ATOM     29  H   UNL A   1      32.281  29.184  22.013  1.00  0.00     0.166 HD
ATOM     30  C   UNL A   1      29.547  29.994  22.214  1.00  0.00     0.026 A 
ATOM     31  C   UNL A   1      27.563  28.883  23.069  1.00  0.00     0.001 A 
ATOM     32  C   UNL A   1      28.180  29.998  22.507  1.00  0.00     0.002 A 
ENDBRANCH  22  23
ENDBRANCH   8  22
ENDBRANCH   5   8
ENDBRANCH   3   4
ENDBRANCH   2   3
ENDBRANCH   1   2
BRANCH   1  33
ATOM     33  C   UNL A   1      31.872  30.590  25.928  1.00  0.00     0.002 C 
BRANCH  33  34
ATOM     34  C   UNL A   1      31.550  31.754  26.865  1.00  0.00     0.021 C 
BRANCH  34  35
ATOM     35  C   UNL A   1      32.744  32.588  27.305  1.00  0.00     0.116 C 
BRANCH  35  36
ATOM     36  N   UNL A   1      32.397  33.971  27.583  1.00  0.00    -0.352 N 
ATOM     37  C   UNL A   1      32.951  34.826  28.503  1.00  0.00     0.251 C 
ATOM     38  H   UNL A   1      31.667  34.345  27.038  1.00  0.00     0.163 HD
ATOM     39  O   UNL A   1      32.461  35.930  28.710  1.00  0.00    -0.269 OA
BRANCH  37  40
ATOM     40  C   UNL A   1      34.133  34.385  29.270  1.00  0.00     0.039 A 
ATOM     41  C   UNL A   1      33.945  33.729  30.488  1.00  0.00     0.014 A 
ATOM     42  C   UNL A   1      35.419  34.583  28.761  1.00  0.00     0.014 A 
ATOM     43  C   UNL A   1      35.047  33.207  31.167  1.00  0.00     0.010 A 
ATOM     44  C   UNL A   1      36.507  34.001  29.401  1.00  0.00     0.010 A 
ATOM     45  C   UNL A   1      36.331  33.306  30.609  1.00  0.00    -0.014 A 
BRANCH  45  46
ATOM     46  C   UNL A   1      37.519  32.704  31.263  1.00  0.00     0.031 A 
ATOM     47  C   UNL A   1      38.227  31.557  30.602  1.00  0.00     0.074 A 
ATOM     48  C   UNL A   1      37.896  33.121  32.488  1.00  0.00     0.049 A 
ATOM     49  N   UNL A   1      39.173  30.784  31.070  1.00  0.00    -0.248 NA
ATOM     50  C   UNL A   1      37.786  31.211  29.241  1.00  0.00     0.031 C 
ATOM     51  C   UNL A   1      37.273  34.209  33.242  1.00  0.00     0.029 A 
ATOM     52  N   UNL A   1      38.883  32.660  33.324  1.00  0.00    -0.354 N 
ATOM     53  C   UNL A   1      39.418  29.845  30.077  1.00  0.00     0.074 A 
ATOM     54  C   UNL A   1      38.493  30.117  28.998  1.00  0.00     0.031 C 
ATOM     55  C   UNL A   1      37.899  34.341  34.422  1.00  0.00     0.029 A 
ATOM     56  C   UNL A   1      38.934  33.316  34.529  1.00  0.00     0.049 A 
ATOM     57  H   UNL A   1      39.495  31.927  33.082  1.00  0.00     0.167 HD
ATOM     58  C   UNL A   1      40.342  28.856  30.061  1.00  0.00     0.037 A 
ATOM     59  C   UNL A   1      39.717  33.103  35.605  1.00  0.00     0.037 A 
ATOM     60  C   UNL A   1      41.283  28.614  31.123  1.00  0.00     0.049 A 
ATOM     61  C   UNL A   1      40.727  31.986  35.567  1.00  0.00     0.074 A 
ATOM     62  C   UNL A   1      42.302  27.680  31.177  1.00  0.00     0.029 A 
ATOM     63  N   UNL A   1      41.319  29.317  32.318  1.00  0.00    -0.354 N 
ATOM     64  N   UNL A   1      40.984  31.136  34.603  1.00  0.00    -0.248 NA
ATOM     65  C   UNL A   1      41.553  31.799  36.768  1.00  0.00     0.031 C 
ATOM     66  C   UNL A   1      42.924  27.784  32.425  1.00  0.00     0.029 A 
ATOM     67  C   UNL A   1      42.330  28.821  33.126  1.00  0.00     0.049 A 
ATOM     68  H   UNL A   1      40.716  30.058  32.558  1.00  0.00     0.167 HD
ATOM     69  C   UNL A   1      42.027  30.342  35.063  1.00  0.00     0.074 A 
ATOM     70  C   UNL A   1      42.354  30.813  36.393  1.00  0.00     0.031 C 
ATOM     71  C   UNL A   1      42.657  29.318  34.438  1.00  0.00     0.037 A 
BRANCH  58  72
ATOM     72  C   UNL A   1      40.378  27.955  28.861  1.00  0.00     0.064 A 
ATOM     73  C   UNL A   1      41.114  28.283  27.712  1.00  0.00     0.173 A 
ATOM     74  C   UNL A   1      39.692  26.730  28.872  1.00  0.00     0.173 A 
ATOM     75  F   UNL A   1      41.778  29.447  27.645  1.00  0.00    -0.203 F 
ATOM     76  C   UNL A   1      41.138  27.434  26.609  1.00  0.00     0.198 A 
ATOM     77  C   UNL A   1      39.745  25.869  27.780  1.00  0.00     0.198 A 
ATOM     78  F   UNL A   1      38.977  26.366  29.947  1.00  0.00    -0.203 F 
ATOM     79  F   UNL A   1      41.805  27.792  25.504  1.00  0.00    -0.200 F 
ATOM     80  C   UNL A   1      40.460  26.224  26.646  1.00  0.00     0.200 A 
ATOM     81  F   UNL A   1      39.100  24.695  27.822  1.00  0.00    -0.200 F 
ATOM     82  F   UNL A   1      40.490  25.405  25.587  1.00  0.00    -0.200 F 
ENDBRANCH  58  72
BRANCH  59  83
ATOM     83  C   UNL A   1      39.591  33.973  36.803  1.00  0.00     0.064 A 
ATOM     84  C   UNL A   1      38.799  33.581  37.891  1.00  0.00     0.173 A 
ATOM     85  C   UNL A   1      40.247  35.210  36.886  1.00  0.00     0.173 A 
ATOM     86  F   UNL A   1      38.135  32.416  37.850  1.00  0.00    -0.203 F 
ATOM     87  C   UNL A   1      38.650  34.403  39.007  1.00  0.00     0.198 A 
ATOM     88  C   UNL A   1      40.120  36.017  38.015  1.00  0.00     0.198 A 
ATOM     89  F   UNL A   1      41.023  35.629  35.875  1.00  0.00    -0.203 F 
ATOM     90  F   UNL A   1      37.850  34.023  40.013  1.00  0.00    -0.200 F 
ATOM     91  C   UNL A   1      39.316  35.617  39.071  1.00  0.00     0.200 A 
ATOM     92  F   UNL A   1      40.778  37.183  38.078  1.00  0.00    -0.200 F 
ATOM     93  F   UNL A   1      39.175  36.405  40.145  1.00  0.00    -0.200 F 
ENDBRANCH  59  83
BRANCH  71  94
ATOM     94  C   UNL A   1      43.807  28.672  35.155  1.00  0.00     0.064 A 
ATOM     95  C   UNL A   1      45.129  29.100  34.971  1.00  0.00     0.173 A 
ATOM     96  C   UNL A   1      43.570  27.649  36.087  1.00  0.00     0.173 A 
ATOM     97  F   UNL A   1      45.408  30.064  34.080  1.00  0.00    -0.203 F 
ATOM     98  C   UNL A   1      46.174  28.515  35.680  1.00  0.00     0.198 A 
ATOM     99  C   UNL A   1      44.614  27.088  36.816  1.00  0.00     0.198 A 
ATOM    100  F   UNL A   1      42.321  27.209  36.304  1.00  0.00    -0.203 F 
ATOM    101  F   UNL A   1      47.435  28.913  35.459  1.00  0.00    -0.200 F 
ATOM    102  C   UNL A   1      45.915  27.518  36.609  1.00  0.00     0.200 A 
ATOM    103  F   UNL A   1      44.359  26.136  37.724  1.00  0.00    -0.200 F 
ATOM    104  F   UNL A   1      46.922  26.968  37.302  1.00  0.00    -0.200 F 
ENDBRANCH  71  94
ENDBRANCH  45  46
ENDBRANCH  37  40
ENDBRANCH  35  36
ENDBRANCH  34  35
ENDBRANCH  33  34
ENDBRANCH   1  33
TORSDOF 18
ENDMDL
MODEL 2
REMARK VINA RESULT:     -13.0      0.787      2.120
REMARK SMILES CC(C)c1cc(C(=O)N[C@@H](Cc2c[nH]c3ccccc23)C(=O)NCCCCCCNC(=O)c2ccc(-c3c4nc(c(-c5c(F)c(F)c(F)c(F)c5F)c5ccc([nH]5)c(-c5c(F)c(F)c(F)c(F)c5F)c5nc(c(-c6c(F)c(F)c(F)c(F)c6F)c6ccc3[nH]6)C=C5)C=C4)cc2)n(C)n1
REMARK SMILES IDX 26 1 25 2 24 3 23 4 21 5 22 6 10 8 9 9 7 10 8 11 6 13 4 14
REMARK SMILES IDX 5 15 98 16 96 17 97 18 2 19 1 20 3 21 11 22 12 23 13 24
REMARK SMILES IDX 20 25 14 26 15 27 19 28 16 30 18 31 17 32 27 33 28 34 29 35
REMARK SMILES IDX 30 36 31 37 32 39 33 40 34 41 95 42 35 43 94 44 36 45 37 46
REMARK SMILES IDX 38 47 88 48 39 49 93 50 87 51 89 52 40 53 92 54 86 55 85 56
REMARK SMILES IDX 41 58 73 59 53 60 72 61 54 62 57 63 71 64 90 65 55 66 56 67
REMARK SMILES IDX 70 69 91 70 58 71 42 72 43 73 51 74 44 75 45 76 49 77 52 78
REMARK SMILES IDX 46 79 47 80 50 81 48 82 74 83 75 84 83 85 76 86 77 87 81 88
REMARK SMILES IDX 84 89 78 90 79 91 82 92 80 93 59 94 60 95 68 96 61 97 62 98
REMARK SMILES IDX 66 99 69 100 63 101 64 102 67 103 65 104
REMARK H PARENT 23 7 9 12 14 29 30 38 89 57 57 68
REMARK Flexibility Score: inf
ROOT
ATOM      1  C   UNL A   1      33.177  29.549  26.427  1.00  0.00     0.002 C 
ENDROOT
BRANCH   1   2
ATOM      2  C   UNL A   1      32.818  28.287  27.220  1.00  0.00     0.021 C 
BRANCH   2   3
ATOM      3  C   UNL A   1      32.383  27.100  26.376  1.00  0.00     0.116 C 
BRANCH   3   4
ATOM      4  N   UNL A   1      31.124  26.531  26.785  1.00  0.00    -0.354 N 
ATOM      5  C   UNL A   1      30.257  25.771  26.068  1.00  0.00     0.242 C 
ATOM      6  O   UNL A   1      29.508  25.029  26.717  1.00  0.00    -0.273 OA
ATOM      7  H   UNL A   1      30.856  26.719  27.713  1.00  0.00     0.163 HD
BRANCH   5   8
ATOM      8  C   UNL A   1      30.224  25.713  24.526  1.00  0.00     0.176 C 
BRANCH   8   9
ATOM      9  N   UNL A   1      30.243  24.415  23.873  1.00  0.00    -0.339 N 
ATOM     10  C   UNL A   1      31.173  23.417  23.781  1.00  0.00     0.270 C 
ATOM     11  O   UNL A   1      30.793  22.479  23.069  1.00  0.00    -0.268 OA
ATOM     12  H   UNL A   1      29.407  24.211  23.394  1.00  0.00     0.164 HD
BRANCH  10  13
ATOM     13  C   UNL A   1      32.463  23.354  24.452  1.00  0.00     0.126 A 
ATOM     14  C   UNL A   1      34.704  23.504  24.695  1.00  0.00     0.066 A 
ATOM     15  C   UNL A   1      33.647  23.698  23.791  1.00  0.00     0.059 A 
ATOM     16  N   UNL A   1      34.243  23.014  25.842  1.00  0.00    -0.177 NA
ATOM     17  N   UNL A   1      32.902  23.083  25.733  1.00  0.00    -0.263 N 
ATOM     18  C   UNL A   1      32.221  23.038  27.003  1.00  0.00     0.174 C 
BRANCH  14  19
ATOM     19  C   UNL A   1      36.167  23.775  24.509  1.00  0.00     0.034 C 
ATOM     20  C   UNL A   1      36.971  23.464  25.779  1.00  0.00     0.014 C 
ATOM     21  C   UNL A   1      36.727  23.001  23.318  1.00  0.00     0.014 C 
ENDBRANCH  14  19
ENDBRANCH  10  13
ENDBRANCH   8   9
BRANCH   8  22
ATOM     22  C   UNL A   1      29.216  26.667  23.858  1.00  0.00     0.072 C 
BRANCH  22  23
ATOM     23  C   UNL A   1      29.773  27.861  23.146  1.00  0.00    -0.020 A 
ATOM     24  C   UNL A   1      31.066  28.047  22.692  1.00  0.00     0.087 A 
ATOM     25  C   UNL A   1      29.056  29.064  22.847  1.00  0.00     0.003 A 
ATOM     26  N   UNL A   1      31.135  29.269  22.075  1.00  0.00    -0.361 N 
ATOM     27  C   UNL A   1      29.916  29.902  22.137  1.00  0.00     0.046 A 
ATOM     28  C   UNL A   1      27.741  29.504  23.100  1.00  0.00     0.010 A 
ATOM     29  H   UNL A   1      31.942  29.641  21.650  1.00  0.00     0.166 HD
ATOM     30  C   UNL A   1      29.508  31.139  21.622  1.00  0.00     0.026 A 
ATOM     31  C   UNL A   1      27.325  30.746  22.614  1.00  0.00     0.001 A 
ATOM     32  C   UNL A   1      28.192  31.543  21.872  1.00  0.00     0.002 A 
ENDBRANCH  22  23
ENDBRANCH   8  22
ENDBRANCH   5   8
ENDBRANCH   3   4
ENDBRANCH   2   3
ENDBRANCH   1   2
BRANCH   1  33
ATOM     33  C   UNL A   1      32.001  30.372  25.890  1.00  0.00     0.002 C 
BRANCH  33  34
ATOM     34  C   UNL A   1      31.607  31.597  26.715  1.00  0.00     0.021 C 
BRANCH  34  35
ATOM     35  C   UNL A   1      32.766  32.408  27.274  1.00  0.00     0.116 C 
BRANCH  35  36
ATOM     36  N   UNL A   1      32.419  33.796  27.523  1.00  0.00    -0.352 N 
ATOM     37  C   UNL A   1      32.975  34.673  28.422  1.00  0.00     0.251 C 
ATOM     38  H   UNL A   1      31.686  34.157  26.972  1.00  0.00     0.163 HD
ATOM     39  O   UNL A   1      32.484  35.780  28.607  1.00  0.00    -0.269 OA
BRANCH  37  40
ATOM     40  C   UNL A   1      34.160  34.250  29.194  1.00  0.00     0.039 A 
ATOM     41  C   UNL A   1      33.978  33.509  30.364  1.00  0.00     0.014 A 
ATOM     42  C   UNL A   1      35.445  34.549  28.736  1.00  0.00     0.014 A 
ATOM     43  C   UNL A   1      35.091  33.007  31.042  1.00  0.00     0.010 A 
ATOM     44  C   UNL A   1      36.548  33.989  29.370  1.00  0.00     0.010 A 
ATOM     45  C   UNL A   1      36.381  33.210  30.529  1.00  0.00    -0.014 A 
BRANCH  45  46
ATOM     46  C   UNL A   1      37.584  32.635  31.179  1.00  0.00     0.031 A 
ATOM     47  C   UNL A   1      38.327  31.517  30.505  1.00  0.00     0.074 A 
ATOM     48  C   UNL A   1      37.945  33.047  32.409  1.00  0.00     0.049 A 
ATOM     49  N   UNL A   1      39.293  30.766  30.967  1.00  0.00    -0.248 NA
ATOM     50  C   UNL A   1      37.899  31.175  29.139  1.00  0.00     0.031 C 
ATOM     51  C   UNL A   1      37.289  34.107  33.175  1.00  0.00     0.029 A 
ATOM     52  N   UNL A   1      38.942  32.604  33.243  1.00  0.00    -0.354 N 
ATOM     53  C   UNL A   1      39.567  29.847  29.963  1.00  0.00     0.074 A 
ATOM     54  C   UNL A   1      38.638  30.106  28.885  1.00  0.00     0.031 C 
ATOM     55  C   UNL A   1      37.908  34.242  34.359  1.00  0.00     0.029 A 
ATOM     56  C   UNL A   1      38.971  33.247  34.456  1.00  0.00     0.049 A 
ATOM     57  H   UNL A   1      39.576  31.893  32.994  1.00  0.00     0.167 HD
ATOM     58  C   UNL A   1      40.519  28.885  29.937  1.00  0.00     0.037 A 
ATOM     59  C   UNL A   1      39.757  33.042  35.532  1.00  0.00     0.037 A 
ATOM     60  C   UNL A   1      41.464  28.657  31.000  1.00  0.00     0.049 A 
ATOM     61  C   UNL A   1      40.799  31.956  35.483  1.00  0.00     0.074 A 
ATOM     62  C   UNL A   1      42.509  27.752  31.045  1.00  0.00     0.029 A 
ATOM     63  N   UNL A   1      41.477  29.346  32.204  1.00  0.00    -0.354 N 
ATOM     64  N   UNL A   1      41.083  31.126  34.510  1.00  0.00    -0.248 NA
ATOM     65  C   UNL A   1      41.626  31.777  36.684  1.00  0.00     0.031 C 
ATOM     66  C   UNL A   1      43.124  27.858  32.296  1.00  0.00     0.029 A 
ATOM     67  C   UNL A   1      42.499  28.868  33.009  1.00  0.00     0.049 A 
ATOM     68  H   UNL A   1      40.852  30.066  32.450  1.00  0.00     0.167 HD
ATOM     69  C   UNL A   1      42.147  30.356  34.963  1.00  0.00     0.074 A 
ATOM     70  C   UNL A   1      42.457  30.819  36.299  1.00  0.00     0.031 C 
ATOM     71  C   UNL A   1      42.808  29.359  34.327  1.00  0.00     0.037 A 
BRANCH  58  72
ATOM     72  C   UNL A   1      40.585  28.000  28.726  1.00  0.00     0.064 A 
ATOM     73  C   UNL A   1      39.900  26.778  28.666  1.00  0.00     0.173 A 
ATOM     74  C   UNL A   1      41.319  28.396  27.597  1.00  0.00     0.173 A 
ATOM     75  F   UNL A   1      39.193  26.346  29.722  1.00  0.00    -0.203 F 
ATOM     76  C   UNL A   1      39.970  25.971  27.533  1.00  0.00     0.198 A 
ATOM     77  C   UNL A   1      41.362  27.602  26.455  1.00  0.00     0.198 A 
ATOM     78  F   UNL A   1      41.990  29.558  27.601  1.00  0.00    -0.203 F 
ATOM     79  F   UNL A   1      39.350  24.783  27.519  1.00  0.00    -0.200 F 
ATOM     80  C   UNL A   1      40.694  26.387  26.426  1.00  0.00     0.200 A 
ATOM     81  F   UNL A   1      42.050  28.012  25.381  1.00  0.00    -0.200 F 
ATOM     82  F   UNL A   1      40.756  25.613  25.334  1.00  0.00    -0.200 F 
ENDBRANCH  58  72
BRANCH  59  83
ATOM     83  C   UNL A   1      39.603  33.894  36.740  1.00  0.00     0.064 A 
ATOM     84  C   UNL A   1      40.264  35.127  36.834  1.00  0.00     0.173 A 
ATOM     85  C   UNL A   1      38.805  33.497  37.822  1.00  0.00     0.173 A 
ATOM     86  F   UNL A   1      41.055  35.540  35.833  1.00  0.00    -0.203 F 
ATOM     87  C   UNL A   1      40.151  35.920  37.974  1.00  0.00     0.198 A 
ATOM     88  C   UNL A   1      38.670  34.306  38.950  1.00  0.00     0.198 A 
ATOM     89  F   UNL A   1      38.146  32.330  37.781  1.00  0.00    -0.203 F 
ATOM     90  F   UNL A   1      40.831  37.072  38.056  1.00  0.00    -0.200 F 
ATOM     91  C   UNL A   1      39.349  35.512  39.029  1.00  0.00     0.200 A 
ATOM     92  F   UNL A   1      37.881  33.914  39.960  1.00  0.00    -0.200 F 
ATOM     93  F   UNL A   1      39.237  36.276  40.123  1.00  0.00    -0.200 F 
ENDBRANCH  59  83
BRANCH  71  94
ATOM     94  C   UNL A   1      43.974  28.737  35.039  1.00  0.00     0.064 A 
ATOM     95  C   UNL A   1      43.826  27.603  35.851  1.00  0.00     0.173 A 
ATOM     96  C   UNL A   1      45.267  29.249  34.853  1.00  0.00     0.173 A 
ATOM     97  F   UNL A   1      42.608  27.085  36.072  1.00  0.00    -0.203 F 
ATOM     98  C   UNL A   1      44.929  27.016  36.465  1.00  0.00     0.198 A 
ATOM     99  C   UNL A   1      46.371  28.641  35.444  1.00  0.00     0.198 A 
ATOM    100  F   UNL A   1      45.462  30.327  34.079  1.00  0.00    -0.203 F 
ATOM    101  F   UNL A   1      44.760  25.957  37.269  1.00  0.00    -0.200 F 
ATOM    102  C   UNL A   1      46.201  27.529  36.253  1.00  0.00     0.200 A 
ATOM    103  F   UNL A   1      47.600  29.129  35.225  1.00  0.00    -0.200 F 
ATOM    104  F   UNL A   1      47.262  26.952  36.833  1.00  0.00    -0.200 F 
ENDBRANCH  71  94
ENDBRANCH  45  46
ENDBRANCH  37  40
ENDBRANCH  35  36
ENDBRANCH  34  35
ENDBRANCH  33  34
ENDBRANCH   1  33
TORSDOF 18
ENDMDL
MODEL 3
REMARK VINA RESULT:     -13.0      1.046      4.319
REMARK SMILES CC(C)c1cc(C(=O)N[C@@H](Cc2c[nH]c3ccccc23)C(=O)NCCCCCCNC(=O)c2ccc(-c3c4nc(c(-c5c(F)c(F)c(F)c(F)c5F)c5ccc([nH]5)c(-c5c(F)c(F)c(F)c(F)c5F)c5nc(c(-c6c(F)c(F)c(F)c(F)c6F)c6ccc3[nH]6)C=C5)C=C4)cc2)n(C)n1
REMARK SMILES IDX 26 1 25 2 24 3 23 4 21 5 22 6 10 8 9 9 7 10 8 11 6 13 4 14
REMARK SMILES IDX 5 15 98 16 96 17 97 18 2 19 1 20 3 21 11 22 12 23 13 24
REMARK SMILES IDX 20 25 14 26 15 27 19 28 16 30 18 31 17 32 27 33 28 34 29 35
REMARK SMILES IDX 30 36 31 37 32 39 33 40 34 41 95 42 35 43 94 44 36 45 37 46
REMARK SMILES IDX 38 47 88 48 39 49 93 50 87 51 89 52 40 53 92 54 86 55 85 56
REMARK SMILES IDX 41 58 73 59 53 60 72 61 54 62 57 63 71 64 90 65 55 66 56 67
REMARK SMILES IDX 70 69 91 70 58 71 42 72 43 73 51 74 44 75 45 76 49 77 52 78
REMARK SMILES IDX 46 79 47 80 50 81 48 82 74 83 75 84 83 85 76 86 77 87 81 88
REMARK SMILES IDX 84 89 78 90 79 91 82 92 80 93 59 94 60 95 68 96 61 97 62 98
REMARK SMILES IDX 66 99 69 100 63 101 64 102 67 103 65 104
REMARK H PARENT 23 7 9 12 14 29 30 38 89 57 57 68
REMARK Flexibility Score: inf
ROOT
ATOM      1  C   UNL A   1      32.690  29.724  27.248  1.00  0.00     0.002 C 
ENDROOT
BRANCH   1   2
ATOM      2  C   UNL A   1      32.015  28.400  27.626  1.00  0.00     0.021 C 
BRANCH   2   3
ATOM      3  C   UNL A   1      31.775  27.448  26.466  1.00  0.00     0.116 C 
BRANCH   3   4
ATOM      4  N   UNL A   1      32.984  26.886  25.919  1.00  0.00    -0.354 N 
ATOM      5  C   UNL A   1      33.217  25.622  25.482  1.00  0.00     0.242 C 
ATOM      6  O   UNL A   1      34.127  25.484  24.655  1.00  0.00    -0.273 OA
ATOM      7  H   UNL A   1      33.746  27.504  25.855  1.00  0.00     0.163 HD
BRANCH   5   8
ATOM      8  C   UNL A   1      32.364  24.397  25.875  1.00  0.00     0.176 C 
BRANCH   8   9
ATOM      9  N   UNL A   1      31.672  23.660  24.831  1.00  0.00    -0.339 N 
ATOM     10  C   UNL A   1      30.972  24.031  23.717  1.00  0.00     0.270 C 
ATOM     11  O   UNL A   1      30.491  23.064  23.114  1.00  0.00    -0.268 OA
ATOM     12  H   UNL A   1      31.717  22.683  24.952  1.00  0.00     0.164 HD
BRANCH  10  13
ATOM     13  C   UNL A   1      30.806  25.380  23.194  1.00  0.00     0.126 A 
ATOM     14  C   UNL A   1      29.960  27.468  23.023  1.00  0.00     0.066 A 
ATOM     15  C   UNL A   1      29.902  26.279  23.770  1.00  0.00     0.059 A 
ATOM     16  N   UNL A   1      30.799  27.328  22.002  1.00  0.00    -0.177 NA
ATOM     17  N   UNL A   1      31.407  26.144  22.214  1.00  0.00    -0.263 N 
ATOM     18  C   UNL A   1      32.654  26.004  21.503  1.00  0.00     0.174 C 
BRANCH  14  19
ATOM     19  C   UNL A   1      29.235  28.761  23.249  1.00  0.00     0.034 C 
ATOM     20  C   UNL A   1      29.723  29.862  22.298  1.00  0.00     0.014 C 
ATOM     21  C   UNL A   1      27.724  28.578  23.124  1.00  0.00     0.014 C 
ENDBRANCH  14  19
ENDBRANCH  10  13
ENDBRANCH   8   9
BRANCH   8  22
ATOM     22  C   UNL A   1      33.017  23.448  26.898  1.00  0.00     0.072 C 
BRANCH  22  23
ATOM     23  C   UNL A   1      33.810  22.299  26.357  1.00  0.00    -0.020 A 
ATOM     24  C   UNL A   1      33.377  21.005  26.131  1.00  0.00     0.087 A 
ATOM     25  C   UNL A   1      35.200  22.332  26.014  1.00  0.00     0.003 A 
ATOM     26  N   UNL A   1      34.419  20.287  25.605  1.00  0.00    -0.361 N 
ATOM     27  C   UNL A   1      35.539  21.079  25.504  1.00  0.00     0.046 A 
ATOM     28  C   UNL A   1      36.196  23.328  26.074  1.00  0.00     0.010 A 
ATOM     29  H   UNL A   1      34.373  19.340  25.339  1.00  0.00     0.166 HD
ATOM     30  C   UNL A   1      36.813  20.789  25.001  1.00  0.00     0.026 A 
ATOM     31  C   UNL A   1      37.480  23.047  25.599  1.00  0.00     0.001 A 
ATOM     32  C   UNL A   1      37.777  21.801  25.056  1.00  0.00     0.002 A 
ENDBRANCH  22  23
ENDBRANCH   8  22
ENDBRANCH   5   8
ENDBRANCH   3   4
ENDBRANCH   2   3
ENDBRANCH   1   2
BRANCH   1  33
ATOM     33  C   UNL A   1      31.923  30.624  26.273  1.00  0.00     0.002 C 
BRANCH  33  34
ATOM     34  C   UNL A   1      31.590  32.029  26.776  1.00  0.00     0.021 C 
BRANCH  34  35
ATOM     35  C   UNL A   1      32.744  32.781  27.423  1.00  0.00     0.116 C 
BRANCH  35  36
ATOM     36  N   UNL A   1      32.441  34.180  27.669  1.00  0.00    -0.352 N 
ATOM     37  C   UNL A   1      33.024  35.039  28.568  1.00  0.00     0.251 C 
ATOM     38  H   UNL A   1      31.722  34.564  27.117  1.00  0.00     0.163 HD
ATOM     39  O   UNL A   1      32.569  36.162  28.751  1.00  0.00    -0.269 OA
BRANCH  37  40
ATOM     40  C   UNL A   1      34.193  34.579  29.344  1.00  0.00     0.039 A 
ATOM     41  C   UNL A   1      33.994  34.042  30.617  1.00  0.00     0.014 A 
ATOM     42  C   UNL A   1      35.475  34.641  28.791  1.00  0.00     0.014 A 
ATOM     43  C   UNL A   1      35.076  33.500  31.314  1.00  0.00     0.010 A 
ATOM     44  C   UNL A   1      36.537  34.037  29.454  1.00  0.00     0.010 A 
ATOM     45  C   UNL A   1      36.347  33.459  30.721  1.00  0.00    -0.014 A 
BRANCH  45  46
ATOM     46  C   UNL A   1      37.508  32.829  31.397  1.00  0.00     0.031 A 
ATOM     47  C   UNL A   1      38.203  31.667  30.748  1.00  0.00     0.074 A 
ATOM     48  C   UNL A   1      37.870  33.236  32.630  1.00  0.00     0.049 A 
ATOM     49  N   UNL A   1      39.122  30.872  31.234  1.00  0.00    -0.248 NA
ATOM     50  C   UNL A   1      37.781  31.333  29.378  1.00  0.00     0.031 C 
ATOM     51  C   UNL A   1      37.257  34.337  33.373  1.00  0.00     0.029 A 
ATOM     52  N   UNL A   1      38.829  32.751  33.484  1.00  0.00    -0.354 N 
ATOM     53  C   UNL A   1      39.364  29.929  30.244  1.00  0.00     0.074 A 
ATOM     54  C   UNL A   1      38.467  30.224  29.147  1.00  0.00     0.031 C 
ATOM     55  C   UNL A   1      37.863  34.453  34.566  1.00  0.00     0.029 A 
ATOM     56  C   UNL A   1      38.872  33.405  34.691  1.00  0.00     0.049 A 
ATOM     57  H   UNL A   1      39.429  32.006  33.253  1.00  0.00     0.167 HD
ATOM     58  C   UNL A   1      40.266  28.920  30.244  1.00  0.00     0.037 A 
ATOM     59  C   UNL A   1      39.628  33.172  35.782  1.00  0.00     0.037 A 
ATOM     60  C   UNL A   1      41.180  28.655  31.324  1.00  0.00     0.049 A 
ATOM     61  C   UNL A   1      40.613  32.033  35.762  1.00  0.00     0.074 A 
ATOM     62  C   UNL A   1      42.176  27.698  31.397  1.00  0.00     0.029 A 
ATOM     63  N   UNL A   1      41.208  29.355  32.521  1.00  0.00    -0.354 N 
ATOM     64  N   UNL A   1      40.870  31.179  34.802  1.00  0.00    -0.248 NA
ATOM     65  C   UNL A   1      41.410  31.825  36.979  1.00  0.00     0.031 C 
ATOM     66  C   UNL A   1      42.775  27.786  32.656  1.00  0.00     0.029 A 
ATOM     67  C   UNL A   1      42.191  28.835  33.348  1.00  0.00     0.049 A 
ATOM     68  H   UNL A   1      40.618  30.109  32.750  1.00  0.00     0.167 HD
ATOM     69  C   UNL A   1      41.885  30.361  35.281  1.00  0.00     0.074 A 
ATOM     70  C   UNL A   1      42.197  30.822  36.618  1.00  0.00     0.031 C 
ATOM     71  C   UNL A   1      42.504  29.324  34.667  1.00  0.00     0.037 A 
BRANCH  58  72
ATOM     72  C   UNL A   1      40.306  28.019  29.043  1.00  0.00     0.064 A 
ATOM     73  C   UNL A   1      39.603  26.806  29.006  1.00  0.00     0.173 A 
ATOM     74  C   UNL A   1      41.032  28.391  27.901  1.00  0.00     0.173 A 
ATOM     75  F   UNL A   1      38.902  26.397  30.075  1.00  0.00    -0.203 F 
ATOM     76  C   UNL A   1      39.649  25.984  27.882  1.00  0.00     0.198 A 
ATOM     77  C   UNL A   1      41.051  27.583  26.768  1.00  0.00     0.198 A 
ATOM     78  F   UNL A   1      41.719  29.544  27.883  1.00  0.00    -0.203 F 
ATOM     79  F   UNL A   1      39.012  24.805  27.890  1.00  0.00    -0.200 F 
ATOM     80  C   UNL A   1      40.367  26.377  26.762  1.00  0.00     0.200 A 
ATOM     81  F   UNL A   1      41.733  27.970  25.682  1.00  0.00    -0.200 F 
ATOM     82  F   UNL A   1      40.405  25.589  25.679  1.00  0.00    -0.200 F 
ENDBRANCH  58  72
BRANCH  59  83
ATOM     83  C   UNL A   1      39.498  34.044  36.979  1.00  0.00     0.064 A 
ATOM     84  C   UNL A   1      40.194  35.259  37.057  1.00  0.00     0.173 A 
ATOM     85  C   UNL A   1      38.690  33.684  38.067  1.00  0.00     0.173 A 
ATOM     86  F   UNL A   1      40.996  35.636  36.050  1.00  0.00    -0.203 F 
ATOM     87  C   UNL A   1      40.103  36.070  38.186  1.00  0.00     0.198 A 
ATOM     88  C   UNL A   1      38.578  34.511  39.184  1.00  0.00     0.198 A 
ATOM     89  F   UNL A   1      37.998  32.536  38.041  1.00  0.00    -0.203 F 
ATOM     90  F   UNL A   1      40.815  37.204  38.252  1.00  0.00    -0.200 F 
ATOM     91  C   UNL A   1      39.290  35.699  39.246  1.00  0.00     0.200 A 
ATOM     92  F   UNL A   1      37.779  34.155  40.199  1.00  0.00    -0.200 F 
ATOM     93  F   UNL A   1      39.201  36.480  40.330  1.00  0.00    -0.200 F 
ENDBRANCH  59  83
BRANCH  71  94
ATOM     94  C   UNL A   1      43.624  28.650  35.405  1.00  0.00     0.064 A 
ATOM     95  C   UNL A   1      43.392  27.598  36.303  1.00  0.00     0.173 A 
ATOM     96  C   UNL A   1      44.955  29.024  35.159  1.00  0.00     0.173 A 
ATOM     97  F   UNL A   1      42.138  27.214  36.583  1.00  0.00    -0.203 F 
ATOM     98  C   UNL A   1      44.451  26.959  36.942  1.00  0.00     0.198 A 
ATOM     99  C   UNL A   1      46.012  28.362  35.776  1.00  0.00     0.198 A 
ATOM    100  F   UNL A   1      45.229  30.020  34.302  1.00  0.00    -0.203 F 
ATOM    101  F   UNL A   1      44.205  25.982  37.826  1.00  0.00    -0.200 F 
ATOM    102  C   UNL A   1      45.759  27.334  36.670  1.00  0.00     0.200 A 
ATOM    103  F   UNL A   1      47.274  28.716  35.500  1.00  0.00    -0.200 F 
ATOM    104  F   UNL A   1      46.776  26.705  37.275  1.00  0.00    -0.200 F 
ENDBRANCH  71  94
ENDBRANCH  45  46
ENDBRANCH  37  40
ENDBRANCH  35  36
ENDBRANCH  34  35
ENDBRANCH  33  34
ENDBRANCH   1  33
TORSDOF 18
ENDMDL
