MODEL 1
REMARK VINA RESULT:     -10.9      0.000      0.000
REMARK SMILES COc1ncccc1C[N@@H+](CC(=O)NCCCCCCNC(=O)c1ccc(-c2c3nc(c(-c4c(F)c(F)c(F)c(F)c4F)c4ccc([nH]4)c(-c4c(F)c(F)c(F)c(F)c4F)c4nc(c(-c5c(F)c(F)c(F)c(F)c5F)c5ccc2[nH]5)C=C4)C=C3)cc1)C1CCCC1
REMARK SMILES IDX 16 1 15 2 14 3 12 4 13 5 11 7 10 8 9 10 8 11 3 12 4 13 5 14
REMARK SMILES IDX 7 15 6 16 2 17 1 18 87 19 88 20 91 21 89 22 90 23 17 24
REMARK SMILES IDX 18 25 19 26 20 27 21 28 22 29 23 31 24 32 25 33 86 34 26 35
REMARK SMILES IDX 85 36 27 37 28 38 29 39 79 40 30 41 84 42 78 43 80 44 31 45
REMARK SMILES IDX 83 46 77 47 76 48 32 50 64 51 44 52 63 53 45 54 48 55 62 56
REMARK SMILES IDX 81 57 46 58 47 59 61 61 82 62 49 63 33 64 34 65 42 66 35 67
REMARK SMILES IDX 36 68 40 69 43 70 37 71 38 72 41 73 39 74 65 75 66 76 74 77
REMARK SMILES IDX 67 78 68 79 72 80 75 81 69 82 70 83 73 84 71 85 50 86 51 87
REMARK SMILES IDX 59 88 52 89 53 90 57 91 60 92 54 93 55 94 58 95 56 96
REMARK H PARENT 14 6 10 9 21 30 80 49 48 60
REMARK Flexibility Score: inf
ROOT
ATOM      1  C   UNL A   1      34.802  31.552  28.469  1.00  0.00     0.021 C 
ENDROOT
BRANCH   1   2
ATOM      2  C   UNL A   1      34.360  30.657  27.305  1.00  0.00     0.116 C 
BRANCH   2   3
ATOM      3  N   UNL A   1      33.234  29.830  27.678  1.00  0.00    -0.351 N 
ATOM      4  C   UNL A   1      32.331  29.128  26.940  1.00  0.00     0.275 C 
ATOM      5  O   UNL A   1      31.591  28.375  27.587  1.00  0.00    -0.269 OA
ATOM      6  H   UNL A   1      33.093  29.761  28.649  1.00  0.00     0.163 HD
BRANCH   4   7
ATOM      7  C   UNL A   1      32.253  29.152  25.402  1.00  0.00     0.364 C 
BRANCH   7   8
ATOM      8  N   UNL A   1      32.177  27.867  24.661  1.00  0.00    -0.321 N 
ATOM      9  H   UNL A   1      32.095  27.184  25.413  1.00  0.00     0.349 HD
BRANCH   8  10
ATOM     10  C   UNL A   1      33.416  27.558  23.952  1.00  0.00     0.305 C 
BRANCH  10  11
ATOM     11  C   UNL A   1      33.742  26.127  23.620  1.00  0.00     0.068 A 
ATOM     12  C   UNL A   1      33.457  25.543  22.388  1.00  0.00     0.221 A 
ATOM     13  N   UNL A   1      33.587  24.220  22.142  1.00  0.00    -0.222 NA
ATOM     14  C   UNL A   1      34.027  23.440  23.152  1.00  0.00     0.115 A 
ATOM     15  C   UNL A   1      34.211  25.280  24.638  1.00  0.00     0.017 A 
ATOM     16  C   UNL A   1      34.351  23.918  24.409  1.00  0.00     0.021 A 
BRANCH  12  17
ATOM     17  O   UNL A   1      32.829  26.238  21.391  1.00  0.00    -0.481 OA
ATOM     18  C   UNL A   1      32.614  25.432  20.237  1.00  0.00     0.280 C 
ENDBRANCH  12  17
ENDBRANCH  10  11
ENDBRANCH   8  10
BRANCH   8  19
ATOM     19  C   UNL A   1      30.933  27.513  23.978  1.00  0.00     0.184 C 
ATOM     20  C   UNL A   1      30.076  26.523  24.777  1.00  0.00     0.065 C 
ATOM     21  C   UNL A   1      29.893  28.573  23.617  1.00  0.00     0.065 C 
ATOM     22  C   UNL A   1      28.778  26.438  23.969  1.00  0.00     0.006 C 
ATOM     23  C   UNL A   1      28.672  27.757  23.198  1.00  0.00     0.006 C 
ENDBRANCH   8  19
ENDBRANCH   7   8
ENDBRANCH   4   7
ENDBRANCH   2   3
ENDBRANCH   1   2
BRANCH   1  24
ATOM     24  C   UNL A   1      35.009  33.027  28.130  1.00  0.00     0.002 C 
BRANCH  24  25
ATOM     25  C   UNL A   1      34.692  34.012  29.255  1.00  0.00     0.002 C 
BRANCH  25  26
ATOM     26  C   UNL A   1      33.321  34.690  29.178  1.00  0.00     0.021 C 
BRANCH  26  27
ATOM     27  C   UNL A   1      33.284  36.147  29.635  1.00  0.00     0.116 C 
BRANCH  27  28
ATOM     28  N   UNL A   1      32.458  36.335  30.814  1.00  0.00    -0.352 N 
ATOM     29  C   UNL A   1      32.582  35.795  32.070  1.00  0.00     0.251 C 
ATOM     30  H   UNL A   1      31.693  36.942  30.695  1.00  0.00     0.163 HD
ATOM     31  O   UNL A   1      31.672  35.915  32.884  1.00  0.00    -0.269 OA
BRANCH  29  32
ATOM     32  C   UNL A   1      33.806  35.057  32.445  1.00  0.00     0.039 A 
ATOM     33  C   UNL A   1      33.688  33.735  32.883  1.00  0.00     0.014 A 
ATOM     34  C   UNL A   1      35.060  35.675  32.408  1.00  0.00     0.014 A 
ATOM     35  C   UNL A   1      34.832  33.016  33.238  1.00  0.00     0.010 A 
ATOM     36  C   UNL A   1      36.205  34.938  32.701  1.00  0.00     0.010 A 
ATOM     37  C   UNL A   1      36.100  33.605  33.128  1.00  0.00    -0.014 A 
BRANCH  37  38
ATOM     38  C   UNL A   1      37.330  32.853  33.481  1.00  0.00     0.031 A 
ATOM     39  C   UNL A   1      38.048  33.147  34.768  1.00  0.00     0.074 A 
ATOM     40  C   UNL A   1      37.833  31.951  32.616  1.00  0.00     0.049 A 
ATOM     41  N   UNL A   1      39.176  32.659  35.219  1.00  0.00    -0.248 NA
ATOM     42  C   UNL A   1      37.429  34.145  35.654  1.00  0.00     0.031 C 
ATOM     43  C   UNL A   1      37.251  31.607  31.319  1.00  0.00     0.029 A 
ATOM     44  N   UNL A   1      38.957  31.168  32.694  1.00  0.00    -0.354 N 
ATOM     45  C   UNL A   1      39.409  33.303  36.427  1.00  0.00     0.074 A 
ATOM     46  C   UNL A   1      38.332  34.249  36.617  1.00  0.00     0.031 C 
ATOM     47  C   UNL A   1      38.013  30.672  30.729  1.00  0.00     0.029 A 
ATOM     48  C   UNL A   1      39.154  30.374  31.591  1.00  0.00     0.049 A 
ATOM     49  H   UNL A   1      39.565  31.173  33.469  1.00  0.00     0.167 HD
ATOM     50  C   UNL A   1      40.420  33.107  37.307  1.00  0.00     0.037 A 
ATOM     51  C   UNL A   1      40.145  29.510  31.306  1.00  0.00     0.037 A 
ATOM     52  C   UNL A   1      41.473  32.142  37.130  1.00  0.00     0.049 A 
ATOM     53  C   UNL A   1      41.250  29.302  32.305  1.00  0.00     0.074 A 
ATOM     54  C   UNL A   1      42.508  31.825  37.990  1.00  0.00     0.029 A 
ATOM     55  N   UNL A   1      41.621  31.334  36.012  1.00  0.00    -0.354 N 
ATOM     56  N   UNL A   1      41.427  29.872  33.473  1.00  0.00    -0.248 NA
ATOM     57  C   UNL A   1      42.288  28.325  31.952  1.00  0.00     0.031 C 
ATOM     58  C   UNL A   1      43.304  30.850  37.378  1.00  0.00     0.029 A 
ATOM     59  C   UNL A   1      42.739  30.530  36.155  1.00  0.00     0.049 A 
ATOM     60  H   UNL A   1      41.020  31.333  35.231  1.00  0.00     0.167 HD
ATOM     61  C   UNL A   1      42.578  29.304  34.004  1.00  0.00     0.074 A 
ATOM     62  C   UNL A   1      43.050  28.336  33.036  1.00  0.00     0.031 C 
ATOM     63  C   UNL A   1      43.187  29.562  35.187  1.00  0.00     0.037 A 
BRANCH  50  64
ATOM     64  C   UNL A   1      40.433  33.953  38.547  1.00  0.00     0.064 A 
ATOM     65  C   UNL A   1      39.751  33.563  39.710  1.00  0.00     0.173 A 
ATOM     66  C   UNL A   1      41.162  35.151  38.585  1.00  0.00     0.173 A 
ATOM     67  F   UNL A   1      39.029  32.432  39.721  1.00  0.00    -0.203 F 
ATOM     68  C   UNL A   1      39.774  34.355  40.854  1.00  0.00     0.198 A 
ATOM     69  C   UNL A   1      41.206  35.927  39.740  1.00  0.00     0.198 A 
ATOM     70  F   UNL A   1      41.837  35.567  37.502  1.00  0.00    -0.203 F 
ATOM     71  F   UNL A   1      39.075  33.987  41.936  1.00  0.00    -0.200 F 
ATOM     72  C   UNL A   1      40.506  35.533  40.870  1.00  0.00     0.200 A 
ATOM     73  F   UNL A   1      41.924  37.059  39.759  1.00  0.00    -0.200 F 
ATOM     74  F   UNL A   1      40.532  36.292  41.975  1.00  0.00    -0.200 F 
ENDBRANCH  50  64
BRANCH  51  75
ATOM     75  C   UNL A   1      40.122  28.752  30.028  1.00  0.00     0.064 A 
ATOM     76  C   UNL A   1      39.509  27.494  29.951  1.00  0.00     0.173 A 
ATOM     77  C   UNL A   1      40.710  29.265  28.863  1.00  0.00     0.173 A 
ATOM     78  F   UNL A   1      38.951  26.954  31.046  1.00  0.00    -0.203 F 
ATOM     79  C   UNL A   1      39.500  26.768  28.762  1.00  0.00     0.198 A 
ATOM     80  C   UNL A   1      40.678  28.549  27.668  1.00  0.00     0.198 A 
ATOM     81  F   UNL A   1      41.306  30.466  28.884  1.00  0.00    -0.203 F 
ATOM     82  F   UNL A   1      38.944  25.550  28.727  1.00  0.00    -0.200 F 
ATOM     83  C   UNL A   1      40.080  27.299  27.620  1.00  0.00     0.200 A 
ATOM     84  F   UNL A   1      41.228  29.071  26.563  1.00  0.00    -0.200 F 
ATOM     85  F   UNL A   1      40.069  26.603  26.475  1.00  0.00    -0.200 F 
ENDBRANCH  51  75
BRANCH  63  86
ATOM     86  C   UNL A   1      44.409  28.758  35.519  1.00  0.00     0.064 A 
ATOM     87  C   UNL A   1      44.323  27.544  36.218  1.00  0.00     0.173 A 
ATOM     88  C   UNL A   1      45.676  29.186  35.097  1.00  0.00     0.173 A 
ATOM     89  F   UNL A   1      43.135  27.101  36.656  1.00  0.00    -0.203 F 
ATOM     90  C   UNL A   1      45.464  26.801  36.500  1.00  0.00     0.198 A 
ATOM     91  C   UNL A   1      46.812  28.426  35.357  1.00  0.00     0.198 A 
ATOM     92  F   UNL A   1      45.809  30.337  34.420  1.00  0.00    -0.203 F 
ATOM     93  F   UNL A   1      45.366  25.666  37.206  1.00  0.00    -0.200 F 
ATOM     94  C   UNL A   1      46.706  27.238  36.064  1.00  0.00     0.200 A 
ATOM     95  F   UNL A   1      48.010  28.844  34.925  1.00  0.00    -0.200 F 
ATOM     96  F   UNL A   1      47.804  26.516  36.331  1.00  0.00    -0.200 F 
ENDBRANCH  63  86
ENDBRANCH  37  38
ENDBRANCH  29  32
ENDBRANCH  27  28
ENDBRANCH  26  27
ENDBRANCH  25  26
ENDBRANCH  24  25
ENDBRANCH   1  24
TORSDOF 18
ENDMDL
MODEL 2
REMARK VINA RESULT:     -10.9      0.913      2.033
REMARK SMILES COc1ncccc1C[N@@H+](CC(=O)NCCCCCCNC(=O)c1ccc(-c2c3nc(c(-c4c(F)c(F)c(F)c(F)c4F)c4ccc([nH]4)c(-c4c(F)c(F)c(F)c(F)c4F)c4nc(c(-c5c(F)c(F)c(F)c(F)c5F)c5ccc2[nH]5)C=C4)C=C3)cc1)C1CCCC1
REMARK SMILES IDX 16 1 15 2 14 3 12 4 13 5 11 7 10 8 9 10 8 11 3 12 4 13 5 14
REMARK SMILES IDX 7 15 6 16 2 17 1 18 87 19 88 20 91 21 89 22 90 23 17 24
REMARK SMILES IDX 18 25 19 26 20 27 21 28 22 29 23 31 24 32 25 33 86 34 26 35
REMARK SMILES IDX 85 36 27 37 28 38 29 39 79 40 30 41 84 42 78 43 80 44 31 45
REMARK SMILES IDX 83 46 77 47 76 48 32 50 64 51 44 52 63 53 45 54 48 55 62 56
REMARK SMILES IDX 81 57 46 58 47 59 61 61 82 62 49 63 33 64 34 65 42 66 35 67
REMARK SMILES IDX 36 68 40 69 43 70 37 71 38 72 41 73 39 74 65 75 66 76 74 77
REMARK SMILES IDX 67 78 68 79 72 80 75 81 69 82 70 83 73 84 71 85 50 86 51 87
REMARK SMILES IDX 59 88 52 89 53 90 57 91 60 92 54 93 55 94 58 95 56 96
REMARK H PARENT 14 6 10 9 21 30 80 49 48 60
REMARK Flexibility Score: inf
ROOT
ATOM      1  C   UNL A   1      33.547  31.916  27.894  1.00  0.00     0.021 C 
ENDROOT
BRANCH   1   2
ATOM      2  C   UNL A   1      33.647  30.547  27.209  1.00  0.00     0.116 C 
BRANCH   2   3
ATOM      3  N   UNL A   1      32.576  29.671  27.627  1.00  0.00    -0.351 N 
ATOM      4  C   UNL A   1      32.280  28.378  27.321  1.00  0.00     0.275 C 
ATOM      5  O   UNL A   1      31.377  27.868  27.998  1.00  0.00    -0.269 OA
ATOM      6  H   UNL A   1      31.940  30.088  28.252  1.00  0.00     0.163 HD
BRANCH   4   7
ATOM      7  C   UNL A   1      33.042  27.529  26.287  1.00  0.00     0.364 C 
BRANCH   7   8
ATOM      8  N   UNL A   1      32.306  26.970  25.124  1.00  0.00    -0.321 N 
ATOM      9  H   UNL A   1      31.691  26.285  25.563  1.00  0.00     0.349 HD
BRANCH   8  10
ATOM     10  C   UNL A   1      33.177  26.227  24.218  1.00  0.00     0.305 C 
BRANCH  10  11
ATOM     11  C   UNL A   1      32.777  24.846  23.774  1.00  0.00     0.068 A 
ATOM     12  C   UNL A   1      31.981  23.997  24.539  1.00  0.00     0.221 A 
ATOM     13  N   UNL A   1      31.762  22.699  24.229  1.00  0.00    -0.222 NA
ATOM     14  C   UNL A   1      32.347  22.220  23.110  1.00  0.00     0.115 A 
ATOM     15  C   UNL A   1      33.354  24.309  22.611  1.00  0.00     0.017 A 
ATOM     16  C   UNL A   1      33.144  22.979  22.274  1.00  0.00     0.021 A 
BRANCH  12  17
ATOM     17  O   UNL A   1      31.521  24.361  25.775  1.00  0.00    -0.481 OA
ATOM     18  C   UNL A   1      32.170  23.638  26.816  1.00  0.00     0.280 C 
ENDBRANCH  12  17
ENDBRANCH  10  11
ENDBRANCH   8  10
BRANCH   8  19
ATOM     19  C   UNL A   1      31.250  27.768  24.501  1.00  0.00     0.184 C 
ATOM     20  C   UNL A   1      31.757  28.609  23.323  1.00  0.00     0.065 C 
ATOM     21  C   UNL A   1      30.017  27.111  23.880  1.00  0.00     0.065 C 
ATOM     22  C   UNL A   1      30.476  29.207  22.732  1.00  0.00     0.006 C 
ATOM     23  C   UNL A   1      29.345  28.249  23.115  1.00  0.00     0.006 C 
ENDBRANCH   8  19
ENDBRANCH   7   8
ENDBRANCH   4   7
ENDBRANCH   2   3
ENDBRANCH   1   2
BRANCH   1  24
ATOM     24  C   UNL A   1      34.875  32.592  28.225  1.00  0.00     0.002 C 
BRANCH  24  25
ATOM     25  C   UNL A   1      34.768  33.959  28.901  1.00  0.00     0.002 C 
BRANCH  25  26
ATOM     26  C   UNL A   1      33.358  34.549  28.990  1.00  0.00     0.021 C 
BRANCH  26  27
ATOM     27  C   UNL A   1      33.291  36.041  29.308  1.00  0.00     0.116 C 
BRANCH  27  28
ATOM     28  N   UNL A   1      32.472  36.320  30.474  1.00  0.00    -0.352 N 
ATOM     29  C   UNL A   1      32.582  35.851  31.759  1.00  0.00     0.251 C 
ATOM     30  H   UNL A   1      31.724  36.941  30.319  1.00  0.00     0.163 HD
ATOM     31  O   UNL A   1      31.676  36.043  32.564  1.00  0.00    -0.269 OA
BRANCH  29  32
ATOM     32  C   UNL A   1      33.785  35.101  32.177  1.00  0.00     0.039 A 
ATOM     33  C   UNL A   1      33.636  33.785  32.624  1.00  0.00     0.014 A 
ATOM     34  C   UNL A   1      35.047  35.702  32.171  1.00  0.00     0.014 A 
ATOM     35  C   UNL A   1      34.760  33.055  33.019  1.00  0.00     0.010 A 
ATOM     36  C   UNL A   1      36.173  34.954  32.504  1.00  0.00     0.010 A 
ATOM     37  C   UNL A   1      36.039  33.627  32.941  1.00  0.00    -0.014 A 
BRANCH  37  38
ATOM     38  C   UNL A   1      37.248  32.863  33.337  1.00  0.00     0.031 A 
ATOM     39  C   UNL A   1      37.936  33.166  34.638  1.00  0.00     0.074 A 
ATOM     40  C   UNL A   1      37.760  31.941  32.499  1.00  0.00     0.049 A 
ATOM     41  N   UNL A   1      39.044  32.668  35.126  1.00  0.00    -0.248 NA
ATOM     42  C   UNL A   1      37.308  34.185  35.493  1.00  0.00     0.031 C 
ATOM     43  C   UNL A   1      37.208  31.587  31.191  1.00  0.00     0.029 A 
ATOM     44  N   UNL A   1      38.870  31.143  32.618  1.00  0.00    -0.354 N 
ATOM     45  C   UNL A   1      39.254  33.327  36.331  1.00  0.00     0.074 A 
ATOM     46  C   UNL A   1      38.186  34.290  36.479  1.00  0.00     0.031 C 
ATOM     47  C   UNL A   1      37.972  30.633  30.636  1.00  0.00     0.029 A 
ATOM     48  C   UNL A   1      39.085  30.331  31.532  1.00  0.00     0.049 A 
ATOM     49  H   UNL A   1      39.458  31.152  33.409  1.00  0.00     0.167 HD
ATOM     50  C   UNL A   1      40.239  33.129  37.241  1.00  0.00     0.037 A 
ATOM     51  C   UNL A   1      40.071  29.449  31.285  1.00  0.00     0.037 A 
ATOM     52  C   UNL A   1      41.282  32.147  37.105  1.00  0.00     0.049 A 
ATOM     53  C   UNL A   1      41.145  29.240  32.317  1.00  0.00     0.074 A 
ATOM     54  C   UNL A   1      42.289  31.827  37.997  1.00  0.00     0.029 A 
ATOM     55  N   UNL A   1      41.448  31.321  36.003  1.00  0.00    -0.354 N 
ATOM     56  N   UNL A   1      41.300  29.825  33.480  1.00  0.00    -0.248 NA
ATOM     57  C   UNL A   1      42.179  28.244  32.005  1.00  0.00     0.031 C 
ATOM     58  C   UNL A   1      43.087  30.833  37.420  1.00  0.00     0.029 A 
ATOM     59  C   UNL A   1      42.550  30.503  36.187  1.00  0.00     0.049 A 
ATOM     60  H   UNL A   1      40.867  31.316  35.207  1.00  0.00     0.167 HD
ATOM     61  C   UNL A   1      42.428  29.248  34.050  1.00  0.00     0.074 A 
ATOM     62  C   UNL A   1      42.912  28.260  33.109  1.00  0.00     0.031 C 
ATOM     63  C   UNL A   1      43.009  29.515  35.245  1.00  0.00     0.037 A 
BRANCH  50  64
ATOM     64  C   UNL A   1      40.232  33.992  38.468  1.00  0.00     0.064 A 
ATOM     65  C   UNL A   1      40.944  35.200  38.521  1.00  0.00     0.173 A 
ATOM     66  C   UNL A   1      39.479  33.625  39.594  1.00  0.00     0.173 A 
ATOM     67  F   UNL A   1      41.691  35.589  37.476  1.00  0.00    -0.203 F 
ATOM     68  C   UNL A   1      40.927  35.994  39.665  1.00  0.00     0.198 A 
ATOM     69  C   UNL A   1      39.441  34.435  40.725  1.00  0.00     0.198 A 
ATOM     70  F   UNL A   1      38.774  32.483  39.593  1.00  0.00    -0.203 F 
ATOM     71  F   UNL A   1      41.655  37.117  39.709  1.00  0.00    -0.200 F 
ATOM     72  C   UNL A   1      40.170  35.614  40.763  1.00  0.00     0.200 A 
ATOM     73  F   UNL A   1      38.699  34.073  41.782  1.00  0.00    -0.200 F 
ATOM     74  F   UNL A   1      40.150  36.381  41.861  1.00  0.00    -0.200 F 
ENDBRANCH  50  64
BRANCH  51  75
ATOM     75  C   UNL A   1      40.071  28.673  30.019  1.00  0.00     0.064 A 
ATOM     76  C   UNL A   1      39.455  27.416  29.947  1.00  0.00     0.173 A 
ATOM     77  C   UNL A   1      40.683  29.167  28.859  1.00  0.00     0.173 A 
ATOM     78  F   UNL A   1      38.873  26.894  31.038  1.00  0.00    -0.203 F 
ATOM     79  C   UNL A   1      39.467  26.674  28.769  1.00  0.00     0.198 A 
ATOM     80  C   UNL A   1      40.673  28.435  27.673  1.00  0.00     0.198 A 
ATOM     81  F   UNL A   1      41.282  30.367  28.874  1.00  0.00    -0.203 F 
ATOM     82  F   UNL A   1      38.907  25.457  28.740  1.00  0.00    -0.200 F 
ATOM     83  C   UNL A   1      40.072  27.186  27.631  1.00  0.00     0.200 A 
ATOM     84  F   UNL A   1      41.246  28.939  26.572  1.00  0.00    -0.200 F 
ATOM     85  F   UNL A   1      40.080  26.474  26.496  1.00  0.00    -0.200 F 
ENDBRANCH  51  75
BRANCH  63  86
ATOM     86  C   UNL A   1      44.210  28.699  35.621  1.00  0.00     0.064 A 
ATOM     87  C   UNL A   1      45.510  29.108  35.290  1.00  0.00     0.173 A 
ATOM     88  C   UNL A   1      44.061  27.515  36.359  1.00  0.00     0.173 A 
ATOM     89  F   UNL A   1      45.704  30.225  34.573  1.00  0.00    -0.203 F 
ATOM     90  C   UNL A   1      46.615  28.349  35.665  1.00  0.00     0.198 A 
ATOM     91  C   UNL A   1      45.168  26.773  36.756  1.00  0.00     0.198 A 
ATOM     92  F   UNL A   1      42.837  27.085  36.705  1.00  0.00    -0.203 F 
ATOM     93  F   UNL A   1      47.846  28.735  35.302  1.00  0.00    -0.200 F 
ATOM     94  C   UNL A   1      46.444  27.187  36.403  1.00  0.00     0.200 A 
ATOM     95  F   UNL A   1      45.002  25.657  37.478  1.00  0.00    -0.200 F 
ATOM     96  F   UNL A   1      47.510  26.461  36.769  1.00  0.00    -0.200 F 
ENDBRANCH  63  86
ENDBRANCH  37  38
ENDBRANCH  29  32
ENDBRANCH  27  28
ENDBRANCH  26  27
ENDBRANCH  25  26
ENDBRANCH  24  25
ENDBRANCH   1  24
TORSDOF 18
ENDMDL
MODEL 3
REMARK VINA RESULT:     -10.8      3.904      6.629
REMARK SMILES COc1ncccc1C[N@@H+](CC(=O)NCCCCCCNC(=O)c1ccc(-c2c3nc(c(-c4c(F)c(F)c(F)c(F)c4F)c4ccc([nH]4)c(-c4c(F)c(F)c(F)c(F)c4F)c4nc(c(-c5c(F)c(F)c(F)c(F)c5F)c5ccc2[nH]5)C=C4)C=C3)cc1)C1CCCC1
REMARK SMILES IDX 16 1 15 2 14 3 12 4 13 5 11 7 10 8 9 10 8 11 3 12 4 13 5 14
REMARK SMILES IDX 7 15 6 16 2 17 1 18 87 19 88 20 91 21 89 22 90 23 17 24
REMARK SMILES IDX 18 25 19 26 20 27 21 28 22 29 23 31 24 32 25 33 86 34 26 35
REMARK SMILES IDX 85 36 27 37 28 38 29 39 79 40 30 41 84 42 78 43 80 44 31 45
REMARK SMILES IDX 83 46 77 47 76 48 32 50 64 51 44 52 63 53 45 54 48 55 62 56
REMARK SMILES IDX 81 57 46 58 47 59 61 61 82 62 49 63 33 64 34 65 42 66 35 67
REMARK SMILES IDX 36 68 40 69 43 70 37 71 38 72 41 73 39 74 65 75 66 76 74 77
REMARK SMILES IDX 67 78 68 79 72 80 75 81 69 82 70 83 73 84 71 85 50 86 51 87
REMARK SMILES IDX 59 88 52 89 53 90 57 91 60 92 54 93 55 94 58 95 56 96
REMARK H PARENT 14 6 10 9 21 30 80 49 48 60
REMARK Flexibility Score: inf
ROOT
ATOM      1  C   UNL A   1      34.831  24.697  25.191  1.00  0.00     0.021 C 
ENDROOT
BRANCH   1   2
ATOM      2  C   UNL A   1      34.783  23.496  26.144  1.00  0.00     0.116 C 
BRANCH   2   3
ATOM      3  N   UNL A   1      35.681  22.448  25.712  1.00  0.00    -0.351 N 
ATOM      4  C   UNL A   1      35.504  21.111  25.526  1.00  0.00     0.275 C 
ATOM      5  O   UNL A   1      36.445  20.525  24.975  1.00  0.00    -0.269 OA
ATOM      6  H   UNL A   1      36.593  22.759  25.517  1.00  0.00     0.163 HD
BRANCH   4   7
ATOM      7  C   UNL A   1      34.211  20.347  25.863  1.00  0.00     0.364 C 
BRANCH   7   8
ATOM      8  N   UNL A   1      33.328  19.893  24.759  1.00  0.00    -0.321 N 
ATOM      9  H   UNL A   1      33.910  20.046  23.936  1.00  0.00     0.349 HD
BRANCH   8  10
ATOM     10  C   UNL A   1      32.151  20.742  24.600  1.00  0.00     0.305 C 
BRANCH  10  11
ATOM     11  C   UNL A   1      32.289  22.082  23.929  1.00  0.00     0.068 A 
ATOM     12  C   UNL A   1      31.522  23.192  24.273  1.00  0.00     0.221 A 
ATOM     13  N   UNL A   1      31.516  24.344  23.565  1.00  0.00    -0.222 NA
ATOM     14  C   UNL A   1      32.311  24.407  22.475  1.00  0.00     0.115 A 
ATOM     15  C   UNL A   1      33.111  22.197  22.796  1.00  0.00     0.017 A 
ATOM     16  C   UNL A   1      33.120  23.369  22.052  1.00  0.00     0.021 A 
BRANCH  12  17
ATOM     17  O   UNL A   1      30.560  23.129  25.244  1.00  0.00    -0.481 OA
ATOM     18  C   UNL A   1      31.007  23.695  26.472  1.00  0.00     0.280 C 
ENDBRANCH  12  17
ENDBRANCH  10  11
ENDBRANCH   8  10
BRANCH   8  19
ATOM     19  C   UNL A   1      33.125  18.458  24.554  1.00  0.00     0.184 C 
ATOM     20  C   UNL A   1      34.394  17.740  24.078  1.00  0.00     0.065 C 
ATOM     21  C   UNL A   1      32.685  17.545  25.699  1.00  0.00     0.065 C 
ATOM     22  C   UNL A   1      33.998  16.260  24.102  1.00  0.00     0.006 C 
ATOM     23  C   UNL A   1      32.874  16.139  25.134  1.00  0.00     0.006 C 
ENDBRANCH   8  19
ENDBRANCH   7   8
ENDBRANCH   4   7
ENDBRANCH   2   3
ENDBRANCH   1   2
BRANCH   1  24
ATOM     24  C   UNL A   1      33.960  25.889  25.581  1.00  0.00     0.002 C 
BRANCH  24  25
ATOM     25  C   UNL A   1      33.820  26.979  24.519  1.00  0.00     0.002 C 
BRANCH  25  26
ATOM     26  C   UNL A   1      33.605  28.400  25.047  1.00  0.00     0.021 C 
BRANCH  26  27
ATOM     27  C   UNL A   1      33.951  28.610  26.520  1.00  0.00     0.116 C 
BRANCH  27  28
ATOM     28  N   UNL A   1      33.753  29.985  26.943  1.00  0.00    -0.352 N 
ATOM     29  C   UNL A   1      34.501  30.759  27.793  1.00  0.00     0.251 C 
ATOM     30  H   UNL A   1      32.963  30.429  26.560  1.00  0.00     0.163 HD
ATOM     31  O   UNL A   1      34.067  31.837  28.187  1.00  0.00    -0.269 OA
BRANCH  29  32
ATOM     32  C   UNL A   1      35.827  30.294  28.251  1.00  0.00     0.039 A 
ATOM     33  C   UNL A   1      35.935  29.702  29.512  1.00  0.00     0.014 A 
ATOM     34  C   UNL A   1      36.967  30.479  27.462  1.00  0.00     0.014 A 
ATOM     35  C   UNL A   1      37.178  29.251  29.964  1.00  0.00     0.010 A 
ATOM     36  C   UNL A   1      38.193  29.971  27.885  1.00  0.00     0.010 A 
ATOM     37  C   UNL A   1      38.311  29.361  29.144  1.00  0.00    -0.014 A 
BRANCH  37  38
ATOM     38  C   UNL A   1      39.637  28.870  29.595  1.00  0.00     0.031 A 
ATOM     39  C   UNL A   1      40.459  29.693  30.547  1.00  0.00     0.074 A 
ATOM     40  C   UNL A   1      40.126  27.716  29.102  1.00  0.00     0.049 A 
ATOM     41  N   UNL A   1      41.670  29.479  30.996  1.00  0.00    -0.248 NA
ATOM     42  C   UNL A   1      39.849  30.939  31.037  1.00  0.00     0.031 C 
ATOM     43  C   UNL A   1      39.441  26.850  28.142  1.00  0.00     0.029 A 
ATOM     44  N   UNL A   1      41.320  27.081  29.331  1.00  0.00    -0.354 N 
ATOM     45  C   UNL A   1      41.971  30.568  31.803  1.00  0.00     0.074 A 
ATOM     46  C   UNL A   1      40.837  31.464  31.746  1.00  0.00     0.031 C 
ATOM     47  C   UNL A   1      40.220  25.789  27.875  1.00  0.00     0.029 A 
ATOM     48  C   UNL A   1      41.470  25.915  28.620  1.00  0.00     0.049 A 
ATOM     49  H   UNL A   1      42.005  27.427  29.948  1.00  0.00     0.167 HD
ATOM     50  C   UNL A   1      43.085  30.790  32.542  1.00  0.00     0.037 A 
ATOM     51  C   UNL A   1      42.501  25.052  28.570  1.00  0.00     0.037 A 
ATOM     52  C   UNL A   1      44.198  29.881  32.621  1.00  0.00     0.049 A 
ATOM     53  C   UNL A   1      43.722  25.316  29.408  1.00  0.00     0.074 A 
ATOM     54  C   UNL A   1      45.346  29.986  33.387  1.00  0.00     0.029 A 
ATOM     55  N   UNL A   1      44.300  28.696  31.909  1.00  0.00    -0.354 N 
ATOM     56  N   UNL A   1      43.970  26.319  30.215  1.00  0.00    -0.248 NA
ATOM     57  C   UNL A   1      44.803  24.324  29.335  1.00  0.00     0.031 C 
ATOM     58  C   UNL A   1      46.159  28.881  33.111  1.00  0.00     0.029 A 
ATOM     59  C   UNL A   1      45.497  28.067  32.206  1.00  0.00     0.049 A 
ATOM     60  H   UNL A   1      43.620  28.351  31.284  1.00  0.00     0.167 HD
ATOM     61  C   UNL A   1      45.220  26.065  30.766  1.00  0.00     0.074 A 
ATOM     62  C   UNL A   1      45.673  24.808  30.210  1.00  0.00     0.031 C 
ATOM     63  C   UNL A   1      45.927  26.808  31.653  1.00  0.00     0.037 A 
BRANCH  50  64
ATOM     64  C   UNL A   1      43.153  32.067  33.327  1.00  0.00     0.064 A 
ATOM     65  C   UNL A   1      43.710  33.235  32.784  1.00  0.00     0.173 A 
ATOM     66  C   UNL A   1      42.627  32.134  34.626  1.00  0.00     0.173 A 
ATOM     67  F   UNL A   1      44.240  33.220  31.550  1.00  0.00    -0.203 F 
ATOM     68  C   UNL A   1      43.765  34.414  33.522  1.00  0.00     0.198 A 
ATOM     69  C   UNL A   1      42.657  33.323  35.350  1.00  0.00     0.198 A 
ATOM     70  F   UNL A   1      42.078  31.048  35.190  1.00  0.00    -0.203 F 
ATOM     71  F   UNL A   1      44.346  35.502  33.000  1.00  0.00    -0.200 F 
ATOM     72  C   UNL A   1      43.232  34.459  34.802  1.00  0.00     0.200 A 
ATOM     73  F   UNL A   1      42.132  33.368  36.583  1.00  0.00    -0.200 F 
ATOM     74  F   UNL A   1      43.280  35.596  35.509  1.00  0.00    -0.200 F 
ENDBRANCH  50  64
BRANCH  51  75
ATOM     75  C   UNL A   1      42.411  23.840  27.717  1.00  0.00     0.064 A 
ATOM     76  C   UNL A   1      41.953  22.625  28.243  1.00  0.00     0.173 A 
ATOM     77  C   UNL A   1      42.781  23.869  26.365  1.00  0.00     0.173 A 
ATOM     78  F   UNL A   1      41.607  22.545  29.537  1.00  0.00    -0.203 F 
ATOM     79  C   UNL A   1      41.884  21.478  27.455  1.00  0.00     0.198 A 
ATOM     80  C   UNL A   1      42.687  22.727  25.570  1.00  0.00     0.198 A 
ATOM     81  F   UNL A   1      43.222  25.008  25.813  1.00  0.00    -0.203 F 
ATOM     82  F   UNL A   1      41.481  20.320  27.994  1.00  0.00    -0.200 F 
ATOM     83  C   UNL A   1      42.246  21.532  26.117  1.00  0.00     0.200 A 
ATOM     84  F   UNL A   1      43.026  22.786  24.275  1.00  0.00    -0.200 F 
ATOM     85  F   UNL A   1      42.176  20.431  25.357  1.00  0.00    -0.200 F 
ENDBRANCH  51  75
BRANCH  63  86
ATOM     86  C   UNL A   1      47.247  26.261  32.108  1.00  0.00     0.064 A 
ATOM     87  C   UNL A   1      47.351  25.436  33.237  1.00  0.00     0.173 A 
ATOM     88  C   UNL A   1      48.415  26.531  31.380  1.00  0.00     0.173 A 
ATOM     89  F   UNL A   1      46.265  25.162  33.976  1.00  0.00    -0.203 F 
ATOM     90  C   UNL A   1      48.582  24.920  33.633  1.00  0.00     0.198 A 
ATOM     91  C   UNL A   1      49.639  25.991  31.762  1.00  0.00     0.198 A 
ATOM     92  F   UNL A   1      48.365  27.310  30.288  1.00  0.00    -0.203 F 
ATOM     93  F   UNL A   1      48.667  24.170  34.741  1.00  0.00    -0.200 F 
ATOM     94  C   UNL A   1      49.722  25.192  32.893  1.00  0.00     0.200 A 
ATOM     95  F   UNL A   1      50.738  26.245  31.039  1.00  0.00    -0.200 F 
ATOM     96  F   UNL A   1      50.906  24.688  33.272  1.00  0.00    -0.200 F 
ENDBRANCH  63  86
ENDBRANCH  37  38
ENDBRANCH  29  32
ENDBRANCH  27  28
ENDBRANCH  26  27
ENDBRANCH  25  26
ENDBRANCH  24  25
ENDBRANCH   1  24
TORSDOF 18
ENDMDL
