MODEL 1
REMARK VINA RESULT:     -12.1      0.000      0.000
REMARK SMILES C[C@@H](NS(=O)(=O)c1ccc2c(c1)CCC2)C(=O)NCCCCCCNC(=O)c1ccc(-c2c3nc(c(-c4c(F)c(F)c(F)c(F)c4F)c4ccc([nH]4)c(-c4c(F)c(F)c(F)c(F)c4F)c4nc(c(-c5c(F)c(F)c(F)c(F)c5F)c5ccc2[nH]5)C=C4)C=C3)cc1
REMARK SMILES IDX 21 1 20 2 19 3 18 4 16 5 17 6 2 8 1 9 3 10 4 12 5 13 6 14
REMARK SMILES IDX 7 15 8 16 12 17 9 18 11 19 10 20 13 21 15 22 14 23 22 24
REMARK SMILES IDX 23 25 24 26 25 27 26 28 27 30 28 31 29 32 90 33 30 34 89 35
REMARK SMILES IDX 31 36 32 37 33 38 83 39 34 40 88 41 82 42 84 43 35 44 87 45
REMARK SMILES IDX 81 46 80 47 36 49 68 50 48 51 67 52 49 53 52 54 66 55 85 56
REMARK SMILES IDX 50 57 51 58 65 60 86 61 53 62 37 63 38 64 46 65 39 66 40 67
REMARK SMILES IDX 44 68 47 69 41 70 42 71 45 72 43 73 69 74 70 75 78 76 71 77
REMARK SMILES IDX 72 78 76 79 79 80 73 81 74 82 77 83 75 84 54 85 55 86 63 87
REMARK SMILES IDX 56 88 57 89 61 90 64 91 58 92 59 93 62 94 60 95
REMARK H PARENT 18 7 3 11 25 29 84 48 52 59
REMARK Flexibility Score: inf
ROOT
ATOM      1  C   UNL A   1      37.431  22.552  25.593  1.00  0.00     0.002 C 
ENDROOT
BRANCH   1   2
ATOM      2  C   UNL A   1      36.168  23.397  25.801  1.00  0.00     0.021 C 
BRANCH   2   3
ATOM      3  C   UNL A   1      35.137  23.289  24.677  1.00  0.00     0.116 C 
BRANCH   3   4
ATOM      4  N   UNL A   1      33.827  22.924  25.184  1.00  0.00    -0.355 N 
ATOM      5  C   UNL A   1      32.679  22.579  24.531  1.00  0.00     0.237 C 
ATOM      6  O   UNL A   1      31.708  22.269  25.227  1.00  0.00    -0.273 OA
ATOM      7  H   UNL A   1      33.754  22.923  26.166  1.00  0.00     0.163 HD
BRANCH   5   8
ATOM      8  C   UNL A   1      32.575  22.587  23.006  1.00  0.00     0.155 C 
ATOM      9  C   UNL A   1      32.057  21.260  22.460  1.00  0.00     0.036 C 
BRANCH   8  10
ATOM     10  N   UNL A   1      31.751  23.713  22.521  1.00  0.00    -0.199 NA
ATOM     11  H   UNL A   1      30.983  23.829  23.183  1.00  0.00     0.142 HD
BRANCH  10  12
ATOM     12  S   UNL A   1      32.475  25.227  22.327  1.00  0.00     0.241 S 
ATOM     13  O   UNL A   1      33.875  25.000  22.044  1.00  0.00    -0.207 OA
ATOM     14  O   UNL A   1      31.624  25.941  21.402  1.00  0.00    -0.207 OA
BRANCH  12  15
ATOM     15  C   UNL A   1      32.326  26.031  23.900  1.00  0.00     0.082 A 
ATOM     16  C   UNL A   1      31.107  25.958  24.596  1.00  0.00     0.022 A 
ATOM     17  C   UNL A   1      33.394  26.778  24.401  1.00  0.00     0.025 A 
ATOM     18  C   UNL A   1      30.937  26.663  25.792  1.00  0.00     0.005 A 
ATOM     19  C   UNL A   1      33.195  27.510  25.559  1.00  0.00    -0.043 A 
ATOM     20  C   UNL A   1      31.982  27.449  26.250  1.00  0.00    -0.045 A 
ATOM     21  C   UNL A   1      34.112  28.517  26.177  1.00  0.00     0.036 C 
ATOM     22  C   UNL A   1      31.984  28.381  27.423  1.00  0.00     0.036 C 
ATOM     23  C   UNL A   1      33.475  28.725  27.554  1.00  0.00     0.010 C 
ENDBRANCH  12  15
ENDBRANCH  10  12
ENDBRANCH   8  10
ENDBRANCH   5   8
ENDBRANCH   3   4
ENDBRANCH   2   3
ENDBRANCH   1   2
BRANCH   1  24
ATOM     24  C   UNL A   1      37.269  21.360  24.646  1.00  0.00     0.002 C 
BRANCH  24  25
ATOM     25  C   UNL A   1      38.078  20.114  24.996  1.00  0.00     0.021 C 
BRANCH  25  26
ATOM     26  C   UNL A   1      39.308  20.359  25.860  1.00  0.00     0.116 C 
BRANCH  26  27
ATOM     27  N   UNL A   1      40.216  19.223  25.895  1.00  0.00    -0.352 N 
ATOM     28  C   UNL A   1      41.575  19.209  26.106  1.00  0.00     0.251 C 
ATOM     29  H   UNL A   1      39.800  18.343  25.747  1.00  0.00     0.163 HD
ATOM     30  O   UNL A   1      42.214  18.169  25.991  1.00  0.00    -0.269 OA
BRANCH  28  31
ATOM     31  C   UNL A   1      42.268  20.471  26.435  1.00  0.00     0.039 A 
ATOM     32  C   UNL A   1      42.865  21.201  25.405  1.00  0.00     0.014 A 
ATOM     33  C   UNL A   1      42.283  20.954  27.746  1.00  0.00     0.014 A 
ATOM     34  C   UNL A   1      43.400  22.461  25.674  1.00  0.00     0.010 A 
ATOM     35  C   UNL A   1      42.749  22.239  27.999  1.00  0.00     0.010 A 
ATOM     36  C   UNL A   1      43.303  23.008  26.963  1.00  0.00    -0.014 A 
BRANCH  36  37
ATOM     37  C   UNL A   1      43.750  24.393  27.250  1.00  0.00     0.031 A 
ATOM     38  C   UNL A   1      42.763  25.422  27.721  1.00  0.00     0.074 A 
ATOM     39  C   UNL A   1      45.024  24.746  26.993  1.00  0.00     0.049 A 
ATOM     40  N   UNL A   1      42.936  26.703  27.924  1.00  0.00    -0.248 NA
ATOM     41  C   UNL A   1      41.390  24.954  27.963  1.00  0.00     0.031 C 
ATOM     42  C   UNL A   1      46.058  23.852  26.472  1.00  0.00     0.029 A 
ATOM     43  N   UNL A   1      45.660  25.956  27.114  1.00  0.00    -0.354 N 
ATOM     44  C   UNL A   1      41.695  27.194  28.304  1.00  0.00     0.074 A 
ATOM     45  C   UNL A   1      40.765  26.086  28.248  1.00  0.00     0.031 C 
ATOM     46  C   UNL A   1      47.202  24.541  26.325  1.00  0.00     0.029 A 
ATOM     47  C   UNL A   1      46.972  25.931  26.709  1.00  0.00     0.049 A 
ATOM     48  H   UNL A   1      45.218  26.766  27.458  1.00  0.00     0.167 HD
ATOM     49  C   UNL A   1      41.366  28.451  28.689  1.00  0.00     0.037 A 
ATOM     50  C   UNL A   1      47.883  26.919  26.641  1.00  0.00     0.037 A 
ATOM     51  C   UNL A   1      42.297  29.544  28.764  1.00  0.00     0.049 A 
ATOM     52  C   UNL A   1      47.498  28.304  27.080  1.00  0.00     0.074 A 
ATOM     53  C   UNL A   1      42.081  30.836  29.211  1.00  0.00     0.029 A 
ATOM     54  N   UNL A   1      43.629  29.473  28.376  1.00  0.00    -0.354 N 
ATOM     55  N   UNL A   1      46.339  28.741  27.509  1.00  0.00    -0.248 NA
ATOM     56  C   UNL A   1      48.547  29.331  27.030  1.00  0.00     0.031 C 
ATOM     57  C   UNL A   1      43.270  31.557  29.056  1.00  0.00     0.029 A 
ATOM     58  C   UNL A   1      44.239  30.705  28.551  1.00  0.00     0.049 A 
ATOM     59  H   UNL A   1      44.072  28.666  28.029  1.00  0.00     0.167 HD
ATOM     60  C   UNL A   1      46.521  30.088  27.792  1.00  0.00     0.074 A 
ATOM     61  C   UNL A   1      47.907  30.392  27.504  1.00  0.00     0.031 C 
ATOM     62  C   UNL A   1      45.618  30.992  28.247  1.00  0.00     0.037 A 
BRANCH  49  63
ATOM     63  C   UNL A   1      39.934  28.701  29.062  1.00  0.00     0.064 A 
ATOM     64  C   UNL A   1      39.466  28.484  30.368  1.00  0.00     0.173 A 
ATOM     65  C   UNL A   1      39.019  29.171  28.108  1.00  0.00     0.173 A 
ATOM     66  F   UNL A   1      40.298  28.022  31.314  1.00  0.00    -0.203 F 
ATOM     67  C   UNL A   1      38.130  28.693  30.696  1.00  0.00     0.198 A 
ATOM     68  C   UNL A   1      37.689  29.407  28.446  1.00  0.00     0.198 A 
ATOM     69  F   UNL A   1      39.415  29.399  26.846  1.00  0.00    -0.203 F 
ATOM     70  F   UNL A   1      37.695  28.423  31.934  1.00  0.00    -0.200 F 
ATOM     71  C   UNL A   1      37.243  29.160  29.736  1.00  0.00     0.200 A 
ATOM     72  F   UNL A   1      36.835  29.867  27.521  1.00  0.00    -0.200 F 
ATOM     73  F   UNL A   1      35.957  29.359  30.052  1.00  0.00    -0.200 F 
ENDBRANCH  49  63
BRANCH  50  74
ATOM     74  C   UNL A   1      49.252  26.621  26.149  1.00  0.00     0.064 A 
ATOM     75  C   UNL A   1      49.613  26.892  24.822  1.00  0.00     0.173 A 
ATOM     76  C   UNL A   1      50.231  26.087  26.999  1.00  0.00     0.173 A 
ATOM     77  F   UNL A   1      48.705  27.385  23.968  1.00  0.00    -0.203 F 
ATOM     78  C   UNL A   1      50.903  26.632  24.362  1.00  0.00     0.198 A 
ATOM     79  C   UNL A   1      51.526  25.849  26.544  1.00  0.00     0.198 A 
ATOM     80  F   UNL A   1      49.934  25.816  28.278  1.00  0.00    -0.203 F 
ATOM     81  F   UNL A   1      51.215  26.872  23.082  1.00  0.00    -0.200 F 
ATOM     82  C   UNL A   1      51.860  26.118  25.225  1.00  0.00     0.200 A 
ATOM     83  F   UNL A   1      52.451  25.366  27.384  1.00  0.00    -0.200 F 
ATOM     84  F   UNL A   1      53.102  25.878  24.784  1.00  0.00    -0.200 F 
ENDBRANCH  50  74
BRANCH  62  85
ATOM     85  C   UNL A   1      46.103  32.394  28.464  1.00  0.00     0.064 A 
ATOM     86  C   UNL A   1      46.010  33.363  27.455  1.00  0.00     0.173 A 
ATOM     87  C   UNL A   1      46.625  32.783  29.707  1.00  0.00     0.173 A 
ATOM     88  F   UNL A   1      45.534  33.034  26.246  1.00  0.00    -0.203 F 
ATOM     89  C   UNL A   1      46.439  34.668  27.677  1.00  0.00     0.198 A 
ATOM     90  C   UNL A   1      47.028  34.096  29.933  1.00  0.00     0.198 A 
ATOM     91  F   UNL A   1      46.730  31.894  30.705  1.00  0.00    -0.203 F 
ATOM     92  F   UNL A   1      46.376  35.569  26.687  1.00  0.00    -0.200 F 
ATOM     93  C   UNL A   1      46.940  35.036  28.917  1.00  0.00     0.200 A 
ATOM     94  F   UNL A   1      47.502  34.452  31.135  1.00  0.00    -0.200 F 
ATOM     95  F   UNL A   1      47.344  36.295  29.132  1.00  0.00    -0.200 F 
ENDBRANCH  62  85
ENDBRANCH  36  37
ENDBRANCH  28  31
ENDBRANCH  26  27
ENDBRANCH  25  26
ENDBRANCH  24  25
ENDBRANCH   1  24
TORSDOF 16
ENDMDL
MODEL 2
REMARK VINA RESULT:     -12.1      1.419      1.594
REMARK SMILES C[C@@H](NS(=O)(=O)c1ccc2c(c1)CCC2)C(=O)NCCCCCCNC(=O)c1ccc(-c2c3nc(c(-c4c(F)c(F)c(F)c(F)c4F)c4ccc([nH]4)c(-c4c(F)c(F)c(F)c(F)c4F)c4nc(c(-c5c(F)c(F)c(F)c(F)c5F)c5ccc2[nH]5)C=C4)C=C3)cc1
REMARK SMILES IDX 21 1 20 2 19 3 18 4 16 5 17 6 2 8 1 9 3 10 4 12 5 13 6 14
REMARK SMILES IDX 7 15 8 16 12 17 9 18 11 19 10 20 13 21 15 22 14 23 22 24
REMARK SMILES IDX 23 25 24 26 25 27 26 28 27 30 28 31 29 32 90 33 30 34 89 35
REMARK SMILES IDX 31 36 32 37 33 38 83 39 34 40 88 41 82 42 84 43 35 44 87 45
REMARK SMILES IDX 81 46 80 47 36 49 68 50 48 51 67 52 49 53 52 54 66 55 85 56
REMARK SMILES IDX 50 57 51 58 65 60 86 61 53 62 37 63 38 64 46 65 39 66 40 67
REMARK SMILES IDX 44 68 47 69 41 70 42 71 45 72 43 73 69 74 70 75 78 76 71 77
REMARK SMILES IDX 72 78 76 79 79 80 73 81 74 82 77 83 75 84 54 85 55 86 63 87
REMARK SMILES IDX 56 88 57 89 61 90 64 91 58 92 59 93 62 94 60 95
REMARK H PARENT 18 7 3 11 25 29 84 48 52 59
REMARK Flexibility Score: inf
ROOT
ATOM      1  C   UNL A   1      37.229  22.486  25.619  1.00  0.00     0.002 C 
ENDROOT
BRANCH   1   2
ATOM      2  C   UNL A   1      35.836  23.107  25.787  1.00  0.00     0.021 C 
BRANCH   2   3
ATOM      3  C   UNL A   1      34.972  22.451  26.864  1.00  0.00     0.116 C 
BRANCH   3   4
ATOM      4  N   UNL A   1      34.477  21.154  26.437  1.00  0.00    -0.355 N 
ATOM      5  C   UNL A   1      33.407  20.816  25.661  1.00  0.00     0.237 C 
ATOM      6  O   UNL A   1      33.244  19.617  25.420  1.00  0.00    -0.273 OA
ATOM      7  H   UNL A   1      35.004  20.388  26.762  1.00  0.00     0.163 HD
BRANCH   5   8
ATOM      8  C   UNL A   1      32.430  21.861  25.119  1.00  0.00     0.155 C 
ATOM      9  C   UNL A   1      32.161  21.673  23.629  1.00  0.00     0.036 C 
BRANCH   8  10
ATOM     10  N   UNL A   1      31.167  21.877  25.884  1.00  0.00    -0.199 NA
ATOM     11  H   UNL A   1      31.082  20.968  26.341  1.00  0.00     0.142 HD
BRANCH  10  12
ATOM     12  S   UNL A   1      30.954  23.054  27.077  1.00  0.00     0.241 S 
ATOM     13  O   UNL A   1      29.584  22.964  27.529  1.00  0.00    -0.207 OA
ATOM     14  O   UNL A   1      32.062  22.878  27.989  1.00  0.00    -0.207 OA
BRANCH  12  15
ATOM     15  C   UNL A   1      31.192  24.609  26.261  1.00  0.00     0.082 A 
ATOM     16  C   UNL A   1      30.153  25.141  25.477  1.00  0.00     0.022 A 
ATOM     17  C   UNL A   1      32.425  25.258  26.351  1.00  0.00     0.025 A 
ATOM     18  C   UNL A   1      30.352  26.317  24.749  1.00  0.00     0.005 A 
ATOM     19  C   UNL A   1      32.625  26.395  25.586  1.00  0.00    -0.043 A 
ATOM     20  C   UNL A   1      31.598  26.922  24.798  1.00  0.00    -0.045 A 
ATOM     21  C   UNL A   1      33.900  27.145  25.373  1.00  0.00     0.036 C 
ATOM     22  C   UNL A   1      32.077  28.102  24.011  1.00  0.00     0.036 C 
ATOM     23  C   UNL A   1      33.406  28.432  24.706  1.00  0.00     0.010 C 
ENDBRANCH  12  15
ENDBRANCH  10  12
ENDBRANCH   8  10
ENDBRANCH   5   8
ENDBRANCH   3   4
ENDBRANCH   2   3
ENDBRANCH   1   2
BRANCH   1  24
ATOM     24  C   UNL A   1      37.324  21.375  24.570  1.00  0.00     0.002 C 
BRANCH  24  25
ATOM     25  C   UNL A   1      38.089  20.124  24.990  1.00  0.00     0.021 C 
BRANCH  25  26
ATOM     26  C   UNL A   1      39.319  20.373  25.854  1.00  0.00     0.116 C 
BRANCH  26  27
ATOM     27  N   UNL A   1      40.225  19.236  25.899  1.00  0.00    -0.352 N 
ATOM     28  C   UNL A   1      41.582  19.220  26.117  1.00  0.00     0.251 C 
ATOM     29  H   UNL A   1      39.808  18.356  25.753  1.00  0.00     0.163 HD
ATOM     30  O   UNL A   1      42.221  18.178  26.010  1.00  0.00    -0.269 OA
BRANCH  28  31
ATOM     31  C   UNL A   1      42.276  20.482  26.443  1.00  0.00     0.039 A 
ATOM     32  C   UNL A   1      42.850  21.224  25.409  1.00  0.00     0.014 A 
ATOM     33  C   UNL A   1      42.314  20.954  27.758  1.00  0.00     0.014 A 
ATOM     34  C   UNL A   1      43.385  22.484  25.679  1.00  0.00     0.010 A 
ATOM     35  C   UNL A   1      42.779  22.240  28.014  1.00  0.00     0.010 A 
ATOM     36  C   UNL A   1      43.310  23.020  26.974  1.00  0.00    -0.014 A 
BRANCH  36  37
ATOM     37  C   UNL A   1      43.756  24.405  27.264  1.00  0.00     0.031 A 
ATOM     38  C   UNL A   1      42.770  25.429  27.744  1.00  0.00     0.074 A 
ATOM     39  C   UNL A   1      45.029  24.760  27.003  1.00  0.00     0.049 A 
ATOM     40  N   UNL A   1      42.942  26.710  27.952  1.00  0.00    -0.248 NA
ATOM     41  C   UNL A   1      41.399  24.958  27.991  1.00  0.00     0.031 C 
ATOM     42  C   UNL A   1      46.062  23.869  26.473  1.00  0.00     0.029 A 
ATOM     43  N   UNL A   1      45.663  25.970  27.126  1.00  0.00    -0.354 N 
ATOM     44  C   UNL A   1      41.702  27.198  28.340  1.00  0.00     0.074 A 
ATOM     45  C   UNL A   1      40.774  26.089  28.284  1.00  0.00     0.031 C 
ATOM     46  C   UNL A   1      47.203  24.561  26.324  1.00  0.00     0.029 A 
ATOM     47  C   UNL A   1      46.973  25.949  26.715  1.00  0.00     0.049 A 
ATOM     48  H   UNL A   1      45.221  26.778  27.475  1.00  0.00     0.167 HD
ATOM     49  C   UNL A   1      41.373  28.453  28.731  1.00  0.00     0.037 A 
ATOM     50  C   UNL A   1      47.883  26.939  26.647  1.00  0.00     0.037 A 
ATOM     51  C   UNL A   1      42.303  29.547  28.806  1.00  0.00     0.049 A 
ATOM     52  C   UNL A   1      47.497  28.322  27.093  1.00  0.00     0.074 A 
ATOM     53  C   UNL A   1      42.087  30.836  29.260  1.00  0.00     0.029 A 
ATOM     54  N   UNL A   1      43.633  29.479  28.412  1.00  0.00    -0.354 N 
ATOM     55  N   UNL A   1      46.340  28.755  27.529  1.00  0.00    -0.248 NA
ATOM     56  C   UNL A   1      48.545  29.351  27.042  1.00  0.00     0.031 C 
ATOM     57  C   UNL A   1      43.274  31.561  29.102  1.00  0.00     0.029 A 
ATOM     58  C   UNL A   1      44.242  30.711  28.588  1.00  0.00     0.049 A 
ATOM     59  H   UNL A   1      44.076  28.675  28.059  1.00  0.00     0.167 HD
ATOM     60  C   UNL A   1      46.521  30.101  27.816  1.00  0.00     0.074 A 
ATOM     61  C   UNL A   1      47.906  30.408  27.523  1.00  0.00     0.031 C 
ATOM     62  C   UNL A   1      45.619  31.001  28.279  1.00  0.00     0.037 A 
BRANCH  49  63
ATOM     63  C   UNL A   1      39.942  28.699  29.112  1.00  0.00     0.064 A 
ATOM     64  C   UNL A   1      39.481  28.478  30.419  1.00  0.00     0.173 A 
ATOM     65  C   UNL A   1      39.022  29.170  28.164  1.00  0.00     0.173 A 
ATOM     66  F   UNL A   1      40.319  28.014  31.360  1.00  0.00    -0.203 F 
ATOM     67  C   UNL A   1      38.146  28.683  30.754  1.00  0.00     0.198 A 
ATOM     68  C   UNL A   1      37.693  29.403  28.509  1.00  0.00     0.198 A 
ATOM     69  F   UNL A   1      39.411  29.403  26.900  1.00  0.00    -0.203 F 
ATOM     70  F   UNL A   1      37.717  28.408  31.994  1.00  0.00    -0.200 F 
ATOM     71  C   UNL A   1      37.254  29.151  29.800  1.00  0.00     0.200 A 
ATOM     72  F   UNL A   1      36.834  29.865  27.590  1.00  0.00    -0.200 F 
ATOM     73  F   UNL A   1      35.969  29.346  30.124  1.00  0.00    -0.200 F 
ENDBRANCH  49  63
BRANCH  50  74
ATOM     74  C   UNL A   1      49.249  26.645  26.146  1.00  0.00     0.064 A 
ATOM     75  C   UNL A   1      49.600  26.908  24.815  1.00  0.00     0.173 A 
ATOM     76  C   UNL A   1      50.238  26.122  26.993  1.00  0.00     0.173 A 
ATOM     77  F   UNL A   1      48.683  27.390  23.964  1.00  0.00    -0.203 F 
ATOM     78  C   UNL A   1      50.888  26.652  24.348  1.00  0.00     0.198 A 
ATOM     79  C   UNL A   1      51.530  25.888  26.530  1.00  0.00     0.198 A 
ATOM     80  F   UNL A   1      49.951  25.859  28.276  1.00  0.00    -0.203 F 
ATOM     81  F   UNL A   1      51.189  26.885  23.064  1.00  0.00    -0.200 F 
ATOM     82  C   UNL A   1      51.853  26.150  25.207  1.00  0.00     0.200 A 
ATOM     83  F   UNL A   1      52.464  25.416  27.368  1.00  0.00    -0.200 F 
ATOM     84  F   UNL A   1      53.094  25.914  24.759  1.00  0.00    -0.200 F 
ENDBRANCH  50  74
BRANCH  62  85
ATOM     85  C   UNL A   1      46.103  32.403  28.500  1.00  0.00     0.064 A 
ATOM     86  C   UNL A   1      46.005  33.376  27.494  1.00  0.00     0.173 A 
ATOM     87  C   UNL A   1      46.628  32.790  29.742  1.00  0.00     0.173 A 
ATOM     88  F   UNL A   1      45.526  33.050  26.285  1.00  0.00    -0.203 F 
ATOM     89  C   UNL A   1      46.433  34.681  27.719  1.00  0.00     0.198 A 
ATOM     90  C   UNL A   1      47.030  34.102  29.971  1.00  0.00     0.198 A 
ATOM     91  F   UNL A   1      46.738  31.897  30.736  1.00  0.00    -0.203 F 
ATOM     92  F   UNL A   1      46.366  35.586  26.733  1.00  0.00    -0.200 F 
ATOM     93  C   UNL A   1      46.938  35.045  28.959  1.00  0.00     0.200 A 
ATOM     94  F   UNL A   1      47.508  34.454  31.173  1.00  0.00    -0.200 F 
ATOM     95  F   UNL A   1      47.341  36.304  29.177  1.00  0.00    -0.200 F 
ENDBRANCH  62  85
ENDBRANCH  36  37
ENDBRANCH  28  31
ENDBRANCH  26  27
ENDBRANCH  25  26
ENDBRANCH  24  25
ENDBRANCH   1  24
TORSDOF 16
ENDMDL
MODEL 3
REMARK VINA RESULT:     -12.0      1.373      2.376
REMARK SMILES C[C@@H](NS(=O)(=O)c1ccc2c(c1)CCC2)C(=O)NCCCCCCNC(=O)c1ccc(-c2c3nc(c(-c4c(F)c(F)c(F)c(F)c4F)c4ccc([nH]4)c(-c4c(F)c(F)c(F)c(F)c4F)c4nc(c(-c5c(F)c(F)c(F)c(F)c5F)c5ccc2[nH]5)C=C4)C=C3)cc1
REMARK SMILES IDX 21 1 20 2 19 3 18 4 16 5 17 6 2 8 1 9 3 10 4 12 5 13 6 14
REMARK SMILES IDX 7 15 8 16 12 17 9 18 11 19 10 20 13 21 15 22 14 23 22 24
REMARK SMILES IDX 23 25 24 26 25 27 26 28 27 30 28 31 29 32 90 33 30 34 89 35
REMARK SMILES IDX 31 36 32 37 33 38 83 39 34 40 88 41 82 42 84 43 35 44 87 45
REMARK SMILES IDX 81 46 80 47 36 49 68 50 48 51 67 52 49 53 52 54 66 55 85 56
REMARK SMILES IDX 50 57 51 58 65 60 86 61 53 62 37 63 38 64 46 65 39 66 40 67
REMARK SMILES IDX 44 68 47 69 41 70 42 71 45 72 43 73 69 74 70 75 78 76 71 77
REMARK SMILES IDX 72 78 76 79 79 80 73 81 74 82 77 83 75 84 54 85 55 86 63 87
REMARK SMILES IDX 56 88 57 89 61 90 64 91 58 92 59 93 62 94 60 95
REMARK H PARENT 18 7 3 11 25 29 84 48 52 59
REMARK Flexibility Score: inf
ROOT
ATOM      1  C   UNL A   1      36.029  21.630  24.710  1.00  0.00     0.002 C 
ENDROOT
BRANCH   1   2
ATOM      2  C   UNL A   1      35.393  22.631  25.682  1.00  0.00     0.021 C 
BRANCH   2   3
ATOM      3  C   UNL A   1      34.559  21.997  26.795  1.00  0.00     0.116 C 
BRANCH   3   4
ATOM      4  N   UNL A   1      33.720  20.925  26.291  1.00  0.00    -0.355 N 
ATOM      5  C   UNL A   1      32.632  20.952  25.468  1.00  0.00     0.237 C 
ATOM      6  O   UNL A   1      32.129  19.866  25.164  1.00  0.00    -0.273 OA
ATOM      7  H   UNL A   1      33.980  20.024  26.595  1.00  0.00     0.163 HD
BRANCH   5   8
ATOM      8  C   UNL A   1      32.035  22.261  24.948  1.00  0.00     0.155 C 
ATOM      9  C   UNL A   1      31.937  22.280  23.426  1.00  0.00     0.036 C 
BRANCH   8  10
ATOM     10  N   UNL A   1      30.724  22.546  25.564  1.00  0.00    -0.199 NA
ATOM     11  H   UNL A   1      30.386  21.671  25.968  1.00  0.00     0.142 HD
BRANCH  10  12
ATOM     12  S   UNL A   1      30.632  23.719  26.776  1.00  0.00     0.241 S 
ATOM     13  O   UNL A   1      29.296  23.665  27.326  1.00  0.00    -0.207 OA
ATOM     14  O   UNL A   1      31.798  23.505  27.604  1.00  0.00    -0.207 OA
BRANCH  12  15
ATOM     15  C   UNL A   1      30.856  25.273  25.954  1.00  0.00     0.082 A 
ATOM     16  C   UNL A   1      31.836  26.165  26.423  1.00  0.00     0.022 A 
ATOM     17  C   UNL A   1      30.020  25.623  24.892  1.00  0.00     0.025 A 
ATOM     18  C   UNL A   1      31.966  27.433  25.850  1.00  0.00     0.005 A 
ATOM     19  C   UNL A   1      30.126  26.900  24.367  1.00  0.00    -0.043 A 
ATOM     20  C   UNL A   1      31.092  27.793  24.836  1.00  0.00    -0.045 A 
ATOM     21  C   UNL A   1      29.229  27.559  23.370  1.00  0.00     0.036 C 
ATOM     22  C   UNL A   1      30.960  29.127  24.169  1.00  0.00     0.036 C 
ATOM     23  C   UNL A   1      30.037  28.802  22.986  1.00  0.00     0.010 C 
ENDBRANCH  12  15
ENDBRANCH  10  12
ENDBRANCH   8  10
ENDBRANCH   5   8
ENDBRANCH   3   4
ENDBRANCH   2   3
ENDBRANCH   1   2
BRANCH   1  24
ATOM     24  C   UNL A   1      37.559  21.631  24.681  1.00  0.00     0.002 C 
BRANCH  24  25
ATOM     25  C   UNL A   1      38.235  20.300  25.000  1.00  0.00     0.021 C 
BRANCH  25  26
ATOM     26  C   UNL A   1      39.328  20.363  26.059  1.00  0.00     0.116 C 
BRANCH  26  27
ATOM     27  N   UNL A   1      40.259  19.248  25.986  1.00  0.00    -0.352 N 
ATOM     28  C   UNL A   1      41.630  19.257  26.091  1.00  0.00     0.251 C 
ATOM     29  H   UNL A   1      39.851  18.364  25.841  1.00  0.00     0.163 HD
ATOM     30  O   UNL A   1      42.279  18.236  25.892  1.00  0.00    -0.269 OA
BRANCH  28  31
ATOM     31  C   UNL A   1      42.321  20.524  26.405  1.00  0.00     0.039 A 
ATOM     32  C   UNL A   1      42.786  21.319  25.356  1.00  0.00     0.014 A 
ATOM     33  C   UNL A   1      42.464  20.946  27.730  1.00  0.00     0.014 A 
ATOM     34  C   UNL A   1      43.314  22.581  25.628  1.00  0.00     0.010 A 
ATOM     35  C   UNL A   1      42.921  22.233  27.995  1.00  0.00     0.010 A 
ATOM     36  C   UNL A   1      43.340  23.065  26.946  1.00  0.00    -0.014 A 
BRANCH  36  37
ATOM     37  C   UNL A   1      43.779  24.449  27.252  1.00  0.00     0.031 A 
ATOM     38  C   UNL A   1      42.789  25.462  27.745  1.00  0.00     0.074 A 
ATOM     39  C   UNL A   1      45.049  24.815  26.991  1.00  0.00     0.049 A 
ATOM     40  N   UNL A   1      42.954  26.742  27.968  1.00  0.00    -0.248 NA
ATOM     41  C   UNL A   1      41.421  24.980  27.990  1.00  0.00     0.031 C 
ATOM     42  C   UNL A   1      46.086  23.937  26.449  1.00  0.00     0.029 A 
ATOM     43  N   UNL A   1      45.677  26.027  27.127  1.00  0.00    -0.354 N 
ATOM     44  C   UNL A   1      41.711  27.217  28.365  1.00  0.00     0.074 A 
ATOM     45  C   UNL A   1      40.789  26.104  28.297  1.00  0.00     0.031 C 
ATOM     46  C   UNL A   1      47.223  24.636  26.305  1.00  0.00     0.029 A 
ATOM     47  C   UNL A   1      46.986  26.018  26.713  1.00  0.00     0.049 A 
ATOM     48  H   UNL A   1      45.231  26.828  27.487  1.00  0.00     0.167 HD
ATOM     49  C   UNL A   1      41.376  28.465  28.772  1.00  0.00     0.037 A 
ATOM     50  C   UNL A   1      47.890  27.014  26.655  1.00  0.00     0.037 A 
ATOM     51  C   UNL A   1      42.300  29.564  28.858  1.00  0.00     0.049 A 
ATOM     52  C   UNL A   1      47.498  28.389  27.118  1.00  0.00     0.074 A 
ATOM     53  C   UNL A   1      42.078  30.847  29.327  1.00  0.00     0.029 A 
ATOM     54  N   UNL A   1      43.629  29.509  28.459  1.00  0.00    -0.354 N 
ATOM     55  N   UNL A   1      46.339  28.811  27.562  1.00  0.00    -0.248 NA
ATOM     56  C   UNL A   1      48.539  29.425  27.077  1.00  0.00     0.031 C 
ATOM     57  C   UNL A   1      43.260  31.580  29.175  1.00  0.00     0.029 A 
ATOM     58  C   UNL A   1      44.232  30.742  28.649  1.00  0.00     0.049 A 
ATOM     59  H   UNL A   1      44.076  28.711  28.096  1.00  0.00     0.167 HD
ATOM     60  C   UNL A   1      46.513  30.154  27.865  1.00  0.00     0.074 A 
ATOM     61  C   UNL A   1      47.895  30.473  27.573  1.00  0.00     0.031 C 
ATOM     62  C   UNL A   1      45.607  31.044  28.340  1.00  0.00     0.037 A 
BRANCH  49  63
ATOM     63  C   UNL A   1      39.945  28.699  29.158  1.00  0.00     0.064 A 
ATOM     64  C   UNL A   1      39.493  28.479  30.469  1.00  0.00     0.173 A 
ATOM     65  C   UNL A   1      39.015  29.157  28.213  1.00  0.00     0.173 A 
ATOM     66  F   UNL A   1      40.340  28.028  31.408  1.00  0.00    -0.203 F 
ATOM     67  C   UNL A   1      38.158  28.673  30.810  1.00  0.00     0.198 A 
ATOM     68  C   UNL A   1      37.686  29.378  28.564  1.00  0.00     0.198 A 
ATOM     69  F   UNL A   1      39.395  29.387  26.946  1.00  0.00    -0.203 F 
ATOM     70  F   UNL A   1      37.738  28.399  32.053  1.00  0.00    -0.200 F 
ATOM     71  C   UNL A   1      37.256  29.127  29.858  1.00  0.00     0.200 A 
ATOM     72  F   UNL A   1      36.818  29.826  27.646  1.00  0.00    -0.200 F 
ATOM     73  F   UNL A   1      35.970  29.311  30.187  1.00  0.00    -0.200 F 
ENDBRANCH  49  63
BRANCH  50  74
ATOM     74  C   UNL A   1      49.257  26.734  26.148  1.00  0.00     0.064 A 
ATOM     75  C   UNL A   1      50.237  26.188  26.988  1.00  0.00     0.173 A 
ATOM     76  C   UNL A   1      49.602  26.979  24.811  1.00  0.00     0.173 A 
ATOM     77  F   UNL A   1      49.959  25.955  28.278  1.00  0.00    -0.203 F 
ATOM     78  C   UNL A   1      51.516  25.905  26.510  1.00  0.00     0.198 A 
ATOM     79  C   UNL A   1      50.873  26.674  24.329  1.00  0.00     0.198 A 
ATOM     80  F   UNL A   1      48.696  27.495  23.968  1.00  0.00    -0.203 F 
ATOM     81  F   UNL A   1      52.443  25.412  27.341  1.00  0.00    -0.200 F 
ATOM     82  C   UNL A   1      51.830  26.141  25.180  1.00  0.00     0.200 A 
ATOM     83  F   UNL A   1      51.168  26.890  23.040  1.00  0.00    -0.200 F 
ATOM     84  F   UNL A   1      53.056  25.859  24.720  1.00  0.00    -0.200 F 
ENDBRANCH  50  74
BRANCH  62  85
ATOM     85  C   UNL A   1      46.083  32.446  28.577  1.00  0.00     0.064 A 
ATOM     86  C   UNL A   1      46.656  32.826  29.799  1.00  0.00     0.173 A 
ATOM     87  C   UNL A   1      46.005  33.407  27.557  1.00  0.00     0.173 A 
ATOM     88  F   UNL A   1      46.736  31.948  30.808  1.00  0.00    -0.203 F 
ATOM     89  C   UNL A   1      47.119  34.124  29.997  1.00  0.00     0.198 A 
ATOM     90  C   UNL A   1      46.493  34.696  27.751  1.00  0.00     0.198 A 
ATOM     91  F   UNL A   1      45.469  33.090  26.369  1.00  0.00    -0.203 F 
ATOM     92  F   UNL A   1      47.629  34.477  31.185  1.00  0.00    -0.200 F 
ATOM     93  C   UNL A   1      47.044  35.055  28.971  1.00  0.00     0.200 A 
ATOM     94  F   UNL A   1      46.429  35.591  26.756  1.00  0.00    -0.200 F 
ATOM     95  F   UNL A   1      47.498  36.302  29.161  1.00  0.00    -0.200 F 
ENDBRANCH  62  85
ENDBRANCH  36  37
ENDBRANCH  28  31
ENDBRANCH  26  27
ENDBRANCH  25  26
ENDBRANCH  24  25
ENDBRANCH   1  24
TORSDOF 16
ENDMDL
