MODEL 1
REMARK VINA RESULT:     -11.4      0.000      0.000
REMARK SMILES COc1cc([C@@H]2CC[NH2+][C@@H]2C(=O)NCCCCCCNC(=O)c2ccc(-c3c4nc(c(-c5c(F)c(F)c(F)c(F)c5F)c5ccc([nH]5)c(-c5c(F)c(F)c(F)c(F)c5F)c5nc(c(-c6c(F)c(F)c(F)c(F)c6F)c6ccc3[nH]6)C=C5)C=C4)cc2)cc(OC)c1OC
REMARK SMILES IDX 16 1 15 2 14 3 13 4 11 5 12 6 10 8 6 9 7 10 8 11 9 12 5 15
REMARK SMILES IDX 3 16 4 17 90 18 87 19 86 20 2 21 1 22 91 23 92 24 88 25
REMARK SMILES IDX 89 26 17 27 18 28 19 29 20 30 21 31 22 33 23 34 24 35 85 36
REMARK SMILES IDX 25 37 84 38 26 39 27 40 28 41 78 42 29 43 83 44 77 45 79 46
REMARK SMILES IDX 30 47 82 48 76 49 75 50 31 52 63 53 43 54 62 55 44 56 47 57
REMARK SMILES IDX 61 58 80 59 45 60 46 61 60 63 81 64 48 65 32 66 33 67 41 68
REMARK SMILES IDX 34 69 35 70 39 71 42 72 36 73 37 74 40 75 38 76 64 77 65 78
REMARK SMILES IDX 73 79 66 80 67 81 71 82 74 83 68 84 69 85 72 86 70 87 49 88
REMARK SMILES IDX 50 89 58 90 51 91 52 92 56 93 59 94 53 95 54 96 57 97 55 98
REMARK H PARENT 13 7 9 13 9 14 20 32 79 51 47 62
REMARK Flexibility Score: inf
ROOT
ATOM      1  C   UNL A   1      33.588  25.442  25.794  1.00  0.00     0.002 C 
ENDROOT
BRANCH   1   2
ATOM      2  C   UNL A   1      34.830  24.943  25.045  1.00  0.00     0.021 C 
BRANCH   2   3
ATOM      3  C   UNL A   1      35.497  23.701  25.626  1.00  0.00     0.116 C 
BRANCH   3   4
ATOM      4  N   UNL A   1      34.695  22.960  26.561  1.00  0.00    -0.351 N 
ATOM      5  C   UNL A   1      34.221  21.686  26.460  1.00  0.00     0.278 C 
ATOM      6  O   UNL A   1      33.789  21.177  27.504  1.00  0.00    -0.268 OA
ATOM      7  H   UNL A   1      34.455  23.438  27.387  1.00  0.00     0.163 HD
BRANCH   5   8
ATOM      8  C   UNL A   1      34.116  20.895  25.128  1.00  0.00     0.280 C 
ATOM      9  C   UNL A   1      33.040  21.156  24.047  1.00  0.00     0.093 C 
ATOM     10  C   UNL A   1      32.440  19.768  23.766  1.00  0.00     0.076 C 
ATOM     11  C   UNL A   1      32.926  18.851  24.872  1.00  0.00     0.262 C 
ATOM     12  N   UNL A   1      34.155  19.430  25.398  1.00  0.00    -0.335 N 
ATOM     13  H   UNL A   1      34.962  19.011  24.935  1.00  0.00     0.346 HD
ATOM     14  H   UNL A   1      34.234  19.252  26.400  1.00  0.00     0.346 HD
BRANCH   9  15
ATOM     15  C   UNL A   1      32.111  22.343  24.219  1.00  0.00    -0.031 A 
ATOM     16  C   UNL A   1      31.296  24.491  23.368  1.00  0.00     0.164 A 
ATOM     17  C   UNL A   1      32.065  23.322  23.221  1.00  0.00     0.055 A 
ATOM     18  C   UNL A   1      30.581  24.739  24.557  1.00  0.00     0.203 A 
ATOM     19  C   UNL A   1      30.573  23.743  25.549  1.00  0.00     0.164 A 
ATOM     20  C   UNL A   1      31.299  22.548  25.338  1.00  0.00     0.055 A 
BRANCH  16  21
ATOM     21  O   UNL A   1      31.439  25.364  22.318  1.00  0.00    -0.493 OA
ATOM     22  C   UNL A   1      32.664  25.259  21.604  1.00  0.00     0.278 C 
ENDBRANCH  16  21
BRANCH  18  23
ATOM     23  O   UNL A   1      30.147  26.020  24.798  1.00  0.00    -0.490 OA
ATOM     24  C   UNL A   1      28.866  26.328  24.254  1.00  0.00     0.278 C 
ENDBRANCH  18  23
BRANCH  19  25
ATOM     25  O   UNL A   1      30.021  23.740  26.801  1.00  0.00    -0.493 OA
ATOM     26  C   UNL A   1      29.329  22.610  27.291  1.00  0.00     0.278 C 
ENDBRANCH  19  25
ENDBRANCH   9  15
ENDBRANCH   5   8
ENDBRANCH   3   4
ENDBRANCH   2   3
ENDBRANCH   1   2
BRANCH   1  27
ATOM     27  C   UNL A   1      33.552  26.934  26.154  1.00  0.00     0.002 C 
BRANCH  27  28
ATOM     28  C   UNL A   1      32.972  27.876  25.096  1.00  0.00     0.021 C 
BRANCH  28  29
ATOM     29  C   UNL A   1      33.733  29.177  24.880  1.00  0.00     0.116 C 
BRANCH  29  30
ATOM     30  N   UNL A   1      33.055  30.307  25.493  1.00  0.00    -0.352 N 
ATOM     31  C   UNL A   1      33.243  30.937  26.699  1.00  0.00     0.251 C 
ATOM     32  H   UNL A   1      32.331  30.691  24.946  1.00  0.00     0.163 HD
ATOM     33  O   UNL A   1      32.379  31.714  27.101  1.00  0.00    -0.269 OA
BRANCH  31  34
ATOM     34  C   UNL A   1      34.449  30.711  27.537  1.00  0.00     0.039 A 
ATOM     35  C   UNL A   1      35.386  31.747  27.651  1.00  0.00     0.014 A 
ATOM     36  C   UNL A   1      34.734  29.476  28.125  1.00  0.00     0.014 A 
ATOM     37  C   UNL A   1      36.573  31.561  28.373  1.00  0.00     0.010 A 
ATOM     38  C   UNL A   1      35.876  29.316  28.913  1.00  0.00     0.010 A 
ATOM     39  C   UNL A   1      36.819  30.348  29.032  1.00  0.00    -0.014 A 
BRANCH  39  40
ATOM     40  C   UNL A   1      38.067  30.119  29.813  1.00  0.00     0.031 A 
ATOM     41  C   UNL A   1      39.151  29.229  29.261  1.00  0.00     0.074 A 
ATOM     42  C   UNL A   1      38.205  30.646  31.045  1.00  0.00     0.049 A 
ATOM     43  N   UNL A   1      40.242  28.790  29.838  1.00  0.00    -0.248 NA
ATOM     44  C   UNL A   1      38.970  28.747  27.882  1.00  0.00     0.031 C 
ATOM     45  C   UNL A   1      37.229  31.509  31.712  1.00  0.00     0.029 A 
ATOM     46  N   UNL A   1      39.218  30.521  31.966  1.00  0.00    -0.354 N 
ATOM     47  C   UNL A   1      40.851  27.950  28.912  1.00  0.00     0.074 A 
ATOM     48  C   UNL A   1      39.995  27.917  27.746  1.00  0.00     0.031 C 
ATOM     49  C   UNL A   1      37.695  31.846  32.925  1.00  0.00     0.029 A 
ATOM     50  C   UNL A   1      38.980  31.188  33.143  1.00  0.00     0.049 A 
ATOM     51  H   UNL A   1      40.036  30.000  31.798  1.00  0.00     0.167 HD
ATOM     52  C   UNL A   1      42.023  27.280  29.019  1.00  0.00     0.037 A 
ATOM     53  C   UNL A   1      39.707  31.251  34.276  1.00  0.00     0.037 A 
ATOM     54  C   UNL A   1      42.908  27.359  30.151  1.00  0.00     0.049 A 
ATOM     55  C   UNL A   1      41.009  30.500  34.365  1.00  0.00     0.074 A 
ATOM     56  C   UNL A   1      44.156  26.785  30.314  1.00  0.00     0.029 A 
ATOM     57  N   UNL A   1      42.637  28.066  31.314  1.00  0.00    -0.354 N 
ATOM     58  N   UNL A   1      41.595  29.749  33.465  1.00  0.00    -0.248 NA
ATOM     59  C   UNL A   1      41.749  30.603  35.631  1.00  0.00     0.031 C 
ATOM     60  C   UNL A   1      44.625  27.108  31.591  1.00  0.00     0.029 A 
ATOM     61  C   UNL A   1      43.688  27.922  32.207  1.00  0.00     0.049 A 
ATOM     62  H   UNL A   1      41.822  28.590  31.481  1.00  0.00     0.167 HD
ATOM     63  C   UNL A   1      42.783  29.320  34.040  1.00  0.00     0.074 A 
ATOM     64  C   UNL A   1      42.841  29.899  35.365  1.00  0.00     0.031 C 
ATOM     65  C   UNL A   1      43.742  28.519  33.516  1.00  0.00     0.037 A 
BRANCH  52  66
ATOM     66  C   UNL A   1      42.428  26.393  27.877  1.00  0.00     0.064 A 
ATOM     67  C   UNL A   1      41.960  25.076  27.761  1.00  0.00     0.173 A 
ATOM     68  C   UNL A   1      43.253  26.887  26.855  1.00  0.00     0.173 A 
ATOM     69  F   UNL A   1      41.176  24.552  28.716  1.00  0.00    -0.203 F 
ATOM     70  C   UNL A   1      42.324  24.277  26.679  1.00  0.00     0.198 A 
ATOM     71  C   UNL A   1      43.591  26.097  25.759  1.00  0.00     0.198 A 
ATOM     72  F   UNL A   1      43.720  28.144  26.911  1.00  0.00    -0.203 F 
ATOM     73  F   UNL A   1      41.899  23.008  26.612  1.00  0.00    -0.200 F 
ATOM     74  C   UNL A   1      43.132  24.792  25.676  1.00  0.00     0.200 A 
ATOM     75  F   UNL A   1      44.361  26.600  24.783  1.00  0.00    -0.200 F 
ATOM     76  F   UNL A   1      43.473  24.026  24.629  1.00  0.00    -0.200 F 
ENDBRANCH  52  66
BRANCH  53  77
ATOM     77  C   UNL A   1      39.231  32.068  35.422  1.00  0.00     0.064 A 
ATOM     78  C   UNL A   1      39.604  33.414  35.545  1.00  0.00     0.173 A 
ATOM     79  C   UNL A   1      38.410  31.524  36.420  1.00  0.00     0.173 A 
ATOM     80  F   UNL A   1      40.407  33.973  34.627  1.00  0.00    -0.203 F 
ATOM     81  C   UNL A   1      39.191  34.179  36.633  1.00  0.00     0.198 A 
ATOM     82  C   UNL A   1      37.975  32.298  37.494  1.00  0.00     0.198 A 
ATOM     83  F   UNL A   1      38.024  30.243  36.348  1.00  0.00    -0.203 F 
ATOM     84  F   UNL A   1      39.600  35.451  36.750  1.00  0.00    -0.200 F 
ATOM     85  C   UNL A   1      38.373  33.623  37.604  1.00  0.00     0.200 A 
ATOM     86  F   UNL A   1      37.173  31.761  38.423  1.00  0.00    -0.200 F 
ATOM     87  F   UNL A   1      37.973  34.359  38.649  1.00  0.00    -0.200 F 
ENDBRANCH  53  77
BRANCH  65  88
ATOM     88  C   UNL A   1      44.958  28.256  34.352  1.00  0.00     0.064 A 
ATOM     89  C   UNL A   1      46.039  29.148  34.381  1.00  0.00     0.173 A 
ATOM     90  C   UNL A   1      45.021  27.120  35.174  1.00  0.00     0.173 A 
ATOM     91  F   UNL A   1      46.033  30.241  33.601  1.00  0.00    -0.203 F 
ATOM     92  C   UNL A   1      47.147  28.904  35.189  1.00  0.00     0.198 A 
ATOM     93  C   UNL A   1      46.118  26.892  36.001  1.00  0.00     0.198 A 
ATOM     94  F   UNL A   1      44.009  26.239  35.186  1.00  0.00    -0.203 F 
ATOM     95  F   UNL A   1      48.186  29.750  35.171  1.00  0.00    -0.200 F 
ATOM     96  C   UNL A   1      47.181  27.781  36.003  1.00  0.00     0.200 A 
ATOM     97  F   UNL A   1      46.144  25.813  36.795  1.00  0.00    -0.200 F 
ATOM     98  F   UNL A   1      48.244  27.553  36.786  1.00  0.00    -0.200 F 
ENDBRANCH  65  88
ENDBRANCH  39  40
ENDBRANCH  31  34
ENDBRANCH  29  30
ENDBRANCH  28  29
ENDBRANCH  27  28
ENDBRANCH   1  27
TORSDOF 17
ENDMDL
MODEL 2
REMARK VINA RESULT:     -11.4      4.340      9.025
REMARK SMILES COc1cc([C@@H]2CC[NH2+][C@@H]2C(=O)NCCCCCCNC(=O)c2ccc(-c3c4nc(c(-c5c(F)c(F)c(F)c(F)c5F)c5ccc([nH]5)c(-c5c(F)c(F)c(F)c(F)c5F)c5nc(c(-c6c(F)c(F)c(F)c(F)c6F)c6ccc3[nH]6)C=C5)C=C4)cc2)cc(OC)c1OC
REMARK SMILES IDX 16 1 15 2 14 3 13 4 11 5 12 6 10 8 6 9 7 10 8 11 9 12 5 15
REMARK SMILES IDX 3 16 4 17 90 18 87 19 86 20 2 21 1 22 91 23 92 24 88 25
REMARK SMILES IDX 89 26 17 27 18 28 19 29 20 30 21 31 22 33 23 34 24 35 85 36
REMARK SMILES IDX 25 37 84 38 26 39 27 40 28 41 78 42 29 43 83 44 77 45 79 46
REMARK SMILES IDX 30 47 82 48 76 49 75 50 31 52 63 53 43 54 62 55 44 56 47 57
REMARK SMILES IDX 61 58 80 59 45 60 46 61 60 63 81 64 48 65 32 66 33 67 41 68
REMARK SMILES IDX 34 69 35 70 39 71 42 72 36 73 37 74 40 75 38 76 64 77 65 78
REMARK SMILES IDX 73 79 66 80 67 81 71 82 74 83 68 84 69 85 72 86 70 87 49 88
REMARK SMILES IDX 50 89 58 90 51 91 52 92 56 93 59 94 53 95 54 96 57 97 55 98
REMARK H PARENT 13 7 9 13 9 14 20 32 79 51 47 62
REMARK Flexibility Score: inf
ROOT
ATOM      1  C   UNL A   1      38.594  22.468  25.980  1.00  0.00     0.002 C 
ENDROOT
BRANCH   1   2
ATOM      2  C   UNL A   1      37.774  23.754  26.137  1.00  0.00     0.021 C 
BRANCH   2   3
ATOM      3  C   UNL A   1      36.325  23.676  25.670  1.00  0.00     0.116 C 
BRANCH   3   4
ATOM      4  N   UNL A   1      35.419  23.055  26.598  1.00  0.00    -0.351 N 
ATOM      5  C   UNL A   1      34.743  21.878  26.476  1.00  0.00     0.278 C 
ATOM      6  O   UNL A   1      34.240  21.423  27.513  1.00  0.00    -0.268 OA
ATOM      7  H   UNL A   1      35.266  23.547  27.436  1.00  0.00     0.163 HD
BRANCH   5   8
ATOM      8  C   UNL A   1      34.500  21.144  25.129  1.00  0.00     0.280 C 
ATOM      9  C   UNL A   1      33.276  21.390  24.216  1.00  0.00     0.093 C 
ATOM     10  C   UNL A   1      32.718  19.983  23.942  1.00  0.00     0.076 C 
ATOM     11  C   UNL A   1      33.397  19.047  24.924  1.00  0.00     0.262 C 
ATOM     12  N   UNL A   1      34.653  19.673  25.313  1.00  0.00    -0.335 N 
ATOM     13  H   UNL A   1      35.411  19.325  24.725  1.00  0.00     0.346 HD
ATOM     14  H   UNL A   1      34.876  19.455  26.284  1.00  0.00     0.346 HD
BRANCH   9  15
ATOM     15  C   UNL A   1      32.317  22.511  24.572  1.00  0.00    -0.031 A 
ATOM     16  C   UNL A   1      31.456  24.751  24.080  1.00  0.00     0.164 A 
ATOM     17  C   UNL A   1      32.254  23.640  23.750  1.00  0.00     0.055 A 
ATOM     18  C   UNL A   1      30.727  24.781  25.287  1.00  0.00     0.203 A 
ATOM     19  C   UNL A   1      30.737  23.635  26.100  1.00  0.00     0.164 A 
ATOM     20  C   UNL A   1      31.493  22.508  25.701  1.00  0.00     0.055 A 
BRANCH  16  21
ATOM     21  O   UNL A   1      31.584  25.789  23.192  1.00  0.00    -0.493 OA
ATOM     22  C   UNL A   1      32.602  25.627  22.213  1.00  0.00     0.278 C 
ENDBRANCH  16  21
BRANCH  18  23
ATOM     23  O   UNL A   1      30.260  25.994  25.732  1.00  0.00    -0.490 OA
ATOM     24  C   UNL A   1      31.241  26.817  26.357  1.00  0.00     0.278 C 
ENDBRANCH  18  23
BRANCH  19  25
ATOM     25  O   UNL A   1      30.178  23.411  27.328  1.00  0.00    -0.493 OA
ATOM     26  C   UNL A   1      29.014  22.623  27.467  1.00  0.00     0.278 C 
ENDBRANCH  19  25
ENDBRANCH   9  15
ENDBRANCH   5   8
ENDBRANCH   3   4
ENDBRANCH   2   3
ENDBRANCH   1   2
BRANCH   1  27
ATOM     27  C   UNL A   1      38.112  21.467  24.921  1.00  0.00     0.002 C 
BRANCH  27  28
ATOM     28  C   UNL A   1      38.746  20.074  24.961  1.00  0.00     0.021 C 
BRANCH  28  29
ATOM     29  C   UNL A   1      39.392  19.679  26.282  1.00  0.00     0.116 C 
BRANCH  29  30
ATOM     30  N   UNL A   1      40.604  18.903  26.078  1.00  0.00    -0.352 N 
ATOM     31  C   UNL A   1      41.924  19.276  26.010  1.00  0.00     0.251 C 
ATOM     32  H   UNL A   1      40.452  17.935  25.972  1.00  0.00     0.163 HD
ATOM     33  O   UNL A   1      42.745  18.467  25.582  1.00  0.00    -0.269 OA
BRANCH  31  34
ATOM     34  C   UNL A   1      42.395  20.622  26.428  1.00  0.00     0.039 A 
ATOM     35  C   UNL A   1      42.492  20.898  27.799  1.00  0.00     0.014 A 
ATOM     36  C   UNL A   1      42.641  21.648  25.514  1.00  0.00     0.014 A 
ATOM     37  C   UNL A   1      42.865  22.172  28.246  1.00  0.00     0.010 A 
ATOM     38  C   UNL A   1      43.093  22.894  25.956  1.00  0.00     0.010 A 
ATOM     39  C   UNL A   1      43.193  23.179  27.327  1.00  0.00    -0.014 A 
BRANCH  39  40
ATOM     40  C   UNL A   1      43.599  24.542  27.768  1.00  0.00     0.031 A 
ATOM     41  C   UNL A   1      42.551  25.565  28.123  1.00  0.00     0.074 A 
ATOM     42  C   UNL A   1      44.900  24.892  27.786  1.00  0.00     0.049 A 
ATOM     43  N   UNL A   1      42.689  26.841  28.390  1.00  0.00    -0.248 NA
ATOM     44  C   UNL A   1      41.156  25.097  28.155  1.00  0.00     0.031 C 
ATOM     45  C   UNL A   1      46.019  24.011  27.449  1.00  0.00     0.029 A 
ATOM     46  N   UNL A   1      45.503  26.091  28.086  1.00  0.00    -0.354 N 
ATOM     47  C   UNL A   1      41.402  27.332  28.579  1.00  0.00     0.074 A 
ATOM     48  C   UNL A   1      40.493  26.225  28.367  1.00  0.00     0.031 C 
ATOM     49  C   UNL A   1      47.170  24.693  27.575  1.00  0.00     0.029 A 
ATOM     50  C   UNL A   1      46.870  26.070  27.955  1.00  0.00     0.049 A 
ATOM     51  H   UNL A   1      45.000  26.890  28.366  1.00  0.00     0.167 HD
ATOM     52  C   UNL A   1      41.014  28.586  28.912  1.00  0.00     0.037 A 
ATOM     53  C   UNL A   1      47.779  27.052  28.110  1.00  0.00     0.037 A 
ATOM     54  C   UNL A   1      41.916  29.673  29.185  1.00  0.00     0.049 A 
ATOM     55  C   UNL A   1      47.320  28.436  28.485  1.00  0.00     0.074 A 
ATOM     56  C   UNL A   1      41.620  30.955  29.613  1.00  0.00     0.029 A 
ATOM     57  N   UNL A   1      43.296  29.601  29.062  1.00  0.00    -0.354 N 
ATOM     58  N   UNL A   1      46.105  28.874  28.707  1.00  0.00    -0.248 NA
ATOM     59  C   UNL A   1      48.361  29.464  28.629  1.00  0.00     0.031 C 
ATOM     60  C   UNL A   1      42.815  31.673  29.710  1.00  0.00     0.029 A 
ATOM     61  C   UNL A   1      43.861  30.825  29.386  1.00  0.00     0.049 A 
ATOM     62  H   UNL A   1      43.799  28.802  28.786  1.00  0.00     0.167 HD
ATOM     63  C   UNL A   1      46.237  30.212  29.048  1.00  0.00     0.074 A 
ATOM     64  C   UNL A   1      47.652  30.517  29.012  1.00  0.00     0.031 C 
ATOM     65  C   UNL A   1      45.273  31.109  29.365  1.00  0.00     0.037 A 
BRANCH  52  66
ATOM     66  C   UNL A   1      39.540  28.861  29.003  1.00  0.00     0.064 A 
ATOM     67  C   UNL A   1      38.830  28.698  30.202  1.00  0.00     0.173 A 
ATOM     68  C   UNL A   1      38.841  29.348  27.888  1.00  0.00     0.173 A 
ATOM     69  F   UNL A   1      39.450  28.228  31.295  1.00  0.00    -0.203 F 
ATOM     70  C   UNL A   1      37.469  28.986  30.274  1.00  0.00     0.198 A 
ATOM     71  C   UNL A   1      37.487  29.663  27.971  1.00  0.00     0.198 A 
ATOM     72  F   UNL A   1      39.474  29.532  26.720  1.00  0.00    -0.203 F 
ATOM     73  F   UNL A   1      36.803  28.782  31.418  1.00  0.00    -0.200 F 
ATOM     74  C   UNL A   1      36.801  29.476  29.161  1.00  0.00     0.200 A 
ATOM     75  F   UNL A   1      36.846  30.149  26.898  1.00  0.00    -0.200 F 
ATOM     76  F   UNL A   1      35.494  29.763  29.235  1.00  0.00    -0.200 F 
ENDBRANCH  52  66
BRANCH  53  77
ATOM     77  C   UNL A   1      49.225  26.765  27.923  1.00  0.00     0.064 A 
ATOM     78  C   UNL A   1      49.812  26.845  26.652  1.00  0.00     0.173 A 
ATOM     79  C   UNL A   1      50.044  26.392  28.998  1.00  0.00     0.173 A 
ATOM     80  F   UNL A   1      49.064  27.176  25.589  1.00  0.00    -0.203 F 
ATOM     81  C   UNL A   1      51.159  26.545  26.461  1.00  0.00     0.198 A 
ATOM     82  C   UNL A   1      51.397  26.118  28.810  1.00  0.00     0.198 A 
ATOM     83  F   UNL A   1      49.532  26.302  30.233  1.00  0.00    -0.203 F 
ATOM     84  F   UNL A   1      51.684  26.585  25.228  1.00  0.00    -0.200 F 
ATOM     85  C   UNL A   1      51.952  26.186  27.539  1.00  0.00     0.200 A 
ATOM     86  F   UNL A   1      52.164  25.786  29.858  1.00  0.00    -0.200 F 
ATOM     87  F   UNL A   1      53.247  25.900  27.356  1.00  0.00    -0.200 F 
ENDBRANCH  53  77
BRANCH  65  88
ATOM     88  C   UNL A   1      45.710  32.493  29.744  1.00  0.00     0.064 A 
ATOM     89  C   UNL A   1      45.818  33.517  28.793  1.00  0.00     0.173 A 
ATOM     90  C   UNL A   1      45.977  32.808  31.085  1.00  0.00     0.173 A 
ATOM     91  F   UNL A   1      45.589  33.260  27.496  1.00  0.00    -0.203 F 
ATOM     92  C   UNL A   1      46.195  34.804  29.168  1.00  0.00     0.198 A 
ATOM     93  C   UNL A   1      46.327  34.103  31.461  1.00  0.00     0.198 A 
ATOM     94  F   UNL A   1      45.882  31.864  32.033  1.00  0.00    -0.203 F 
ATOM     95  F   UNL A   1      46.330  35.759  28.237  1.00  0.00    -0.200 F 
ATOM     96  C   UNL A   1      46.441  35.097  30.502  1.00  0.00     0.200 A 
ATOM     97  F   UNL A   1      46.553  34.387  32.751  1.00  0.00    -0.200 F 
ATOM     98  F   UNL A   1      46.794  36.338  30.861  1.00  0.00    -0.200 F 
ENDBRANCH  65  88
ENDBRANCH  39  40
ENDBRANCH  31  34
ENDBRANCH  29  30
ENDBRANCH  28  29
ENDBRANCH  27  28
ENDBRANCH   1  27
TORSDOF 17
ENDMDL
MODEL 3
REMARK VINA RESULT:     -11.3      4.353      7.410
REMARK SMILES COc1cc([C@@H]2CC[NH2+][C@@H]2C(=O)NCCCCCCNC(=O)c2ccc(-c3c4nc(c(-c5c(F)c(F)c(F)c(F)c5F)c5ccc([nH]5)c(-c5c(F)c(F)c(F)c(F)c5F)c5nc(c(-c6c(F)c(F)c(F)c(F)c6F)c6ccc3[nH]6)C=C5)C=C4)cc2)cc(OC)c1OC
REMARK SMILES IDX 16 1 15 2 14 3 13 4 11 5 12 6 10 8 6 9 7 10 8 11 9 12 5 15
REMARK SMILES IDX 3 16 4 17 90 18 87 19 86 20 2 21 1 22 91 23 92 24 88 25
REMARK SMILES IDX 89 26 17 27 18 28 19 29 20 30 21 31 22 33 23 34 24 35 85 36
REMARK SMILES IDX 25 37 84 38 26 39 27 40 28 41 78 42 29 43 83 44 77 45 79 46
REMARK SMILES IDX 30 47 82 48 76 49 75 50 31 52 63 53 43 54 62 55 44 56 47 57
REMARK SMILES IDX 61 58 80 59 45 60 46 61 60 63 81 64 48 65 32 66 33 67 41 68
REMARK SMILES IDX 34 69 35 70 39 71 42 72 36 73 37 74 40 75 38 76 64 77 65 78
REMARK SMILES IDX 73 79 66 80 67 81 71 82 74 83 68 84 69 85 72 86 70 87 49 88
REMARK SMILES IDX 50 89 58 90 51 91 52 92 56 93 59 94 53 95 54 96 57 97 55 98
REMARK H PARENT 13 7 9 13 9 14 20 32 79 51 47 62
REMARK Flexibility Score: inf
ROOT
ATOM      1  C   UNL A   1      38.735  22.293  25.897  1.00  0.00     0.002 C 
ENDROOT
BRANCH   1   2
ATOM      2  C   UNL A   1      37.890  23.545  26.164  1.00  0.00     0.021 C 
BRANCH   2   3
ATOM      3  C   UNL A   1      36.452  23.490  25.661  1.00  0.00     0.116 C 
BRANCH   3   4
ATOM      4  N   UNL A   1      35.497  22.969  26.601  1.00  0.00    -0.351 N 
ATOM      5  C   UNL A   1      34.715  21.857  26.499  1.00  0.00     0.278 C 
ATOM      6  O   UNL A   1      34.179  21.466  27.545  1.00  0.00    -0.268 OA
ATOM      7  H   UNL A   1      35.394  23.486  27.432  1.00  0.00     0.163 HD
BRANCH   5   8
ATOM      8  C   UNL A   1      34.401  21.129  25.164  1.00  0.00     0.280 C 
ATOM      9  C   UNL A   1      33.193  21.463  24.257  1.00  0.00     0.093 C 
ATOM     10  C   UNL A   1      32.519  20.103  24.008  1.00  0.00     0.076 C 
ATOM     11  C   UNL A   1      33.127  19.127  24.996  1.00  0.00     0.262 C 
ATOM     12  N   UNL A   1      34.434  19.653  25.367  1.00  0.00    -0.335 N 
ATOM     13  H   UNL A   1      35.155  19.236  24.778  1.00  0.00     0.346 HD
ATOM     14  H   UNL A   1      34.647  19.429  26.339  1.00  0.00     0.346 HD
BRANCH   9  15
ATOM     15  C   UNL A   1      32.333  22.664  24.606  1.00  0.00    -0.031 A 
ATOM     16  C   UNL A   1      31.748  25.003  24.175  1.00  0.00     0.164 A 
ATOM     17  C   UNL A   1      32.447  23.829  23.842  1.00  0.00     0.055 A 
ATOM     18  C   UNL A   1      30.940  25.058  25.330  1.00  0.00     0.203 A 
ATOM     19  C   UNL A   1      30.772  23.882  26.081  1.00  0.00     0.164 A 
ATOM     20  C   UNL A   1      31.434  22.699  25.676  1.00  0.00     0.055 A 
BRANCH  16  21
ATOM     21  O   UNL A   1      32.048  26.060  23.353  1.00  0.00    -0.493 OA
ATOM     22  C   UNL A   1      32.410  25.710  22.023  1.00  0.00     0.278 C 
ENDBRANCH  16  21
BRANCH  18  23
ATOM     23  O   UNL A   1      30.572  26.293  25.805  1.00  0.00    -0.490 OA
ATOM     24  C   UNL A   1      31.532  26.915  26.654  1.00  0.00     0.278 C 
ENDBRANCH  18  23
BRANCH  19  25
ATOM     25  O   UNL A   1      30.105  23.665  27.256  1.00  0.00    -0.493 OA
ATOM     26  C   UNL A   1      29.173  22.612  27.382  1.00  0.00     0.278 C 
ENDBRANCH  19  25
ENDBRANCH   9  15
ENDBRANCH   5   8
ENDBRANCH   3   4
ENDBRANCH   2   3
ENDBRANCH   1   2
BRANCH   1  27
ATOM     27  C   UNL A   1      38.116  21.223  24.987  1.00  0.00     0.002 C 
BRANCH  27  28
ATOM     28  C   UNL A   1      38.819  19.863  24.959  1.00  0.00     0.021 C 
BRANCH  28  29
ATOM     29  C   UNL A   1      39.446  19.415  26.273  1.00  0.00     0.116 C 
BRANCH  29  30
ATOM     30  N   UNL A   1      40.759  18.826  26.070  1.00  0.00    -0.352 N 
ATOM     31  C   UNL A   1      42.002  19.394  25.933  1.00  0.00     0.251 C 
ATOM     32  H   UNL A   1      40.758  17.842  26.024  1.00  0.00     0.163 HD
ATOM     33  O   UNL A   1      42.928  18.698  25.522  1.00  0.00    -0.269 OA
BRANCH  31  34
ATOM     34  C   UNL A   1      42.266  20.820  26.257  1.00  0.00     0.039 A 
ATOM     35  C   UNL A   1      42.400  21.730  25.199  1.00  0.00     0.014 A 
ATOM     36  C   UNL A   1      42.490  21.264  27.562  1.00  0.00     0.014 A 
ATOM     37  C   UNL A   1      42.718  23.072  25.449  1.00  0.00     0.010 A 
ATOM     38  C   UNL A   1      42.724  22.617  27.817  1.00  0.00     0.010 A 
ATOM     39  C   UNL A   1      42.860  23.535  26.764  1.00  0.00    -0.014 A 
BRANCH  39  40
ATOM     40  C   UNL A   1      43.190  24.956  27.065  1.00  0.00     0.031 A 
ATOM     41  C   UNL A   1      44.582  25.478  26.812  1.00  0.00     0.074 A 
ATOM     42  C   UNL A   1      42.271  25.765  27.628  1.00  0.00     0.049 A 
ATOM     43  N   UNL A   1      45.109  26.633  27.136  1.00  0.00    -0.248 NA
ATOM     44  C   UNL A   1      45.514  24.568  26.129  1.00  0.00     0.031 C 
ATOM     45  C   UNL A   1      40.893  25.388  27.944  1.00  0.00     0.029 A 
ATOM     46  N   UNL A   1      42.362  27.070  28.049  1.00  0.00    -0.354 N 
ATOM     47  C   UNL A   1      46.439  26.570  26.734  1.00  0.00     0.074 A 
ATOM     48  C   UNL A   1      46.647  25.253  26.171  1.00  0.00     0.031 C 
ATOM     49  C   UNL A   1      40.264  26.440  28.495  1.00  0.00     0.029 A 
ATOM     50  C   UNL A   1      41.205  27.550  28.614  1.00  0.00     0.049 A 
ATOM     51  H   UNL A   1      43.180  27.609  27.956  1.00  0.00     0.167 HD
ATOM     52  C   UNL A   1      47.395  27.526  26.815  1.00  0.00     0.037 A 
ATOM     53  C   UNL A   1      40.937  28.744  29.178  1.00  0.00     0.037 A 
ATOM     54  C   UNL A   1      47.175  28.857  27.317  1.00  0.00     0.049 A 
ATOM     55  C   UNL A   1      42.016  29.790  29.250  1.00  0.00     0.074 A 
ATOM     56  C   UNL A   1      48.060  29.921  27.359  1.00  0.00     0.029 A 
ATOM     57  N   UNL A   1      45.981  29.308  27.860  1.00  0.00    -0.354 N 
ATOM     58  N   UNL A   1      43.255  29.734  28.823  1.00  0.00    -0.248 NA
ATOM     59  C   UNL A   1      41.661  31.067  29.886  1.00  0.00     0.031 C 
ATOM     60  C   UNL A   1      47.415  31.004  27.964  1.00  0.00     0.029 A 
ATOM     61  C   UNL A   1      46.115  30.629  28.258  1.00  0.00     0.049 A 
ATOM     62  H   UNL A   1      45.162  28.771  27.949  1.00  0.00     0.167 HD
ATOM     63  C   UNL A   1      43.813  30.972  29.107  1.00  0.00     0.074 A 
ATOM     64  C   UNL A   1      42.779  31.765  29.736  1.00  0.00     0.031 C 
ATOM     65  C   UNL A   1      45.071  31.413  28.866  1.00  0.00     0.037 A 
BRANCH  52  66
ATOM     66  C   UNL A   1      48.778  27.174  26.349  1.00  0.00     0.064 A 
ATOM     67  C   UNL A   1      49.758  26.699  27.232  1.00  0.00     0.173 A 
ATOM     68  C   UNL A   1      49.109  27.262  24.988  1.00  0.00     0.173 A 
ATOM     69  F   UNL A   1      49.495  26.605  28.545  1.00  0.00    -0.203 F 
ATOM     70  C   UNL A   1      51.027  26.350  26.776  1.00  0.00     0.198 A 
ATOM     71  C   UNL A   1      50.369  26.885  24.529  1.00  0.00     0.198 A 
ATOM     72  F   UNL A   1      48.206  27.701  24.098  1.00  0.00    -0.203 F 
ATOM     73  F   UNL A   1      51.961  25.940  27.644  1.00  0.00    -0.200 F 
ATOM     74  C   UNL A   1      51.328  26.436  25.424  1.00  0.00     0.200 A 
ATOM     75  F   UNL A   1      50.654  26.955  23.221  1.00  0.00    -0.200 F 
ATOM     76  F   UNL A   1      52.546  26.090  24.984  1.00  0.00    -0.200 F 
ENDBRANCH  52  66
BRANCH  53  77
ATOM     77  C   UNL A   1      39.579  29.026  29.712  1.00  0.00     0.064 A 
ATOM     78  C   UNL A   1      39.245  28.690  31.032  1.00  0.00     0.173 A 
ATOM     79  C   UNL A   1      38.587  29.620  28.919  1.00  0.00     0.173 A 
ATOM     80  F   UNL A   1      40.154  28.100  31.822  1.00  0.00    -0.203 F 
ATOM     81  C   UNL A   1      37.965  28.920  31.532  1.00  0.00     0.198 A 
ATOM     82  C   UNL A   1      37.315  29.874  29.428  1.00  0.00     0.198 A 
ATOM     83  F   UNL A   1      38.856  29.961  27.651  1.00  0.00    -0.203 F 
ATOM     84  F   UNL A   1      37.659  28.547  32.783  1.00  0.00    -0.200 F 
ATOM     85  C   UNL A   1      37.003  29.516  30.732  1.00  0.00     0.200 A 
ATOM     86  F   UNL A   1      36.392  30.463  28.656  1.00  0.00    -0.200 F 
ATOM     87  F   UNL A   1      35.773  29.739  31.213  1.00  0.00    -0.200 F 
ENDBRANCH  53  77
BRANCH  65  88
ATOM     88  C   UNL A   1      45.391  32.830  29.237  1.00  0.00     0.064 A 
ATOM     89  C   UNL A   1      45.958  33.156  30.477  1.00  0.00     0.173 A 
ATOM     90  C   UNL A   1      45.172  33.870  28.320  1.00  0.00     0.173 A 
ATOM     91  F   UNL A   1      46.172  32.199  31.394  1.00  0.00    -0.203 F 
ATOM     92  C   UNL A   1      46.279  34.474  30.793  1.00  0.00     0.198 A 
ATOM     93  C   UNL A   1      45.519  35.183  28.628  1.00  0.00     0.198 A 
ATOM     94  F   UNL A   1      44.637  33.609  27.118  1.00  0.00    -0.203 F 
ATOM     95  F   UNL A   1      46.785  34.768  31.999  1.00  0.00    -0.200 F 
ATOM     96  C   UNL A   1      46.067  35.484  29.866  1.00  0.00     0.200 A 
ATOM     97  F   UNL A   1      45.324  36.155  27.727  1.00  0.00    -0.200 F 
ATOM     98  F   UNL A   1      46.385  36.750  30.168  1.00  0.00    -0.200 F 
ENDBRANCH  65  88
ENDBRANCH  39  40
ENDBRANCH  31  34
ENDBRANCH  29  30
ENDBRANCH  28  29
ENDBRANCH  27  28
ENDBRANCH   1  27
TORSDOF 17
ENDMDL
