MODEL 1
REMARK VINA RESULT:     -11.3      0.000      0.000
REMARK SMILES CCN(Cc1ccccn1)C(=O)N1CCC[C@H](C(=O)NCCCCCCNC(=O)c2ccc(-c3c4nc(c(-c5c(F)c(F)c(F)c(F)c5F)c5ccc([nH]5)c(-c5c(F)c(F)c(F)c(F)c5F)c5nc(c(-c6c(F)c(F)c(F)c(F)c6F)c6ccc3[nH]6)C=C5)C=C4)cc2)C1
REMARK SMILES IDX 22 1 21 2 20 3 18 4 19 5 17 7 13 8 14 9 93 10 15 11 16 12
REMARK SMILES IDX 11 13 12 14 3 15 2 16 1 17 4 18 5 19 6 20 10 21 7 22 9 23
REMARK SMILES IDX 8 24 23 25 24 26 25 27 26 28 27 29 28 30 29 32 30 33 31 34
REMARK SMILES IDX 92 35 32 36 91 37 33 38 34 39 35 40 85 41 36 42 90 43 84 44
REMARK SMILES IDX 86 45 37 46 89 47 83 48 82 49 38 51 70 52 50 53 69 54 51 55
REMARK SMILES IDX 54 56 68 57 87 58 52 59 53 60 67 62 88 63 55 64 39 65 40 66
REMARK SMILES IDX 48 67 41 68 42 69 46 70 49 71 43 72 44 73 47 74 45 75 71 76
REMARK SMILES IDX 72 77 80 78 73 79 74 80 78 81 81 82 75 83 76 84 79 85 77 86
REMARK SMILES IDX 56 87 57 88 65 89 58 90 59 91 63 92 66 93 60 94 61 95 64 96
REMARK SMILES IDX 62 97
REMARK H PARENT 20 6 27 31 86 50 54 61
REMARK Flexibility Score: inf
ROOT
ATOM      1  C   UNL A   1      36.432  22.932  23.557  1.00  0.00     0.021 C 
ENDROOT
BRANCH   1   2
ATOM      2  C   UNL A   1      35.208  23.602  24.165  1.00  0.00     0.116 C 
BRANCH   2   3
ATOM      3  N   UNL A   1      34.244  24.001  23.172  1.00  0.00    -0.356 N 
ATOM      4  C   UNL A   1      33.739  25.228  22.894  1.00  0.00     0.224 C 
ATOM      5  O   UNL A   1      33.011  25.316  21.898  1.00  0.00    -0.275 OA
ATOM      6  H   UNL A   1      33.898  23.270  22.609  1.00  0.00     0.163 HD
BRANCH   4   7
ATOM      7  C   UNL A   1      34.024  26.477  23.736  1.00  0.00     0.098 C 
ATOM      8  N   UNL A   1      32.286  27.093  25.486  1.00  0.00    -0.324 N 
ATOM      9  C   UNL A   1      32.139  28.433  24.929  1.00  0.00     0.121 C 
ATOM     10  C   UNL A   1      33.518  26.389  25.170  1.00  0.00     0.134 C 
ATOM     11  C   UNL A   1      32.497  28.537  23.445  1.00  0.00     0.022 C 
ATOM     12  C   UNL A   1      33.792  27.826  23.064  1.00  0.00     0.017 C 
BRANCH   8  13
ATOM     13  C   UNL A   1      31.207  26.463  26.090  1.00  0.00     0.320 C 
ATOM     14  O   UNL A   1      30.655  26.984  27.061  1.00  0.00    -0.248 OA
BRANCH  13  15
ATOM     15  N   UNL A   1      30.756  25.269  25.547  1.00  0.00    -0.319 N 
BRANCH  15  16
ATOM     16  C   UNL A   1      30.133  25.285  24.221  1.00  0.00     0.118 C 
ATOM     17  C   UNL A   1      29.050  26.343  24.047  1.00  0.00     0.027 C 
ENDBRANCH  15  16
BRANCH  15  18
ATOM     18  C   UNL A   1      30.610  24.016  26.321  1.00  0.00     0.177 C 
BRANCH  18  19
ATOM     19  C   UNL A   1      31.831  23.105  26.322  1.00  0.00     0.060 A 
ATOM     20  C   UNL A   1      31.940  22.111  25.343  1.00  0.00     0.026 A 
ATOM     21  N   UNL A   1      32.685  23.169  27.377  1.00  0.00    -0.259 NA
ATOM     22  C   UNL A   1      32.847  21.071  25.535  1.00  0.00     0.004 A 
ATOM     23  C   UNL A   1      33.571  22.156  27.524  1.00  0.00     0.111 A 
ATOM     24  C   UNL A   1      33.663  21.080  26.658  1.00  0.00     0.020 A 
ENDBRANCH  18  19
ENDBRANCH  15  18
ENDBRANCH  13  15
ENDBRANCH   8  13
ENDBRANCH   4   7
ENDBRANCH   2   3
ENDBRANCH   1   2
BRANCH   1  25
ATOM     25  C   UNL A   1      37.256  22.143  24.573  1.00  0.00     0.002 C 
BRANCH  25  26
ATOM     26  C   UNL A   1      36.787  20.698  24.801  1.00  0.00     0.002 C 
BRANCH  26  27
ATOM     27  C   UNL A   1      37.902  19.668  25.000  1.00  0.00     0.021 C 
BRANCH  27  28
ATOM     28  C   UNL A   1      39.133  20.194  25.729  1.00  0.00     0.116 C 
BRANCH  28  29
ATOM     29  N   UNL A   1      40.178  19.187  25.831  1.00  0.00    -0.352 N 
ATOM     30  C   UNL A   1      41.527  19.340  26.021  1.00  0.00     0.251 C 
ATOM     31  H   UNL A   1      39.870  18.255  25.751  1.00  0.00     0.163 HD
ATOM     32  O   UNL A   1      42.289  18.392  25.864  1.00  0.00    -0.269 OA
BRANCH  30  33
ATOM     33  C   UNL A   1      42.061  20.656  26.417  1.00  0.00     0.039 A 
ATOM     34  C   UNL A   1      42.446  21.559  25.423  1.00  0.00     0.014 A 
ATOM     35  C   UNL A   1      42.198  20.989  27.767  1.00  0.00     0.014 A 
ATOM     36  C   UNL A   1      42.924  22.819  25.784  1.00  0.00     0.010 A 
ATOM     37  C   UNL A   1      42.603  22.269  28.124  1.00  0.00     0.010 A 
ATOM     38  C   UNL A   1      42.979  23.193  27.136  1.00  0.00    -0.014 A 
BRANCH  38  39
ATOM     39  C   UNL A   1      43.440  24.540  27.548  1.00  0.00     0.031 A 
ATOM     40  C   UNL A   1      42.434  25.593  27.920  1.00  0.00     0.074 A 
ATOM     41  C   UNL A   1      44.753  24.835  27.511  1.00  0.00     0.049 A 
ATOM     42  N   UNL A   1      42.622  26.858  28.200  1.00  0.00    -0.248 NA
ATOM     43  C   UNL A   1      41.024  25.175  27.952  1.00  0.00     0.031 C 
ATOM     44  C   UNL A   1      45.817  23.905  27.129  1.00  0.00     0.029 A 
ATOM     45  N   UNL A   1      45.415  26.006  27.782  1.00  0.00    -0.354 N 
ATOM     46  C   UNL A   1      41.358  27.386  28.422  1.00  0.00     0.074 A 
ATOM     47  C   UNL A   1      40.407  26.321  28.192  1.00  0.00     0.031 C 
ATOM     48  C   UNL A   1      47.000  24.537  27.205  1.00  0.00     0.029 A 
ATOM     49  C   UNL A   1      46.773  25.925  27.596  1.00  0.00     0.049 A 
ATOM     50  H   UNL A   1      44.960  26.826  28.081  1.00  0.00     0.167 HD
ATOM     51  C   UNL A   1      41.024  28.642  28.805  1.00  0.00     0.037 A 
ATOM     52  C   UNL A   1      47.724  26.871  27.711  1.00  0.00     0.037 A 
ATOM     53  C   UNL A   1      41.981  29.689  29.052  1.00  0.00     0.049 A 
ATOM     54  C   UNL A   1      47.325  28.263  28.120  1.00  0.00     0.074 A 
ATOM     55  C   UNL A   1      41.752  30.980  29.493  1.00  0.00     0.029 A 
ATOM     56  N   UNL A   1      43.351  29.564  28.873  1.00  0.00    -0.354 N 
ATOM     57  N   UNL A   1      46.133  28.739  28.388  1.00  0.00    -0.248 NA
ATOM     58  C   UNL A   1      48.406  29.249  28.252  1.00  0.00     0.031 C 
ATOM     59  C   UNL A   1      42.977  31.652  29.530  1.00  0.00     0.029 A 
ATOM     60  C   UNL A   1      43.978  30.763  29.175  1.00  0.00     0.049 A 
ATOM     61  H   UNL A   1      43.810  28.745  28.577  1.00  0.00     0.167 HD
ATOM     62  C   UNL A   1      46.323  30.065  28.752  1.00  0.00     0.074 A 
ATOM     63  C   UNL A   1      47.746  30.316  28.681  1.00  0.00     0.031 C 
ATOM     64  C   UNL A   1      45.400  30.990  29.113  1.00  0.00     0.037 A 
BRANCH  51  65
ATOM     65  C   UNL A   1      39.565  28.953  28.977  1.00  0.00     0.064 A 
ATOM     66  C   UNL A   1      38.940  28.891  30.232  1.00  0.00     0.173 A 
ATOM     67  C   UNL A   1      38.787  29.350  27.879  1.00  0.00     0.173 A 
ATOM     68  F   UNL A   1      39.634  28.506  31.314  1.00  0.00    -0.203 F 
ATOM     69  C   UNL A   1      37.586  29.184  30.376  1.00  0.00     0.198 A 
ATOM     70  C   UNL A   1      37.442  29.676  28.032  1.00  0.00     0.198 A 
ATOM     71  F   UNL A   1      39.333  29.432  26.656  1.00  0.00    -0.203 F 
ATOM     72  F   UNL A   1      37.000  29.066  31.575  1.00  0.00    -0.200 F 
ATOM     73  C   UNL A   1      36.840  29.584  29.278  1.00  0.00     0.200 A 
ATOM     74  F   UNL A   1      36.727  30.077  26.972  1.00  0.00    -0.200 F 
ATOM     75  F   UNL A   1      35.540  29.874  29.418  1.00  0.00    -0.200 F 
ENDBRANCH  51  65
BRANCH  52  76
ATOM     76  C   UNL A   1      49.148  26.528  27.454  1.00  0.00     0.064 A 
ATOM     77  C   UNL A   1      49.641  26.438  26.145  1.00  0.00     0.173 A 
ATOM     78  C   UNL A   1      50.042  26.278  28.505  1.00  0.00     0.173 A 
ATOM     79  F   UNL A   1      48.821  26.648  25.104  1.00  0.00    -0.203 F 
ATOM     80  C   UNL A   1      50.967  26.087  25.896  1.00  0.00     0.198 A 
ATOM     81  C   UNL A   1      51.375  25.958  28.257  1.00  0.00     0.198 A 
ATOM     82  F   UNL A   1      49.623  26.355  29.777  1.00  0.00    -0.203 F 
ATOM     83  F   UNL A   1      51.397  25.956  24.635  1.00  0.00    -0.200 F 
ATOM     84  C   UNL A   1      51.834  25.852  26.952  1.00  0.00     0.200 A 
ATOM     85  F   UNL A   1      52.213  25.747  29.281  1.00  0.00    -0.200 F 
ATOM     86  F   UNL A   1      53.109  25.516  26.714  1.00  0.00    -0.200 F 
ENDBRANCH  52  76
BRANCH  64  87
ATOM     87  C   UNL A   1      45.904  32.346  29.515  1.00  0.00     0.064 A 
ATOM     88  C   UNL A   1      46.298  32.631  30.829  1.00  0.00     0.173 A 
ATOM     89  C   UNL A   1      46.039  33.361  28.554  1.00  0.00     0.173 A 
ATOM     90  F   UNL A   1      46.176  31.701  31.789  1.00  0.00    -0.203 F 
ATOM     91  C   UNL A   1      46.784  33.891  31.174  1.00  0.00     0.198 A 
ATOM     92  C   UNL A   1      46.556  34.607  28.894  1.00  0.00     0.198 A 
ATOM     93  F   UNL A   1      45.683  33.138  27.279  1.00  0.00    -0.203 F 
ATOM     94  F   UNL A   1      47.109  34.156  32.446  1.00  0.00    -0.200 F 
ATOM     95  C   UNL A   1      46.922  34.873  30.204  1.00  0.00     0.200 A 
ATOM     96  F   UNL A   1      46.704  35.549  27.953  1.00  0.00    -0.200 F 
ATOM     97  F   UNL A   1      47.401  36.080  30.536  1.00  0.00    -0.200 F 
ENDBRANCH  64  87
ENDBRANCH  38  39
ENDBRANCH  30  33
ENDBRANCH  28  29
ENDBRANCH  27  28
ENDBRANCH  26  27
ENDBRANCH  25  26
ENDBRANCH   1  25
TORSDOF 18
ENDMDL
MODEL 2
REMARK VINA RESULT:     -11.2      1.504      2.722
REMARK SMILES CCN(Cc1ccccn1)C(=O)N1CCC[C@H](C(=O)NCCCCCCNC(=O)c2ccc(-c3c4nc(c(-c5c(F)c(F)c(F)c(F)c5F)c5ccc([nH]5)c(-c5c(F)c(F)c(F)c(F)c5F)c5nc(c(-c6c(F)c(F)c(F)c(F)c6F)c6ccc3[nH]6)C=C5)C=C4)cc2)C1
REMARK SMILES IDX 22 1 21 2 20 3 18 4 19 5 17 7 13 8 14 9 93 10 15 11 16 12
REMARK SMILES IDX 11 13 12 14 3 15 2 16 1 17 4 18 5 19 6 20 10 21 7 22 9 23
REMARK SMILES IDX 8 24 23 25 24 26 25 27 26 28 27 29 28 30 29 32 30 33 31 34
REMARK SMILES IDX 92 35 32 36 91 37 33 38 34 39 35 40 85 41 36 42 90 43 84 44
REMARK SMILES IDX 86 45 37 46 89 47 83 48 82 49 38 51 70 52 50 53 69 54 51 55
REMARK SMILES IDX 54 56 68 57 87 58 52 59 53 60 67 62 88 63 55 64 39 65 40 66
REMARK SMILES IDX 48 67 41 68 42 69 46 70 49 71 43 72 44 73 47 74 45 75 71 76
REMARK SMILES IDX 72 77 80 78 73 79 74 80 78 81 81 82 75 83 76 84 79 85 77 86
REMARK SMILES IDX 56 87 57 88 65 89 58 90 59 91 63 92 66 93 60 94 61 95 64 96
REMARK SMILES IDX 62 97
REMARK H PARENT 20 6 27 31 86 50 54 61
REMARK Flexibility Score: inf
ROOT
ATOM      1  C   UNL A   1      36.622  23.084  24.215  1.00  0.00     0.021 C 
ENDROOT
BRANCH   1   2
ATOM      2  C   UNL A   1      35.808  24.137  24.953  1.00  0.00     0.116 C 
BRANCH   2   3
ATOM      3  N   UNL A   1      34.944  24.885  24.076  1.00  0.00    -0.356 N 
ATOM      4  C   UNL A   1      33.740  25.458  24.323  1.00  0.00     0.224 C 
ATOM      5  O   UNL A   1      33.262  26.157  23.422  1.00  0.00    -0.275 OA
ATOM      6  H   UNL A   1      35.279  24.999  23.157  1.00  0.00     0.163 HD
BRANCH   4   7
ATOM      7  C   UNL A   1      32.967  25.283  25.635  1.00  0.00     0.098 C 
ATOM      8  N   UNL A   1      32.705  22.905  26.496  1.00  0.00    -0.324 N 
ATOM      9  C   UNL A   1      31.254  23.038  26.544  1.00  0.00     0.121 C 
ATOM     10  C   UNL A   1      33.472  24.141  26.507  1.00  0.00     0.134 C 
ATOM     11  C   UNL A   1      30.687  24.076  25.573  1.00  0.00     0.022 C 
ATOM     12  C   UNL A   1      31.449  25.398  25.559  1.00  0.00     0.017 C 
BRANCH   8  13
ATOM     13  C   UNL A   1      33.288  21.674  26.227  1.00  0.00     0.320 C 
ATOM     14  O   UNL A   1      34.024  21.147  27.064  1.00  0.00    -0.248 OA
BRANCH  13  15
ATOM     15  N   UNL A   1      32.986  21.053  25.024  1.00  0.00    -0.319 N 
BRANCH  15  16
ATOM     16  C   UNL A   1      33.251  21.766  23.773  1.00  0.00     0.118 C 
ATOM     17  C   UNL A   1      32.110  21.710  22.763  1.00  0.00     0.027 C 
ENDBRANCH  15  16
BRANCH  15  18
ATOM     18  C   UNL A   1      32.163  19.827  24.916  1.00  0.00     0.177 C 
BRANCH  18  19
ATOM     19  C   UNL A   1      32.924  18.517  25.069  1.00  0.00     0.060 A 
ATOM     20  C   UNL A   1      34.186  18.388  24.477  1.00  0.00     0.026 A 
ATOM     21  N   UNL A   1      32.279  17.455  25.620  1.00  0.00    -0.259 NA
ATOM     22  C   UNL A   1      34.727  17.115  24.310  1.00  0.00     0.004 A 
ATOM     23  C   UNL A   1      32.842  16.234  25.463  1.00  0.00     0.111 A 
ATOM     24  C   UNL A   1      34.032  16.013  24.792  1.00  0.00     0.020 A 
ENDBRANCH  18  19
ENDBRANCH  15  18
ENDBRANCH  13  15
ENDBRANCH   8  13
ENDBRANCH   4   7
ENDBRANCH   2   3
ENDBRANCH   1   2
BRANCH   1  25
ATOM     25  C   UNL A   1      37.294  22.077  25.146  1.00  0.00     0.002 C 
BRANCH  25  26
ATOM     26  C   UNL A   1      36.928  20.609  24.881  1.00  0.00     0.002 C 
BRANCH  26  27
ATOM     27  C   UNL A   1      38.079  19.609  25.016  1.00  0.00     0.021 C 
BRANCH  27  28
ATOM     28  C   UNL A   1      39.285  20.127  25.793  1.00  0.00     0.116 C 
BRANCH  28  29
ATOM     29  N   UNL A   1      40.334  19.124  25.903  1.00  0.00    -0.352 N 
ATOM     30  C   UNL A   1      41.679  19.283  26.110  1.00  0.00     0.251 C 
ATOM     31  H   UNL A   1      40.031  18.192  25.814  1.00  0.00     0.163 HD
ATOM     32  O   UNL A   1      42.448  18.341  25.958  1.00  0.00    -0.269 OA
BRANCH  30  33
ATOM     33  C   UNL A   1      42.201  20.601  26.518  1.00  0.00     0.039 A 
ATOM     34  C   UNL A   1      42.677  21.475  25.539  1.00  0.00     0.014 A 
ATOM     35  C   UNL A   1      42.237  20.962  27.868  1.00  0.00     0.014 A 
ATOM     36  C   UNL A   1      43.145  22.736  25.910  1.00  0.00     0.010 A 
ATOM     37  C   UNL A   1      42.634  22.244  28.228  1.00  0.00     0.010 A 
ATOM     38  C   UNL A   1      43.100  23.140  27.253  1.00  0.00    -0.014 A 
BRANCH  38  39
ATOM     39  C   UNL A   1      43.549  24.489  27.672  1.00  0.00     0.031 A 
ATOM     40  C   UNL A   1      42.533  25.538  28.025  1.00  0.00     0.074 A 
ATOM     41  C   UNL A   1      44.861  24.789  27.657  1.00  0.00     0.049 A 
ATOM     42  N   UNL A   1      42.712  26.805  28.307  1.00  0.00    -0.248 NA
ATOM     43  C   UNL A   1      41.124  25.115  28.034  1.00  0.00     0.031 C 
ATOM     44  C   UNL A   1      45.936  23.863  27.294  1.00  0.00     0.029 A 
ATOM     45  N   UNL A   1      45.514  25.963  27.938  1.00  0.00    -0.354 N 
ATOM     46  C   UNL A   1      41.441  27.328  28.507  1.00  0.00     0.074 A 
ATOM     47  C   UNL A   1      40.498  26.259  28.262  1.00  0.00     0.031 C 
ATOM     48  C   UNL A   1      47.114  24.500  27.389  1.00  0.00     0.029 A 
ATOM     49  C   UNL A   1      46.875  25.887  27.775  1.00  0.00     0.049 A 
ATOM     50  H   UNL A   1      45.051  26.781  28.228  1.00  0.00     0.167 HD
ATOM     51  C   UNL A   1      41.096  28.583  28.883  1.00  0.00     0.037 A 
ATOM     52  C   UNL A   1      47.821  26.837  27.905  1.00  0.00     0.037 A 
ATOM     53  C   UNL A   1      42.045  29.634  29.145  1.00  0.00     0.049 A 
ATOM     54  C   UNL A   1      47.410  28.228  28.306  1.00  0.00     0.074 A 
ATOM     55  C   UNL A   1      41.803  30.924  29.580  1.00  0.00     0.029 A 
ATOM     56  N   UNL A   1      43.418  29.514  28.990  1.00  0.00    -0.354 N 
ATOM     57  N   UNL A   1      46.211  28.699  28.552  1.00  0.00    -0.248 NA
ATOM     58  C   UNL A   1      48.485  29.219  28.454  1.00  0.00     0.031 C 
ATOM     59  C   UNL A   1      43.025  31.602  29.638  1.00  0.00     0.029 A 
ATOM     60  C   UNL A   1      44.035  30.715  29.300  1.00  0.00     0.049 A 
ATOM     61  H   UNL A   1      43.885  28.696  28.702  1.00  0.00     0.167 HD
ATOM     62  C   UNL A   1      46.389  30.026  28.918  1.00  0.00     0.074 A 
ATOM     63  C   UNL A   1      47.813  30.283  28.871  1.00  0.00     0.031 C 
ATOM     64  C   UNL A   1      45.457  30.948  29.263  1.00  0.00     0.037 A 
BRANCH  51  65
ATOM     65  C   UNL A   1      39.633  28.888  29.029  1.00  0.00     0.064 A 
ATOM     66  C   UNL A   1      38.978  28.786  30.267  1.00  0.00     0.173 A 
ATOM     67  C   UNL A   1      38.881  29.320  27.926  1.00  0.00     0.173 A 
ATOM     68  F   UNL A   1      39.646  28.368  31.353  1.00  0.00    -0.203 F 
ATOM     69  C   UNL A   1      37.622  29.075  30.388  1.00  0.00     0.198 A 
ATOM     70  C   UNL A   1      37.533  29.641  28.057  1.00  0.00     0.198 A 
ATOM     71  F   UNL A   1      39.457  29.440  26.720  1.00  0.00    -0.203 F 
ATOM     72  F   UNL A   1      37.006  28.919  31.568  1.00  0.00    -0.200 F 
ATOM     73  C   UNL A   1      36.902  29.510  29.285  1.00  0.00     0.200 A 
ATOM     74  F   UNL A   1      36.843  30.076  26.994  1.00  0.00    -0.200 F 
ATOM     75  F   UNL A   1      35.598  29.795  29.403  1.00  0.00    -0.200 F 
ENDBRANCH  51  65
BRANCH  52  76
ATOM     76  C   UNL A   1      49.251  26.499  27.672  1.00  0.00     0.064 A 
ATOM     77  C   UNL A   1      50.128  26.308  28.748  1.00  0.00     0.173 A 
ATOM     78  C   UNL A   1      49.770  26.369  26.376  1.00  0.00     0.173 A 
ATOM     79  F   UNL A   1      49.684  26.441  30.007  1.00  0.00    -0.203 F 
ATOM     80  C   UNL A   1      51.476  26.022  28.537  1.00  0.00     0.198 A 
ATOM     81  C   UNL A   1      51.110  26.052  26.167  1.00  0.00     0.198 A 
ATOM     82  F   UNL A   1      48.972  26.538  25.312  1.00  0.00    -0.203 F 
ATOM     83  F   UNL A   1      52.303  25.896  29.583  1.00  0.00    -0.200 F 
ATOM     84  C   UNL A   1      51.965  25.890  27.247  1.00  0.00     0.200 A 
ATOM     85  F   UNL A   1      51.575  25.910  24.917  1.00  0.00    -0.200 F 
ATOM     86  F   UNL A   1      53.260  25.613  27.043  1.00  0.00    -0.200 F 
ENDBRANCH  52  76
BRANCH  64  87
ATOM     87  C   UNL A   1      45.949  32.307  29.671  1.00  0.00     0.064 A 
ATOM     88  C   UNL A   1      46.072  33.358  28.752  1.00  0.00     0.173 A 
ATOM     89  C   UNL A   1      46.255  32.572  31.016  1.00  0.00     0.173 A 
ATOM     90  F   UNL A   1      45.804  33.154  27.452  1.00  0.00    -0.203 F 
ATOM     91  C   UNL A   1      46.508  34.617  29.158  1.00  0.00     0.198 A 
ATOM     92  C   UNL A   1      46.659  33.840  31.424  1.00  0.00     0.198 A 
ATOM     93  F   UNL A   1      46.147  31.603  31.938  1.00  0.00    -0.203 F 
ATOM     94  F   UNL A   1      46.665  35.593  28.253  1.00  0.00    -0.200 F 
ATOM     95  C   UNL A   1      46.792  34.858  30.494  1.00  0.00     0.200 A 
ATOM     96  F   UNL A   1      46.915  34.075  32.717  1.00  0.00    -0.200 F 
ATOM     97  F   UNL A   1      47.200  36.074  30.884  1.00  0.00    -0.200 F 
ENDBRANCH  64  87
ENDBRANCH  38  39
ENDBRANCH  30  33
ENDBRANCH  28  29
ENDBRANCH  27  28
ENDBRANCH  26  27
ENDBRANCH  25  26
ENDBRANCH   1  25
TORSDOF 18
ENDMDL
MODEL 3
REMARK VINA RESULT:     -11.2      1.564      3.261
REMARK SMILES CCN(Cc1ccccn1)C(=O)N1CCC[C@H](C(=O)NCCCCCCNC(=O)c2ccc(-c3c4nc(c(-c5c(F)c(F)c(F)c(F)c5F)c5ccc([nH]5)c(-c5c(F)c(F)c(F)c(F)c5F)c5nc(c(-c6c(F)c(F)c(F)c(F)c6F)c6ccc3[nH]6)C=C5)C=C4)cc2)C1
REMARK SMILES IDX 22 1 21 2 20 3 18 4 19 5 17 7 13 8 14 9 93 10 15 11 16 12
REMARK SMILES IDX 11 13 12 14 3 15 2 16 1 17 4 18 5 19 6 20 10 21 7 22 9 23
REMARK SMILES IDX 8 24 23 25 24 26 25 27 26 28 27 29 28 30 29 32 30 33 31 34
REMARK SMILES IDX 92 35 32 36 91 37 33 38 34 39 35 40 85 41 36 42 90 43 84 44
REMARK SMILES IDX 86 45 37 46 89 47 83 48 82 49 38 51 70 52 50 53 69 54 51 55
REMARK SMILES IDX 54 56 68 57 87 58 52 59 53 60 67 62 88 63 55 64 39 65 40 66
REMARK SMILES IDX 48 67 41 68 42 69 46 70 49 71 43 72 44 73 47 74 45 75 71 76
REMARK SMILES IDX 72 77 80 78 73 79 74 80 78 81 81 82 75 83 76 84 79 85 77 86
REMARK SMILES IDX 56 87 57 88 65 89 58 90 59 91 63 92 66 93 60 94 61 95 64 96
REMARK SMILES IDX 62 97
REMARK H PARENT 20 6 27 31 86 50 54 61
REMARK Flexibility Score: inf
ROOT
ATOM      1  C   UNL A   1      36.593  22.119  24.104  1.00  0.00     0.021 C 
ENDROOT
BRANCH   1   2
ATOM      2  C   UNL A   1      36.693  23.510  24.714  1.00  0.00     0.116 C 
BRANCH   2   3
ATOM      3  N   UNL A   1      35.642  23.778  25.662  1.00  0.00    -0.356 N 
ATOM      4  C   UNL A   1      34.343  24.106  25.451  1.00  0.00     0.224 C 
ATOM      5  O   UNL A   1      33.615  24.159  26.448  1.00  0.00    -0.275 OA
ATOM      6  H   UNL A   1      35.907  23.711  26.608  1.00  0.00     0.163 HD
BRANCH   4   7
ATOM      7  C   UNL A   1      33.755  24.405  24.067  1.00  0.00     0.098 C 
ATOM      8  N   UNL A   1      31.738  25.951  23.997  1.00  0.00    -0.324 N 
ATOM      9  C   UNL A   1      30.948  24.957  23.277  1.00  0.00     0.121 C 
ATOM     10  C   UNL A   1      33.183  25.810  23.925  1.00  0.00     0.134 C 
ATOM     11  C   UNL A   1      31.398  23.513  23.509  1.00  0.00     0.022 C 
ATOM     12  C   UNL A   1      32.909  23.309  23.429  1.00  0.00     0.017 C 
BRANCH   8  13
ATOM     13  C   UNL A   1      31.122  26.834  24.874  1.00  0.00     0.320 C 
ATOM     14  O   UNL A   1      30.325  26.410  25.713  1.00  0.00    -0.248 OA
BRANCH  13  15
ATOM     15  N   UNL A   1      31.461  28.177  24.799  1.00  0.00    -0.319 N 
BRANCH  15  16
ATOM     16  C   UNL A   1      31.795  28.892  26.032  1.00  0.00     0.118 C 
ATOM     17  C   UNL A   1      32.843  28.201  26.897  1.00  0.00     0.027 C 
ENDBRANCH  15  16
BRANCH  15  18
ATOM     18  C   UNL A   1      31.248  29.013  23.596  1.00  0.00     0.177 C 
BRANCH  18  19
ATOM     19  C   UNL A   1      29.886  29.689  23.506  1.00  0.00     0.060 A 
ATOM     20  C   UNL A   1      28.869  29.075  22.766  1.00  0.00     0.026 A 
ATOM     21  N   UNL A   1      29.756  30.950  23.995  1.00  0.00    -0.259 NA
ATOM     22  C   UNL A   1      27.759  29.830  22.390  1.00  0.00     0.004 A 
ATOM     23  C   UNL A   1      28.655  31.650  23.632  1.00  0.00     0.111 A 
ATOM     24  C   UNL A   1      27.660  31.149  22.811  1.00  0.00     0.020 A 
ENDBRANCH  18  19
ENDBRANCH  15  18
ENDBRANCH  13  15
ENDBRANCH   8  13
ENDBRANCH   4   7
ENDBRANCH   2   3
ENDBRANCH   1   2
BRANCH   1  25
ATOM     25  C   UNL A   1      36.072  21.067  25.082  1.00  0.00     0.002 C 
BRANCH  25  26
ATOM     26  C   UNL A   1      36.777  19.705  24.999  1.00  0.00     0.002 C 
BRANCH  26  27
ATOM     27  C   UNL A   1      38.268  19.754  24.656  1.00  0.00     0.021 C 
BRANCH  27  28
ATOM     28  C   UNL A   1      39.183  20.055  25.838  1.00  0.00     0.116 C 
BRANCH  28  29
ATOM     29  N   UNL A   1      40.229  19.054  25.986  1.00  0.00    -0.352 N 
ATOM     30  C   UNL A   1      41.583  19.215  26.122  1.00  0.00     0.251 C 
ATOM     31  H   UNL A   1      39.916  18.120  25.988  1.00  0.00     0.163 HD
ATOM     32  O   UNL A   1      42.337  18.255  26.016  1.00  0.00    -0.269 OA
BRANCH  30  33
ATOM     33  C   UNL A   1      42.132  20.556  26.397  1.00  0.00     0.039 A 
ATOM     34  C   UNL A   1      42.523  21.362  25.325  1.00  0.00     0.014 A 
ATOM     35  C   UNL A   1      42.277  21.007  27.712  1.00  0.00     0.014 A 
ATOM     36  C   UNL A   1      43.014  22.644  25.571  1.00  0.00     0.010 A 
ATOM     37  C   UNL A   1      42.697  22.310  27.951  1.00  0.00     0.010 A 
ATOM     38  C   UNL A   1      43.078  23.138  26.883  1.00  0.00    -0.014 A 
BRANCH  38  39
ATOM     39  C   UNL A   1      43.554  24.511  27.172  1.00  0.00     0.031 A 
ATOM     40  C   UNL A   1      42.590  25.546  27.680  1.00  0.00     0.074 A 
ATOM     41  C   UNL A   1      44.830  24.844  26.903  1.00  0.00     0.049 A 
ATOM     42  N   UNL A   1      42.777  26.824  27.887  1.00  0.00    -0.248 NA
ATOM     43  C   UNL A   1      41.221  25.086  27.964  1.00  0.00     0.031 C 
ATOM     44  C   UNL A   1      45.847  23.935  26.371  1.00  0.00     0.029 A 
ATOM     45  N   UNL A   1      45.487  26.043  27.023  1.00  0.00    -0.354 N 
ATOM     46  C   UNL A   1      41.551  27.322  28.308  1.00  0.00     0.074 A 
ATOM     47  C   UNL A   1      40.613  26.221  28.274  1.00  0.00     0.031 C 
ATOM     48  C   UNL A   1      47.002  24.604  26.226  1.00  0.00     0.029 A 
ATOM     49  C   UNL A   1      46.795  25.997  26.610  1.00  0.00     0.049 A 
ATOM     50  H   UNL A   1      45.060  26.859  27.372  1.00  0.00     0.167 HD
ATOM     51  C   UNL A   1      41.243  28.579  28.705  1.00  0.00     0.037 A 
ATOM     52  C   UNL A   1      47.718  26.975  26.533  1.00  0.00     0.037 A 
ATOM     53  C   UNL A   1      42.190  29.662  28.755  1.00  0.00     0.049 A 
ATOM     54  C   UNL A   1      47.345  28.367  26.965  1.00  0.00     0.074 A 
ATOM     55  C   UNL A   1      41.993  30.960  29.192  1.00  0.00     0.029 A 
ATOM     56  N   UNL A   1      43.513  29.572  28.349  1.00  0.00    -0.354 N 
ATOM     57  N   UNL A   1      46.199  28.816  27.418  1.00  0.00    -0.248 NA
ATOM     58  C   UNL A   1      48.397  29.390  26.881  1.00  0.00     0.031 C 
ATOM     59  C   UNL A   1      43.182  31.670  29.000  1.00  0.00     0.029 A 
ATOM     60  C   UNL A   1      44.139  30.799  28.504  1.00  0.00     0.049 A 
ATOM     61  H   UNL A   1      43.944  28.758  28.002  1.00  0.00     0.167 HD
ATOM     62  C   UNL A   1      46.401  30.158  27.707  1.00  0.00     0.074 A 
ATOM     63  C   UNL A   1      47.782  30.450  27.386  1.00  0.00     0.031 C 
ATOM     64  C   UNL A   1      45.521  31.067  28.194  1.00  0.00     0.037 A 
BRANCH  51  65
ATOM     65  C   UNL A   1      39.824  28.851  29.115  1.00  0.00     0.064 A 
ATOM     66  C   UNL A   1      38.859  29.283  28.192  1.00  0.00     0.173 A 
ATOM     67  C   UNL A   1      39.413  28.647  30.441  1.00  0.00     0.173 A 
ATOM     68  F   UNL A   1      39.198  29.505  26.913  1.00  0.00    -0.203 F 
ATOM     69  C   UNL A   1      37.546  29.529  28.586  1.00  0.00     0.198 A 
ATOM     70  C   UNL A   1      38.092  28.861  30.825  1.00  0.00     0.198 A 
ATOM     71  F   UNL A   1      40.292  28.230  31.365  1.00  0.00    -0.203 F 
ATOM     72  F   UNL A   1      36.656  29.992  27.698  1.00  0.00    -0.200 F 
ATOM     73  C   UNL A   1      37.162  29.311  29.901  1.00  0.00     0.200 A 
ATOM     74  F   UNL A   1      37.720  28.634  32.093  1.00  0.00    -0.200 F 
ATOM     75  F   UNL A   1      35.897  29.540  30.279  1.00  0.00    -0.200 F 
ENDBRANCH  51  65
BRANCH  52  76
ATOM     76  C   UNL A   1      49.089  26.666  26.046  1.00  0.00     0.064 A 
ATOM     77  C   UNL A   1      49.453  26.917  24.716  1.00  0.00     0.173 A 
ATOM     78  C   UNL A   1      50.059  26.112  26.894  1.00  0.00     0.173 A 
ATOM     79  F   UNL A   1      48.554  27.428  23.861  1.00  0.00    -0.203 F 
ATOM     80  C   UNL A   1      50.726  26.601  24.246  1.00  0.00     0.198 A 
ATOM     81  C   UNL A   1      51.342  25.826  26.431  1.00  0.00     0.198 A 
ATOM     82  F   UNL A   1      49.764  25.856  28.177  1.00  0.00    -0.203 F 
ATOM     83  F   UNL A   1      51.030  26.802  22.957  1.00  0.00    -0.200 F 
ATOM     84  C   UNL A   1      51.671  26.061  25.104  1.00  0.00     0.200 A 
ATOM     85  F   UNL A   1      52.256  25.318  27.268  1.00  0.00    -0.200 F 
ATOM     86  F   UNL A   1      52.896  25.759  24.653  1.00  0.00    -0.200 F 
ENDBRANCH  52  76
BRANCH  64  87
ATOM     87  C   UNL A   1      46.037  32.451  28.464  1.00  0.00     0.064 A 
ATOM     88  C   UNL A   1      46.633  32.794  29.686  1.00  0.00     0.173 A 
ATOM     89  C   UNL A   1      45.976  33.434  27.464  1.00  0.00     0.173 A 
ATOM     90  F   UNL A   1      46.704  31.896  30.680  1.00  0.00    -0.203 F 
ATOM     91  C   UNL A   1      47.126  34.079  29.906  1.00  0.00     0.198 A 
ATOM     92  C   UNL A   1      46.500  34.707  27.675  1.00  0.00     0.198 A 
ATOM     93  F   UNL A   1      45.423  33.155  26.274  1.00  0.00    -0.203 F 
ATOM     94  F   UNL A   1      47.647  34.399  31.098  1.00  0.00    -0.200 F 
ATOM     95  C   UNL A   1      47.067  35.030  28.898  1.00  0.00     0.200 A 
ATOM     96  F   UNL A   1      46.457  35.618  26.694  1.00  0.00    -0.200 F 
ATOM     97  F   UNL A   1      47.552  36.261  29.108  1.00  0.00    -0.200 F 
ENDBRANCH  64  87
ENDBRANCH  38  39
ENDBRANCH  30  33
ENDBRANCH  28  29
ENDBRANCH  27  28
ENDBRANCH  26  27
ENDBRANCH  25  26
ENDBRANCH   1  25
TORSDOF 18
ENDMDL
