MODEL 1
REMARK VINA RESULT:      -8.5      0.000      0.000
REMARK SMILES COc1cc(C(=O)NCCCCCCNC(=O)c2ccc(-c3c4nc(c(-c5c(F)c(F)c(F)c(F)c5F)c5ccc([nH]5)c(-c5c(F)c(F)c(F)c(F)c5F)c5nc(c(-c6c(F)c(F)c(F)c(F)c6F)c6ccc3[nH]6)C=C5)C=C4)cc2)c([N+](=O)[O-])cc1OCC[NH+](C)C
REMARK SMILES IDX 10 1 9 2 8 3 6 4 7 5 5 7 3 8 4 9 86 10 85 11 81 12 2 13 1 14
REMARK SMILES IDX 87 15 88 16 89 17 90 18 91 19 92 20 82 22 83 23 84 24 11 25
REMARK SMILES IDX 12 26 13 27 14 28 15 29 16 30 17 32 18 33 19 34 80 35 20 36
REMARK SMILES IDX 79 37 21 38 22 39 23 40 73 41 24 42 78 43 72 44 74 45 25 46
REMARK SMILES IDX 77 47 71 48 70 49 26 51 58 52 38 53 57 54 39 55 42 56 56 57
REMARK SMILES IDX 75 58 40 59 41 60 55 62 76 63 43 64 27 65 28 66 36 67 29 68
REMARK SMILES IDX 30 69 34 70 37 71 31 72 32 73 35 74 33 75 59 76 60 77 68 78
REMARK SMILES IDX 61 79 62 80 66 81 69 82 63 83 64 84 67 85 65 86 44 87 45 88
REMARK SMILES IDX 53 89 46 90 47 91 51 92 54 93 48 94 49 95 52 96 50 97
REMARK H PARENT 8 6 90 21 15 31 74 50 42 61
REMARK Flexibility Score: inf
ROOT
ATOM      1  C   UNL A   1      38.384  34.227  30.955  1.00  0.00     0.021 C 
ENDROOT
BRANCH   1   2
ATOM      2  C   UNL A   1      38.232  34.408  32.458  1.00  0.00     0.116 C 
BRANCH   2   3
ATOM      3  N   UNL A   1      36.898  34.169  32.977  1.00  0.00    -0.352 N 
ATOM      4  C   UNL A   1      36.457  33.265  33.917  1.00  0.00     0.258 C 
ATOM      5  O   UNL A   1      35.265  33.230  34.215  1.00  0.00    -0.269 OA
ATOM      6  H   UNL A   1      36.196  34.745  32.595  1.00  0.00     0.163 HD
BRANCH   4   7
ATOM      7  C   UNL A   1      37.373  32.272  34.528  1.00  0.00     0.121 A 
ATOM      8  C   UNL A   1      38.454  30.085  34.352  1.00  0.00     0.162 A 
ATOM      9  C   UNL A   1      37.571  31.056  33.845  1.00  0.00     0.071 A 
ATOM     10  C   UNL A   1      39.178  30.351  35.521  1.00  0.00     0.168 A 
ATOM     11  C   UNL A   1      39.026  31.572  36.172  1.00  0.00     0.136 A 
ATOM     12  C   UNL A   1      38.060  32.474  35.725  1.00  0.00     0.286 A 
BRANCH   8  13
ATOM     13  O   UNL A   1      38.707  28.953  33.624  1.00  0.00    -0.493 OA
ATOM     14  C   UNL A   1      39.718  29.138  32.631  1.00  0.00     0.278 C 
ENDBRANCH   8  13
BRANCH  10  15
ATOM     15  O   UNL A   1      40.034  29.501  36.159  1.00  0.00    -0.484 OA
BRANCH  15  16
ATOM     16  C   UNL A   1      41.365  29.437  35.634  1.00  0.00     0.291 C 
BRANCH  16  17
ATOM     17  C   UNL A   1      42.157  28.105  35.794  1.00  0.00     0.303 C 
BRANCH  17  18
ATOM     18  N   UNL A   1      42.990  27.702  34.642  1.00  0.00    -0.337 N 
ATOM     19  C   UNL A   1      43.120  28.765  33.642  1.00  0.00     0.332 C 
ATOM     20  C   UNL A   1      44.339  27.299  35.059  1.00  0.00     0.332 C 
ATOM     21  H   UNL A   1      42.504  26.908  34.225  1.00  0.00     0.347 HD
ENDBRANCH  17  18
ENDBRANCH  16  17
ENDBRANCH  15  16
ENDBRANCH  10  15
BRANCH  12  22
ATOM     22  N   UNL A   1      37.699  33.539  36.640  1.00  0.00     0.063 N 
ATOM     23  O   UNL A   1      36.693  33.378  37.341  1.00  0.00    -0.258 OA
ATOM     24  O   UNL A   1      38.448  34.525  36.680  1.00  0.00    -0.258 OA
ENDBRANCH  12  22
ENDBRANCH   4   7
ENDBRANCH   2   3
ENDBRANCH   1   2
BRANCH   1  25
ATOM     25  C   UNL A   1      37.415  33.249  30.290  1.00  0.00     0.002 C 
BRANCH  25  26
ATOM     26  C   UNL A   1      37.188  33.410  28.784  1.00  0.00     0.002 C 
BRANCH  26  27
ATOM     27  C   UNL A   1      35.765  33.183  28.269  1.00  0.00     0.021 C 
BRANCH  27  28
ATOM     28  C   UNL A   1      34.829  32.417  29.196  1.00  0.00     0.116 C 
BRANCH  28  29
ATOM     29  N   UNL A   1      34.153  31.310  28.542  1.00  0.00    -0.352 N 
ATOM     30  C   UNL A   1      34.666  30.141  28.044  1.00  0.00     0.251 C 
ATOM     31  H   UNL A   1      33.179  31.416  28.442  1.00  0.00     0.163 HD
ATOM     32  O   UNL A   1      33.942  29.371  27.411  1.00  0.00    -0.269 OA
BRANCH  30  33
ATOM     33  C   UNL A   1      36.094  29.808  28.232  1.00  0.00     0.039 A 
ATOM     34  C   UNL A   1      36.969  29.974  27.155  1.00  0.00     0.014 A 
ATOM     35  C   UNL A   1      36.574  29.328  29.454  1.00  0.00     0.014 A 
ATOM     36  C   UNL A   1      38.332  29.718  27.320  1.00  0.00     0.010 A 
ATOM     37  C   UNL A   1      37.943  29.150  29.641  1.00  0.00     0.010 A 
ATOM     38  C   UNL A   1      38.836  29.340  28.574  1.00  0.00    -0.014 A 
BRANCH  38  39
ATOM     39  C   UNL A   1      40.294  29.150  28.789  1.00  0.00     0.031 A 
ATOM     40  C   UNL A   1      40.974  27.891  28.333  1.00  0.00     0.074 A 
ATOM     41  C   UNL A   1      40.993  30.088  29.457  1.00  0.00     0.049 A 
ATOM     42  N   UNL A   1      42.223  27.523  28.478  1.00  0.00    -0.248 NA
ATOM     43  C   UNL A   1      40.132  26.900  27.649  1.00  0.00     0.031 C 
ATOM     44  C   UNL A   1      40.437  31.327  29.999  1.00  0.00     0.029 A 
ATOM     45  N   UNL A   1      42.321  30.137  29.806  1.00  0.00    -0.354 N 
ATOM     46  C   UNL A   1      42.311  26.255  27.919  1.00  0.00     0.074 A 
ATOM     47  C   UNL A   1      40.978  25.894  27.485  1.00  0.00     0.031 C 
ATOM     48  C   UNL A   1      41.417  32.025  30.595  1.00  0.00     0.029 A 
ATOM     49  C   UNL A   1      42.660  31.264  30.514  1.00  0.00     0.049 A 
ATOM     50  H   UNL A   1      42.967  29.432  29.571  1.00  0.00     0.167 HD
ATOM     51  C   UNL A   1      43.405  25.473  27.762  1.00  0.00     0.037 A 
ATOM     52  C   UNL A   1      43.838  31.638  31.049  1.00  0.00     0.037 A 
ATOM     53  C   UNL A   1      44.731  25.844  28.188  1.00  0.00     0.049 A 
ATOM     54  C   UNL A   1      45.040  30.752  30.870  1.00  0.00     0.074 A 
ATOM     55  C   UNL A   1      45.918  25.157  28.010  1.00  0.00     0.029 A 
ATOM     56  N   UNL A   1      45.041  27.002  28.890  1.00  0.00    -0.354 N 
ATOM     57  N   UNL A   1      45.132  29.593  30.265  1.00  0.00    -0.248 NA
ATOM     58  C   UNL A   1      46.306  31.231  31.443  1.00  0.00     0.031 C 
ATOM     59  C   UNL A   1      46.935  25.865  28.662  1.00  0.00     0.029 A 
ATOM     60  C   UNL A   1      46.395  27.029  29.186  1.00  0.00     0.049 A 
ATOM     61  H   UNL A   1      44.394  27.700  29.140  1.00  0.00     0.167 HD
ATOM     62  C   UNL A   1      46.463  29.214  30.362  1.00  0.00     0.074 A 
ATOM     63  C   UNL A   1      47.147  30.276  31.071  1.00  0.00     0.031 C 
ATOM     64  C   UNL A   1      47.064  28.088  29.901  1.00  0.00     0.037 A 
BRANCH  51  65
ATOM     65  C   UNL A   1      43.208  24.127  27.121  1.00  0.00     0.064 A 
ATOM     66  C   UNL A   1      43.467  23.910  25.758  1.00  0.00     0.173 A 
ATOM     67  C   UNL A   1      42.759  23.036  27.880  1.00  0.00     0.173 A 
ATOM     68  F   UNL A   1      43.891  24.919  24.981  1.00  0.00    -0.203 F 
ATOM     69  C   UNL A   1      43.235  22.668  25.171  1.00  0.00     0.198 A 
ATOM     70  C   UNL A   1      42.564  21.786  27.299  1.00  0.00     0.198 A 
ATOM     71  F   UNL A   1      42.504  23.181  29.189  1.00  0.00    -0.203 F 
ATOM     72  F   UNL A   1      43.421  22.506  23.854  1.00  0.00    -0.200 F 
ATOM     73  C   UNL A   1      42.790  21.606  25.943  1.00  0.00     0.200 A 
ATOM     74  F   UNL A   1      42.151  20.756  28.050  1.00  0.00    -0.200 F 
ATOM     75  F   UNL A   1      42.566  20.412  25.377  1.00  0.00    -0.200 F 
ENDBRANCH  51  65
BRANCH  52  76
ATOM     76  C   UNL A   1      43.929  32.925  31.787  1.00  0.00     0.064 A 
ATOM     77  C   UNL A   1      43.847  32.962  33.185  1.00  0.00     0.173 A 
ATOM     78  C   UNL A   1      44.136  34.136  31.111  1.00  0.00     0.173 A 
ATOM     79  F   UNL A   1      43.630  31.833  33.874  1.00  0.00    -0.203 F 
ATOM     80  C   UNL A   1      43.960  34.165  33.880  1.00  0.00     0.198 A 
ATOM     81  C   UNL A   1      44.278  35.334  31.809  1.00  0.00     0.198 A 
ATOM     82  F   UNL A   1      44.227  34.152  29.774  1.00  0.00    -0.203 F 
ATOM     83  F   UNL A   1      43.846  34.179  35.215  1.00  0.00    -0.200 F 
ATOM     84  C   UNL A   1      44.186  35.348  33.192  1.00  0.00     0.200 A 
ATOM     85  F   UNL A   1      44.512  36.472  31.141  1.00  0.00    -0.200 F 
ATOM     86  F   UNL A   1      44.311  36.502  33.861  1.00  0.00    -0.200 F 
ENDBRANCH  52  76
BRANCH  64  87
ATOM     87  C   UNL A   1      48.544  27.954  30.128  1.00  0.00     0.064 A 
ATOM     88  C   UNL A   1      49.481  28.429  29.198  1.00  0.00     0.173 A 
ATOM     89  C   UNL A   1      49.031  27.379  31.312  1.00  0.00     0.173 A 
ATOM     90  F   UNL A   1      49.070  28.975  28.044  1.00  0.00    -0.203 F 
ATOM     91  C   UNL A   1      50.848  28.310  29.434  1.00  0.00     0.198 A 
ATOM     92  C   UNL A   1      50.398  27.292  31.560  1.00  0.00     0.198 A 
ATOM     93  F   UNL A   1      48.179  26.915  32.239  1.00  0.00    -0.203 F 
ATOM     94  F   UNL A   1      51.726  28.725  28.509  1.00  0.00    -0.200 F 
ATOM     95  C   UNL A   1      51.305  27.749  30.617  1.00  0.00     0.200 A 
ATOM     96  F   UNL A   1      50.836  26.766  32.712  1.00  0.00    -0.200 F 
ATOM     97  F   UNL A   1      52.622  27.644  30.847  1.00  0.00    -0.200 F 
ENDBRANCH  64  87
ENDBRANCH  38  39
ENDBRANCH  30  33
ENDBRANCH  28  29
ENDBRANCH  27  28
ENDBRANCH  26  27
ENDBRANCH  25  26
ENDBRANCH   1  25
TORSDOF 19
ENDMDL
MODEL 2
REMARK VINA RESULT:      -8.3      1.565      7.408
REMARK SMILES COc1cc(C(=O)NCCCCCCNC(=O)c2ccc(-c3c4nc(c(-c5c(F)c(F)c(F)c(F)c5F)c5ccc([nH]5)c(-c5c(F)c(F)c(F)c(F)c5F)c5nc(c(-c6c(F)c(F)c(F)c(F)c6F)c6ccc3[nH]6)C=C5)C=C4)cc2)c([N+](=O)[O-])cc1OCC[NH+](C)C
REMARK SMILES IDX 10 1 9 2 8 3 6 4 7 5 5 7 3 8 4 9 86 10 85 11 81 12 2 13 1 14
REMARK SMILES IDX 87 15 88 16 89 17 90 18 91 19 92 20 82 22 83 23 84 24 11 25
REMARK SMILES IDX 12 26 13 27 14 28 15 29 16 30 17 32 18 33 19 34 80 35 20 36
REMARK SMILES IDX 79 37 21 38 22 39 23 40 73 41 24 42 78 43 72 44 74 45 25 46
REMARK SMILES IDX 77 47 71 48 70 49 26 51 58 52 38 53 57 54 39 55 42 56 56 57
REMARK SMILES IDX 75 58 40 59 41 60 55 62 76 63 43 64 27 65 28 66 36 67 29 68
REMARK SMILES IDX 30 69 34 70 37 71 31 72 32 73 35 74 33 75 59 76 60 77 68 78
REMARK SMILES IDX 61 79 62 80 66 81 69 82 63 83 64 84 67 85 65 86 44 87 45 88
REMARK SMILES IDX 53 89 46 90 47 91 51 92 54 93 48 94 49 95 52 96 50 97
REMARK H PARENT 8 6 90 21 15 31 74 50 42 61
REMARK Flexibility Score: inf
ROOT
ATOM      1  C   UNL A   1      38.671  33.776  30.564  1.00  0.00     0.021 C 
ENDROOT
BRANCH   1   2
ATOM      2  C   UNL A   1      38.732  33.980  32.071  1.00  0.00     0.116 C 
BRANCH   2   3
ATOM      3  N   UNL A   1      37.512  33.655  32.787  1.00  0.00    -0.352 N 
ATOM      4  C   UNL A   1      37.330  32.997  33.983  1.00  0.00     0.258 C 
ATOM      5  O   UNL A   1      36.192  32.826  34.416  1.00  0.00    -0.269 OA
ATOM      6  H   UNL A   1      36.683  33.953  32.347  1.00  0.00     0.163 HD
BRANCH   4   7
ATOM      7  C   UNL A   1      38.472  32.415  34.729  1.00  0.00     0.121 A 
ATOM      8  C   UNL A   1      39.835  30.438  35.194  1.00  0.00     0.162 A 
ATOM      9  C   UNL A   1      38.746  31.045  34.543  1.00  0.00     0.071 A 
ATOM     10  C   UNL A   1      40.681  31.213  35.997  1.00  0.00     0.168 A 
ATOM     11  C   UNL A   1      40.446  32.578  36.143  1.00  0.00     0.136 A 
ATOM     12  C   UNL A   1      39.295  33.140  35.589  1.00  0.00     0.286 A 
BRANCH   8  13
ATOM     13  O   UNL A   1      40.143  29.131  34.925  1.00  0.00    -0.493 OA
ATOM     14  C   UNL A   1      40.727  28.947  33.634  1.00  0.00     0.278 C 
ENDBRANCH   8  13
BRANCH  10  15
ATOM     15  O   UNL A   1      41.746  30.768  36.725  1.00  0.00    -0.484 OA
BRANCH  15  16
ATOM     16  C   UNL A   1      42.402  31.743  37.543  1.00  0.00     0.291 C 
BRANCH  16  17
ATOM     17  C   UNL A   1      43.754  31.354  38.212  1.00  0.00     0.303 C 
BRANCH  17  18
ATOM     18  N   UNL A   1      44.574  32.474  38.719  1.00  0.00    -0.337 N 
ATOM     19  C   UNL A   1      43.982  33.119  39.894  1.00  0.00     0.332 C 
ATOM     20  C   UNL A   1      45.932  32.041  39.070  1.00  0.00     0.332 C 
ATOM     21  H   UNL A   1      44.611  33.146  37.952  1.00  0.00     0.347 HD
ENDBRANCH  17  18
ENDBRANCH  16  17
ENDBRANCH  15  16
ENDBRANCH  10  15
BRANCH  12  22
ATOM     22  N   UNL A   1      38.921  34.454  36.075  1.00  0.00     0.063 N 
ATOM     23  O   UNL A   1      38.864  35.376  35.253  1.00  0.00    -0.258 OA
ATOM     24  O   UNL A   1      38.648  34.551  37.280  1.00  0.00    -0.258 OA
ENDBRANCH  12  22
ENDBRANCH   4   7
ENDBRANCH   2   3
ENDBRANCH   1   2
BRANCH   1  25
ATOM     25  C   UNL A   1      37.390  33.145  30.018  1.00  0.00     0.002 C 
BRANCH  25  26
ATOM     26  C   UNL A   1      36.943  33.579  28.618  1.00  0.00     0.002 C 
BRANCH  26  27
ATOM     27  C   UNL A   1      35.496  33.271  28.226  1.00  0.00     0.021 C 
BRANCH  27  28
ATOM     28  C   UNL A   1      34.723  32.360  29.172  1.00  0.00     0.116 C 
BRANCH  28  29
ATOM     29  N   UNL A   1      34.162  31.191  28.513  1.00  0.00    -0.352 N 
ATOM     30  C   UNL A   1      34.777  30.036  28.107  1.00  0.00     0.251 C 
ATOM     31  H   UNL A   1      33.196  31.238  28.333  1.00  0.00     0.163 HD
ATOM     32  O   UNL A   1      34.150  29.203  27.452  1.00  0.00    -0.269 OA
BRANCH  30  33
ATOM     33  C   UNL A   1      36.201  29.793  28.421  1.00  0.00     0.039 A 
ATOM     34  C   UNL A   1      36.534  29.320  29.694  1.00  0.00     0.014 A 
ATOM     35  C   UNL A   1      37.206  30.034  27.480  1.00  0.00     0.014 A 
ATOM     36  C   UNL A   1      37.866  29.029  30.001  1.00  0.00     0.010 A 
ATOM     37  C   UNL A   1      38.521  29.669  27.760  1.00  0.00     0.010 A 
ATOM     38  C   UNL A   1      38.865  29.167  29.025  1.00  0.00    -0.014 A 
BRANCH  38  39
ATOM     39  C   UNL A   1      40.271  28.779  29.308  1.00  0.00     0.031 A 
ATOM     40  C   UNL A   1      41.184  29.711  30.052  1.00  0.00     0.074 A 
ATOM     41  C   UNL A   1      40.745  27.611  28.834  1.00  0.00     0.049 A 
ATOM     42  N   UNL A   1      42.453  29.571  30.347  1.00  0.00    -0.248 NA
ATOM     43  C   UNL A   1      40.601  30.984  30.500  1.00  0.00     0.031 C 
ATOM     44  C   UNL A   1      39.976  26.645  28.049  1.00  0.00     0.029 A 
ATOM     45  N   UNL A   1      41.993  27.044  28.930  1.00  0.00    -0.354 N 
ATOM     46  C   UNL A   1      42.821  30.741  30.998  1.00  0.00     0.074 A 
ATOM     47  C   UNL A   1      41.659  31.603  31.003  1.00  0.00     0.031 C 
ATOM     48  C   UNL A   1      40.760  25.597  27.752  1.00  0.00     0.029 A 
ATOM     49  C   UNL A   1      42.096  25.835  28.287  1.00  0.00     0.049 A 
ATOM     50  H   UNL A   1      42.740  27.464  29.413  1.00  0.00     0.167 HD
ATOM     51  C   UNL A   1      44.013  31.059  31.558  1.00  0.00     0.037 A 
ATOM     52  C   UNL A   1      43.153  25.014  28.135  1.00  0.00     0.037 A 
ATOM     53  C   UNL A   1      45.163  30.191  31.557  1.00  0.00     0.049 A 
ATOM     54  C   UNL A   1      44.470  25.388  28.759  1.00  0.00     0.074 A 
ATOM     55  C   UNL A   1      46.392  30.387  32.160  1.00  0.00     0.029 A 
ATOM     56  N   UNL A   1      45.227  28.965  30.908  1.00  0.00    -0.354 N 
ATOM     57  N   UNL A   1      44.785  26.458  29.446  1.00  0.00    -0.248 NA
ATOM     58  C   UNL A   1      45.575  24.435  28.592  1.00  0.00     0.031 C 
ATOM     59  C   UNL A   1      47.222  29.312  31.821  1.00  0.00     0.029 A 
ATOM     60  C   UNL A   1      46.490  28.411  31.065  1.00  0.00     0.049 A 
ATOM     61  H   UNL A   1      44.487  28.549  30.411  1.00  0.00     0.167 HD
ATOM     62  C   UNL A   1      46.114  26.300  29.814  1.00  0.00     0.074 A 
ATOM     63  C   UNL A   1      46.541  25.021  29.286  1.00  0.00     0.031 C 
ATOM     64  C   UNL A   1      46.906  27.139  30.527  1.00  0.00     0.037 A 
BRANCH  51  65
ATOM     65  C   UNL A   1      44.136  32.413  32.201  1.00  0.00     0.064 A 
ATOM     66  C   UNL A   1      44.540  33.545  31.475  1.00  0.00     0.173 A 
ATOM     67  C   UNL A   1      43.840  32.583  33.562  1.00  0.00     0.173 A 
ATOM     68  F   UNL A   1      44.843  33.440  30.172  1.00  0.00    -0.203 F 
ATOM     69  C   UNL A   1      44.692  34.782  32.098  1.00  0.00     0.198 A 
ATOM     70  C   UNL A   1      43.956  33.830  34.173  1.00  0.00     0.198 A 
ATOM     71  F   UNL A   1      43.440  31.540  34.304  1.00  0.00    -0.203 F 
ATOM     72  F   UNL A   1      45.149  35.831  31.399  1.00  0.00    -0.200 F 
ATOM     73  C   UNL A   1      44.394  34.924  33.445  1.00  0.00     0.200 A 
ATOM     74  F   UNL A   1      43.652  33.969  35.470  1.00  0.00    -0.200 F 
ATOM     75  F   UNL A   1      44.542  36.114  34.043  1.00  0.00    -0.200 F 
ENDBRANCH  51  65
BRANCH  52  76
ATOM     76  C   UNL A   1      42.991  23.749  27.372  1.00  0.00     0.064 A 
ATOM     77  C   UNL A   1      43.353  23.670  26.020  1.00  0.00     0.173 A 
ATOM     78  C   UNL A   1      42.507  22.586  27.988  1.00  0.00     0.173 A 
ATOM     79  F   UNL A   1      43.803  24.760  25.382  1.00  0.00    -0.203 F 
ATOM     80  C   UNL A   1      43.227  22.477  25.311  1.00  0.00     0.198 A 
ATOM     81  C   UNL A   1      42.410  21.386  27.286  1.00  0.00     0.198 A 
ATOM     82  F   UNL A   1      42.153  22.609  29.282  1.00  0.00    -0.203 F 
ATOM     83  F   UNL A   1      43.549  22.436  24.011  1.00  0.00    -0.200 F 
ATOM     84  C   UNL A   1      42.766  21.334  25.947  1.00  0.00     0.200 A 
ATOM     85  F   UNL A   1      41.979  20.281  27.909  1.00  0.00    -0.200 F 
ATOM     86  F   UNL A   1      42.661  20.183  25.269  1.00  0.00    -0.200 F 
ENDBRANCH  52  76
BRANCH  64  87
ATOM     87  C   UNL A   1      48.315  26.691  30.801  1.00  0.00     0.064 A 
ATOM     88  C   UNL A   1      49.387  27.079  29.983  1.00  0.00     0.173 A 
ATOM     89  C   UNL A   1      48.602  25.897  31.922  1.00  0.00     0.173 A 
ATOM     90  F   UNL A   1      49.167  27.826  28.891  1.00  0.00    -0.203 F 
ATOM     91  C   UNL A   1      50.687  26.666  30.262  1.00  0.00     0.198 A 
ATOM     92  C   UNL A   1      49.907  25.515  32.218  1.00  0.00     0.198 A 
ATOM     93  F   UNL A   1      47.616  25.504  32.743  1.00  0.00    -0.203 F 
ATOM     94  F   UNL A   1      51.688  27.006  29.438  1.00  0.00    -0.200 F 
ATOM     95  C   UNL A   1      50.947  25.892  31.383  1.00  0.00     0.200 A 
ATOM     96  F   UNL A   1      50.158  24.781  33.311  1.00  0.00    -0.200 F 
ATOM     97  F   UNL A   1      52.201  25.504  31.656  1.00  0.00    -0.200 F 
ENDBRANCH  64  87
ENDBRANCH  38  39
ENDBRANCH  30  33
ENDBRANCH  28  29
ENDBRANCH  27  28
ENDBRANCH  26  27
ENDBRANCH  25  26
ENDBRANCH   1  25
TORSDOF 19
ENDMDL
MODEL 3
REMARK VINA RESULT:      -8.2      2.262      8.044
REMARK SMILES COc1cc(C(=O)NCCCCCCNC(=O)c2ccc(-c3c4nc(c(-c5c(F)c(F)c(F)c(F)c5F)c5ccc([nH]5)c(-c5c(F)c(F)c(F)c(F)c5F)c5nc(c(-c6c(F)c(F)c(F)c(F)c6F)c6ccc3[nH]6)C=C5)C=C4)cc2)c([N+](=O)[O-])cc1OCC[NH+](C)C
REMARK SMILES IDX 10 1 9 2 8 3 6 4 7 5 5 7 3 8 4 9 86 10 85 11 81 12 2 13 1 14
REMARK SMILES IDX 87 15 88 16 89 17 90 18 91 19 92 20 82 22 83 23 84 24 11 25
REMARK SMILES IDX 12 26 13 27 14 28 15 29 16 30 17 32 18 33 19 34 80 35 20 36
REMARK SMILES IDX 79 37 21 38 22 39 23 40 73 41 24 42 78 43 72 44 74 45 25 46
REMARK SMILES IDX 77 47 71 48 70 49 26 51 58 52 38 53 57 54 39 55 42 56 56 57
REMARK SMILES IDX 75 58 40 59 41 60 55 62 76 63 43 64 27 65 28 66 36 67 29 68
REMARK SMILES IDX 30 69 34 70 37 71 31 72 32 73 35 74 33 75 59 76 60 77 68 78
REMARK SMILES IDX 61 79 62 80 66 81 69 82 63 83 64 84 67 85 65 86 44 87 45 88
REMARK SMILES IDX 53 89 46 90 47 91 51 92 54 93 48 94 49 95 52 96 50 97
REMARK H PARENT 8 6 90 21 15 31 74 50 42 61
REMARK Flexibility Score: inf
ROOT
ATOM      1  C   UNL A   1      35.441  33.180  33.585  1.00  0.00     0.021 C 
ENDROOT
BRANCH   1   2
ATOM      2  C   UNL A   1      36.259  34.379  34.040  1.00  0.00     0.116 C 
BRANCH   2   3
ATOM      3  N   UNL A   1      37.545  34.533  33.383  1.00  0.00    -0.352 N 
ATOM      4  C   UNL A   1      38.815  34.586  33.912  1.00  0.00     0.258 C 
ATOM      5  O   UNL A   1      39.780  34.722  33.165  1.00  0.00    -0.269 OA
ATOM      6  H   UNL A   1      37.501  34.611  32.402  1.00  0.00     0.163 HD
BRANCH   4   7
ATOM      7  C   UNL A   1      39.045  34.564  35.377  1.00  0.00     0.121 A 
ATOM      8  C   UNL A   1      39.805  35.776  37.361  1.00  0.00     0.162 A 
ATOM      9  C   UNL A   1      39.593  35.718  35.972  1.00  0.00     0.071 A 
ATOM     10  C   UNL A   1      39.424  34.694  38.165  1.00  0.00     0.168 A 
ATOM     11  C   UNL A   1      38.834  33.572  37.590  1.00  0.00     0.136 A 
ATOM     12  C   UNL A   1      38.740  33.481  36.201  1.00  0.00     0.286 A 
BRANCH   8  13
ATOM     13  O   UNL A   1      40.246  36.940  37.932  1.00  0.00    -0.493 OA
ATOM     14  C   UNL A   1      41.666  36.984  38.091  1.00  0.00     0.278 C 
ENDBRANCH   8  13
BRANCH  10  15
ATOM     15  O   UNL A   1      39.601  34.580  39.514  1.00  0.00    -0.484 OA
BRANCH  15  16
ATOM     16  C   UNL A   1      38.562  33.904  40.231  1.00  0.00     0.291 C 
BRANCH  16  17
ATOM     17  C   UNL A   1      38.926  33.213  41.579  1.00  0.00     0.303 C 
BRANCH  17  18
ATOM     18  N   UNL A   1      37.862  33.188  42.604  1.00  0.00    -0.337 N 
ATOM     19  C   UNL A   1      36.581  33.689  42.099  1.00  0.00     0.332 C 
ATOM     20  C   UNL A   1      37.648  31.837  43.135  1.00  0.00     0.332 C 
ATOM     21  H   UNL A   1      38.192  33.805  43.347  1.00  0.00     0.347 HD
ENDBRANCH  17  18
ENDBRANCH  16  17
ENDBRANCH  15  16
ENDBRANCH  10  15
BRANCH  12  22
ATOM     22  N   UNL A   1      38.465  32.165  35.658  1.00  0.00     0.063 N 
ATOM     23  O   UNL A   1      37.429  31.598  36.022  1.00  0.00    -0.258 OA
ATOM     24  O   UNL A   1      39.275  31.715  34.834  1.00  0.00    -0.258 OA
ENDBRANCH  12  22
ENDBRANCH   4   7
ENDBRANCH   2   3
ENDBRANCH   1   2
BRANCH   1  25
ATOM     25  C   UNL A   1      36.106  32.253  32.568  1.00  0.00     0.002 C 
BRANCH  25  26
ATOM     26  C   UNL A   1      36.140  32.728  31.112  1.00  0.00     0.002 C 
BRANCH  26  27
ATOM     27  C   UNL A   1      34.794  32.866  30.396  1.00  0.00     0.021 C 
BRANCH  27  28
ATOM     28  C   UNL A   1      34.847  32.949  28.876  1.00  0.00     0.116 C 
BRANCH  28  29
ATOM     29  N   UNL A   1      34.089  31.899  28.216  1.00  0.00    -0.352 N 
ATOM     30  C   UNL A   1      34.468  30.627  27.876  1.00  0.00     0.251 C 
ATOM     31  H   UNL A   1      33.164  32.139  27.978  1.00  0.00     0.163 HD
ATOM     32  O   UNL A   1      33.714  29.919  27.207  1.00  0.00    -0.269 OA
BRANCH  30  33
ATOM     33  C   UNL A   1      35.791  30.105  28.279  1.00  0.00     0.039 A 
ATOM     34  C   UNL A   1      36.862  30.239  27.391  1.00  0.00     0.014 A 
ATOM     35  C   UNL A   1      35.981  29.480  29.514  1.00  0.00     0.014 A 
ATOM     36  C   UNL A   1      38.136  29.804  27.767  1.00  0.00     0.010 A 
ATOM     37  C   UNL A   1      37.264  29.119  29.919  1.00  0.00     0.010 A 
ATOM     38  C   UNL A   1      38.354  29.274  29.048  1.00  0.00    -0.014 A 
BRANCH  38  39
ATOM     39  C   UNL A   1      39.718  28.888  29.496  1.00  0.00     0.031 A 
ATOM     40  C   UNL A   1      40.496  29.778  30.423  1.00  0.00     0.074 A 
ATOM     41  C   UNL A   1      40.282  27.765  29.012  1.00  0.00     0.049 A 
ATOM     42  N   UNL A   1      41.715  29.638  30.879  1.00  0.00    -0.248 NA
ATOM     43  C   UNL A   1      39.824  31.006  30.873  1.00  0.00     0.031 C 
ATOM     44  C   UNL A   1      39.652  26.847  28.063  1.00  0.00     0.029 A 
ATOM     45  N   UNL A   1      41.518  27.213  29.241  1.00  0.00    -0.354 N 
ATOM     46  C   UNL A   1      41.961  30.763  31.655  1.00  0.00     0.074 A 
ATOM     47  C   UNL A   1      40.787  31.604  31.559  1.00  0.00     0.031 C 
ATOM     48  C   UNL A   1      40.496  25.835  27.805  1.00  0.00     0.029 A 
ATOM     49  C   UNL A   1      41.740  26.055  28.535  1.00  0.00     0.049 A 
ATOM     50  H   UNL A   1      42.181  27.609  29.851  1.00  0.00     0.167 HD
ATOM     51  C   UNL A   1      43.056  31.058  32.396  1.00  0.00     0.037 A 
ATOM     52  C   UNL A   1      42.829  25.264  28.475  1.00  0.00     0.037 A 
ATOM     53  C   UNL A   1      44.217  30.211  32.494  1.00  0.00     0.049 A 
ATOM     54  C   UNL A   1      44.037  25.613  29.300  1.00  0.00     0.074 A 
ATOM     55  C   UNL A   1      45.347  30.382  33.274  1.00  0.00     0.029 A 
ATOM     56  N   UNL A   1      44.401  29.036  31.777  1.00  0.00    -0.354 N 
ATOM     57  N   UNL A   1      44.228  26.635  30.097  1.00  0.00    -0.248 NA
ATOM     58  C   UNL A   1      45.179  24.691  29.222  1.00  0.00     0.031 C 
ATOM     59  C   UNL A   1      46.242  29.347  32.979  1.00  0.00     0.029 A 
ATOM     60  C   UNL A   1      45.644  28.492  32.068  1.00  0.00     0.049 A 
ATOM     61  H   UNL A   1      43.747  28.646  31.154  1.00  0.00     0.167 HD
ATOM     62  C   UNL A   1      45.497  26.472  30.633  1.00  0.00     0.074 A 
ATOM     63  C   UNL A   1      46.026  25.241  30.082  1.00  0.00     0.031 C 
ATOM     64  C   UNL A   1      46.163  27.269  31.506  1.00  0.00     0.037 A 
BRANCH  51  65
ATOM     65  C   UNL A   1      43.055  32.364  33.142  1.00  0.00     0.064 A 
ATOM     66  C   UNL A   1      42.674  32.448  34.491  1.00  0.00     0.173 A 
ATOM     67  C   UNL A   1      43.446  33.549  32.500  1.00  0.00     0.173 A 
ATOM     68  F   UNL A   1      42.284  31.347  35.152  1.00  0.00    -0.203 F 
ATOM     69  C   UNL A   1      42.637  33.673  35.152  1.00  0.00     0.198 A 
ATOM     70  C   UNL A   1      43.443  34.767  33.176  1.00  0.00     0.198 A 
ATOM     71  F   UNL A   1      43.829  33.529  31.215  1.00  0.00    -0.203 F 
ATOM     72  F   UNL A   1      42.200  33.736  36.418  1.00  0.00    -0.200 F 
ATOM     73  C   UNL A   1      43.026  34.831  34.496  1.00  0.00     0.200 A 
ATOM     74  F   UNL A   1      43.837  35.882  32.546  1.00  0.00    -0.200 F 
ATOM     75  F   UNL A   1      42.989  36.009  35.133  1.00  0.00    -0.200 F 
ENDBRANCH  51  65
BRANCH  52  76
ATOM     76  C   UNL A   1      42.805  24.055  27.611  1.00  0.00     0.064 A 
ATOM     77  C   UNL A   1      43.165  24.128  26.258  1.00  0.00     0.173 A 
ATOM     78  C   UNL A   1      42.458  22.799  28.128  1.00  0.00     0.173 A 
ATOM     79  F   UNL A   1      43.486  25.310  25.713  1.00  0.00    -0.203 F 
ATOM     80  C   UNL A   1      43.171  22.989  25.454  1.00  0.00     0.198 A 
ATOM     81  C   UNL A   1      42.492  21.657  27.330  1.00  0.00     0.198 A 
ATOM     82  F   UNL A   1      42.112  22.676  29.418  1.00  0.00    -0.203 F 
ATOM     83  F   UNL A   1      43.487  23.091  24.156  1.00  0.00    -0.200 F 
ATOM     84  C   UNL A   1      42.844  21.754  25.993  1.00  0.00     0.200 A 
ATOM     85  F   UNL A   1      42.191  20.463  27.860  1.00  0.00    -0.200 F 
ATOM     86  F   UNL A   1      42.865  20.658  25.223  1.00  0.00    -0.200 F 
ENDBRANCH  52  76
BRANCH  64  87
ATOM     87  C   UNL A   1      47.531  26.825  31.941  1.00  0.00     0.064 A 
ATOM     88  C   UNL A   1      48.696  27.305  31.323  1.00  0.00     0.173 A 
ATOM     89  C   UNL A   1      47.681  25.938  33.018  1.00  0.00     0.173 A 
ATOM     90  F   UNL A   1      48.610  28.144  30.280  1.00  0.00    -0.203 F 
ATOM     91  C   UNL A   1      49.956  26.894  31.751  1.00  0.00     0.198 A 
ATOM     92  C   UNL A   1      48.942  25.555  33.465  1.00  0.00     0.198 A 
ATOM     93  F   UNL A   1      46.601  25.453  33.650  1.00  0.00    -0.203 F 
ATOM     94  F   UNL A   1      51.053  27.326  31.112  1.00  0.00    -0.200 F 
ATOM     95  C   UNL A   1      50.078  26.026  32.825  1.00  0.00     0.200 A 
ATOM     96  F   UNL A   1      49.058  24.730  34.515  1.00  0.00    -0.200 F 
ATOM     97  F   UNL A   1      51.292  25.639  33.242  1.00  0.00    -0.200 F 
ENDBRANCH  64  87
ENDBRANCH  38  39
ENDBRANCH  30  33
ENDBRANCH  28  29
ENDBRANCH  27  28
ENDBRANCH  26  27
ENDBRANCH  25  26
ENDBRANCH   1  25
TORSDOF 19
ENDMDL
