MODEL 1
REMARK VINA RESULT:     -12.0      0.000      0.000
REMARK SMILES COc1ccc(-n2ncc(C(=O)NCCCCCCNC(=O)c3ccc(-c4c5nc(c(-c6c(F)c(F)c(F)c(F)c6F)c6ccc([nH]6)c(-c6c(F)c(F)c(F)c(F)c6F)c6nc(c(-c7c(F)c(F)c(F)c(F)c7F)c7ccc4[nH]7)C=C6)C=C5)cc3)n2)nn1
REMARK SMILES IDX 16 1 15 2 14 3 13 4 11 5 12 6 10 8 7 9 8 10 86 11 9 12 6 13
REMARK SMILES IDX 3 14 4 15 88 16 5 17 87 18 2 19 1 20 17 21 18 22 19 23 20 24
REMARK SMILES IDX 21 25 22 27 23 28 24 29 85 30 25 31 84 32 26 33 27 34 28 35
REMARK SMILES IDX 78 36 29 37 83 38 77 39 79 40 30 41 82 42 76 43 75 44 31 46
REMARK SMILES IDX 63 47 43 48 62 49 44 50 47 51 61 52 80 53 45 54 46 55 60 57
REMARK SMILES IDX 81 58 48 59 32 60 33 61 41 62 34 63 35 64 39 65 42 66 36 67
REMARK SMILES IDX 37 68 40 69 38 70 64 71 65 72 73 73 66 74 67 75 71 76 74 77
REMARK SMILES IDX 68 78 69 79 72 80 70 81 49 82 50 83 58 84 51 85 52 86 56 87
REMARK SMILES IDX 59 88 53 89 54 90 57 91 55 92
REMARK H PARENT 13 7 20 26 79 45 47 56
REMARK Flexibility Score: inf
ROOT
ATOM      1  C   UNL A   1      36.036  22.646  24.761  1.00  0.00     0.002 C 
ENDROOT
BRANCH   1   2
ATOM      2  C   UNL A   1      35.791  23.781  25.752  1.00  0.00     0.021 C 
BRANCH   2   3
ATOM      3  C   UNL A   1      34.650  24.700  25.342  1.00  0.00     0.116 C 
BRANCH   3   4
ATOM      4  N   UNL A   1      33.546  24.623  26.270  1.00  0.00    -0.351 N 
ATOM      5  C   UNL A   1      32.432  23.824  26.322  1.00  0.00     0.273 C 
ATOM      6  O   UNL A   1      31.601  24.127  27.182  1.00  0.00    -0.267 OA
ATOM      7  H   UNL A   1      33.606  25.269  27.011  1.00  0.00     0.163 HD
BRANCH   5   8
ATOM      8  C   UNL A   1      32.265  22.654  25.450  1.00  0.00     0.170 A 
ATOM      9  N   UNL A   1      32.454  20.647  24.790  1.00  0.00    -0.130 N 
ATOM     10  N   UNL A   1      32.102  21.296  23.649  1.00  0.00    -0.154 NA
ATOM     11  N   UNL A   1      32.501  21.406  25.909  1.00  0.00    -0.141 NA
ATOM     12  C   UNL A   1      31.952  22.543  24.081  1.00  0.00     0.172 A 
BRANCH   9  13
ATOM     13  C   UNL A   1      32.764  19.268  24.755  1.00  0.00     0.196 A 
ATOM     14  C   UNL A   1      33.172  16.612  24.596  1.00  0.00     0.233 A 
ATOM     15  C   UNL A   1      33.451  17.373  23.478  1.00  0.00     0.074 A 
ATOM     16  N   UNL A   1      32.734  17.147  25.755  1.00  0.00    -0.110 NA
ATOM     17  C   UNL A   1      33.234  18.736  23.556  1.00  0.00     0.058 A 
ATOM     18  N   UNL A   1      32.558  18.500  25.850  1.00  0.00    -0.125 NA
BRANCH  14  19
ATOM     19  O   UNL A   1      33.276  15.247  24.553  1.00  0.00    -0.480 OA
ATOM     20  C   UNL A   1      32.545  14.678  25.634  1.00  0.00     0.280 C 
ENDBRANCH  14  19
ENDBRANCH   9  13
ENDBRANCH   5   8
ENDBRANCH   3   4
ENDBRANCH   2   3
ENDBRANCH   1   2
BRANCH   1  21
ATOM     21  C   UNL A   1      35.995  21.236  25.373  1.00  0.00     0.002 C 
BRANCH  21  22
ATOM     22  C   UNL A   1      37.123  20.287  24.941  1.00  0.00     0.021 C 
BRANCH  22  23
ATOM     23  C   UNL A   1      38.496  20.770  25.376  1.00  0.00     0.116 C 
BRANCH  23  24
ATOM     24  N   UNL A   1      39.411  19.665  25.660  1.00  0.00    -0.352 N 
ATOM     25  C   UNL A   1      40.784  19.724  25.892  1.00  0.00     0.251 C 
ATOM     26  H   UNL A   1      39.007  18.769  25.695  1.00  0.00     0.163 HD
ATOM     27  O   UNL A   1      41.501  18.771  25.738  1.00  0.00    -0.269 OA
BRANCH  25  28
ATOM     28  C   UNL A   1      41.314  20.996  26.429  1.00  0.00     0.039 A 
ATOM     29  C   UNL A   1      41.874  22.019  25.662  1.00  0.00     0.014 A 
ATOM     30  C   UNL A   1      41.261  21.125  27.802  1.00  0.00     0.014 A 
ATOM     31  C   UNL A   1      42.374  23.145  26.334  1.00  0.00     0.010 A 
ATOM     32  C   UNL A   1      41.278  22.383  28.304  1.00  0.00     0.010 A 
ATOM     33  C   UNL A   1      42.126  23.282  27.710  1.00  0.00    -0.014 A 
BRANCH  33  34
ATOM     34  C   UNL A   1      42.327  24.485  28.510  1.00  0.00     0.031 A 
ATOM     35  C   UNL A   1      41.220  25.446  28.265  1.00  0.00     0.074 A 
ATOM     36  C   UNL A   1      43.288  24.593  29.472  1.00  0.00     0.049 A 
ATOM     37  N   UNL A   1      41.294  26.461  27.473  1.00  0.00    -0.248 NA
ATOM     38  C   UNL A   1      39.831  25.125  28.654  1.00  0.00     0.031 C 
ATOM     39  C   UNL A   1      44.305  23.618  29.904  1.00  0.00     0.029 A 
ATOM     40  N   UNL A   1      43.563  25.656  30.304  1.00  0.00    -0.354 N 
ATOM     41  C   UNL A   1      40.053  27.080  27.530  1.00  0.00     0.074 A 
ATOM     42  C   UNL A   1      39.144  26.093  28.036  1.00  0.00     0.031 C 
ATOM     43  C   UNL A   1      44.917  24.036  31.044  1.00  0.00     0.029 A 
ATOM     44  C   UNL A   1      44.450  25.370  31.370  1.00  0.00     0.049 A 
ATOM     45  H   UNL A   1      43.172  26.548  30.168  1.00  0.00     0.167 HD
ATOM     46  C   UNL A   1      39.991  28.438  27.478  1.00  0.00     0.037 A 
ATOM     47  C   UNL A   1      44.813  26.218  32.386  1.00  0.00     0.037 A 
ATOM     48  C   UNL A   1      41.265  28.964  27.044  1.00  0.00     0.049 A 
ATOM     49  C   UNL A   1      44.546  27.597  31.893  1.00  0.00     0.074 A 
ATOM     50  C   UNL A   1      42.016  28.851  25.891  1.00  0.00     0.029 A 
ATOM     51  N   UNL A   1      42.139  29.299  28.048  1.00  0.00    -0.354 N 
ATOM     52  N   UNL A   1      45.217  28.117  30.899  1.00  0.00    -0.248 NA
ATOM     53  C   UNL A   1      43.190  28.092  32.082  1.00  0.00     0.031 C 
ATOM     54  C   UNL A   1      43.362  28.690  26.338  1.00  0.00     0.029 A 
ATOM     55  C   UNL A   1      43.399  28.870  27.721  1.00  0.00     0.049 A 
ATOM     56  H   UNL A   1      41.899  29.774  28.876  1.00  0.00     0.167 HD
ATOM     57  C   UNL A   1      44.233  28.613  30.056  1.00  0.00     0.074 A 
ATOM     58  C   UNL A   1      42.998  28.575  30.849  1.00  0.00     0.031 C 
ATOM     59  C   UNL A   1      44.434  28.669  28.706  1.00  0.00     0.037 A 
BRANCH  46  60
ATOM     60  C   UNL A   1      39.014  29.293  28.250  1.00  0.00     0.064 A 
ATOM     61  C   UNL A   1      39.005  29.198  29.656  1.00  0.00     0.173 A 
ATOM     62  C   UNL A   1      37.901  29.947  27.678  1.00  0.00     0.173 A 
ATOM     63  F   UNL A   1      40.001  28.573  30.302  1.00  0.00    -0.203 F 
ATOM     64  C   UNL A   1      37.931  29.656  30.423  1.00  0.00     0.198 A 
ATOM     65  C   UNL A   1      36.854  30.447  28.451  1.00  0.00     0.198 A 
ATOM     66  F   UNL A   1      37.722  30.034  26.355  1.00  0.00    -0.203 F 
ATOM     67  F   UNL A   1      37.913  29.435  31.744  1.00  0.00    -0.200 F 
ATOM     68  C   UNL A   1      36.854  30.278  29.818  1.00  0.00     0.200 A 
ATOM     69  F   UNL A   1      35.805  31.023  27.843  1.00  0.00    -0.200 F 
ATOM     70  F   UNL A   1      35.800  30.673  30.544  1.00  0.00    -0.200 F 
ENDBRANCH  46  60
BRANCH  47  71
ATOM     71  C   UNL A   1      44.981  25.947  33.852  1.00  0.00     0.064 A 
ATOM     72  C   UNL A   1      43.894  25.677  34.717  1.00  0.00     0.173 A 
ATOM     73  C   UNL A   1      46.252  25.632  34.365  1.00  0.00     0.173 A 
ATOM     74  F   UNL A   1      42.634  25.889  34.308  1.00  0.00    -0.203 F 
ATOM     75  C   UNL A   1      44.075  25.112  35.993  1.00  0.00     0.198 A 
ATOM     76  C   UNL A   1      46.431  25.060  35.629  1.00  0.00     0.198 A 
ATOM     77  F   UNL A   1      47.345  25.782  33.604  1.00  0.00    -0.203 F 
ATOM     78  F   UNL A   1      43.016  24.826  36.765  1.00  0.00    -0.200 F 
ATOM     79  C   UNL A   1      45.344  24.790  36.441  1.00  0.00     0.200 A 
ATOM     80  F   UNL A   1      47.661  24.710  36.028  1.00  0.00    -0.200 F 
ATOM     81  F   UNL A   1      45.519  24.185  37.625  1.00  0.00    -0.200 F 
ENDBRANCH  47  71
BRANCH  59  82
ATOM     82  C   UNL A   1      45.821  28.388  28.189  1.00  0.00     0.064 A 
ATOM     83  C   UNL A   1      46.284  27.133  27.750  1.00  0.00     0.173 A 
ATOM     84  C   UNL A   1      46.677  29.479  28.009  1.00  0.00     0.173 A 
ATOM     85  F   UNL A   1      45.487  26.059  27.771  1.00  0.00    -0.203 F 
ATOM     86  C   UNL A   1      47.566  26.975  27.220  1.00  0.00     0.198 A 
ATOM     87  C   UNL A   1      47.940  29.328  27.447  1.00  0.00     0.198 A 
ATOM     88  F   UNL A   1      46.262  30.712  28.338  1.00  0.00    -0.203 F 
ATOM     89  F   UNL A   1      47.989  25.765  26.821  1.00  0.00    -0.200 F 
ATOM     90  C   UNL A   1      48.394  28.075  27.072  1.00  0.00     0.200 A 
ATOM     91  F   UNL A   1      48.707  30.408  27.245  1.00  0.00    -0.200 F 
ATOM     92  F   UNL A   1      49.618  27.933  26.543  1.00  0.00    -0.200 F 
ENDBRANCH  59  82
ENDBRANCH  33  34
ENDBRANCH  25  28
ENDBRANCH  23  24
ENDBRANCH  22  23
ENDBRANCH  21  22
ENDBRANCH   1  21
TORSDOF 15
ENDMDL
MODEL 2
REMARK VINA RESULT:     -11.8      2.911      7.080
REMARK SMILES COc1ccc(-n2ncc(C(=O)NCCCCCCNC(=O)c3ccc(-c4c5nc(c(-c6c(F)c(F)c(F)c(F)c6F)c6ccc([nH]6)c(-c6c(F)c(F)c(F)c(F)c6F)c6nc(c(-c7c(F)c(F)c(F)c(F)c7F)c7ccc4[nH]7)C=C6)C=C5)cc3)n2)nn1
REMARK SMILES IDX 16 1 15 2 14 3 13 4 11 5 12 6 10 8 7 9 8 10 86 11 9 12 6 13
REMARK SMILES IDX 3 14 4 15 88 16 5 17 87 18 2 19 1 20 17 21 18 22 19 23 20 24
REMARK SMILES IDX 21 25 22 27 23 28 24 29 85 30 25 31 84 32 26 33 27 34 28 35
REMARK SMILES IDX 78 36 29 37 83 38 77 39 79 40 30 41 82 42 76 43 75 44 31 46
REMARK SMILES IDX 63 47 43 48 62 49 44 50 47 51 61 52 80 53 45 54 46 55 60 57
REMARK SMILES IDX 81 58 48 59 32 60 33 61 41 62 34 63 35 64 39 65 42 66 36 67
REMARK SMILES IDX 37 68 40 69 38 70 64 71 65 72 73 73 66 74 67 75 71 76 74 77
REMARK SMILES IDX 68 78 69 79 72 80 70 81 49 82 50 83 58 84 51 85 52 86 56 87
REMARK SMILES IDX 59 88 53 89 54 90 57 91 55 92
REMARK H PARENT 13 7 20 26 79 45 47 56
REMARK Flexibility Score: inf
ROOT
ATOM      1  C   UNL A   1      31.600  27.150  25.234  1.00  0.00     0.002 C 
ENDROOT
BRANCH   1   2
ATOM      2  C   UNL A   1      31.400  26.388  23.927  1.00  0.00     0.021 C 
BRANCH   2   3
ATOM      3  C   UNL A   1      30.453  25.205  24.060  1.00  0.00     0.116 C 
BRANCH   3   4
ATOM      4  N   UNL A   1      30.293  24.806  25.439  1.00  0.00    -0.351 N 
ATOM      5  C   UNL A   1      30.766  23.738  26.158  1.00  0.00     0.273 C 
ATOM      6  O   UNL A   1      30.308  23.619  27.298  1.00  0.00    -0.267 OA
ATOM      7  H   UNL A   1      29.735  25.423  25.967  1.00  0.00     0.163 HD
BRANCH   5   8
ATOM      8  C   UNL A   1      31.791  22.829  25.627  1.00  0.00     0.170 A 
ATOM      9  N   UNL A   1      32.764  20.994  25.198  1.00  0.00    -0.130 N 
ATOM     10  N   UNL A   1      33.759  21.900  25.013  1.00  0.00    -0.154 NA
ATOM     11  N   UNL A   1      31.549  21.506  25.503  1.00  0.00    -0.141 NA
ATOM     12  C   UNL A   1      33.130  23.045  25.249  1.00  0.00     0.172 A 
BRANCH   9  13
ATOM     13  C   UNL A   1      33.035  19.609  25.089  1.00  0.00     0.196 A 
ATOM     14  C   UNL A   1      33.501  16.990  24.681  1.00  0.00     0.233 A 
ATOM     15  C   UNL A   1      34.505  17.880  24.355  1.00  0.00     0.074 A 
ATOM     16  N   UNL A   1      32.323  17.379  25.214  1.00  0.00    -0.110 NA
ATOM     17  C   UNL A   1      34.263  19.226  24.556  1.00  0.00     0.058 A 
ATOM     18  N   UNL A   1      32.096  18.706  25.454  1.00  0.00    -0.125 NA
BRANCH  14  19
ATOM     19  O   UNL A   1      33.642  15.653  24.418  1.00  0.00    -0.480 OA
ATOM     20  C   UNL A   1      32.938  14.897  25.397  1.00  0.00     0.280 C 
ENDBRANCH  14  19
ENDBRANCH   9  13
ENDBRANCH   5   8
ENDBRANCH   3   4
ENDBRANCH   2   3
ENDBRANCH   1   2
BRANCH   1  21
ATOM     21  C   UNL A   1      33.068  27.352  25.645  1.00  0.00     0.002 C 
BRANCH  21  22
ATOM     22  C   UNL A   1      33.298  28.188  26.913  1.00  0.00     0.021 C 
BRANCH  22  23
ATOM     23  C   UNL A   1      34.576  29.004  26.856  1.00  0.00     0.116 C 
BRANCH  23  24
ATOM     24  N   UNL A   1      34.343  30.424  27.114  1.00  0.00    -0.352 N 
ATOM     25  C   UNL A   1      35.035  31.265  27.984  1.00  0.00     0.251 C 
ATOM     26  H   UNL A   1      33.607  30.839  26.610  1.00  0.00     0.163 HD
ATOM     27  O   UNL A   1      34.553  32.281  28.413  1.00  0.00    -0.269 OA
BRANCH  25  28
ATOM     28  C   UNL A   1      36.435  30.900  28.288  1.00  0.00     0.039 A 
ATOM     29  C   UNL A   1      37.249  31.551  29.217  1.00  0.00     0.014 A 
ATOM     30  C   UNL A   1      36.947  29.852  27.552  1.00  0.00     0.014 A 
ATOM     31  C   UNL A   1      38.574  31.108  29.353  1.00  0.00     0.010 A 
ATOM     32  C   UNL A   1      37.999  29.182  28.080  1.00  0.00     0.010 A 
ATOM     33  C   UNL A   1      38.968  29.928  28.700  1.00  0.00    -0.014 A 
BRANCH  33  34
ATOM     34  C   UNL A   1      40.198  29.180  28.932  1.00  0.00     0.031 A 
ATOM     35  C   UNL A   1      40.368  28.925  30.386  1.00  0.00     0.074 A 
ATOM     36  C   UNL A   1      40.948  28.641  27.928  1.00  0.00     0.049 A 
ATOM     37  N   UNL A   1      41.130  29.613  31.166  1.00  0.00    -0.248 NA
ATOM     38  C   UNL A   1      39.418  28.068  31.127  1.00  0.00     0.031 C 
ATOM     39  C   UNL A   1      40.747  28.691  26.469  1.00  0.00     0.029 A 
ATOM     40  N   UNL A   1      42.106  27.900  28.015  1.00  0.00    -0.354 N 
ATOM     41  C   UNL A   1      40.990  29.054  32.428  1.00  0.00     0.074 A 
ATOM     42  C   UNL A   1      39.761  28.315  32.397  1.00  0.00     0.031 C 
ATOM     43  C   UNL A   1      41.596  27.836  25.838  1.00  0.00     0.029 A 
ATOM     44  C   UNL A   1      42.505  27.266  26.814  1.00  0.00     0.049 A 
ATOM     45  H   UNL A   1      42.617  27.817  28.852  1.00  0.00     0.167 HD
ATOM     46  C   UNL A   1      42.078  28.983  33.242  1.00  0.00     0.037 A 
ATOM     47  C   UNL A   1      43.559  26.402  26.653  1.00  0.00     0.037 A 
ATOM     48  C   UNL A   1      43.130  29.824  32.717  1.00  0.00     0.049 A 
ATOM     49  C   UNL A   1      44.488  26.662  27.788  1.00  0.00     0.074 A 
ATOM     50  C   UNL A   1      43.261  31.179  32.487  1.00  0.00     0.029 A 
ATOM     51  N   UNL A   1      44.029  29.199  31.889  1.00  0.00    -0.354 N 
ATOM     52  N   UNL A   1      45.126  27.795  27.912  1.00  0.00    -0.248 NA
ATOM     53  C   UNL A   1      44.204  25.946  29.023  1.00  0.00     0.031 C 
ATOM     54  C   UNL A   1      43.914  31.279  31.222  1.00  0.00     0.029 A 
ATOM     55  C   UNL A   1      44.295  30.002  30.812  1.00  0.00     0.049 A 
ATOM     56  H   UNL A   1      44.422  28.309  32.045  1.00  0.00     0.167 HD
ATOM     57  C   UNL A   1      44.885  28.172  29.224  1.00  0.00     0.074 A 
ATOM     58  C   UNL A   1      44.314  26.980  29.864  1.00  0.00     0.031 C 
ATOM     59  C   UNL A   1      44.832  29.493  29.573  1.00  0.00     0.037 A 
BRANCH  46  60
ATOM     60  C   UNL A   1      42.385  27.845  34.185  1.00  0.00     0.064 A 
ATOM     61  C   UNL A   1      42.954  26.669  33.655  1.00  0.00     0.173 A 
ATOM     62  C   UNL A   1      41.870  27.732  35.495  1.00  0.00     0.173 A 
ATOM     63  F   UNL A   1      43.451  26.656  32.408  1.00  0.00    -0.203 F 
ATOM     64  C   UNL A   1      42.942  25.459  34.353  1.00  0.00     0.198 A 
ATOM     65  C   UNL A   1      41.904  26.534  36.208  1.00  0.00     0.198 A 
ATOM     66  F   UNL A   1      41.218  28.733  36.098  1.00  0.00    -0.203 F 
ATOM     67  F   UNL A   1      43.386  24.343  33.760  1.00  0.00    -0.200 F 
ATOM     68  C   UNL A   1      42.413  25.393  35.629  1.00  0.00     0.200 A 
ATOM     69  F   UNL A   1      41.361  26.484  37.434  1.00  0.00    -0.200 F 
ATOM     70  F   UNL A   1      42.354  24.225  36.282  1.00  0.00    -0.200 F 
ENDBRANCH  46  60
BRANCH  47  71
ATOM     71  C   UNL A   1      43.648  25.129  25.866  1.00  0.00     0.064 A 
ATOM     72  C   UNL A   1      44.763  24.795  25.060  1.00  0.00     0.173 A 
ATOM     73  C   UNL A   1      42.770  24.067  26.150  1.00  0.00     0.173 A 
ATOM     74  F   UNL A   1      45.692  25.720  24.773  1.00  0.00    -0.203 F 
ATOM     75  C   UNL A   1      44.985  23.485  24.595  1.00  0.00     0.198 A 
ATOM     76  C   UNL A   1      42.998  22.762  25.696  1.00  0.00     0.198 A 
ATOM     77  F   UNL A   1      41.721  24.254  26.960  1.00  0.00    -0.203 F 
ATOM     78  F   UNL A   1      46.080  23.199  23.874  1.00  0.00    -0.200 F 
ATOM     79  C   UNL A   1      44.109  22.468  24.927  1.00  0.00     0.200 A 
ATOM     80  F   UNL A   1      42.166  21.779  26.067  1.00  0.00    -0.200 F 
ATOM     81  F   UNL A   1      44.353  21.204  24.549  1.00  0.00    -0.200 F 
ENDBRANCH  47  71
BRANCH  59  82
ATOM     82  C   UNL A   1      45.260  30.509  28.546  1.00  0.00     0.064 A 
ATOM     83  C   UNL A   1      44.407  31.127  27.613  1.00  0.00     0.173 A 
ATOM     84  C   UNL A   1      46.579  30.971  28.606  1.00  0.00     0.173 A 
ATOM     85  F   UNL A   1      43.103  30.834  27.571  1.00  0.00    -0.203 F 
ATOM     86  C   UNL A   1      44.875  32.112  26.741  1.00  0.00     0.198 A 
ATOM     87  C   UNL A   1      47.035  31.978  27.762  1.00  0.00     0.198 A 
ATOM     88  F   UNL A   1      47.417  30.473  29.527  1.00  0.00    -0.203 F 
ATOM     89  F   UNL A   1      44.045  32.677  25.849  1.00  0.00    -0.200 F 
ATOM     90  C   UNL A   1      46.191  32.534  26.816  1.00  0.00     0.200 A 
ATOM     91  F   UNL A   1      48.291  32.427  27.889  1.00  0.00    -0.200 F 
ATOM     92  F   UNL A   1      46.641  33.495  25.996  1.00  0.00    -0.200 F 
ENDBRANCH  59  82
ENDBRANCH  33  34
ENDBRANCH  25  28
ENDBRANCH  23  24
ENDBRANCH  22  23
ENDBRANCH  21  22
ENDBRANCH   1  21
TORSDOF 15
ENDMDL
MODEL 3
REMARK VINA RESULT:     -11.8      6.143     11.780
REMARK SMILES COc1ccc(-n2ncc(C(=O)NCCCCCCNC(=O)c3ccc(-c4c5nc(c(-c6c(F)c(F)c(F)c(F)c6F)c6ccc([nH]6)c(-c6c(F)c(F)c(F)c(F)c6F)c6nc(c(-c7c(F)c(F)c(F)c(F)c7F)c7ccc4[nH]7)C=C6)C=C5)cc3)n2)nn1
REMARK SMILES IDX 16 1 15 2 14 3 13 4 11 5 12 6 10 8 7 9 8 10 86 11 9 12 6 13
REMARK SMILES IDX 3 14 4 15 88 16 5 17 87 18 2 19 1 20 17 21 18 22 19 23 20 24
REMARK SMILES IDX 21 25 22 27 23 28 24 29 85 30 25 31 84 32 26 33 27 34 28 35
REMARK SMILES IDX 78 36 29 37 83 38 77 39 79 40 30 41 82 42 76 43 75 44 31 46
REMARK SMILES IDX 63 47 43 48 62 49 44 50 47 51 61 52 80 53 45 54 46 55 60 57
REMARK SMILES IDX 81 58 48 59 32 60 33 61 41 62 34 63 35 64 39 65 42 66 36 67
REMARK SMILES IDX 37 68 40 69 38 70 64 71 65 72 73 73 66 74 67 75 71 76 74 77
REMARK SMILES IDX 68 78 69 79 72 80 70 81 49 82 50 83 58 84 51 85 52 86 56 87
REMARK SMILES IDX 59 88 53 89 54 90 57 91 55 92
REMARK H PARENT 13 7 20 26 79 45 47 56
REMARK Flexibility Score: inf
ROOT
ATOM      1  C   UNL A   1      44.013  31.484  26.691  1.00  0.00     0.002 C 
ENDROOT
BRANCH   1   2
ATOM      2  C   UNL A   1      44.877  30.498  27.474  1.00  0.00     0.021 C 
BRANCH   2   3
ATOM      3  C   UNL A   1      44.369  29.066  27.403  1.00  0.00     0.116 C 
BRANCH   3   4
ATOM      4  N   UNL A   1      43.309  28.926  26.432  1.00  0.00    -0.351 N 
ATOM      5  C   UNL A   1      43.133  28.080  25.366  1.00  0.00     0.273 C 
ATOM      6  O   UNL A   1      42.168  28.333  24.641  1.00  0.00    -0.267 OA
ATOM      7  H   UNL A   1      42.569  29.562  26.560  1.00  0.00     0.163 HD
BRANCH   5   8
ATOM      8  C   UNL A   1      44.002  26.919  25.136  1.00  0.00     0.170 A 
ATOM      9  N   UNL A   1      44.589  24.882  25.065  1.00  0.00    -0.130 N 
ATOM     10  N   UNL A   1      45.783  25.529  25.027  1.00  0.00    -0.154 NA
ATOM     11  N   UNL A   1      43.490  25.671  25.065  1.00  0.00    -0.141 NA
ATOM     12  C   UNL A   1      45.402  26.801  25.036  1.00  0.00     0.172 A 
BRANCH   9  13
ATOM     13  C   UNL A   1      44.549  23.469  25.123  1.00  0.00     0.196 A 
ATOM     14  C   UNL A   1      44.541  20.779  25.037  1.00  0.00     0.233 A 
ATOM     15  C   UNL A   1      45.741  21.409  25.299  1.00  0.00     0.074 A 
ATOM     16  N   UNL A   1      43.386  21.451  24.851  1.00  0.00    -0.110 NA
ATOM     17  C   UNL A   1      45.748  22.792  25.335  1.00  0.00     0.058 A 
ATOM     18  N   UNL A   1      43.380  22.817  24.929  1.00  0.00    -0.125 NA
BRANCH  14  19
ATOM     19  O   UNL A   1      44.486  19.418  24.895  1.00  0.00    -0.480 OA
ATOM     20  C   UNL A   1      43.310  18.919  25.523  1.00  0.00     0.280 C 
ENDBRANCH  14  19
ENDBRANCH   9  13
ENDBRANCH   5   8
ENDBRANCH   3   4
ENDBRANCH   2   3
ENDBRANCH   1   2
BRANCH   1  21
ATOM     21  C   UNL A   1      44.792  32.422  25.755  1.00  0.00     0.002 C 
BRANCH  21  22
ATOM     22  C   UNL A   1      43.943  33.240  24.770  1.00  0.00     0.021 C 
BRANCH  22  23
ATOM     23  C   UNL A   1      43.790  34.691  25.191  1.00  0.00     0.116 C 
BRANCH  23  24
ATOM     24  N   UNL A   1      45.031  35.250  25.726  1.00  0.00    -0.352 N 
ATOM     25  C   UNL A   1      45.210  35.973  26.904  1.00  0.00     0.251 C 
ATOM     26  H   UNL A   1      45.841  35.095  25.189  1.00  0.00     0.163 HD
ATOM     27  O   UNL A   1      46.152  36.702  27.071  1.00  0.00    -0.269 OA
BRANCH  25  28
ATOM     28  C   UNL A   1      44.233  35.731  27.988  1.00  0.00     0.039 A 
ATOM     29  C   UNL A   1      43.208  36.607  28.352  1.00  0.00     0.014 A 
ATOM     30  C   UNL A   1      44.404  34.555  28.687  1.00  0.00     0.014 A 
ATOM     31  C   UNL A   1      42.393  36.247  29.437  1.00  0.00     0.010 A 
ATOM     32  C   UNL A   1      43.323  34.060  29.336  1.00  0.00     0.010 A 
ATOM     33  C   UNL A   1      42.517  34.959  29.984  1.00  0.00    -0.014 A 
BRANCH  33  34
ATOM     34  C   UNL A   1      41.593  34.323  30.917  1.00  0.00     0.031 A 
ATOM     35  C   UNL A   1      42.258  34.126  32.231  1.00  0.00     0.074 A 
ATOM     36  C   UNL A   1      40.268  34.136  30.648  1.00  0.00     0.049 A 
ATOM     37  N   UNL A   1      42.773  33.014  32.631  1.00  0.00    -0.248 NA
ATOM     38  C   UNL A   1      42.679  35.280  33.054  1.00  0.00     0.031 C 
ATOM     39  C   UNL A   1      39.493  34.472  29.441  1.00  0.00     0.029 A 
ATOM     40  N   UNL A   1      39.296  33.575  31.446  1.00  0.00    -0.354 N 
ATOM     41  C   UNL A   1      43.290  33.266  33.894  1.00  0.00     0.074 A 
ATOM     42  C   UNL A   1      43.444  34.689  33.979  1.00  0.00     0.031 C 
ATOM     43  C   UNL A   1      38.161  34.325  29.671  1.00  0.00     0.029 A 
ATOM     44  C   UNL A   1      37.967  33.756  30.990  1.00  0.00     0.049 A 
ATOM     45  H   UNL A   1      39.508  33.086  32.273  1.00  0.00     0.167 HD
ATOM     46  C   UNL A   1      43.207  32.297  34.845  1.00  0.00     0.037 A 
ATOM     47  C   UNL A   1      36.818  33.383  31.641  1.00  0.00     0.037 A 
ATOM     48  C   UNL A   1      42.859  31.039  34.225  1.00  0.00     0.049 A 
ATOM     49  C   UNL A   1      37.213  32.320  32.607  1.00  0.00     0.074 A 
ATOM     50  C   UNL A   1      43.466  30.218  33.295  1.00  0.00     0.029 A 
ATOM     51  N   UNL A   1      41.518  30.752  34.181  1.00  0.00    -0.354 N 
ATOM     52  N   UNL A   1      37.651  31.155  32.210  1.00  0.00    -0.248 NA
ATOM     53  C   UNL A   1      37.691  32.780  33.902  1.00  0.00     0.031 C 
ATOM     54  C   UNL A   1      42.413  29.795  32.430  1.00  0.00     0.029 A 
ATOM     55  C   UNL A   1      41.198  30.237  32.953  1.00  0.00     0.049 A 
ATOM     56  H   UNL A   1      40.882  30.895  34.920  1.00  0.00     0.167 HD
ATOM     57  C   UNL A   1      38.815  30.969  32.942  1.00  0.00     0.074 A 
ATOM     58  C   UNL A   1      38.781  32.009  33.980  1.00  0.00     0.031 C 
ATOM     59  C   UNL A   1      39.853  30.242  32.431  1.00  0.00     0.037 A 
BRANCH  46  60
ATOM     60  C   UNL A   1      42.954  32.541  36.314  1.00  0.00     0.064 A 
ATOM     61  C   UNL A   1      43.833  31.963  37.251  1.00  0.00     0.173 A 
ATOM     62  C   UNL A   1      41.743  33.038  36.843  1.00  0.00     0.173 A 
ATOM     63  F   UNL A   1      45.002  31.437  36.854  1.00  0.00    -0.203 F 
ATOM     64  C   UNL A   1      43.493  31.827  38.600  1.00  0.00     0.198 A 
ATOM     65  C   UNL A   1      41.428  32.944  38.198  1.00  0.00     0.198 A 
ATOM     66  F   UNL A   1      40.770  33.530  36.068  1.00  0.00    -0.203 F 
ATOM     67  F   UNL A   1      44.310  31.162  39.428  1.00  0.00    -0.200 F 
ATOM     68  C   UNL A   1      42.289  32.315  39.071  1.00  0.00     0.200 A 
ATOM     69  F   UNL A   1      40.243  33.399  38.631  1.00  0.00    -0.200 F 
ATOM     70  F   UNL A   1      41.937  32.142  40.352  1.00  0.00    -0.200 F 
ENDBRANCH  46  60
BRANCH  47  71
ATOM     71  C   UNL A   1      35.518  34.114  31.795  1.00  0.00     0.064 A 
ATOM     72  C   UNL A   1      35.292  35.083  32.802  1.00  0.00     0.173 A 
ATOM     73  C   UNL A   1      34.579  34.103  30.748  1.00  0.00     0.173 A 
ATOM     74  F   UNL A   1      36.157  35.217  33.819  1.00  0.00    -0.203 F 
ATOM     75  C   UNL A   1      34.213  35.984  32.744  1.00  0.00     0.198 A 
ATOM     76  C   UNL A   1      33.513  35.007  30.686  1.00  0.00     0.198 A 
ATOM     77  F   UNL A   1      34.736  33.274  29.708  1.00  0.00    -0.203 F 
ATOM     78  F   UNL A   1      34.060  36.921  33.693  1.00  0.00    -0.200 F 
ATOM     79  C   UNL A   1      33.333  35.954  31.677  1.00  0.00     0.200 A 
ATOM     80  F   UNL A   1      32.698  34.996  29.622  1.00  0.00    -0.200 F 
ATOM     81  F   UNL A   1      32.346  36.857  31.578  1.00  0.00    -0.200 F 
ENDBRANCH  47  71
BRANCH  59  82
ATOM     82  C   UNL A   1      39.612  29.470  31.160  1.00  0.00     0.064 A 
ATOM     83  C   UNL A   1      39.919  29.925  29.865  1.00  0.00     0.173 A 
ATOM     84  C   UNL A   1      39.168  28.149  31.281  1.00  0.00     0.173 A 
ATOM     85  F   UNL A   1      40.464  31.131  29.669  1.00  0.00    -0.203 F 
ATOM     86  C   UNL A   1      39.726  29.115  28.743  1.00  0.00     0.198 A 
ATOM     87  C   UNL A   1      39.011  27.330  30.168  1.00  0.00     0.198 A 
ATOM     88  F   UNL A   1      38.932  27.635  32.497  1.00  0.00    -0.203 F 
ATOM     89  F   UNL A   1      40.014  29.578  27.516  1.00  0.00    -0.200 F 
ATOM     90  C   UNL A   1      39.269  27.818  28.898  1.00  0.00     0.200 A 
ATOM     91  F   UNL A   1      38.634  26.055  30.334  1.00  0.00    -0.200 F 
ATOM     92  F   UNL A   1      39.103  27.027  27.828  1.00  0.00    -0.200 F 
ENDBRANCH  59  82
ENDBRANCH  33  34
ENDBRANCH  25  28
ENDBRANCH  23  24
ENDBRANCH  22  23
ENDBRANCH  21  22
ENDBRANCH   1  21
TORSDOF 15
ENDMDL
