MODEL 1
REMARK VINA RESULT:     -11.9      0.000      0.000
REMARK SMILES O=C(COc1ccc(/C=C/C(=O)c2ccc(F)cc2F)cc1[N+](=O)[O-])NCCCCCCNC(=O)c1ccc(-c2c3nc(c(-c4c(F)c(F)c(F)c(F)c4F)c4ccc([nH]4)c(-c4c(F)c(F)c(F)c(F)c4F)c4nc(c(-c5c(F)c(F)c(F)c(F)c5F)c5ccc2[nH]5)C=C4)C=C3)cc1
REMARK SMILES IDX 28 1 27 2 26 3 1 4 2 5 3 7 4 8 5 9 6 10 22 11 7 12 21 13
REMARK SMILES IDX 8 14 23 15 24 16 25 17 9 18 10 19 11 20 12 21 13 22 14 23
REMARK SMILES IDX 19 24 15 25 18 26 20 27 16 28 17 29 29 30 30 31 31 32 32 33
REMARK SMILES IDX 33 34 34 35 35 37 36 38 37 39 98 40 38 41 97 42 39 43 40 44
REMARK SMILES IDX 41 45 91 46 42 47 96 48 90 49 92 50 43 51 95 52 89 53 88 54
REMARK SMILES IDX 44 56 76 57 56 58 75 59 57 60 60 61 74 62 93 63 58 64 59 65
REMARK SMILES IDX 73 67 94 68 61 69 45 70 46 71 54 72 47 73 48 74 52 75 55 76
REMARK SMILES IDX 49 77 50 78 53 79 51 80 77 81 78 82 86 83 79 84 80 85 84 86
REMARK SMILES IDX 87 87 81 88 82 89 85 90 83 91 62 92 63 93 71 94 64 95 65 96
REMARK SMILES IDX 69 97 72 98 66 99 67 100 70 101 68 102
REMARK H PARENT 26 6 33 36 92 55 60 66
REMARK Flexibility Score: inf
ROOT
ATOM      1  C   UNL A   1      31.825  28.309  27.625  1.00  0.00     0.021 C 
ENDROOT
BRANCH   1   2
ATOM      2  C   UNL A   1      31.093  27.475  26.580  1.00  0.00     0.116 C 
BRANCH   2   3
ATOM      3  N   UNL A   1      31.454  26.069  26.602  1.00  0.00    -0.353 N 
ATOM      4  O   UNL A   1      33.067  26.150  24.960  1.00  0.00    -0.271 OA
ATOM      5  C   UNL A   1      32.500  25.549  25.867  1.00  0.00     0.257 C 
ATOM      6  H   UNL A   1      30.928  25.457  27.168  1.00  0.00     0.163 HD
BRANCH   5   7
ATOM      7  C   UNL A   1      32.910  24.131  26.283  1.00  0.00     0.329 C 
BRANCH   7   8
ATOM      8  O   UNL A   1      33.384  23.327  25.194  1.00  0.00    -0.477 OA
BRANCH   8   9
ATOM      9  C   UNL A   1      34.691  22.944  25.336  1.00  0.00     0.197 A 
ATOM     10  C   UNL A   1      35.688  23.905  25.142  1.00  0.00     0.054 A 
ATOM     11  C   UNL A   1      35.093  21.624  25.534  1.00  0.00     0.311 A 
ATOM     12  C   UNL A   1      37.050  23.543  25.177  1.00  0.00     0.012 A 
ATOM     13  C   UNL A   1      36.438  21.262  25.627  1.00  0.00     0.098 A 
ATOM     14  C   UNL A   1      37.432  22.219  25.426  1.00  0.00    -0.018 A 
BRANCH  11  15
ATOM     15  N   UNL A   1      34.158  20.532  25.467  1.00  0.00     0.066 N 
ATOM     16  O   UNL A   1      33.246  20.517  26.305  1.00  0.00    -0.258 OA
ATOM     17  O   UNL A   1      34.385  19.651  24.626  1.00  0.00    -0.258 OA
ENDBRANCH  11  15
BRANCH  14  18
ATOM     18  C   UNL A   1      38.811  21.719  25.466  1.00  0.00     0.012 C 
ATOM     19  C   UNL A   1      39.651  21.828  26.505  1.00  0.00     0.053 C 
BRANCH  19  20
ATOM     20  C   UNL A   1      41.085  21.433  26.416  1.00  0.00     0.188 C 
ATOM     21  O   UNL A   1      41.385  20.249  26.299  1.00  0.00    -0.289 OA
BRANCH  20  22
ATOM     22  C   UNL A   1      42.156  22.458  26.450  1.00  0.00     0.058 A 
ATOM     23  C   UNL A   1      42.917  22.671  25.293  1.00  0.00     0.018 A 
ATOM     24  C   UNL A   1      42.449  23.186  27.609  1.00  0.00     0.137 A 
ATOM     25  C   UNL A   1      43.928  23.634  25.293  1.00  0.00     0.040 A 
ATOM     26  C   UNL A   1      43.457  24.146  27.612  1.00  0.00     0.079 A 
ATOM     27  F   UNL A   1      41.772  22.975  28.746  1.00  0.00    -0.206 F 
ATOM     28  C   UNL A   1      44.184  24.365  26.450  1.00  0.00     0.126 A 
ATOM     29  F   UNL A   1      45.152  25.291  26.443  1.00  0.00    -0.207 F 
ENDBRANCH  20  22
ENDBRANCH  19  20
ENDBRANCH  14  18
ENDBRANCH   8   9
ENDBRANCH   7   8
ENDBRANCH   5   7
ENDBRANCH   2   3
ENDBRANCH   1   2
BRANCH   1  30
ATOM     30  C   UNL A   1      32.490  29.589  27.104  1.00  0.00     0.002 C 
BRANCH  30  31
ATOM     31  C   UNL A   1      31.662  30.448  26.143  1.00  0.00     0.002 C 
BRANCH  31  32
ATOM     32  C   UNL A   1      31.426  31.897  26.568  1.00  0.00     0.021 C 
BRANCH  32  33
ATOM     33  C   UNL A   1      32.603  32.585  27.251  1.00  0.00     0.116 C 
BRANCH  33  34
ATOM     34  N   UNL A   1      32.341  33.974  27.590  1.00  0.00    -0.352 N 
ATOM     35  C   UNL A   1      32.961  34.781  28.516  1.00  0.00     0.251 C 
ATOM     36  H   UNL A   1      31.612  34.399  27.083  1.00  0.00     0.163 HD
ATOM     37  O   UNL A   1      32.528  35.902  28.747  1.00  0.00    -0.269 OA
BRANCH  35  38
ATOM     38  C   UNL A   1      34.138  34.280  29.263  1.00  0.00     0.039 A 
ATOM     39  C   UNL A   1      33.928  33.615  30.475  1.00  0.00     0.014 A 
ATOM     40  C   UNL A   1      35.435  34.457  28.777  1.00  0.00     0.014 A 
ATOM     41  C   UNL A   1      35.014  33.067  31.162  1.00  0.00     0.010 A 
ATOM     42  C   UNL A   1      36.508  33.846  29.424  1.00  0.00     0.010 A 
ATOM     43  C   UNL A   1      36.309  33.144  30.623  1.00  0.00    -0.014 A 
BRANCH  43  44
ATOM     44  C   UNL A   1      37.462  32.485  31.291  1.00  0.00     0.031 A 
ATOM     45  C   UNL A   1      38.164  31.332  30.630  1.00  0.00     0.074 A 
ATOM     46  C   UNL A   1      37.834  32.884  32.523  1.00  0.00     0.049 A 
ATOM     47  N   UNL A   1      39.144  30.589  31.082  1.00  0.00    -0.248 NA
ATOM     48  C   UNL A   1      37.684  30.944  29.296  1.00  0.00     0.031 C 
ATOM     49  C   UNL A   1      37.204  33.959  33.290  1.00  0.00     0.029 A 
ATOM     50  N   UNL A   1      38.828  32.424  33.352  1.00  0.00    -0.354 N 
ATOM     51  C   UNL A   1      39.387  29.643  30.096  1.00  0.00     0.074 A 
ATOM     52  C   UNL A   1      38.416  29.868  29.046  1.00  0.00     0.031 C 
ATOM     53  C   UNL A   1      37.838  34.091  34.466  1.00  0.00     0.029 A 
ATOM     54  C   UNL A   1      38.891  33.084  34.554  1.00  0.00     0.049 A 
ATOM     55  H   UNL A   1      39.437  31.690  33.108  1.00  0.00     0.167 HD
ATOM     56  C   UNL A   1      40.347  28.688  30.058  1.00  0.00     0.037 A 
ATOM     57  C   UNL A   1      39.701  32.893  35.614  1.00  0.00     0.037 A 
ATOM     58  C   UNL A   1      41.322  28.478  31.096  1.00  0.00     0.049 A 
ATOM     59  C   UNL A   1      40.748  31.815  35.554  1.00  0.00     0.074 A 
ATOM     60  C   UNL A   1      42.371  27.576  31.125  1.00  0.00     0.029 A 
ATOM     61  N   UNL A   1      41.362  29.175  32.296  1.00  0.00    -0.354 N 
ATOM     62  N   UNL A   1      41.017  30.974  34.585  1.00  0.00    -0.248 NA
ATOM     63  C   UNL A   1      41.611  31.664  36.734  1.00  0.00     0.031 C 
ATOM     64  C   UNL A   1      43.011  27.688  32.364  1.00  0.00     0.029 A 
ATOM     65  C   UNL A   1      42.402  28.703  33.083  1.00  0.00     0.049 A 
ATOM     66  H   UNL A   1      40.744  29.898  32.550  1.00  0.00     0.167 HD
ATOM     67  C   UNL A   1      42.095  30.216  35.024  1.00  0.00     0.074 A 
ATOM     68  C   UNL A   1      42.441  30.708  36.341  1.00  0.00     0.031 C 
ATOM     69  C   UNL A   1      42.741  29.206  34.390  1.00  0.00     0.037 A 
BRANCH  56  70
ATOM     70  C   UNL A   1      40.389  27.792  28.851  1.00  0.00     0.064 A 
ATOM     71  C   UNL A   1      41.173  28.103  27.729  1.00  0.00     0.173 A 
ATOM     72  C   UNL A   1      39.662  26.592  28.829  1.00  0.00     0.173 A 
ATOM     73  F   UNL A   1      41.881  29.243  27.694  1.00  0.00    -0.203 F 
ATOM     74  C   UNL A   1      41.201  27.265  26.618  1.00  0.00     0.198 A 
ATOM     75  C   UNL A   1      39.718  25.739  27.729  1.00  0.00     0.198 A 
ATOM     76  F   UNL A   1      38.902  26.241  29.877  1.00  0.00    -0.203 F 
ATOM     77  F   UNL A   1      41.912  27.611  25.536  1.00  0.00    -0.200 F 
ATOM     78  C   UNL A   1      40.479  26.081  26.621  1.00  0.00     0.200 A 
ATOM     79  F   UNL A   1      39.033  24.587  27.741  1.00  0.00    -0.200 F 
ATOM     80  F   UNL A   1      40.511  25.271  25.553  1.00  0.00    -0.200 F 
ENDBRANCH  56  70
BRANCH  57  81
ATOM     81  C   UNL A   1      39.566  33.759  36.816  1.00  0.00     0.064 A 
ATOM     82  C   UNL A   1      40.244  34.983  36.901  1.00  0.00     0.173 A 
ATOM     83  C   UNL A   1      38.765  33.382  37.902  1.00  0.00     0.173 A 
ATOM     84  F   UNL A   1      41.040  35.379  35.897  1.00  0.00    -0.203 F 
ATOM     85  C   UNL A   1      40.141  35.787  38.035  1.00  0.00     0.198 A 
ATOM     86  C   UNL A   1      38.637  34.201  39.023  1.00  0.00     0.198 A 
ATOM     87  F   UNL A   1      38.091  32.222  37.871  1.00  0.00    -0.203 F 
ATOM     88  F   UNL A   1      40.838  36.929  38.109  1.00  0.00    -0.200 F 
ATOM     89  C   UNL A   1      39.333  35.398  39.092  1.00  0.00     0.200 A 
ATOM     90  F   UNL A   1      37.844  33.828  40.037  1.00  0.00    -0.200 F 
ATOM     91  F   UNL A   1      39.231  36.173  40.180  1.00  0.00    -0.200 F 
ENDBRANCH  57  81
BRANCH  69  92
ATOM     92  C   UNL A   1      43.915  28.588  35.095  1.00  0.00     0.064 A 
ATOM     93  C   UNL A   1      45.211  29.107  34.965  1.00  0.00     0.173 A 
ATOM     94  C   UNL A   1      43.732  27.485  35.943  1.00  0.00     0.173 A 
ATOM     95  F   UNL A   1      45.444  30.151  34.155  1.00  0.00    -0.203 F 
ATOM     96  C   UNL A   1      46.285  28.527  35.637  1.00  0.00     0.198 A 
ATOM     97  C   UNL A   1      44.801  26.929  36.639  1.00  0.00     0.198 A 
ATOM     98  F   UNL A   1      42.510  26.953  36.107  1.00  0.00    -0.203 F 
ATOM     99  F   UNL A   1      47.523  29.008  35.459  1.00  0.00    -0.200 F 
ATOM    100  C   UNL A   1      46.077  27.446  36.480  1.00  0.00     0.200 A 
ATOM    101  F   UNL A   1      44.595  25.893  37.465  1.00  0.00    -0.200 F 
ATOM    102  F   UNL A   1      47.110  26.895  37.133  1.00  0.00    -0.200 F 
ENDBRANCH  69  92
ENDBRANCH  43  44
ENDBRANCH  35  38
ENDBRANCH  33  34
ENDBRANCH  32  33
ENDBRANCH  31  32
ENDBRANCH  30  31
ENDBRANCH   1  30
TORSDOF 19
ENDMDL
MODEL 2
REMARK VINA RESULT:     -11.6      1.027      1.967
REMARK SMILES O=C(COc1ccc(/C=C/C(=O)c2ccc(F)cc2F)cc1[N+](=O)[O-])NCCCCCCNC(=O)c1ccc(-c2c3nc(c(-c4c(F)c(F)c(F)c(F)c4F)c4ccc([nH]4)c(-c4c(F)c(F)c(F)c(F)c4F)c4nc(c(-c5c(F)c(F)c(F)c(F)c5F)c5ccc2[nH]5)C=C4)C=C3)cc1
REMARK SMILES IDX 28 1 27 2 26 3 1 4 2 5 3 7 4 8 5 9 6 10 22 11 7 12 21 13
REMARK SMILES IDX 8 14 23 15 24 16 25 17 9 18 10 19 11 20 12 21 13 22 14 23
REMARK SMILES IDX 19 24 15 25 18 26 20 27 16 28 17 29 29 30 30 31 31 32 32 33
REMARK SMILES IDX 33 34 34 35 35 37 36 38 37 39 98 40 38 41 97 42 39 43 40 44
REMARK SMILES IDX 41 45 91 46 42 47 96 48 90 49 92 50 43 51 95 52 89 53 88 54
REMARK SMILES IDX 44 56 76 57 56 58 75 59 57 60 60 61 74 62 93 63 58 64 59 65
REMARK SMILES IDX 73 67 94 68 61 69 45 70 46 71 54 72 47 73 48 74 52 75 55 76
REMARK SMILES IDX 49 77 50 78 53 79 51 80 77 81 78 82 86 83 79 84 80 85 84 86
REMARK SMILES IDX 87 87 81 88 82 89 85 90 83 91 62 92 63 93 71 94 64 95 65 96
REMARK SMILES IDX 69 97 72 98 66 99 67 100 70 101 68 102
REMARK H PARENT 26 6 33 36 92 55 60 66
REMARK Flexibility Score: inf
ROOT
ATOM      1  C   UNL A   1      31.664  28.424  24.932  1.00  0.00     0.021 C 
ENDROOT
BRANCH   1   2
ATOM      2  C   UNL A   1      31.754  27.880  23.511  1.00  0.00     0.116 C 
BRANCH   2   3
ATOM      3  N   UNL A   1      32.606  26.711  23.389  1.00  0.00    -0.353 N 
ATOM      4  O   UNL A   1      30.933  25.129  23.320  1.00  0.00    -0.271 OA
ATOM      5  C   UNL A   1      32.113  25.439  23.184  1.00  0.00     0.257 C 
ATOM      6  H   UNL A   1      33.581  26.831  23.457  1.00  0.00     0.163 HD
BRANCH   5   7
ATOM      7  C   UNL A   1      33.177  24.419  22.762  1.00  0.00     0.329 C 
BRANCH   7   8
ATOM      8  O   UNL A   1      33.116  23.187  23.496  1.00  0.00    -0.477 OA
BRANCH   8   9
ATOM      9  C   UNL A   1      34.331  22.796  23.993  1.00  0.00     0.197 A 
ATOM     10  C   UNL A   1      35.475  23.066  23.236  1.00  0.00     0.054 A 
ATOM     11  C   UNL A   1      34.483  22.028  25.147  1.00  0.00     0.311 A 
ATOM     12  C   UNL A   1      36.738  22.598  23.653  1.00  0.00     0.012 A 
ATOM     13  C   UNL A   1      35.734  21.606  25.600  1.00  0.00     0.098 A 
ATOM     14  C   UNL A   1      36.874  21.869  24.842  1.00  0.00    -0.018 A 
BRANCH  11  15
ATOM     15  N   UNL A   1      33.351  21.467  25.836  1.00  0.00     0.066 N 
ATOM     16  O   UNL A   1      32.769  20.520  25.290  1.00  0.00    -0.258 OA
ATOM     17  O   UNL A   1      33.000  22.027  26.884  1.00  0.00    -0.258 OA
ENDBRANCH  11  15
BRANCH  14  18
ATOM     18  C   UNL A   1      38.127  21.313  25.365  1.00  0.00     0.012 C 
ATOM     19  C   UNL A   1      39.021  21.973  26.114  1.00  0.00     0.053 C 
BRANCH  19  20
ATOM     20  C   UNL A   1      40.342  21.388  26.479  1.00  0.00     0.188 C 
ATOM     21  O   UNL A   1      40.540  20.187  26.326  1.00  0.00    -0.289 OA
BRANCH  20  22
ATOM     22  C   UNL A   1      41.428  22.246  27.011  1.00  0.00     0.058 A 
ATOM     23  C   UNL A   1      41.392  22.610  28.364  1.00  0.00     0.018 A 
ATOM     24  C   UNL A   1      42.460  22.727  26.198  1.00  0.00     0.137 A 
ATOM     25  C   UNL A   1      42.405  23.411  28.896  1.00  0.00     0.040 A 
ATOM     26  C   UNL A   1      43.470  23.527  26.724  1.00  0.00     0.079 A 
ATOM     27  F   UNL A   1      42.499  22.437  24.890  1.00  0.00    -0.206 F 
ATOM     28  C   UNL A   1      43.435  23.858  28.073  1.00  0.00     0.126 A 
ATOM     29  F   UNL A   1      44.406  24.622  28.589  1.00  0.00    -0.207 F 
ENDBRANCH  20  22
ENDBRANCH  19  20
ENDBRANCH  14  18
ENDBRANCH   8   9
ENDBRANCH   7   8
ENDBRANCH   5   7
ENDBRANCH   2   3
ENDBRANCH   1   2
BRANCH   1  30
ATOM     30  C   UNL A   1      31.340  29.918  25.051  1.00  0.00     0.002 C 
BRANCH  30  31
ATOM     31  C   UNL A   1      31.476  30.539  26.444  1.00  0.00     0.002 C 
BRANCH  31  32
ATOM     32  C   UNL A   1      31.445  32.066  26.509  1.00  0.00     0.021 C 
BRANCH  32  33
ATOM     33  C   UNL A   1      32.578  32.715  27.296  1.00  0.00     0.116 C 
BRANCH  33  34
ATOM     34  N   UNL A   1      32.326  34.110  27.622  1.00  0.00    -0.352 N 
ATOM     35  C   UNL A   1      32.954  34.922  28.539  1.00  0.00     0.251 C 
ATOM     36  H   UNL A   1      31.600  34.535  27.113  1.00  0.00     0.163 HD
ATOM     37  O   UNL A   1      32.531  36.048  28.760  1.00  0.00    -0.269 OA
BRANCH  35  38
ATOM     38  C   UNL A   1      34.129  34.419  29.288  1.00  0.00     0.039 A 
ATOM     39  C   UNL A   1      33.923  33.831  30.540  1.00  0.00     0.014 A 
ATOM     40  C   UNL A   1      35.420  34.521  28.767  1.00  0.00     0.014 A 
ATOM     41  C   UNL A   1      35.004  33.281  31.234  1.00  0.00     0.010 A 
ATOM     42  C   UNL A   1      36.485  33.907  29.425  1.00  0.00     0.010 A 
ATOM     43  C   UNL A   1      36.288  33.280  30.665  1.00  0.00    -0.014 A 
BRANCH  43  44
ATOM     44  C   UNL A   1      37.431  32.617  31.345  1.00  0.00     0.031 A 
ATOM     45  C   UNL A   1      38.131  31.456  30.695  1.00  0.00     0.074 A 
ATOM     46  C   UNL A   1      37.797  33.019  32.578  1.00  0.00     0.049 A 
ATOM     47  N   UNL A   1      39.103  30.709  31.158  1.00  0.00    -0.248 NA
ATOM     48  C   UNL A   1      37.659  31.065  29.358  1.00  0.00     0.031 C 
ATOM     49  C   UNL A   1      37.168  34.102  33.335  1.00  0.00     0.029 A 
ATOM     50  N   UNL A   1      38.780  32.555  33.417  1.00  0.00    -0.354 N 
ATOM     51  C   UNL A   1      39.347  29.757  30.178  1.00  0.00     0.074 A 
ATOM     52  C   UNL A   1      38.386  29.983  29.120  1.00  0.00     0.031 C 
ATOM     53  C   UNL A   1      37.793  34.234  34.515  1.00  0.00     0.029 A 
ATOM     54  C   UNL A   1      38.839  33.221  34.617  1.00  0.00     0.049 A 
ATOM     55  H   UNL A   1      39.387  31.817  33.181  1.00  0.00     0.167 HD
ATOM     56  C   UNL A   1      40.301  28.795  30.152  1.00  0.00     0.037 A 
ATOM     57  C   UNL A   1      39.639  33.029  35.684  1.00  0.00     0.037 A 
ATOM     58  C   UNL A   1      41.266  28.583  31.199  1.00  0.00     0.049 A 
ATOM     59  C   UNL A   1      40.680  31.944  35.637  1.00  0.00     0.074 A 
ATOM     60  C   UNL A   1      42.310  27.675  31.240  1.00  0.00     0.029 A 
ATOM     61  N   UNL A   1      41.302  29.285  32.395  1.00  0.00    -0.354 N 
ATOM     62  N   UNL A   1      40.950  31.097  34.674  1.00  0.00    -0.248 NA
ATOM     63  C   UNL A   1      41.532  31.793  36.824  1.00  0.00     0.031 C 
ATOM     64  C   UNL A   1      42.941  27.788  32.483  1.00  0.00     0.029 A 
ATOM     65  C   UNL A   1      42.332  28.811  33.193  1.00  0.00     0.049 A 
ATOM     66  H   UNL A   1      40.687  30.014  32.641  1.00  0.00     0.167 HD
ATOM     67  C   UNL A   1      42.020  30.334  35.124  1.00  0.00     0.074 A 
ATOM     68  C   UNL A   1      42.359  30.830  36.442  1.00  0.00     0.031 C 
ATOM     69  C   UNL A   1      42.664  29.317  34.501  1.00  0.00     0.037 A 
BRANCH  56  70
ATOM     70  C   UNL A   1      40.347  27.894  28.949  1.00  0.00     0.064 A 
ATOM     71  C   UNL A   1      41.115  28.212  27.818  1.00  0.00     0.173 A 
ATOM     72  C   UNL A   1      39.640  26.682  28.940  1.00  0.00     0.173 A 
ATOM     73  F   UNL A   1      41.804  29.363  27.770  1.00  0.00    -0.203 F 
ATOM     74  C   UNL A   1      41.146  27.368  26.711  1.00  0.00     0.198 A 
ATOM     75  C   UNL A   1      39.700  25.824  27.844  1.00  0.00     0.198 A 
ATOM     76  F   UNL A   1      38.896  26.324  29.997  1.00  0.00    -0.203 F 
ATOM     77  F   UNL A   1      41.842  27.720  25.621  1.00  0.00    -0.200 F 
ATOM     78  C   UNL A   1      40.445  26.172  26.727  1.00  0.00     0.200 A 
ATOM     79  F   UNL A   1      39.035  24.661  27.869  1.00  0.00    -0.200 F 
ATOM     80  F   UNL A   1      40.480  25.357  25.663  1.00  0.00    -0.200 F 
ENDBRANCH  56  70
BRANCH  57  81
ATOM     81  C   UNL A   1      39.500  33.902  36.881  1.00  0.00     0.064 A 
ATOM     82  C   UNL A   1      38.768  33.480  37.999  1.00  0.00     0.173 A 
ATOM     83  C   UNL A   1      40.091  35.172  36.931  1.00  0.00     0.173 A 
ATOM     84  F   UNL A   1      38.165  32.281  37.991  1.00  0.00    -0.203 F 
ATOM     85  C   UNL A   1      38.615  34.302  39.113  1.00  0.00     0.198 A 
ATOM     86  C   UNL A   1      39.964  35.982  38.058  1.00  0.00     0.198 A 
ATOM     87  F   UNL A   1      40.806  35.623  35.890  1.00  0.00    -0.203 F 
ATOM     88  F   UNL A   1      37.869  33.893  40.148  1.00  0.00    -0.200 F 
ATOM     89  C   UNL A   1      39.218  35.551  39.144  1.00  0.00     0.200 A 
ATOM     90  F   UNL A   1      40.561  37.182  38.090  1.00  0.00    -0.200 F 
ATOM     91  F   UNL A   1      39.074  36.340  40.217  1.00  0.00    -0.200 F 
ENDBRANCH  57  81
BRANCH  69  92
ATOM     92  C   UNL A   1      43.829  28.694  35.217  1.00  0.00     0.064 A 
ATOM     93  C   UNL A   1      43.661  27.627  36.111  1.00  0.00     0.173 A 
ATOM     94  C   UNL A   1      45.134  29.148  34.973  1.00  0.00     0.173 A 
ATOM     95  F   UNL A   1      42.433  27.164  36.391  1.00  0.00    -0.203 F 
ATOM     96  C   UNL A   1      44.756  27.055  36.755  1.00  0.00     0.198 A 
ATOM     97  C   UNL A   1      46.229  28.551  35.593  1.00  0.00     0.198 A 
ATOM     98  F   UNL A   1      45.351  30.162  34.122  1.00  0.00    -0.203 F 
ATOM     99  F   UNL A   1      44.568  26.069  37.644  1.00  0.00    -0.200 F 
ATOM    100  C   UNL A   1      46.038  27.511  36.489  1.00  0.00     0.200 A 
ATOM    101  F   UNL A   1      47.468  28.985  35.322  1.00  0.00    -0.200 F 
ATOM    102  F   UNL A   1      47.091  26.953  37.103  1.00  0.00    -0.200 F 
ENDBRANCH  69  92
ENDBRANCH  43  44
ENDBRANCH  35  38
ENDBRANCH  33  34
ENDBRANCH  32  33
ENDBRANCH  31  32
ENDBRANCH  30  31
ENDBRANCH   1  30
TORSDOF 19
ENDMDL
MODEL 3
REMARK VINA RESULT:     -11.6      5.757     11.814
REMARK SMILES O=C(COc1ccc(/C=C/C(=O)c2ccc(F)cc2F)cc1[N+](=O)[O-])NCCCCCCNC(=O)c1ccc(-c2c3nc(c(-c4c(F)c(F)c(F)c(F)c4F)c4ccc([nH]4)c(-c4c(F)c(F)c(F)c(F)c4F)c4nc(c(-c5c(F)c(F)c(F)c(F)c5F)c5ccc2[nH]5)C=C4)C=C3)cc1
REMARK SMILES IDX 28 1 27 2 26 3 1 4 2 5 3 7 4 8 5 9 6 10 22 11 7 12 21 13
REMARK SMILES IDX 8 14 23 15 24 16 25 17 9 18 10 19 11 20 12 21 13 22 14 23
REMARK SMILES IDX 19 24 15 25 18 26 20 27 16 28 17 29 29 30 30 31 31 32 32 33
REMARK SMILES IDX 33 34 34 35 35 37 36 38 37 39 98 40 38 41 97 42 39 43 40 44
REMARK SMILES IDX 41 45 91 46 42 47 96 48 90 49 92 50 43 51 95 52 89 53 88 54
REMARK SMILES IDX 44 56 76 57 56 58 75 59 57 60 60 61 74 62 93 63 58 64 59 65
REMARK SMILES IDX 73 67 94 68 61 69 45 70 46 71 54 72 47 73 48 74 52 75 55 76
REMARK SMILES IDX 49 77 50 78 53 79 51 80 77 81 78 82 86 83 79 84 80 85 84 86
REMARK SMILES IDX 87 87 81 88 82 89 85 90 83 91 62 92 63 93 71 94 64 95 65 96
REMARK SMILES IDX 69 97 72 98 66 99 67 100 70 101 68 102
REMARK H PARENT 26 6 33 36 92 55 60 66
REMARK Flexibility Score: inf
ROOT
ATOM      1  C   UNL A   1      40.842  21.780  27.385  1.00  0.00     0.021 C 
ENDROOT
BRANCH   1   2
ATOM      2  C   UNL A   1      39.926  21.503  26.199  1.00  0.00     0.116 C 
BRANCH   2   3
ATOM      3  N   UNL A   1      38.981  22.573  25.933  1.00  0.00    -0.353 N 
ATOM      4  O   UNL A   1      37.172  21.248  25.405  1.00  0.00    -0.271 OA
ATOM      5  C   UNL A   1      37.646  22.349  25.672  1.00  0.00     0.257 C 
ATOM      6  H   UNL A   1      39.309  23.502  25.938  1.00  0.00     0.163 HD
BRANCH   5   7
ATOM      7  C   UNL A   1      36.776  23.610  25.745  1.00  0.00     0.329 C 
BRANCH   7   8
ATOM      8  O   UNL A   1      35.562  23.430  26.489  1.00  0.00    -0.477 OA
BRANCH   8   9
ATOM      9  C   UNL A   1      34.453  23.888  25.828  1.00  0.00     0.197 A 
ATOM     10  C   UNL A   1      34.567  25.061  25.076  1.00  0.00     0.054 A 
ATOM     11  C   UNL A   1      33.184  23.328  25.968  1.00  0.00     0.311 A 
ATOM     12  C   UNL A   1      33.434  25.630  24.459  1.00  0.00     0.012 A 
ATOM     13  C   UNL A   1      32.065  23.849  25.317  1.00  0.00     0.098 A 
ATOM     14  C   UNL A   1      32.177  25.022  24.572  1.00  0.00    -0.018 A 
BRANCH  11  15
ATOM     15  N   UNL A   1      32.917  22.295  26.934  1.00  0.00     0.066 N 
ATOM     16  O   UNL A   1      33.160  21.129  26.597  1.00  0.00    -0.258 OA
ATOM     17  O   UNL A   1      32.391  22.648  28.000  1.00  0.00    -0.258 OA
ENDBRANCH  11  15
BRANCH  14  18
ATOM     18  C   UNL A   1      30.927  25.529  23.995  1.00  0.00     0.012 C 
ATOM     19  C   UNL A   1      30.442  26.769  24.149  1.00  0.00     0.053 C 
BRANCH  19  20
ATOM     20  C   UNL A   1      29.091  27.164  23.661  1.00  0.00     0.188 C 
ATOM     21  O   UNL A   1      28.132  26.423  23.855  1.00  0.00    -0.289 OA
BRANCH  20  22
ATOM     22  C   UNL A   1      28.887  28.451  22.955  1.00  0.00     0.058 A 
ATOM     23  C   UNL A   1      29.973  29.024  22.280  1.00  0.00     0.018 A 
ATOM     24  C   UNL A   1      27.659  29.123  22.976  1.00  0.00     0.137 A 
ATOM     25  C   UNL A   1      29.810  30.233  21.600  1.00  0.00     0.040 A 
ATOM     26  C   UNL A   1      27.494  30.329  22.301  1.00  0.00     0.079 A 
ATOM     27  F   UNL A   1      26.614  28.627  23.651  1.00  0.00    -0.206 F 
ATOM     28  C   UNL A   1      28.573  30.871  21.614  1.00  0.00     0.126 A 
ATOM     29  F   UNL A   1      28.421  32.028  20.956  1.00  0.00    -0.207 F 
ENDBRANCH  20  22
ENDBRANCH  19  20
ENDBRANCH  14  18
ENDBRANCH   8   9
ENDBRANCH   7   8
ENDBRANCH   5   7
ENDBRANCH   2   3
ENDBRANCH   1   2
BRANCH   1  30
ATOM     30  C   UNL A   1      42.152  20.983  27.412  1.00  0.00     0.002 C 
BRANCH  30  31
ATOM     31  C   UNL A   1      42.031  19.475  27.648  1.00  0.00     0.002 C 
BRANCH  31  32
ATOM     32  C   UNL A   1      42.857  18.579  26.725  1.00  0.00     0.021 C 
BRANCH  32  33
ATOM     33  C   UNL A   1      42.880  18.989  25.257  1.00  0.00     0.116 C 
BRANCH  33  34
ATOM     34  N   UNL A   1      44.140  18.692  24.596  1.00  0.00    -0.352 N 
ATOM     35  C   UNL A   1      45.192  19.528  24.299  1.00  0.00     0.251 C 
ATOM     36  H   UNL A   1      44.258  17.754  24.320  1.00  0.00     0.163 HD
ATOM     37  O   UNL A   1      46.134  19.123  23.632  1.00  0.00    -0.269 OA
BRANCH  35  38
ATOM     38  C   UNL A   1      45.168  20.936  24.758  1.00  0.00     0.039 A 
ATOM     39  C   UNL A   1      45.496  21.212  26.089  1.00  0.00     0.014 A 
ATOM     40  C   UNL A   1      44.829  21.977  23.891  1.00  0.00     0.014 A 
ATOM     41  C   UNL A   1      45.553  22.537  26.529  1.00  0.00     0.010 A 
ATOM     42  C   UNL A   1      44.959  23.300  24.310  1.00  0.00     0.010 A 
ATOM     43  C   UNL A   1      45.324  23.594  25.633  1.00  0.00    -0.014 A 
BRANCH  43  44
ATOM     44  C   UNL A   1      45.474  25.011  26.058  1.00  0.00     0.031 A 
ATOM     45  C   UNL A   1      46.813  25.689  25.979  1.00  0.00     0.074 A 
ATOM     46  C   UNL A   1      44.417  25.665  26.578  1.00  0.00     0.049 A 
ATOM     47  N   UNL A   1      47.155  26.894  26.363  1.00  0.00    -0.248 NA
ATOM     48  C   UNL A   1      47.921  24.900  25.420  1.00  0.00     0.031 C 
ATOM     49  C   UNL A   1      43.077  25.103  26.751  1.00  0.00     0.029 A 
ATOM     50  N   UNL A   1      44.306  26.944  27.066  1.00  0.00    -0.354 N 
ATOM     51  C   UNL A   1      48.515  27.001  26.103  1.00  0.00     0.074 A 
ATOM     52  C   UNL A   1      48.948  25.721  25.583  1.00  0.00     0.031 C 
ATOM     53  C   UNL A   1      42.274  26.037  27.285  1.00  0.00     0.029 A 
ATOM     54  C   UNL A   1      43.050  27.249  27.530  1.00  0.00     0.049 A 
ATOM     55  H   UNL A   1      45.055  27.582  27.081  1.00  0.00     0.167 HD
ATOM     56  C   UNL A   1      49.325  28.075  26.262  1.00  0.00     0.037 A 
ATOM     57  C   UNL A   1      42.579  28.375  28.100  1.00  0.00     0.037 A 
ATOM     58  C   UNL A   1      48.887  29.352  26.764  1.00  0.00     0.049 A 
ATOM     59  C   UNL A   1      43.502  29.549  28.281  1.00  0.00     0.074 A 
ATOM     60  C   UNL A   1      49.617  30.519  26.907  1.00  0.00     0.029 A 
ATOM     61  N   UNL A   1      47.603  29.627  27.214  1.00  0.00    -0.354 N 
ATOM     62  N   UNL A   1      44.769  29.663  27.963  1.00  0.00    -0.248 NA
ATOM     63  C   UNL A   1      42.928  30.754  28.894  1.00  0.00     0.031 C 
ATOM     64  C   UNL A   1      48.791  31.483  27.495  1.00  0.00     0.029 A 
ATOM     65  C   UNL A   1      47.528  30.937  27.661  1.00  0.00     0.049 A 
ATOM     66  H   UNL A   1      46.856  28.986  27.215  1.00  0.00     0.167 HD
ATOM     67  C   UNL A   1      45.135  30.958  28.308  1.00  0.00     0.074 A 
ATOM     68  C   UNL A   1      43.951  31.595  28.845  1.00  0.00     0.031 C 
ATOM     69  C   UNL A   1      46.342  31.563  28.188  1.00  0.00     0.037 A 
BRANCH  56  70
ATOM     70  C   UNL A   1      50.773  27.916  25.889  1.00  0.00     0.064 A 
ATOM     71  C   UNL A   1      51.213  28.054  24.564  1.00  0.00     0.173 A 
ATOM     72  C   UNL A   1      51.737  27.654  26.875  1.00  0.00     0.173 A 
ATOM     73  F   UNL A   1      50.332  28.297  23.581  1.00  0.00    -0.203 F 
ATOM     74  C   UNL A   1      52.557  27.902  24.234  1.00  0.00     0.198 A 
ATOM     75  C   UNL A   1      53.085  27.535  26.547  1.00  0.00     0.198 A 
ATOM     76  F   UNL A   1      51.373  27.520  28.159  1.00  0.00    -0.203 F 
ATOM     77  F   UNL A   1      52.945  27.983  22.954  1.00  0.00    -0.200 F 
ATOM     78  C   UNL A   1      53.492  27.649  25.226  1.00  0.00     0.200 A 
ATOM     79  F   UNL A   1      53.989  27.308  27.509  1.00  0.00    -0.200 F 
ATOM     80  F   UNL A   1      54.787  27.509  24.908  1.00  0.00    -0.200 F 
ENDBRANCH  56  70
BRANCH  57  81
ATOM     81  C   UNL A   1      41.154  28.454  28.520  1.00  0.00     0.064 A 
ATOM     82  C   UNL A   1      40.169  28.924  27.641  1.00  0.00     0.173 A 
ATOM     83  C   UNL A   1      40.750  28.067  29.806  1.00  0.00     0.173 A 
ATOM     84  F   UNL A   1      40.509  29.326  26.408  1.00  0.00    -0.203 F 
ATOM     85  C   UNL A   1      38.837  29.023  28.038  1.00  0.00     0.198 A 
ATOM     86  C   UNL A   1      39.412  28.137  30.192  1.00  0.00     0.198 A 
ATOM     87  F   UNL A   1      41.651  27.606  30.685  1.00  0.00    -0.203 F 
ATOM     88  F   UNL A   1      37.924  29.521  27.193  1.00  0.00    -0.200 F 
ATOM     89  C   UNL A   1      38.458  28.623  29.311  1.00  0.00     0.200 A 
ATOM     90  F   UNL A   1      39.048  27.736  31.418  1.00  0.00    -0.200 F 
ATOM     91  F   UNL A   1      37.177  28.715  29.691  1.00  0.00    -0.200 F 
ENDBRANCH  57  81
BRANCH  69  92
ATOM     92  C   UNL A   1      46.438  33.002  28.608  1.00  0.00     0.064 A 
ATOM     93  C   UNL A   1      46.225  34.052  27.702  1.00  0.00     0.173 A 
ATOM     94  C   UNL A   1      46.707  33.333  29.945  1.00  0.00     0.173 A 
ATOM     95  F   UNL A   1      45.979  33.791  26.409  1.00  0.00    -0.203 F 
ATOM     96  C   UNL A   1      46.306  35.380  28.115  1.00  0.00     0.198 A 
ATOM     97  C   UNL A   1      46.753  34.661  30.360  1.00  0.00     0.198 A 
ATOM     98  F   UNL A   1      46.912  32.367  30.853  1.00  0.00    -0.203 F 
ATOM     99  F   UNL A   1      46.150  36.368  27.223  1.00  0.00    -0.200 F 
ATOM    100  C   UNL A   1      46.561  35.683  29.444  1.00  0.00     0.200 A 
ATOM    101  F   UNL A   1      46.985  34.950  31.649  1.00  0.00    -0.200 F 
ATOM    102  F   UNL A   1      46.629  36.961  29.841  1.00  0.00    -0.200 F 
ENDBRANCH  69  92
ENDBRANCH  43  44
ENDBRANCH  35  38
ENDBRANCH  33  34
ENDBRANCH  32  33
ENDBRANCH  31  32
ENDBRANCH  30  31
ENDBRANCH   1  30
TORSDOF 19
ENDMDL
