MODEL 1
REMARK VINA RESULT:     -13.7      0.000      0.000
REMARK SMILES CC(C)(C)c1cc(Nc2ccccc2C(=O)NCCCCCCNC(=O)c2ccc(-c3c4nc(c(-c5c(F)c(F)c(F)c(F)c5F)c5ccc([nH]5)c(-c5c(F)c(F)c(F)c(F)c5F)c5nc(c(-c6c(F)c(F)c(F)c(F)c6F)c6ccc3[nH]6)C=C5)C=C4)cc2)cc2c1OCC2(C)C
REMARK SMILES IDX 20 1 19 2 18 3 17 4 15 5 16 6 14 8 9 9 10 10 11 11 13 12
REMARK SMILES IDX 12 13 8 14 7 16 5 17 6 18 92 19 91 20 93 21 90 22 95 23
REMARK SMILES IDX 94 24 96 25 97 26 2 27 1 28 3 29 4 30 21 31 22 32 23 33
REMARK SMILES IDX 24 34 25 35 26 37 27 38 28 39 89 40 29 41 88 42 30 43 31 44
REMARK SMILES IDX 32 45 82 46 33 47 87 48 81 49 83 50 34 51 86 52 80 53 79 54
REMARK SMILES IDX 35 56 67 57 47 58 66 59 48 60 51 61 65 62 84 63 49 64 50 65
REMARK SMILES IDX 64 67 85 68 52 69 36 70 37 71 45 72 38 73 39 74 43 75 46 76
REMARK SMILES IDX 40 77 41 78 44 79 42 80 68 81 69 82 77 83 70 84 71 85 75 86
REMARK SMILES IDX 78 87 72 88 73 89 76 90 74 91 53 92 54 93 62 94 55 95 56 96
REMARK SMILES IDX 60 97 63 98 57 99 58 100 61 101 59 102
REMARK H PARENT 17 7 8 15 24 36 83 55 51 66
REMARK Flexibility Score: inf
ROOT
ATOM      1  C   UNL A   1      32.879  30.087  26.772  1.00  0.00     0.002 C 
ENDROOT
BRANCH   1   2
ATOM      2  C   UNL A   1      32.724  28.632  27.209  1.00  0.00     0.021 C 
BRANCH   2   3
ATOM      3  C   UNL A   1      31.425  27.874  26.955  1.00  0.00     0.116 C 
BRANCH   3   4
ATOM      4  N   UNL A   1      31.394  26.479  27.283  1.00  0.00    -0.352 N 
ATOM      5  C   UNL A   1      31.556  25.359  26.496  1.00  0.00     0.253 C 
ATOM      6  O   UNL A   1      31.490  24.290  27.118  1.00  0.00    -0.269 OA
ATOM      7  H   UNL A   1      31.228  26.287  28.233  1.00  0.00     0.163 HD
BRANCH   5   8
ATOM      8  C   UNL A   1      31.773  25.279  24.998  1.00  0.00     0.063 A 
ATOM      9  C   UNL A   1      31.640  24.204  24.091  1.00  0.00     0.051 A 
ATOM     10  C   UNL A   1      31.749  24.459  22.694  1.00  0.00     0.027 A 
ATOM     11  C   UNL A   1      32.100  25.703  22.186  1.00  0.00     0.002 A 
ATOM     12  C   UNL A   1      32.138  26.536  24.440  1.00  0.00     0.016 A 
ATOM     13  C   UNL A   1      32.321  26.743  23.067  1.00  0.00     0.001 A 
BRANCH   9  14
ATOM     14  N   UNL A   1      31.492  22.841  24.427  1.00  0.00    -0.355 N 
ATOM     15  H   UNL A   1      30.577  22.498  24.544  1.00  0.00     0.167 HD
BRANCH  14  16
ATOM     16  C   UNL A   1      32.563  21.929  24.610  1.00  0.00     0.039 A 
ATOM     17  C   UNL A   1      35.008  21.519  24.822  1.00  0.00     0.002 A 
ATOM     18  C   UNL A   1      33.877  22.390  24.823  1.00  0.00     0.034 A 
ATOM     19  C   UNL A   1      34.740  20.164  24.690  1.00  0.00     0.127 A 
ATOM     20  C   UNL A   1      33.457  19.691  24.502  1.00  0.00     0.006 A 
ATOM     21  O   UNL A   1      35.671  19.165  24.714  1.00  0.00    -0.492 OA
ATOM     22  C   UNL A   1      32.377  20.554  24.440  1.00  0.00     0.034 A 
ATOM     23  C   UNL A   1      33.446  18.206  24.404  1.00  0.00     0.028 C 
ATOM     24  C   UNL A   1      34.961  17.936  24.453  1.00  0.00     0.240 C 
ATOM     25  C   UNL A   1      32.722  17.616  25.617  1.00  0.00     0.020 C 
ATOM     26  C   UNL A   1      32.832  17.698  23.097  1.00  0.00     0.020 C 
BRANCH  17  27
ATOM     27  C   UNL A   1      36.426  22.101  24.813  1.00  0.00    -0.009 C 
ATOM     28  C   UNL A   1      36.650  22.635  23.397  1.00  0.00     0.016 C 
ATOM     29  C   UNL A   1      37.593  21.120  25.069  1.00  0.00     0.016 C 
ATOM     30  C   UNL A   1      36.554  23.248  25.833  1.00  0.00     0.016 C 
ENDBRANCH  17  27
ENDBRANCH  14  16
ENDBRANCH   9  14
ENDBRANCH   5   8
ENDBRANCH   3   4
ENDBRANCH   2   3
ENDBRANCH   1   2
BRANCH   1  31
ATOM     31  C   UNL A   1      31.695  30.833  26.150  1.00  0.00     0.002 C 
BRANCH  31  32
ATOM     32  C   UNL A   1      31.415  32.278  26.573  1.00  0.00     0.021 C 
BRANCH  32  33
ATOM     33  C   UNL A   1      32.533  33.062  27.266  1.00  0.00     0.116 C 
BRANCH  33  34
ATOM     34  N   UNL A   1      32.193  34.375  27.776  1.00  0.00    -0.352 N 
ATOM     35  C   UNL A   1      32.908  35.176  28.646  1.00  0.00     0.251 C 
ATOM     36  H   UNL A   1      31.336  34.746  27.460  1.00  0.00     0.163 HD
ATOM     37  O   UNL A   1      32.516  36.313  28.902  1.00  0.00    -0.269 OA
BRANCH  35  38
ATOM     38  C   UNL A   1      34.117  34.660  29.341  1.00  0.00     0.039 A 
ATOM     39  C   UNL A   1      35.378  34.684  28.750  1.00  0.00     0.014 A 
ATOM     40  C   UNL A   1      33.986  34.140  30.630  1.00  0.00     0.014 A 
ATOM     41  C   UNL A   1      36.452  34.010  29.352  1.00  0.00     0.010 A 
ATOM     42  C   UNL A   1      35.083  33.541  31.268  1.00  0.00     0.010 A 
ATOM     43  C   UNL A   1      36.317  33.396  30.609  1.00  0.00    -0.014 A 
BRANCH  43  44
ATOM     44  C   UNL A   1      37.415  32.562  31.209  1.00  0.00     0.031 A 
ATOM     45  C   UNL A   1      37.916  32.849  32.611  1.00  0.00     0.074 A 
ATOM     46  C   UNL A   1      37.979  31.537  30.536  1.00  0.00     0.049 A 
ATOM     47  N   UNL A   1      38.940  32.339  33.256  1.00  0.00    -0.248 NA
ATOM     48  C   UNL A   1      37.172  33.852  33.390  1.00  0.00     0.031 C 
ATOM     49  C   UNL A   1      37.605  31.096  29.194  1.00  0.00     0.029 A 
ATOM     50  N   UNL A   1      38.995  30.676  30.894  1.00  0.00    -0.354 N 
ATOM     51  C   UNL A   1      38.989  32.991  34.484  1.00  0.00     0.074 A 
ATOM     52  C   UNL A   1      37.906  33.950  34.489  1.00  0.00     0.031 C 
ATOM     53  C   UNL A   1      38.349  30.031  28.856  1.00  0.00     0.029 A 
ATOM     54  C   UNL A   1      39.312  29.756  29.922  1.00  0.00     0.049 A 
ATOM     55  H   UNL A   1      39.452  30.716  31.765  1.00  0.00     0.167 HD
ATOM     56  C   UNL A   1      39.843  32.804  35.521  1.00  0.00     0.037 A 
ATOM     57  C   UNL A   1      40.281  28.820  29.865  1.00  0.00     0.037 A 
ATOM     58  C   UNL A   1      40.889  31.813  35.561  1.00  0.00     0.049 A 
ATOM     59  C   UNL A   1      41.250  28.661  31.006  1.00  0.00     0.074 A 
ATOM     60  C   UNL A   1      41.767  31.531  36.596  1.00  0.00     0.029 A 
ATOM     61  N   UNL A   1      41.194  30.937  34.533  1.00  0.00    -0.354 N 
ATOM     62  N   UNL A   1      41.292  29.296  32.150  1.00  0.00    -0.248 NA
ATOM     63  C   UNL A   1      42.319  27.662  30.839  1.00  0.00     0.031 C 
ATOM     64  C   UNL A   1      42.636  30.521  36.175  1.00  0.00     0.029 A 
ATOM     65  C   UNL A   1      42.265  30.133  34.899  1.00  0.00     0.049 A 
ATOM     66  H   UNL A   1      40.723  30.890  33.670  1.00  0.00     0.167 HD
ATOM     67  C   UNL A   1      42.374  28.769  32.842  1.00  0.00     0.074 A 
ATOM     68  C   UNL A   1      42.954  27.745  32.001  1.00  0.00     0.031 C 
ATOM     69  C   UNL A   1      42.846  29.112  34.066  1.00  0.00     0.037 A 
BRANCH  56  70
ATOM     70  C   UNL A   1      39.703  33.698  36.722  1.00  0.00     0.064 A 
ATOM     71  C   UNL A   1      40.312  34.959  36.781  1.00  0.00     0.173 A 
ATOM     72  C   UNL A   1      38.873  33.321  37.791  1.00  0.00     0.173 A 
ATOM     73  F   UNL A   1      41.120  35.366  35.790  1.00  0.00    -0.203 F 
ATOM     74  C   UNL A   1      40.115  35.800  37.874  1.00  0.00     0.198 A 
ATOM     75  C   UNL A   1      38.651  34.178  38.866  1.00  0.00     0.198 A 
ATOM     76  F   UNL A   1      38.254  32.131  37.779  1.00  0.00    -0.203 F 
ATOM     77  F   UNL A   1      40.738  36.986  37.926  1.00  0.00    -0.200 F 
ATOM     78  C   UNL A   1      39.276  35.415  38.909  1.00  0.00     0.200 A 
ATOM     79  F   UNL A   1      37.825  33.810  39.856  1.00  0.00    -0.200 F 
ATOM     80  F   UNL A   1      39.072  36.234  39.949  1.00  0.00    -0.200 F 
ENDBRANCH  56  70
BRANCH  57  81
ATOM     81  C   UNL A   1      40.394  27.957  28.658  1.00  0.00     0.064 A 
ATOM     82  C   UNL A   1      41.151  28.362  27.550  1.00  0.00     0.173 A 
ATOM     83  C   UNL A   1      39.763  26.704  28.593  1.00  0.00     0.173 A 
ATOM     84  F   UNL A   1      41.745  29.565  27.550  1.00  0.00    -0.203 F 
ATOM     85  C   UNL A   1      41.275  27.548  26.426  1.00  0.00     0.198 A 
ATOM     86  C   UNL A   1      39.914  25.879  27.482  1.00  0.00     0.198 A 
ATOM     87  F   UNL A   1      39.019  26.274  29.623  1.00  0.00    -0.203 F 
ATOM     88  F   UNL A   1      41.978  27.974  25.368  1.00  0.00    -0.200 F 
ATOM     89  C   UNL A   1      40.666  26.302  26.398  1.00  0.00     0.200 A 
ATOM     90  F   UNL A   1      39.336  24.670  27.465  1.00  0.00    -0.200 F 
ATOM     91  F   UNL A   1      40.803  25.512  25.325  1.00  0.00    -0.200 F 
ENDBRANCH  57  81
BRANCH  69  92
ATOM     92  C   UNL A   1      44.041  28.371  34.596  1.00  0.00     0.064 A 
ATOM     93  C   UNL A   1      45.342  28.874  34.442  1.00  0.00     0.173 A 
ATOM     94  C   UNL A   1      43.880  27.186  35.331  1.00  0.00     0.173 A 
ATOM     95  F   UNL A   1      45.553  29.996  33.739  1.00  0.00    -0.203 F 
ATOM     96  C   UNL A   1      46.436  28.210  34.994  1.00  0.00     0.198 A 
ATOM     97  C   UNL A   1      44.973  26.541  35.904  1.00  0.00     0.198 A 
ATOM     98  F   UNL A   1      42.657  26.667  35.515  1.00  0.00    -0.203 F 
ATOM     99  F   UNL A   1      47.673  28.692  34.806  1.00  0.00    -0.200 F 
ATOM    100  C   UNL A   1      46.249  27.051  35.733  1.00  0.00     0.200 A 
ATOM    101  F   UNL A   1      44.789  25.431  36.631  1.00  0.00    -0.200 F 
ATOM    102  F   UNL A   1      47.303  26.425  36.276  1.00  0.00    -0.200 F 
ENDBRANCH  69  92
ENDBRANCH  43  44
ENDBRANCH  35  38
ENDBRANCH  33  34
ENDBRANCH  32  33
ENDBRANCH  31  32
ENDBRANCH   1  31
TORSDOF 16
ENDMDL
MODEL 2
REMARK VINA RESULT:     -13.6      1.348      7.283
REMARK SMILES CC(C)(C)c1cc(Nc2ccccc2C(=O)NCCCCCCNC(=O)c2ccc(-c3c4nc(c(-c5c(F)c(F)c(F)c(F)c5F)c5ccc([nH]5)c(-c5c(F)c(F)c(F)c(F)c5F)c5nc(c(-c6c(F)c(F)c(F)c(F)c6F)c6ccc3[nH]6)C=C5)C=C4)cc2)cc2c1OCC2(C)C
REMARK SMILES IDX 20 1 19 2 18 3 17 4 15 5 16 6 14 8 9 9 10 10 11 11 13 12
REMARK SMILES IDX 12 13 8 14 7 16 5 17 6 18 92 19 91 20 93 21 90 22 95 23
REMARK SMILES IDX 94 24 96 25 97 26 2 27 1 28 3 29 4 30 21 31 22 32 23 33
REMARK SMILES IDX 24 34 25 35 26 37 27 38 28 39 89 40 29 41 88 42 30 43 31 44
REMARK SMILES IDX 32 45 82 46 33 47 87 48 81 49 83 50 34 51 86 52 80 53 79 54
REMARK SMILES IDX 35 56 67 57 47 58 66 59 48 60 51 61 65 62 84 63 49 64 50 65
REMARK SMILES IDX 64 67 85 68 52 69 36 70 37 71 45 72 38 73 39 74 43 75 46 76
REMARK SMILES IDX 40 77 41 78 44 79 42 80 68 81 69 82 77 83 70 84 71 85 75 86
REMARK SMILES IDX 78 87 72 88 73 89 76 90 74 91 53 92 54 93 62 94 55 95 56 96
REMARK SMILES IDX 60 97 63 98 57 99 58 100 61 101 59 102
REMARK H PARENT 17 7 8 15 24 36 83 55 51 66
REMARK Flexibility Score: inf
ROOT
ATOM      1  C   UNL A   1      33.612  28.994  25.385  1.00  0.00     0.002 C 
ENDROOT
BRANCH   1   2
ATOM      2  C   UNL A   1      34.041  28.138  24.195  1.00  0.00     0.021 C 
BRANCH   2   3
ATOM      3  C   UNL A   1      33.679  28.541  22.770  1.00  0.00     0.116 C 
BRANCH   3   4
ATOM      4  N   UNL A   1      33.630  27.508  21.777  1.00  0.00    -0.352 N 
ATOM      5  C   UNL A   1      32.793  26.422  21.640  1.00  0.00     0.253 C 
ATOM      6  O   UNL A   1      33.020  25.732  20.636  1.00  0.00    -0.269 OA
ATOM      7  H   UNL A   1      34.311  27.588  21.072  1.00  0.00     0.163 HD
BRANCH   5   8
ATOM      8  C   UNL A   1      31.677  25.965  22.559  1.00  0.00     0.063 A 
ATOM      9  C   UNL A   1      31.307  24.679  23.012  1.00  0.00     0.051 A 
ATOM     10  C   UNL A   1      30.304  24.561  24.017  1.00  0.00     0.027 A 
ATOM     11  C   UNL A   1      29.587  25.652  24.490  1.00  0.00     0.002 A 
ATOM     12  C   UNL A   1      30.916  27.057  23.062  1.00  0.00     0.016 A 
ATOM     13  C   UNL A   1      29.877  26.906  23.989  1.00  0.00     0.001 A 
BRANCH   9  14
ATOM     14  N   UNL A   1      31.773  23.448  22.501  1.00  0.00    -0.355 N 
ATOM     15  H   UNL A   1      31.352  23.108  21.679  1.00  0.00     0.167 HD
BRANCH  14  16
ATOM     16  C   UNL A   1      32.800  22.664  23.085  1.00  0.00     0.039 A 
ATOM     17  C   UNL A   1      33.577  20.467  23.958  1.00  0.00     0.002 A 
ATOM     18  C   UNL A   1      32.660  21.268  23.212  1.00  0.00     0.034 A 
ATOM     19  C   UNL A   1      34.679  21.125  24.486  1.00  0.00     0.127 A 
ATOM     20  C   UNL A   1      34.844  22.490  24.354  1.00  0.00     0.006 A 
ATOM     21  O   UNL A   1      35.694  20.537  25.186  1.00  0.00    -0.492 OA
ATOM     22  C   UNL A   1      33.914  23.263  23.682  1.00  0.00     0.034 A 
ATOM     23  C   UNL A   1      36.111  22.937  24.995  1.00  0.00     0.028 C 
ATOM     24  C   UNL A   1      36.569  21.603  25.612  1.00  0.00     0.240 C 
ATOM     25  C   UNL A   1      37.084  23.434  23.922  1.00  0.00     0.020 C 
ATOM     26  C   UNL A   1      35.890  24.002  26.072  1.00  0.00     0.020 C 
BRANCH  17  27
ATOM     27  C   UNL A   1      33.245  19.003  24.266  1.00  0.00    -0.009 C 
ATOM     28  C   UNL A   1      32.664  18.995  25.682  1.00  0.00     0.016 C 
ATOM     29  C   UNL A   1      34.424  18.005  24.303  1.00  0.00     0.016 C 
ATOM     30  C   UNL A   1      32.206  18.456  23.270  1.00  0.00     0.016 C 
ENDBRANCH  17  27
ENDBRANCH  14  16
ENDBRANCH   9  14
ENDBRANCH   5   8
ENDBRANCH   3   4
ENDBRANCH   2   3
ENDBRANCH   1   2
BRANCH   1  31
ATOM     31  C   UNL A   1      32.255  29.704  25.371  1.00  0.00     0.002 C 
BRANCH  31  32
ATOM     32  C   UNL A   1      31.883  30.629  26.533  1.00  0.00     0.021 C 
BRANCH  32  33
ATOM     33  C   UNL A   1      32.927  31.635  27.025  1.00  0.00     0.116 C 
BRANCH  33  34
ATOM     34  N   UNL A   1      32.454  32.968  27.338  1.00  0.00    -0.352 N 
ATOM     35  C   UNL A   1      33.044  33.927  28.140  1.00  0.00     0.251 C 
ATOM     36  H   UNL A   1      31.598  33.225  26.925  1.00  0.00     0.163 HD
ATOM     37  O   UNL A   1      32.552  35.051  28.221  1.00  0.00    -0.269 OA
BRANCH  35  38
ATOM     38  C   UNL A   1      34.236  33.604  28.968  1.00  0.00     0.039 A 
ATOM     39  C   UNL A   1      35.488  34.157  28.714  1.00  0.00     0.014 A 
ATOM     40  C   UNL A   1      34.094  32.720  30.040  1.00  0.00     0.014 A 
ATOM     41  C   UNL A   1      36.622  33.676  29.388  1.00  0.00     0.010 A 
ATOM     42  C   UNL A   1      35.218  32.304  30.770  1.00  0.00     0.010 A 
ATOM     43  C   UNL A   1      36.513  32.715  30.407  1.00  0.00    -0.014 A 
BRANCH  43  44
ATOM     44  C   UNL A   1      37.724  32.096  31.049  1.00  0.00     0.031 A 
ATOM     45  C   UNL A   1      38.533  31.048  30.309  1.00  0.00     0.074 A 
ATOM     46  C   UNL A   1      38.135  32.454  32.284  1.00  0.00     0.049 A 
ATOM     47  N   UNL A   1      39.524  30.299  30.736  1.00  0.00    -0.248 NA
ATOM     48  C   UNL A   1      38.173  30.802  28.904  1.00  0.00     0.031 C 
ATOM     49  C   UNL A   1      37.503  33.464  33.129  1.00  0.00     0.029 A 
ATOM     50  N   UNL A   1      39.191  32.001  33.047  1.00  0.00    -0.354 N 
ATOM     51  C   UNL A   1      39.866  29.467  29.675  1.00  0.00     0.074 A 
ATOM     52  C   UNL A   1      38.966  29.787  28.589  1.00  0.00     0.031 C 
ATOM     53  C   UNL A   1      38.197  33.582  34.271  1.00  0.00     0.029 A 
ATOM     54  C   UNL A   1      39.282  32.601  34.281  1.00  0.00     0.049 A 
ATOM     55  H   UNL A   1      39.822  31.311  32.737  1.00  0.00     0.167 HD
ATOM     56  C   UNL A   1      40.847  28.533  29.599  1.00  0.00     0.037 A 
ATOM     57  C   UNL A   1      40.110  32.376  35.321  1.00  0.00     0.037 A 
ATOM     58  C   UNL A   1      41.794  28.244  30.646  1.00  0.00     0.049 A 
ATOM     59  C   UNL A   1      41.161  31.301  35.235  1.00  0.00     0.074 A 
ATOM     60  C   UNL A   1      42.847  27.343  30.627  1.00  0.00     0.029 A 
ATOM     61  N   UNL A   1      41.813  28.850  31.891  1.00  0.00    -0.354 N 
ATOM     62  N   UNL A   1      41.459  30.515  34.231  1.00  0.00    -0.248 NA
ATOM     63  C   UNL A   1      41.982  31.073  36.436  1.00  0.00     0.031 C 
ATOM     64  C   UNL A   1      43.471  27.366  31.877  1.00  0.00     0.029 A 
ATOM     65  C   UNL A   1      42.844  28.322  32.657  1.00  0.00     0.049 A 
ATOM     66  H   UNL A   1      41.190  29.550  32.189  1.00  0.00     0.167 HD
ATOM     67  C   UNL A   1      42.504  29.712  34.671  1.00  0.00     0.074 A 
ATOM     68  C   UNL A   1      42.807  30.119  36.026  1.00  0.00     0.031 C 
ATOM     69  C   UNL A   1      43.149  28.723  34.006  1.00  0.00     0.037 A 
BRANCH  56  70
ATOM     70  C   UNL A   1      40.959  27.729  28.333  1.00  0.00     0.064 A 
ATOM     71  C   UNL A   1      41.795  28.121  27.278  1.00  0.00     0.173 A 
ATOM     72  C   UNL A   1      40.286  26.501  28.214  1.00  0.00     0.173 A 
ATOM     73  F   UNL A   1      42.456  29.287  27.338  1.00  0.00    -0.203 F 
ATOM     74  C   UNL A   1      41.936  27.327  26.143  1.00  0.00     0.198 A 
ATOM     75  C   UNL A   1      40.455  25.695  27.092  1.00  0.00     0.198 A 
ATOM     76  F   UNL A   1      39.484  26.071  29.200  1.00  0.00    -0.203 F 
ATOM     77  F   UNL A   1      42.712  27.740  25.131  1.00  0.00    -0.200 F 
ATOM     78  C   UNL A   1      41.277  26.110  26.055  1.00  0.00     0.200 A 
ATOM     79  F   UNL A   1      39.831  24.510  27.018  1.00  0.00    -0.200 F 
ATOM     80  F   UNL A   1      41.430  25.339  24.970  1.00  0.00    -0.200 F 
ENDBRANCH  56  70
BRANCH  57  81
ATOM     81  C   UNL A   1      39.966  33.188  36.561  1.00  0.00     0.064 A 
ATOM     82  C   UNL A   1      40.735  34.343  36.759  1.00  0.00     0.173 A 
ATOM     83  C   UNL A   1      39.049  32.835  37.563  1.00  0.00     0.173 A 
ATOM     84  F   UNL A   1      41.650  34.702  35.846  1.00  0.00    -0.203 F 
ATOM     85  C   UNL A   1      40.589  35.116  37.910  1.00  0.00     0.198 A 
ATOM     86  C   UNL A   1      38.882  33.625  38.696  1.00  0.00     0.198 A 
ATOM     87  F   UNL A   1      38.295  31.733  37.425  1.00  0.00    -0.203 F 
ATOM     88  F   UNL A   1      41.360  36.197  38.089  1.00  0.00    -0.200 F 
ATOM     89  C   UNL A   1      39.654  34.763  38.872  1.00  0.00     0.200 A 
ATOM     90  F   UNL A   1      37.968  33.289  39.617  1.00  0.00    -0.200 F 
ATOM     91  F   UNL A   1      39.501  35.517  39.968  1.00  0.00    -0.200 F 
ENDBRANCH  57  81
BRANCH  69  92
ATOM     92  C   UNL A   1      44.265  28.007  34.713  1.00  0.00     0.064 A 
ATOM     93  C   UNL A   1      45.571  28.520  34.730  1.00  0.00     0.173 A 
ATOM     94  C   UNL A   1      44.013  26.836  35.446  1.00  0.00     0.173 A 
ATOM     95  F   UNL A   1      45.869  29.629  34.037  1.00  0.00    -0.203 F 
ATOM     96  C   UNL A   1      46.583  27.880  35.443  1.00  0.00     0.198 A 
ATOM     97  C   UNL A   1      45.021  26.216  36.180  1.00  0.00     0.198 A 
ATOM     98  F   UNL A   1      42.780  26.308  35.470  1.00  0.00    -0.203 F 
ATOM     99  F   UNL A   1      47.831  28.371  35.416  1.00  0.00    -0.200 F 
ATOM    100  C   UNL A   1      46.305  26.736  36.175  1.00  0.00     0.200 A 
ATOM    101  F   UNL A   1      44.746  25.119  36.900  1.00  0.00    -0.200 F 
ATOM    102  F   UNL A   1      47.278  26.132  36.873  1.00  0.00    -0.200 F 
ENDBRANCH  69  92
ENDBRANCH  43  44
ENDBRANCH  35  38
ENDBRANCH  33  34
ENDBRANCH  32  33
ENDBRANCH  31  32
ENDBRANCH   1  31
TORSDOF 16
ENDMDL
MODEL 3
REMARK VINA RESULT:     -13.6      1.635      7.540
REMARK SMILES CC(C)(C)c1cc(Nc2ccccc2C(=O)NCCCCCCNC(=O)c2ccc(-c3c4nc(c(-c5c(F)c(F)c(F)c(F)c5F)c5ccc([nH]5)c(-c5c(F)c(F)c(F)c(F)c5F)c5nc(c(-c6c(F)c(F)c(F)c(F)c6F)c6ccc3[nH]6)C=C5)C=C4)cc2)cc2c1OCC2(C)C
REMARK SMILES IDX 20 1 19 2 18 3 17 4 15 5 16 6 14 8 9 9 10 10 11 11 13 12
REMARK SMILES IDX 12 13 8 14 7 16 5 17 6 18 92 19 91 20 93 21 90 22 95 23
REMARK SMILES IDX 94 24 96 25 97 26 2 27 1 28 3 29 4 30 21 31 22 32 23 33
REMARK SMILES IDX 24 34 25 35 26 37 27 38 28 39 89 40 29 41 88 42 30 43 31 44
REMARK SMILES IDX 32 45 82 46 33 47 87 48 81 49 83 50 34 51 86 52 80 53 79 54
REMARK SMILES IDX 35 56 67 57 47 58 66 59 48 60 51 61 65 62 84 63 49 64 50 65
REMARK SMILES IDX 64 67 85 68 52 69 36 70 37 71 45 72 38 73 39 74 43 75 46 76
REMARK SMILES IDX 40 77 41 78 44 79 42 80 68 81 69 82 77 83 70 84 71 85 75 86
REMARK SMILES IDX 78 87 72 88 73 89 76 90 74 91 53 92 54 93 62 94 55 95 56 96
REMARK SMILES IDX 60 97 63 98 57 99 58 100 61 101 59 102
REMARK H PARENT 17 7 8 15 24 36 83 55 51 66
REMARK Flexibility Score: inf
ROOT
ATOM      1  C   UNL A   1      33.541  27.968  25.613  1.00  0.00     0.002 C 
ENDROOT
BRANCH   1   2
ATOM      2  C   UNL A   1      33.385  28.330  24.137  1.00  0.00     0.021 C 
BRANCH   2   3
ATOM      3  C   UNL A   1      33.910  27.404  23.046  1.00  0.00     0.116 C 
BRANCH   3   4
ATOM      4  N   UNL A   1      33.010  27.043  21.989  1.00  0.00    -0.352 N 
ATOM      5  C   UNL A   1      31.825  26.341  22.008  1.00  0.00     0.253 C 
ATOM      6  O   UNL A   1      31.286  26.229  20.899  1.00  0.00    -0.269 OA
ATOM      7  H   UNL A   1      33.287  27.350  21.096  1.00  0.00     0.163 HD
BRANCH   5   8
ATOM      8  C   UNL A   1      31.133  25.684  23.187  1.00  0.00     0.063 A 
ATOM      9  C   UNL A   1      31.148  24.351  23.655  1.00  0.00     0.051 A 
ATOM     10  C   UNL A   1      30.529  24.048  24.901  1.00  0.00     0.027 A 
ATOM     11  C   UNL A   1      29.804  24.985  25.624  1.00  0.00     0.002 A 
ATOM     12  C   UNL A   1      30.376  26.614  23.952  1.00  0.00     0.016 A 
ATOM     13  C   UNL A   1      29.705  26.272  25.132  1.00  0.00     0.001 A 
BRANCH   9  14
ATOM     14  N   UNL A   1      31.651  23.229  22.961  1.00  0.00    -0.355 N 
ATOM     15  H   UNL A   1      31.216  22.986  22.112  1.00  0.00     0.167 HD
BRANCH  14  16
ATOM     16  C   UNL A   1      32.735  22.424  23.397  1.00  0.00     0.039 A 
ATOM     17  C   UNL A   1      33.606  20.187  24.054  1.00  0.00     0.002 A 
ATOM     18  C   UNL A   1      32.617  21.021  23.448  1.00  0.00     0.034 A 
ATOM     19  C   UNL A   1      34.747  20.826  24.518  1.00  0.00     0.127 A 
ATOM     20  C   UNL A   1      34.889  22.198  24.457  1.00  0.00     0.006 A 
ATOM     21  O   UNL A   1      35.828  20.209  25.082  1.00  0.00    -0.492 OA
ATOM     22  C   UNL A   1      33.894  22.999  23.925  1.00  0.00     0.034 A 
ATOM     23  C   UNL A   1      36.207  22.622  25.005  1.00  0.00     0.028 C 
ATOM     24  C   UNL A   1      36.730  21.259  25.492  1.00  0.00     0.240 C 
ATOM     25  C   UNL A   1      37.071  23.197  23.880  1.00  0.00     0.020 C 
ATOM     26  C   UNL A   1      36.080  23.615  26.163  1.00  0.00     0.020 C 
BRANCH  17  27
ATOM     27  C   UNL A   1      33.315  18.703  24.299  1.00  0.00    -0.009 C 
ATOM     28  C   UNL A   1      32.760  18.615  25.723  1.00  0.00     0.016 C 
ATOM     29  C   UNL A   1      34.518  17.734  24.269  1.00  0.00     0.016 C 
ATOM     30  C   UNL A   1      32.271  18.177  23.296  1.00  0.00     0.016 C 
ENDBRANCH  17  27
ENDBRANCH  14  16
ENDBRANCH   9  14
ENDBRANCH   5   8
ENDBRANCH   3   4
ENDBRANCH   2   3
ENDBRANCH   1   2
BRANCH   1  31
ATOM     31  C   UNL A   1      32.342  28.073  26.560  1.00  0.00     0.002 C 
BRANCH  31  32
ATOM     32  C   UNL A   1      31.776  29.455  26.900  1.00  0.00     0.021 C 
BRANCH  32  33
ATOM     33  C   UNL A   1      32.319  30.670  26.142  1.00  0.00     0.116 C 
BRANCH  33  34
ATOM     34  N   UNL A   1      32.084  31.970  26.738  1.00  0.00    -0.352 N 
ATOM     35  C   UNL A   1      32.941  32.735  27.507  1.00  0.00     0.251 C 
ATOM     36  H   UNL A   1      31.195  32.360  26.573  1.00  0.00     0.163 HD
ATOM     37  O   UNL A   1      32.613  33.867  27.854  1.00  0.00    -0.269 OA
BRANCH  35  38
ATOM     38  C   UNL A   1      34.236  32.183  27.985  1.00  0.00     0.039 A 
ATOM     39  C   UNL A   1      34.423  30.823  28.215  1.00  0.00     0.014 A 
ATOM     40  C   UNL A   1      35.302  33.058  28.206  1.00  0.00     0.014 A 
ATOM     41  C   UNL A   1      35.588  30.369  28.853  1.00  0.00     0.010 A 
ATOM     42  C   UNL A   1      36.501  32.588  28.766  1.00  0.00     0.010 A 
ATOM     43  C   UNL A   1      36.637  31.249  29.172  1.00  0.00    -0.014 A 
BRANCH  43  44
ATOM     44  C   UNL A   1      37.834  30.805  29.968  1.00  0.00     0.031 A 
ATOM     45  C   UNL A   1      38.866  29.882  29.349  1.00  0.00     0.074 A 
ATOM     46  C   UNL A   1      38.035  31.214  31.238  1.00  0.00     0.049 A 
ATOM     47  N   UNL A   1      39.892  29.279  29.906  1.00  0.00    -0.248 NA
ATOM     48  C   UNL A   1      38.721  29.590  27.915  1.00  0.00     0.031 C 
ATOM     49  C   UNL A   1      37.168  32.124  31.983  1.00  0.00     0.029 A 
ATOM     50  N   UNL A   1      39.041  30.913  32.132  1.00  0.00    -0.354 N 
ATOM     51  C   UNL A   1      40.475  28.505  28.909  1.00  0.00     0.074 A 
ATOM     52  C   UNL A   1      39.680  28.696  27.715  1.00  0.00     0.031 C 
ATOM     53  C   UNL A   1      37.693  32.338  33.199  1.00  0.00     0.029 A 
ATOM     54  C   UNL A   1      38.894  31.519  33.358  1.00  0.00     0.049 A 
ATOM     55  H   UNL A   1      39.795  30.319  31.912  1.00  0.00     0.167 HD
ATOM     56  C   UNL A   1      41.578  27.718  28.968  1.00  0.00     0.037 A 
ATOM     57  C   UNL A   1      39.610  31.410  34.495  1.00  0.00     0.037 A 
ATOM     58  C   UNL A   1      42.419  27.562  30.128  1.00  0.00     0.049 A 
ATOM     59  C   UNL A   1      40.803  30.494  34.556  1.00  0.00     0.074 A 
ATOM     60  C   UNL A   1      43.582  26.818  30.252  1.00  0.00     0.029 A 
ATOM     61  N   UNL A   1      42.200  28.163  31.356  1.00  0.00    -0.354 N 
ATOM     62  N   UNL A   1      41.330  29.758  33.609  1.00  0.00    -0.248 NA
ATOM     63  C   UNL A   1      41.493  30.381  35.852  1.00  0.00     0.031 C 
ATOM     64  C   UNL A   1      44.037  26.927  31.569  1.00  0.00     0.029 A 
ATOM     65  C   UNL A   1      43.191  27.784  32.251  1.00  0.00     0.049 A 
ATOM     66  H   UNL A   1      41.453  28.769  31.565  1.00  0.00     0.167 HD
ATOM     67  C   UNL A   1      42.415  29.110  34.186  1.00  0.00     0.074 A 
ATOM     68  C   UNL A   1      42.487  29.553  35.561  1.00  0.00     0.031 C 
ATOM     69  C   UNL A   1      43.269  28.222  33.621  1.00  0.00     0.037 A 
BRANCH  56  70
ATOM     70  C   UNL A   1      41.957  26.939  27.739  1.00  0.00     0.064 A 
ATOM     71  C   UNL A   1      42.924  27.403  26.837  1.00  0.00     0.173 A 
ATOM     72  C   UNL A   1      41.405  25.667  27.510  1.00  0.00     0.173 A 
ATOM     73  F   UNL A   1      43.478  28.614  27.005  1.00  0.00    -0.203 F 
ATOM     74  C   UNL A   1      43.310  26.636  25.741  1.00  0.00     0.198 A 
ATOM     75  C   UNL A   1      41.817  24.888  26.431  1.00  0.00     0.198 A 
ATOM     76  F   UNL A   1      40.486  25.167  28.349  1.00  0.00    -0.203 F 
ATOM     77  F   UNL A   1      44.209  27.117  24.871  1.00  0.00    -0.200 F 
ATOM     78  C   UNL A   1      42.765  25.375  25.545  1.00  0.00     0.200 A 
ATOM     79  F   UNL A   1      41.303  23.663  26.256  1.00  0.00    -0.200 F 
ATOM     80  F   UNL A   1      43.153  24.630  24.500  1.00  0.00    -0.200 F 
ENDBRANCH  56  70
BRANCH  57  81
ATOM     81  C   UNL A   1      39.202  32.192  35.695  1.00  0.00     0.064 A 
ATOM     82  C   UNL A   1      38.345  31.641  36.656  1.00  0.00     0.173 A 
ATOM     83  C   UNL A   1      39.673  33.496  35.912  1.00  0.00     0.173 A 
ATOM     84  F   UNL A   1      37.840  30.411  36.477  1.00  0.00    -0.203 F 
ATOM     85  C   UNL A   1      37.976  32.363  37.790  1.00  0.00     0.198 A 
ATOM     86  C   UNL A   1      39.330  34.204  37.060  1.00  0.00     0.198 A 
ATOM     87  F   UNL A   1      40.490  34.073  35.016  1.00  0.00    -0.203 F 
ATOM     88  F   UNL A   1      37.128  31.825  38.677  1.00  0.00    -0.200 F 
ATOM     89  C   UNL A   1      38.478  33.639  37.997  1.00  0.00     0.200 A 
ATOM     90  F   UNL A   1      39.829  35.431  37.262  1.00  0.00    -0.200 F 
ATOM     91  F   UNL A   1      38.139  34.324  39.096  1.00  0.00    -0.200 F 
ENDBRANCH  57  81
BRANCH  69  92
ATOM     92  C   UNL A   1      44.377  27.668  34.471  1.00  0.00     0.064 A 
ATOM     93  C   UNL A   1      44.233  26.458  35.166  1.00  0.00     0.173 A 
ATOM     94  C   UNL A   1      45.622  28.314  34.533  1.00  0.00     0.173 A 
ATOM     95  F   UNL A   1      43.061  25.806  35.150  1.00  0.00    -0.203 F 
ATOM     96  C   UNL A   1      45.289  25.922  35.899  1.00  0.00     0.198 A 
ATOM     97  C   UNL A   1      46.684  27.761  35.245  1.00  0.00     0.198 A 
ATOM     98  F   UNL A   1      45.816  29.470  33.881  1.00  0.00    -0.203 F 
ATOM     99  F   UNL A   1      45.118  24.781  36.582  1.00  0.00    -0.200 F 
ATOM    100  C   UNL A   1      46.516  26.569  35.930  1.00  0.00     0.200 A 
ATOM    101  F   UNL A   1      47.873  28.379  35.259  1.00  0.00    -0.200 F 
ATOM    102  F   UNL A   1      47.536  26.042  36.623  1.00  0.00    -0.200 F 
ENDBRANCH  69  92
ENDBRANCH  43  44
ENDBRANCH  35  38
ENDBRANCH  33  34
ENDBRANCH  32  33
ENDBRANCH  31  32
ENDBRANCH   1  31
TORSDOF 16
ENDMDL
