MODEL 1
REMARK VINA RESULT:     -12.4      0.000      0.000
REMARK SMILES CCOc1ccc2[nH]c(C)c/c(=N\c3cccc(C(=O)NCCCCCCNC(=O)c4ccc(-c5c6nc(c(-c7c(F)c(F)c(F)c(F)c7F)c7ccc([nH]7)c(-c7c(F)c(F)c(F)c(F)c7F)c7nc(c(-c8c(F)c(F)c(F)c(F)c8F)c8ccc5[nH]8)C=C7)C=C6)cc4)c3)c2c1
REMARK SMILES IDX 24 1 23 2 22 3 21 4 19 5 20 6 18 8 14 9 15 10 94 11 16 12
REMARK SMILES IDX 17 13 13 14 4 15 5 16 96 17 6 18 95 19 7 20 12 21 8 22 11 23
REMARK SMILES IDX 9 24 10 26 3 27 2 28 1 29 25 30 26 31 27 32 28 33 29 34
REMARK SMILES IDX 30 36 31 37 32 38 93 39 33 40 92 41 34 42 35 43 36 44 86 45
REMARK SMILES IDX 37 46 91 47 85 48 87 49 38 50 90 51 84 52 83 53 39 55 71 56
REMARK SMILES IDX 51 57 70 58 52 59 55 60 69 61 88 62 53 63 54 64 68 66 89 67
REMARK SMILES IDX 56 68 40 69 41 70 49 71 42 72 43 73 47 74 50 75 44 76 45 77
REMARK SMILES IDX 48 78 46 79 72 80 73 81 81 82 74 83 75 84 79 85 82 86 76 87
REMARK SMILES IDX 77 88 80 89 78 90 57 91 58 92 66 93 59 94 60 95 64 96 67 97
REMARK SMILES IDX 61 98 62 99 65 100 63 101
REMARK H PARENT 21 7 8 25 28 35 87 54 55 65
REMARK Flexibility Score: inf
ROOT
ATOM      1  C   UNL A   1      31.945  28.895  26.243  1.00  0.00     0.002 C 
ENDROOT
BRANCH   1   2
ATOM      2  C   UNL A   1      32.017  29.265  24.761  1.00  0.00     0.021 C 
BRANCH   2   3
ATOM      3  C   UNL A   1      30.805  28.953  23.891  1.00  0.00     0.116 C 
BRANCH   3   4
ATOM      4  N   UNL A   1      31.048  28.006  22.822  1.00  0.00    -0.352 N 
ATOM      5  C   UNL A   1      31.371  26.666  22.850  1.00  0.00     0.251 C 
ATOM      6  O   UNL A   1      31.507  26.089  21.771  1.00  0.00    -0.269 OA
ATOM      7  H   UNL A   1      30.968  28.385  21.918  1.00  0.00     0.163 HD
BRANCH   5   8
ATOM      8  C   UNL A   1      31.620  25.908  24.111  1.00  0.00     0.041 A 
ATOM      9  C   UNL A   1      33.018  24.586  25.591  1.00  0.00     0.064 A 
ATOM     10  C   UNL A   1      31.921  24.338  26.421  1.00  0.00     0.028 A 
ATOM     11  C   UNL A   1      32.878  25.465  24.515  1.00  0.00     0.042 A 
ATOM     12  C   UNL A   1      30.668  24.852  26.089  1.00  0.00     0.003 A 
ATOM     13  C   UNL A   1      30.513  25.606  24.922  1.00  0.00     0.014 A 
BRANCH   9  14
ATOM     14  N   UNL A   1      34.243  23.912  25.727  1.00  0.00    -0.248 NA
ATOM     15  C   UNL A   1      38.091  22.058  25.616  1.00  0.00     0.120 A 
ATOM     16  C   UNL A   1      38.155  20.691  25.352  1.00  0.00     0.048 A 
ATOM     17  C   UNL A   1      36.864  22.721  25.624  1.00  0.00     0.059 A 
ATOM     18  C   UNL A   1      36.999  19.990  25.018  1.00  0.00     0.030 A 
ATOM     19  C   UNL A   1      35.698  22.015  25.299  1.00  0.00     0.027 A 
ATOM     20  C   UNL A   1      35.765  20.646  24.975  1.00  0.00     0.048 A 
ATOM     21  C   UNL A   1      34.360  22.698  25.258  1.00  0.00     0.075 A 
ATOM     22  N   UNL A   1      34.619  19.947  24.581  1.00  0.00    -0.359 N 
ATOM     23  C   UNL A   1      33.249  21.887  24.644  1.00  0.00     0.050 A 
ATOM     24  C   UNL A   1      33.418  20.580  24.386  1.00  0.00     0.014 A 
ATOM     25  H   UNL A   1      34.676  18.975  24.440  1.00  0.00     0.166 HD
ATOM     26  C   UNL A   1      32.279  19.742  23.875  1.00  0.00     0.064 C 
BRANCH  15  27
ATOM     27  O   UNL A   1      39.219  22.742  25.977  1.00  0.00    -0.494 OA
BRANCH  27  28
ATOM     28  C   UNL A   1      40.145  21.945  26.729  1.00  0.00     0.226 C 
ATOM     29  C   UNL A   1      41.572  22.095  26.219  1.00  0.00     0.049 C 
ENDBRANCH  27  28
ENDBRANCH  15  27
ENDBRANCH   9  14
ENDBRANCH   5   8
ENDBRANCH   3   4
ENDBRANCH   2   3
ENDBRANCH   1   2
BRANCH   1  30
ATOM     30  C   UNL A   1      32.429  29.931  27.257  1.00  0.00     0.002 C 
BRANCH  30  31
ATOM     31  C   UNL A   1      32.061  31.391  26.996  1.00  0.00     0.021 C 
BRANCH  31  32
ATOM     32  C   UNL A   1      33.146  32.428  27.259  1.00  0.00     0.116 C 
BRANCH  32  33
ATOM     33  N   UNL A   1      32.639  33.755  27.562  1.00  0.00    -0.352 N 
ATOM     34  C   UNL A   1      33.069  34.655  28.516  1.00  0.00     0.251 C 
ATOM     35  H   UNL A   1      31.882  34.054  27.010  1.00  0.00     0.163 HD
ATOM     36  O   UNL A   1      32.488  35.716  28.677  1.00  0.00    -0.269 OA
BRANCH  34  37
ATOM     37  C   UNL A   1      34.212  34.300  29.391  1.00  0.00     0.039 A 
ATOM     38  C   UNL A   1      35.527  34.571  29.009  1.00  0.00     0.014 A 
ATOM     39  C   UNL A   1      33.954  33.634  30.593  1.00  0.00     0.014 A 
ATOM     40  C   UNL A   1      36.582  34.013  29.727  1.00  0.00     0.010 A 
ATOM     41  C   UNL A   1      35.017  33.138  31.353  1.00  0.00     0.010 A 
ATOM     42  C   UNL A   1      36.338  33.269  30.893  1.00  0.00    -0.014 A 
BRANCH  42  43
ATOM     43  C   UNL A   1      37.460  32.586  31.588  1.00  0.00     0.031 A 
ATOM     44  C   UNL A   1      38.180  31.439  30.928  1.00  0.00     0.074 A 
ATOM     45  C   UNL A   1      37.868  33.025  32.793  1.00  0.00     0.049 A 
ATOM     46  N   UNL A   1      39.158  30.700  31.388  1.00  0.00    -0.248 NA
ATOM     47  C   UNL A   1      37.743  31.073  29.570  1.00  0.00     0.031 C 
ATOM     48  C   UNL A   1      37.274  34.141  33.528  1.00  0.00     0.029 A 
ATOM     49  N   UNL A   1      38.888  32.594  33.605  1.00  0.00    -0.354 N 
ATOM     50  C   UNL A   1      39.433  29.768  30.393  1.00  0.00     0.074 A 
ATOM     51  C   UNL A   1      38.507  30.021  29.311  1.00  0.00     0.031 C 
ATOM     52  C   UNL A   1      37.960  34.331  34.665  1.00  0.00     0.029 A 
ATOM     53  C   UNL A   1      39.005  33.316  34.767  1.00  0.00     0.049 A 
ATOM     54  H   UNL A   1      39.478  31.841  33.377  1.00  0.00     0.167 HD
ATOM     55  C   UNL A   1      40.378  28.799  30.380  1.00  0.00     0.037 A 
ATOM     56  C   UNL A   1      39.845  33.165  35.808  1.00  0.00     0.037 A 
ATOM     57  C   UNL A   1      41.322  28.566  31.443  1.00  0.00     0.049 A 
ATOM     58  C   UNL A   1      40.856  32.054  35.787  1.00  0.00     0.074 A 
ATOM     59  C   UNL A   1      42.338  27.626  31.504  1.00  0.00     0.029 A 
ATOM     60  N   UNL A   1      41.368  29.281  32.629  1.00  0.00    -0.354 N 
ATOM     61  N   UNL A   1      41.100  31.177  34.845  1.00  0.00    -0.248 NA
ATOM     62  C   UNL A   1      41.698  31.904  36.982  1.00  0.00     0.031 C 
ATOM     63  C   UNL A   1      42.974  27.750  32.743  1.00  0.00     0.029 A 
ATOM     64  C   UNL A   1      42.381  28.792  33.437  1.00  0.00     0.049 A 
ATOM     65  H   UNL A   1      40.769  30.027  32.863  1.00  0.00     0.167 HD
ATOM     66  C   UNL A   1      42.121  30.372  35.329  1.00  0.00     0.074 A 
ATOM     67  C   UNL A   1      42.471  30.882  36.639  1.00  0.00     0.031 C 
ATOM     68  C   UNL A   1      42.709  29.300  34.744  1.00  0.00     0.037 A 
BRANCH  55  69
ATOM     69  C   UNL A   1      40.442  27.900  29.180  1.00  0.00     0.064 A 
ATOM     70  C   UNL A   1      39.635  26.759  29.073  1.00  0.00     0.173 A 
ATOM     71  C   UNL A   1      41.275  28.220  28.097  1.00  0.00     0.173 A 
ATOM     72  F   UNL A   1      38.831  26.403  30.087  1.00  0.00    -0.203 F 
ATOM     73  C   UNL A   1      39.671  25.961  27.931  1.00  0.00     0.198 A 
ATOM     74  C   UNL A   1      41.291  27.434  26.947  1.00  0.00     0.198 A 
ATOM     75  F   UNL A   1      42.062  29.305  28.148  1.00  0.00    -0.203 F 
ATOM     76  F   UNL A   1      38.914  24.857  27.863  1.00  0.00    -0.200 F 
ATOM     77  C   UNL A   1      40.492  26.304  26.867  1.00  0.00     0.200 A 
ATOM     78  F   UNL A   1      42.077  27.773  25.916  1.00  0.00    -0.200 F 
ATOM     79  F   UNL A   1      40.516  25.543  25.765  1.00  0.00    -0.200 F 
ENDBRANCH  55  69
BRANCH  56  80
ATOM     80  C   UNL A   1      39.751  34.094  36.962  1.00  0.00     0.064 A 
ATOM     81  C   UNL A   1      38.943  33.790  38.065  1.00  0.00     0.173 A 
ATOM     82  C   UNL A   1      40.487  35.287  36.996  1.00  0.00     0.173 A 
ATOM     83  F   UNL A   1      38.205  32.671  38.066  1.00  0.00    -0.203 F 
ATOM     84  C   UNL A   1      38.874  34.648  39.161  1.00  0.00     0.198 A 
ATOM     85  C   UNL A   1      40.437  36.131  38.103  1.00  0.00     0.198 A 
ATOM     86  F   UNL A   1      41.276  35.620  35.964  1.00  0.00    -0.203 F 
ATOM     87  F   UNL A   1      38.074  34.348  40.193  1.00  0.00    -0.200 F 
ATOM     88  C   UNL A   1      39.628  35.812  39.183  1.00  0.00     0.200 A 
ATOM     89  F   UNL A   1      41.177  37.247  38.127  1.00  0.00    -0.200 F 
ATOM     90  F   UNL A   1      39.572  36.628  40.245  1.00  0.00    -0.200 F 
ENDBRANCH  56  80
BRANCH  68  91
ATOM     91  C   UNL A   1      43.789  28.602  35.516  1.00  0.00     0.064 A 
ATOM     92  C   UNL A   1      45.136  28.961  35.369  1.00  0.00     0.173 A 
ATOM     93  C   UNL A   1      43.470  27.600  36.444  1.00  0.00     0.173 A 
ATOM     94  F   UNL A   1      45.491  29.902  34.481  1.00  0.00    -0.203 F 
ATOM     95  C   UNL A   1      46.129  28.329  36.112  1.00  0.00     0.198 A 
ATOM     96  C   UNL A   1      44.464  26.989  37.204  1.00  0.00     0.198 A 
ATOM     97  F   UNL A   1      42.195  27.226  36.624  1.00  0.00    -0.203 F 
ATOM     98  F   UNL A   1      47.415  28.661  35.928  1.00  0.00    -0.200 F 
ATOM     99  C   UNL A   1      45.792  27.349  37.034  1.00  0.00     0.200 A 
ATOM    100  F   UNL A   1      44.135  26.049  38.101  1.00  0.00    -0.200 F 
ATOM    101  F   UNL A   1      46.748  26.747  37.754  1.00  0.00    -0.200 F 
ENDBRANCH  68  91
ENDBRANCH  42  43
ENDBRANCH  34  37
ENDBRANCH  32  33
ENDBRANCH  31  32
ENDBRANCH  30  31
ENDBRANCH   1  30
TORSDOF 16
ENDMDL
MODEL 2
REMARK VINA RESULT:     -12.0      5.135     11.290
REMARK SMILES CCOc1ccc2[nH]c(C)c/c(=N\c3cccc(C(=O)NCCCCCCNC(=O)c4ccc(-c5c6nc(c(-c7c(F)c(F)c(F)c(F)c7F)c7ccc([nH]7)c(-c7c(F)c(F)c(F)c(F)c7F)c7nc(c(-c8c(F)c(F)c(F)c(F)c8F)c8ccc5[nH]8)C=C7)C=C6)cc4)c3)c2c1
REMARK SMILES IDX 24 1 23 2 22 3 21 4 19 5 20 6 18 8 14 9 15 10 94 11 16 12
REMARK SMILES IDX 17 13 13 14 4 15 5 16 96 17 6 18 95 19 7 20 12 21 8 22 11 23
REMARK SMILES IDX 9 24 10 26 3 27 2 28 1 29 25 30 26 31 27 32 28 33 29 34
REMARK SMILES IDX 30 36 31 37 32 38 93 39 33 40 92 41 34 42 35 43 36 44 86 45
REMARK SMILES IDX 37 46 91 47 85 48 87 49 38 50 90 51 84 52 83 53 39 55 71 56
REMARK SMILES IDX 51 57 70 58 52 59 55 60 69 61 88 62 53 63 54 64 68 66 89 67
REMARK SMILES IDX 56 68 40 69 41 70 49 71 42 72 43 73 47 74 50 75 44 76 45 77
REMARK SMILES IDX 48 78 46 79 72 80 73 81 81 82 74 83 75 84 79 85 82 86 76 87
REMARK SMILES IDX 77 88 80 89 78 90 57 91 58 92 66 93 59 94 60 95 64 96 67 97
REMARK SMILES IDX 61 98 62 99 65 100 63 101
REMARK H PARENT 21 7 8 25 28 35 87 54 55 65
REMARK Flexibility Score: inf
ROOT
ATOM      1  C   UNL A   1      37.457  23.333  26.100  1.00  0.00     0.002 C 
ENDROOT
BRANCH   1   2
ATOM      2  C   UNL A   1      37.104  23.337  24.613  1.00  0.00     0.021 C 
BRANCH   2   3
ATOM      3  C   UNL A   1      36.230  22.204  24.087  1.00  0.00     0.116 C 
BRANCH   3   4
ATOM      4  N   UNL A   1      34.956  22.053  24.760  1.00  0.00    -0.352 N 
ATOM      5  C   UNL A   1      33.815  22.826  24.733  1.00  0.00     0.251 C 
ATOM      6  O   UNL A   1      32.853  22.448  25.402  1.00  0.00    -0.269 OA
ATOM      7  H   UNL A   1      34.894  21.258  25.337  1.00  0.00     0.163 HD
BRANCH   5   8
ATOM      8  C   UNL A   1      33.715  24.115  23.988  1.00  0.00     0.041 A 
ATOM      9  C   UNL A   1      33.653  26.539  23.874  1.00  0.00     0.064 A 
ATOM     10  C   UNL A   1      33.318  26.476  22.518  1.00  0.00     0.028 A 
ATOM     11  C   UNL A   1      33.963  25.363  24.558  1.00  0.00     0.042 A 
ATOM     12  C   UNL A   1      33.157  25.236  21.899  1.00  0.00     0.003 A 
ATOM     13  C   UNL A   1      33.324  24.062  22.640  1.00  0.00     0.014 A 
BRANCH   9  14
ATOM     14  N   UNL A   1      33.595  27.730  24.617  1.00  0.00    -0.248 NA
ATOM     15  C   UNL A   1      33.190  31.034  27.296  1.00  0.00     0.120 A 
ATOM     16  C   UNL A   1      32.134  31.920  27.092  1.00  0.00     0.048 A 
ATOM     17  C   UNL A   1      33.345  29.916  26.476  1.00  0.00     0.059 A 
ATOM     18  C   UNL A   1      31.179  31.655  26.113  1.00  0.00     0.030 A 
ATOM     19  C   UNL A   1      32.391  29.653  25.483  1.00  0.00     0.027 A 
ATOM     20  C   UNL A   1      31.291  30.516  25.311  1.00  0.00     0.048 A 
ATOM     21  C   UNL A   1      32.499  28.441  24.603  1.00  0.00     0.075 A 
ATOM     22  N   UNL A   1      30.296  30.226  24.371  1.00  0.00    -0.359 N 
ATOM     23  C   UNL A   1      31.278  28.148  23.768  1.00  0.00     0.050 A 
ATOM     24  C   UNL A   1      30.289  29.050  23.665  1.00  0.00     0.014 A 
ATOM     25  H   UNL A   1      29.582  30.884  24.212  1.00  0.00     0.166 HD
ATOM     26  C   UNL A   1      29.120  28.810  22.749  1.00  0.00     0.064 C 
BRANCH  15  27
ATOM     27  O   UNL A   1      34.147  31.309  28.234  1.00  0.00    -0.494 OA
BRANCH  27  28
ATOM     28  C   UNL A   1      34.405  32.712  28.381  1.00  0.00     0.226 C 
ATOM     29  C   UNL A   1      35.835  33.072  28.004  1.00  0.00     0.049 C 
ENDBRANCH  27  28
ENDBRANCH  15  27
ENDBRANCH   9  14
ENDBRANCH   5   8
ENDBRANCH   3   4
ENDBRANCH   2   3
ENDBRANCH   1   2
BRANCH   1  30
ATOM     30  C   UNL A   1      38.930  23.177  26.479  1.00  0.00     0.002 C 
BRANCH  30  31
ATOM     31  C   UNL A   1      39.427  21.766  26.788  1.00  0.00     0.021 C 
BRANCH  31  32
ATOM     32  C   UNL A   1      39.413  20.768  25.636  1.00  0.00     0.116 C 
BRANCH  32  33
ATOM     33  N   UNL A   1      40.248  19.599  25.852  1.00  0.00    -0.352 N 
ATOM     34  C   UNL A   1      41.576  19.532  26.219  1.00  0.00     0.251 C 
ATOM     35  H   UNL A   1      39.802  18.732  25.718  1.00  0.00     0.163 HD
ATOM     36  O   UNL A   1      42.146  18.456  26.301  1.00  0.00    -0.269 OA
BRANCH  34  37
ATOM     37  C   UNL A   1      42.331  20.786  26.455  1.00  0.00     0.039 A 
ATOM     38  C   UNL A   1      42.635  21.215  27.749  1.00  0.00     0.014 A 
ATOM     39  C   UNL A   1      42.691  21.569  25.354  1.00  0.00     0.014 A 
ATOM     40  C   UNL A   1      43.122  22.504  27.951  1.00  0.00     0.010 A 
ATOM     41  C   UNL A   1      43.252  22.834  25.556  1.00  0.00     0.010 A 
ATOM     42  C   UNL A   1      43.413  23.337  26.858  1.00  0.00    -0.014 A 
BRANCH  42  43
ATOM     43  C   UNL A   1      43.827  24.746  27.086  1.00  0.00     0.031 A 
ATOM     44  C   UNL A   1      42.837  25.756  27.606  1.00  0.00     0.074 A 
ATOM     45  C   UNL A   1      45.104  25.112  26.874  1.00  0.00     0.049 A 
ATOM     46  N   UNL A   1      43.002  27.034  27.837  1.00  0.00    -0.248 NA
ATOM     47  C   UNL A   1      41.482  25.265  27.906  1.00  0.00     0.031 C 
ATOM     48  C   UNL A   1      46.165  24.226  26.396  1.00  0.00     0.029 A 
ATOM     49  N   UNL A   1      45.730  26.322  27.045  1.00  0.00    -0.354 N 
ATOM     50  C   UNL A   1      41.771  27.504  28.281  1.00  0.00     0.074 A 
ATOM     51  C   UNL A   1      40.861  26.379  28.270  1.00  0.00     0.031 C 
ATOM     52  C   UNL A   1      47.319  24.910  26.347  1.00  0.00     0.029 A 
ATOM     53  C   UNL A   1      47.067  26.296  26.733  1.00  0.00     0.049 A 
ATOM     54  H   UNL A   1      45.266  27.129  27.362  1.00  0.00     0.167 HD
ATOM     55  C   UNL A   1      41.434  28.756  28.672  1.00  0.00     0.037 A 
ATOM     56  C   UNL A   1      47.984  27.282  26.738  1.00  0.00     0.037 A 
ATOM     57  C   UNL A   1      42.346  29.870  28.714  1.00  0.00     0.049 A 
ATOM     58  C   UNL A   1      47.574  28.671  27.134  1.00  0.00     0.074 A 
ATOM     59  C   UNL A   1      42.102  31.169  29.128  1.00  0.00     0.029 A 
ATOM     60  N   UNL A   1      43.678  29.815  28.333  1.00  0.00    -0.354 N 
ATOM     61  N   UNL A   1      46.406  29.102  27.544  1.00  0.00    -0.248 NA
ATOM     62  C   UNL A   1      48.606  29.714  27.055  1.00  0.00     0.031 C 
ATOM     63  C   UNL A   1      43.278  31.909  28.961  1.00  0.00     0.029 A 
ATOM     64  C   UNL A   1      44.264  31.062  28.482  1.00  0.00     0.049 A 
ATOM     65  H   UNL A   1      44.139  29.010  28.005  1.00  0.00     0.167 HD
ATOM     66  C   UNL A   1      46.561  30.463  27.772  1.00  0.00     0.074 A 
ATOM     67  C   UNL A   1      47.944  30.780  27.482  1.00  0.00     0.031 C 
ATOM     68  C   UNL A   1      45.637  31.367  28.177  1.00  0.00     0.037 A 
BRANCH  55  69
ATOM     69  C   UNL A   1      40.012  29.002  29.082  1.00  0.00     0.064 A 
ATOM     70  C   UNL A   1      39.625  29.000  30.429  1.00  0.00     0.173 A 
ATOM     71  C   UNL A   1      39.038  29.305  28.119  1.00  0.00     0.173 A 
ATOM     72  F   UNL A   1      40.516  28.703  31.387  1.00  0.00    -0.203 F 
ATOM     73  C   UNL A   1      38.310  29.277  30.796  1.00  0.00     0.198 A 
ATOM     74  C   UNL A   1      37.730  29.607  28.491  1.00  0.00     0.198 A 
ATOM     75  F   UNL A   1      39.359  29.326  26.816  1.00  0.00    -0.203 F 
ATOM     76  F   UNL A   1      37.955  29.239  32.088  1.00  0.00    -0.200 F 
ATOM     77  C   UNL A   1      37.367  29.589  29.828  1.00  0.00     0.200 A 
ATOM     78  F   UNL A   1      36.823  29.917  27.554  1.00  0.00    -0.200 F 
ATOM     79  F   UNL A   1      36.105  29.868  30.184  1.00  0.00    -0.200 F 
ENDBRANCH  55  69
BRANCH  56  80
ATOM     80  C   UNL A   1      49.382  26.979  26.342  1.00  0.00     0.064 A 
ATOM     81  C   UNL A   1      50.334  26.601  27.297  1.00  0.00     0.173 A 
ATOM     82  C   UNL A   1      49.787  27.038  25.000  1.00  0.00     0.173 A 
ATOM     83  F   UNL A   1      49.997  26.553  28.594  1.00  0.00    -0.203 F 
ATOM     84  C   UNL A   1      51.640  26.290  26.925  1.00  0.00     0.198 A 
ATOM     85  C   UNL A   1      51.086  26.703  24.626  1.00  0.00     0.198 A 
ATOM     86  F   UNL A   1      48.911  27.395  24.049  1.00  0.00    -0.203 F 
ATOM     87  F   UNL A   1      52.539  25.956  27.860  1.00  0.00    -0.200 F 
ATOM     88  C   UNL A   1      52.013  26.333  25.589  1.00  0.00     0.200 A 
ATOM     89  F   UNL A   1      51.438  26.732  23.334  1.00  0.00    -0.200 F 
ATOM     90  F   UNL A   1      53.265  26.020  25.232  1.00  0.00    -0.200 F 
ENDBRANCH  56  80
BRANCH  68  91
ATOM     91  C   UNL A   1      46.088  32.790  28.325  1.00  0.00     0.064 A 
ATOM     92  C   UNL A   1      46.658  33.252  29.519  1.00  0.00     0.173 A 
ATOM     93  C   UNL A   1      45.992  33.686  27.250  1.00  0.00     0.173 A 
ATOM     94  F   UNL A   1      46.756  32.436  30.580  1.00  0.00    -0.203 F 
ATOM     95  C   UNL A   1      47.103  34.566  29.638  1.00  0.00     0.198 A 
ATOM     96  C   UNL A   1      46.461  34.992  27.364  1.00  0.00     0.198 A 
ATOM     97  F   UNL A   1      45.458  33.290  26.085  1.00  0.00    -0.203 F 
ATOM     98  F   UNL A   1      47.611  34.997  30.801  1.00  0.00    -0.200 F 
ATOM     99  C   UNL A   1      47.010  35.432  28.559  1.00  0.00     0.200 A 
ATOM    100  F   UNL A   1      46.379  35.825  26.318  1.00  0.00    -0.200 F 
ATOM    101  F   UNL A   1      47.445  36.695  28.673  1.00  0.00    -0.200 F 
ENDBRANCH  68  91
ENDBRANCH  42  43
ENDBRANCH  34  37
ENDBRANCH  32  33
ENDBRANCH  31  32
ENDBRANCH  30  31
ENDBRANCH   1  30
TORSDOF 16
ENDMDL
MODEL 3
REMARK VINA RESULT:     -11.8      5.022     10.302
REMARK SMILES CCOc1ccc2[nH]c(C)c/c(=N\c3cccc(C(=O)NCCCCCCNC(=O)c4ccc(-c5c6nc(c(-c7c(F)c(F)c(F)c(F)c7F)c7ccc([nH]7)c(-c7c(F)c(F)c(F)c(F)c7F)c7nc(c(-c8c(F)c(F)c(F)c(F)c8F)c8ccc5[nH]8)C=C7)C=C6)cc4)c3)c2c1
REMARK SMILES IDX 24 1 23 2 22 3 21 4 19 5 20 6 18 8 14 9 15 10 94 11 16 12
REMARK SMILES IDX 17 13 13 14 4 15 5 16 96 17 6 18 95 19 7 20 12 21 8 22 11 23
REMARK SMILES IDX 9 24 10 26 3 27 2 28 1 29 25 30 26 31 27 32 28 33 29 34
REMARK SMILES IDX 30 36 31 37 32 38 93 39 33 40 92 41 34 42 35 43 36 44 86 45
REMARK SMILES IDX 37 46 91 47 85 48 87 49 38 50 90 51 84 52 83 53 39 55 71 56
REMARK SMILES IDX 51 57 70 58 52 59 55 60 69 61 88 62 53 63 54 64 68 66 89 67
REMARK SMILES IDX 56 68 40 69 41 70 49 71 42 72 43 73 47 74 50 75 44 76 45 77
REMARK SMILES IDX 48 78 46 79 72 80 73 81 81 82 74 83 75 84 79 85 82 86 76 87
REMARK SMILES IDX 77 88 80 89 78 90 57 91 58 92 66 93 59 94 60 95 64 96 67 97
REMARK SMILES IDX 61 98 62 99 65 100 63 101
REMARK H PARENT 21 7 8 25 28 35 87 54 55 65
REMARK Flexibility Score: inf
ROOT
ATOM      1  C   UNL A   1      37.350  23.618  26.041  1.00  0.00     0.002 C 
ENDROOT
BRANCH   1   2
ATOM      2  C   UNL A   1      36.743  23.528  24.641  1.00  0.00     0.021 C 
BRANCH   2   3
ATOM      3  C   UNL A   1      36.045  22.230  24.251  1.00  0.00     0.116 C 
BRANCH   3   4
ATOM      4  N   UNL A   1      34.696  22.085  24.760  1.00  0.00    -0.352 N 
ATOM      5  C   UNL A   1      33.576  22.873  24.606  1.00  0.00     0.251 C 
ATOM      6  O   UNL A   1      32.535  22.498  25.145  1.00  0.00    -0.269 OA
ATOM      7  H   UNL A   1      34.555  21.283  25.312  1.00  0.00     0.163 HD
BRANCH   5   8
ATOM      8  C   UNL A   1      33.582  24.175  23.875  1.00  0.00     0.041 A 
ATOM      9  C   UNL A   1      33.620  26.601  23.794  1.00  0.00     0.064 A 
ATOM     10  C   UNL A   1      33.389  26.567  22.416  1.00  0.00     0.028 A 
ATOM     11  C   UNL A   1      33.832  25.405  24.482  1.00  0.00     0.042 A 
ATOM     12  C   UNL A   1      33.230  25.342  21.767  1.00  0.00     0.003 A 
ATOM     13  C   UNL A   1      33.295  24.154  22.500  1.00  0.00     0.014 A 
BRANCH   9  14
ATOM     14  N   UNL A   1      33.550  27.784  24.549  1.00  0.00    -0.248 NA
ATOM     15  C   UNL A   1      33.097  31.059  27.254  1.00  0.00     0.120 A 
ATOM     16  C   UNL A   1      32.049  31.951  27.037  1.00  0.00     0.048 A 
ATOM     17  C   UNL A   1      33.266  29.950  26.425  1.00  0.00     0.059 A 
ATOM     18  C   UNL A   1      31.115  31.700  26.034  1.00  0.00     0.030 A 
ATOM     19  C   UNL A   1      32.334  29.701  25.409  1.00  0.00     0.027 A 
ATOM     20  C   UNL A   1      31.241  30.569  25.222  1.00  0.00     0.048 A 
ATOM     21  C   UNL A   1      32.456  28.498  24.518  1.00  0.00     0.075 A 
ATOM     22  N   UNL A   1      30.265  30.294  24.258  1.00  0.00    -0.359 N 
ATOM     23  C   UNL A   1      31.254  28.219  23.654  1.00  0.00     0.050 A 
ATOM     24  C   UNL A   1      30.270  29.125  23.538  1.00  0.00     0.014 A 
ATOM     25  H   UNL A   1      29.557  30.956  24.090  1.00  0.00     0.166 HD
ATOM     26  C   UNL A   1      29.121  28.899  22.595  1.00  0.00     0.064 C 
BRANCH  15  27
ATOM     27  O   UNL A   1      34.034  31.321  28.215  1.00  0.00    -0.494 OA
BRANCH  27  28
ATOM     28  C   UNL A   1      34.556  32.656  28.145  1.00  0.00     0.226 C 
ATOM     29  C   UNL A   1      34.455  33.378  29.482  1.00  0.00     0.049 C 
ENDBRANCH  27  28
ENDBRANCH  15  27
ENDBRANCH   9  14
ENDBRANCH   5   8
ENDBRANCH   3   4
ENDBRANCH   2   3
ENDBRANCH   1   2
BRANCH   1  30
ATOM     30  C   UNL A   1      38.822  23.237  26.202  1.00  0.00     0.002 C 
BRANCH  30  31
ATOM     31  C   UNL A   1      39.134  21.783  26.550  1.00  0.00     0.021 C 
BRANCH  31  32
ATOM     32  C   UNL A   1      39.245  20.809  25.383  1.00  0.00     0.116 C 
BRANCH  32  33
ATOM     33  N   UNL A   1      40.058  19.637  25.661  1.00  0.00    -0.352 N 
ATOM     34  C   UNL A   1      41.361  19.568  26.111  1.00  0.00     0.251 C 
ATOM     35  H   UNL A   1      39.618  18.772  25.508  1.00  0.00     0.163 HD
ATOM     36  O   UNL A   1      41.918  18.490  26.239  1.00  0.00    -0.269 OA
BRANCH  34  37
ATOM     37  C   UNL A   1      42.106  20.820  26.383  1.00  0.00     0.039 A 
ATOM     38  C   UNL A   1      42.428  21.202  27.686  1.00  0.00     0.014 A 
ATOM     39  C   UNL A   1      42.438  21.649  25.307  1.00  0.00     0.014 A 
ATOM     40  C   UNL A   1      42.906  22.488  27.930  1.00  0.00     0.010 A 
ATOM     41  C   UNL A   1      42.989  22.911  25.548  1.00  0.00     0.010 A 
ATOM     42  C   UNL A   1      43.167  23.365  26.865  1.00  0.00    -0.014 A 
BRANCH  42  43
ATOM     43  C   UNL A   1      43.571  24.770  27.140  1.00  0.00     0.031 A 
ATOM     44  C   UNL A   1      44.981  25.224  26.867  1.00  0.00     0.074 A 
ATOM     45  C   UNL A   1      42.660  25.653  27.590  1.00  0.00     0.049 A 
ATOM     46  N   UNL A   1      45.528  26.397  27.073  1.00  0.00    -0.248 NA
ATOM     47  C   UNL A   1      45.900  24.231  26.287  1.00  0.00     0.031 C 
ATOM     48  C   UNL A   1      41.258  25.347  27.870  1.00  0.00     0.029 A 
ATOM     49  N   UNL A   1      42.775  26.990  27.878  1.00  0.00    -0.354 N 
ATOM     50  C   UNL A   1      46.855  26.274  26.675  1.00  0.00     0.074 A 
ATOM     51  C   UNL A   1      47.038  24.909  26.233  1.00  0.00     0.031 C 
ATOM     52  C   UNL A   1      40.632  26.470  28.254  1.00  0.00     0.029 A 
ATOM     53  C   UNL A   1      41.601  27.561  28.303  1.00  0.00     0.049 A 
ATOM     54  H   UNL A   1      43.617  27.491  27.787  1.00  0.00     0.167 HD
ATOM     55  C   UNL A   1      47.826  27.217  26.669  1.00  0.00     0.037 A 
ATOM     56  C   UNL A   1      41.339  28.818  28.708  1.00  0.00     0.037 A 
ATOM     57  C   UNL A   1      47.638  28.585  27.079  1.00  0.00     0.049 A 
ATOM     58  C   UNL A   1      42.445  29.834  28.733  1.00  0.00     0.074 A 
ATOM     59  C   UNL A   1      48.557  29.620  27.076  1.00  0.00     0.029 A 
ATOM     60  N   UNL A   1      46.448  29.108  27.560  1.00  0.00    -0.354 N 
ATOM     61  N   UNL A   1      43.695  29.702  28.362  1.00  0.00    -0.248 NA
ATOM     62  C   UNL A   1      42.107  31.168  29.246  1.00  0.00     0.031 C 
ATOM     63  C   UNL A   1      47.933  30.761  27.591  1.00  0.00     0.029 A 
ATOM     64  C   UNL A   1      46.614  30.447  27.876  1.00  0.00     0.049 A 
ATOM     65  H   UNL A   1      45.608  28.604  27.661  1.00  0.00     0.167 HD
ATOM     66  C   UNL A   1      44.293  30.933  28.595  1.00  0.00     0.074 A 
ATOM     67  C   UNL A   1      43.261  31.808  29.114  1.00  0.00     0.031 C 
ATOM     68  C   UNL A   1      45.583  31.301  28.404  1.00  0.00     0.037 A 
BRANCH  55  69
ATOM     69  C   UNL A   1      49.196  26.807  26.213  1.00  0.00     0.064 A 
ATOM     70  C   UNL A   1      49.595  26.941  24.875  1.00  0.00     0.173 A 
ATOM     71  C   UNL A   1      50.140  26.333  27.136  1.00  0.00     0.173 A 
ATOM     72  F   UNL A   1      48.725  27.377  23.952  1.00  0.00    -0.203 F 
ATOM     73  C   UNL A   1      50.886  26.601  24.476  1.00  0.00     0.198 A 
ATOM     74  C   UNL A   1      51.437  26.017  26.739  1.00  0.00     0.198 A 
ATOM     75  F   UNL A   1      49.809  26.193  28.429  1.00  0.00    -0.203 F 
ATOM     76  F   UNL A   1      51.236  26.707  23.187  1.00  0.00    -0.200 F 
ATOM     77  C   UNL A   1      51.807  26.148  25.409  1.00  0.00     0.200 A 
ATOM     78  F   UNL A   1      52.328  25.590  27.643  1.00  0.00    -0.200 F 
ATOM     79  F   UNL A   1      53.052  25.833  25.025  1.00  0.00    -0.200 F 
ENDBRANCH  55  69
BRANCH  56  80
ATOM     80  C   UNL A   1      39.962  29.176  29.131  1.00  0.00     0.064 A 
ATOM     81  C   UNL A   1      38.986  29.518  28.187  1.00  0.00     0.173 A 
ATOM     82  C   UNL A   1      39.588  29.155  30.483  1.00  0.00     0.173 A 
ATOM     83  F   UNL A   1      39.304  29.573  26.886  1.00  0.00    -0.203 F 
ATOM     84  C   UNL A   1      37.685  29.828  28.579  1.00  0.00     0.198 A 
ATOM     85  C   UNL A   1      38.281  29.440  30.872  1.00  0.00     0.198 A 
ATOM     86  F   UNL A   1      40.487  28.832  31.424  1.00  0.00    -0.203 F 
ATOM     87  F   UNL A   1      36.776  30.178  27.659  1.00  0.00    -0.200 F 
ATOM     88  C   UNL A   1      37.332  29.781  29.920  1.00  0.00     0.200 A 
ATOM     89  F   UNL A   1      37.941  29.380  32.166  1.00  0.00    -0.200 F 
ATOM     90  F   UNL A   1      36.077  30.064  30.294  1.00  0.00    -0.200 F 
ENDBRANCH  56  80
BRANCH  68  91
ATOM     91  C   UNL A   1      45.956  32.709  28.764  1.00  0.00     0.064 A 
ATOM     92  C   UNL A   1      46.452  33.028  30.035  1.00  0.00     0.173 A 
ATOM     93  C   UNL A   1      45.860  33.738  27.815  1.00  0.00     0.173 A 
ATOM     94  F   UNL A   1      46.546  32.080  30.980  1.00  0.00    -0.203 F 
ATOM     95  C   UNL A   1      46.825  34.332  30.350  1.00  0.00     0.198 A 
ATOM     96  C   UNL A   1      46.258  35.035  28.126  1.00  0.00     0.198 A 
ATOM     97  F   UNL A   1      45.396  33.481  26.583  1.00  0.00    -0.203 F 
ATOM     98  F   UNL A   1      47.262  34.622  31.584  1.00  0.00    -0.200 F 
ATOM     99  C   UNL A   1      46.735  35.332  29.394  1.00  0.00     0.200 A 
ATOM    100  F   UNL A   1      46.179  35.999  27.198  1.00  0.00    -0.200 F 
ATOM    101  F   UNL A   1      47.101  36.585  29.697  1.00  0.00    -0.200 F 
ENDBRANCH  68  91
ENDBRANCH  42  43
ENDBRANCH  34  37
ENDBRANCH  32  33
ENDBRANCH  31  32
ENDBRANCH  30  31
ENDBRANCH   1  30
TORSDOF 16
ENDMDL
