MODEL 1
REMARK VINA RESULT:     -12.2      0.000      0.000
REMARK SMILES NS(=O)(=O)c1ccc(-n2nc(C(F)(F)F)cc2-c2ccc(CC(=O)NCCCCCCNC(=O)c3ccc(-c4c5nc(c(-c6c(F)c(F)c(F)c(F)c6F)c6ccc([nH]6)c(-c6c(F)c(F)c(F)c(F)c6F)c6nc(c(-c7c(F)c(F)c(F)c(F)c7F)c7ccc4[nH]7)C=C6)C=C5)cc3)cc2)cc1
REMARK SMILES IDX 27 1 26 2 25 3 23 4 24 5 22 7 21 8 18 9 19 10 99 11 20 12
REMARK SMILES IDX 98 13 17 14 9 15 10 16 11 17 16 18 8 19 5 20 6 21 101 22
REMARK SMILES IDX 7 23 100 24 2 25 3 26 4 27 1 28 12 31 13 32 14 33 15 34
REMARK SMILES IDX 28 35 29 36 30 37 31 38 32 39 33 40 34 42 35 43 36 44 97 45
REMARK SMILES IDX 37 46 96 47 38 48 39 49 40 50 90 51 41 52 95 53 89 54 91 55
REMARK SMILES IDX 42 56 94 57 88 58 87 59 43 61 75 62 55 63 74 64 56 65 59 66
REMARK SMILES IDX 73 67 92 68 57 69 58 70 72 72 93 73 60 74 44 75 45 76 53 77
REMARK SMILES IDX 46 78 47 79 51 80 54 81 48 82 49 83 52 84 50 85 76 86 77 87
REMARK SMILES IDX 85 88 78 89 79 90 83 91 86 92 80 93 81 94 84 95 82 96 61 97
REMARK SMILES IDX 62 98 70 99 63 100 64 101 68 102 71 103 65 104 66 105 69 106
REMARK SMILES IDX 67 107
REMARK H PARENT 25 6 1 29 1 30 32 41 91 60 59 71
REMARK Flexibility Score: inf
ROOT
ATOM      1  C   UNL A   1      34.126  35.103  29.113  1.00  0.00     0.021 C 
ENDROOT
BRANCH   1   2
ATOM      2  C   UNL A   1      33.996  34.137  27.935  1.00  0.00     0.116 C 
BRANCH   2   3
ATOM      3  N   UNL A   1      34.999  33.093  28.001  1.00  0.00    -0.356 N 
ATOM      4  C   UNL A   1      34.839  31.738  28.039  1.00  0.00     0.224 C 
ATOM      5  O   UNL A   1      35.837  31.035  28.215  1.00  0.00    -0.275 OA
ATOM      6  H   UNL A   1      35.932  33.406  28.020  1.00  0.00     0.163 HD
BRANCH   4   7
ATOM      7  C   UNL A   1      33.470  31.120  27.815  1.00  0.00     0.135 C 
BRANCH   7   8
ATOM      8  C   UNL A   1      33.501  29.798  27.088  1.00  0.00    -0.039 A 
ATOM      9  C   UNL A   1      33.427  27.407  25.634  1.00  0.00     0.000 A 
ATOM     10  C   UNL A   1      32.796  27.495  26.880  1.00  0.00     0.010 A 
ATOM     11  C   UNL A   1      34.150  28.496  25.147  1.00  0.00     0.010 A 
ATOM     12  C   UNL A   1      32.826  28.687  27.602  1.00  0.00     0.005 A 
ATOM     13  C   UNL A   1      34.199  29.678  25.877  1.00  0.00     0.005 A 
BRANCH   9  14
ATOM     14  C   UNL A   1      33.336  26.197  24.835  1.00  0.00     0.075 A 
ATOM     15  N   UNL A   1      32.312  25.912  23.952  1.00  0.00    -0.233 N 
ATOM     16  N   UNL A   1      32.452  24.684  23.390  1.00  0.00    -0.163 NA
ATOM     17  C   UNL A   1      33.582  24.177  23.915  1.00  0.00     0.167 A 
ATOM     18  C   UNL A   1      34.163  25.091  24.824  1.00  0.00     0.064 A 
BRANCH  15  19
ATOM     19  C   UNL A   1      31.255  26.767  23.551  1.00  0.00     0.065 A 
ATOM     20  C   UNL A   1      29.235  28.564  22.882  1.00  0.00     0.082 A 
ATOM     21  C   UNL A   1      28.937  27.434  23.650  1.00  0.00     0.024 A 
ATOM     22  C   UNL A   1      30.532  28.778  22.412  1.00  0.00     0.024 A 
ATOM     23  C   UNL A   1      29.949  26.525  23.986  1.00  0.00     0.030 A 
ATOM     24  C   UNL A   1      31.539  27.871  22.738  1.00  0.00     0.030 A 
BRANCH  20  25
ATOM     25  S   UNL A   1      27.989  29.737  22.433  1.00  0.00     0.238 S 
ATOM     26  O   UNL A   1      28.017  29.916  21.006  1.00  0.00    -0.207 OA
ATOM     27  O   UNL A   1      28.046  30.847  23.362  1.00  0.00    -0.207 OA
BRANCH  25  28
ATOM     28  N   UNL A   1      26.535  28.953  22.752  1.00  0.00    -0.225 NA
ATOM     29  H   UNL A   1      26.229  28.453  21.917  1.00  0.00     0.137 HD
ATOM     30  H   UNL A   1      25.829  29.641  23.016  1.00  0.00     0.137 HD
ENDBRANCH  25  28
ENDBRANCH  20  25
ENDBRANCH  15  19
BRANCH  17  31
ATOM     31  C   UNL A   1      34.110  22.815  23.551  1.00  0.00     0.435 C 
ATOM     32  F   UNL A   1      33.132  21.975  23.121  1.00  0.00    -0.164 F 
ATOM     33  F   UNL A   1      35.043  22.870  22.561  1.00  0.00    -0.164 F 
ATOM     34  F   UNL A   1      34.710  22.204  24.609  1.00  0.00    -0.164 F 
ENDBRANCH  17  31
ENDBRANCH   9  14
ENDBRANCH   7   8
ENDBRANCH   4   7
ENDBRANCH   2   3
ENDBRANCH   1   2
BRANCH   1  35
ATOM     35  C   UNL A   1      33.704  34.504  30.461  1.00  0.00     0.002 C 
BRANCH  35  36
ATOM     36  C   UNL A   1      34.833  34.258  31.473  1.00  0.00     0.002 C 
BRANCH  36  37
ATOM     37  C   UNL A   1      35.107  32.792  31.846  1.00  0.00     0.021 C 
BRANCH  37  38
ATOM     38  C   UNL A   1      36.507  32.316  31.490  1.00  0.00     0.116 C 
BRANCH  38  39
ATOM     39  N   UNL A   1      37.118  33.098  30.411  1.00  0.00    -0.352 N 
ATOM     40  C   UNL A   1      38.404  33.016  29.907  1.00  0.00     0.251 C 
ATOM     41  H   UNL A   1      36.535  33.770  29.989  1.00  0.00     0.163 HD
ATOM     42  O   UNL A   1      38.897  33.945  29.278  1.00  0.00    -0.269 OA
BRANCH  40  43
ATOM     43  C   UNL A   1      39.170  31.776  30.121  1.00  0.00     0.039 A 
ATOM     44  C   UNL A   1      38.693  30.518  29.743  1.00  0.00     0.014 A 
ATOM     45  C   UNL A   1      40.420  31.907  30.712  1.00  0.00     0.014 A 
ATOM     46  C   UNL A   1      39.521  29.408  29.915  1.00  0.00     0.010 A 
ATOM     47  C   UNL A   1      41.303  30.868  30.667  1.00  0.00     0.010 A 
ATOM     48  C   UNL A   1      40.833  29.598  30.375  1.00  0.00    -0.014 A 
BRANCH  48  49
ATOM     49  C   UNL A   1      41.799  28.514  30.495  1.00  0.00     0.031 A 
ATOM     50  C   UNL A   1      42.197  28.206  31.893  1.00  0.00     0.074 A 
ATOM     51  C   UNL A   1      42.080  27.687  29.460  1.00  0.00     0.049 A 
ATOM     52  N   UNL A   1      43.361  28.341  32.433  1.00  0.00    -0.248 NA
ATOM     53  C   UNL A   1      41.138  27.834  32.846  1.00  0.00     0.031 C 
ATOM     54  C   UNL A   1      41.498  27.677  28.114  1.00  0.00     0.029 A 
ATOM     55  N   UNL A   1      42.898  26.599  29.425  1.00  0.00    -0.354 N 
ATOM     56  C   UNL A   1      43.232  27.877  33.739  1.00  0.00     0.074 A 
ATOM     57  C   UNL A   1      41.820  27.774  33.991  1.00  0.00     0.031 C 
ATOM     58  C   UNL A   1      41.815  26.525  27.479  1.00  0.00     0.029 A 
ATOM     59  C   UNL A   1      42.760  25.789  28.295  1.00  0.00     0.049 A 
ATOM     60  H   UNL A   1      43.541  26.399  30.143  1.00  0.00     0.167 HD
ATOM     61  C   UNL A   1      44.306  27.371  34.409  1.00  0.00     0.037 A 
ATOM     62  C   UNL A   1      43.377  24.596  28.076  1.00  0.00     0.037 A 
ATOM     63  C   UNL A   1      45.539  27.755  33.764  1.00  0.00     0.049 A 
ATOM     64  C   UNL A   1      44.506  24.522  29.030  1.00  0.00     0.074 A 
ATOM     65  C   UNL A   1      46.140  28.963  33.467  1.00  0.00     0.029 A 
ATOM     66  N   UNL A   1      46.158  26.828  32.962  1.00  0.00    -0.354 N 
ATOM     67  N   UNL A   1      45.573  25.262  28.934  1.00  0.00    -0.248 NA
ATOM     68  C   UNL A   1      44.228  23.974  30.350  1.00  0.00     0.031 C 
ATOM     69  C   UNL A   1      46.707  28.782  32.170  1.00  0.00     0.029 A 
ATOM     70  C   UNL A   1      46.490  27.458  31.791  1.00  0.00     0.049 A 
ATOM     71  H   UNL A   1      46.333  25.886  33.187  1.00  0.00     0.167 HD
ATOM     72  C   UNL A   1      45.863  25.622  30.239  1.00  0.00     0.074 A 
ATOM     73  C   UNL A   1      45.045  24.743  31.075  1.00  0.00     0.031 C 
ATOM     74  C   UNL A   1      46.501  26.797  30.511  1.00  0.00     0.037 A 
BRANCH  61  75
ATOM     75  C   UNL A   1      44.246  26.226  35.395  1.00  0.00     0.064 A 
ATOM     76  C   UNL A   1      44.836  26.395  36.665  1.00  0.00     0.173 A 
ATOM     77  C   UNL A   1      43.913  24.895  35.058  1.00  0.00     0.173 A 
ATOM     78  F   UNL A   1      45.196  27.613  37.097  1.00  0.00    -0.203 F 
ATOM     79  C   UNL A   1      45.163  25.308  37.482  1.00  0.00     0.198 A 
ATOM     80  C   UNL A   1      44.191  23.819  35.899  1.00  0.00     0.198 A 
ATOM     81  F   UNL A   1      43.410  24.559  33.866  1.00  0.00    -0.203 F 
ATOM     82  F   UNL A   1      45.847  25.511  38.615  1.00  0.00    -0.200 F 
ATOM     83  C   UNL A   1      44.850  24.020  37.093  1.00  0.00     0.200 A 
ATOM     84  F   UNL A   1      43.885  22.576  35.499  1.00  0.00    -0.200 F 
ATOM     85  F   UNL A   1      45.217  22.973  37.841  1.00  0.00    -0.200 F 
ENDBRANCH  61  75
BRANCH  62  86
ATOM     86  C   UNL A   1      42.961  23.402  27.300  1.00  0.00     0.064 A 
ATOM     87  C   UNL A   1      43.650  22.963  26.159  1.00  0.00     0.173 A 
ATOM     88  C   UNL A   1      42.053  22.491  27.852  1.00  0.00     0.173 A 
ATOM     89  F   UNL A   1      44.567  23.751  25.584  1.00  0.00    -0.203 F 
ATOM     90  C   UNL A   1      43.458  21.680  25.627  1.00  0.00     0.198 A 
ATOM     91  C   UNL A   1      41.853  21.212  27.319  1.00  0.00     0.198 A 
ATOM     92  F   UNL A   1      41.424  22.824  28.980  1.00  0.00    -0.203 F 
ATOM     93  F   UNL A   1      44.175  21.278  24.568  1.00  0.00    -0.200 F 
ATOM     94  C   UNL A   1      42.569  20.802  26.216  1.00  0.00     0.200 A 
ATOM     95  F   UNL A   1      41.003  20.348  27.891  1.00  0.00    -0.200 F 
ATOM     96  F   UNL A   1      42.419  19.556  25.745  1.00  0.00    -0.200 F 
ENDBRANCH  62  86
BRANCH  74  97
ATOM     97  C   UNL A   1      47.059  27.575  29.350  1.00  0.00     0.064 A 
ATOM     98  C   UNL A   1      46.355  28.581  28.665  1.00  0.00     0.173 A 
ATOM     99  C   UNL A   1      48.409  27.403  29.031  1.00  0.00     0.173 A 
ATOM    100  F   UNL A   1      45.087  28.870  28.977  1.00  0.00    -0.203 F 
ATOM    101  C   UNL A   1      46.972  29.359  27.686  1.00  0.00     0.198 A 
ATOM    102  C   UNL A   1      49.034  28.203  28.078  1.00  0.00     0.198 A 
ATOM    103  F   UNL A   1      49.143  26.492  29.690  1.00  0.00    -0.203 F 
ATOM    104  F   UNL A   1      46.280  30.314  27.047  1.00  0.00    -0.200 F 
ATOM    105  C   UNL A   1      48.314  29.175  27.401  1.00  0.00     0.200 A 
ATOM    106  F   UNL A   1      50.343  28.054  27.842  1.00  0.00    -0.200 F 
ATOM    107  F   UNL A   1      48.924  29.954  26.496  1.00  0.00    -0.200 F 
ENDBRANCH  74  97
ENDBRANCH  48  49
ENDBRANCH  40  43
ENDBRANCH  38  39
ENDBRANCH  37  38
ENDBRANCH  36  37
ENDBRANCH  35  36
ENDBRANCH   1  35
TORSDOF 19
ENDMDL
MODEL 2
REMARK VINA RESULT:     -12.1      4.733      8.773
REMARK SMILES NS(=O)(=O)c1ccc(-n2nc(C(F)(F)F)cc2-c2ccc(CC(=O)NCCCCCCNC(=O)c3ccc(-c4c5nc(c(-c6c(F)c(F)c(F)c(F)c6F)c6ccc([nH]6)c(-c6c(F)c(F)c(F)c(F)c6F)c6nc(c(-c7c(F)c(F)c(F)c(F)c7F)c7ccc4[nH]7)C=C6)C=C5)cc3)cc2)cc1
REMARK SMILES IDX 27 1 26 2 25 3 23 4 24 5 22 7 21 8 18 9 19 10 99 11 20 12
REMARK SMILES IDX 98 13 17 14 9 15 10 16 11 17 16 18 8 19 5 20 6 21 101 22
REMARK SMILES IDX 7 23 100 24 2 25 3 26 4 27 1 28 12 31 13 32 14 33 15 34
REMARK SMILES IDX 28 35 29 36 30 37 31 38 32 39 33 40 34 42 35 43 36 44 97 45
REMARK SMILES IDX 37 46 96 47 38 48 39 49 40 50 90 51 41 52 95 53 89 54 91 55
REMARK SMILES IDX 42 56 94 57 88 58 87 59 43 61 75 62 55 63 74 64 56 65 59 66
REMARK SMILES IDX 73 67 92 68 57 69 58 70 72 72 93 73 60 74 44 75 45 76 53 77
REMARK SMILES IDX 46 78 47 79 51 80 54 81 48 82 49 83 52 84 50 85 76 86 77 87
REMARK SMILES IDX 85 88 78 89 79 90 83 91 86 92 80 93 81 94 84 95 82 96 61 97
REMARK SMILES IDX 62 98 70 99 63 100 64 101 68 102 71 103 65 104 66 105 69 106
REMARK SMILES IDX 67 107
REMARK H PARENT 25 6 1 29 1 30 32 41 91 60 59 71
REMARK Flexibility Score: inf
ROOT
ATOM      1  C   UNL A   1      36.085  33.902  35.397  1.00  0.00     0.021 C 
ENDROOT
BRANCH   1   2
ATOM      2  C   UNL A   1      37.598  34.112  35.322  1.00  0.00     0.116 C 
BRANCH   2   3
ATOM      3  N   UNL A   1      38.309  32.861  35.492  1.00  0.00    -0.356 N 
ATOM      4  C   UNL A   1      38.386  31.786  34.655  1.00  0.00     0.224 C 
ATOM      5  O   UNL A   1      38.957  30.770  35.057  1.00  0.00    -0.275 OA
ATOM      6  H   UNL A   1      38.812  32.773  36.335  1.00  0.00     0.163 HD
BRANCH   4   7
ATOM      7  C   UNL A   1      37.827  31.869  33.245  1.00  0.00     0.135 C 
BRANCH   7   8
ATOM      8  C   UNL A   1      38.707  32.619  32.275  1.00  0.00    -0.039 A 
ATOM      9  C   UNL A   1      40.427  34.076  30.617  1.00  0.00     0.000 A 
ATOM     10  C   UNL A   1      39.137  34.549  30.886  1.00  0.00     0.010 A 
ATOM     11  C   UNL A   1      40.831  32.841  31.125  1.00  0.00     0.010 A 
ATOM     12  C   UNL A   1      38.283  33.828  31.717  1.00  0.00     0.005 A 
ATOM     13  C   UNL A   1      39.970  32.111  31.936  1.00  0.00     0.005 A 
BRANCH   9  14
ATOM     14  C   UNL A   1      41.356  34.857  29.817  1.00  0.00     0.075 A 
ATOM     15  N   UNL A   1      42.562  35.355  30.274  1.00  0.00    -0.233 N 
ATOM     16  N   UNL A   1      43.194  36.099  29.332  1.00  0.00    -0.163 NA
ATOM     17  C   UNL A   1      42.388  36.074  28.256  1.00  0.00     0.167 A 
ATOM     18  C   UNL A   1      41.228  35.310  28.519  1.00  0.00     0.064 A 
BRANCH  15  19
ATOM     19  C   UNL A   1      43.184  35.100  31.522  1.00  0.00     0.065 A 
ATOM     20  C   UNL A   1      44.376  34.427  33.948  1.00  0.00     0.082 A 
ATOM     21  C   UNL A   1      43.097  34.992  33.932  1.00  0.00     0.024 A 
ATOM     22  C   UNL A   1      45.079  34.235  32.757  1.00  0.00     0.024 A 
ATOM     23  C   UNL A   1      42.495  35.335  32.715  1.00  0.00     0.030 A 
ATOM     24  C   UNL A   1      44.485  34.583  31.545  1.00  0.00     0.030 A 
BRANCH  20  25
ATOM     25  S   UNL A   1      45.176  33.980  35.461  1.00  0.00     0.238 S 
ATOM     26  O   UNL A   1      46.373  34.765  35.600  1.00  0.00    -0.207 OA
ATOM     27  O   UNL A   1      45.169  32.536  35.574  1.00  0.00    -0.207 OA
BRANCH  25  28
ATOM     28  N   UNL A   1      44.141  34.534  36.666  1.00  0.00    -0.225 NA
ATOM     29  H   UNL A   1      44.345  34.047  37.539  1.00  0.00     0.137 HD
ATOM     30  H   UNL A   1      43.175  34.352  36.393  1.00  0.00     0.137 HD
ENDBRANCH  25  28
ENDBRANCH  20  25
ENDBRANCH  15  19
BRANCH  17  31
ATOM     31  C   UNL A   1      42.722  36.784  26.970  1.00  0.00     0.435 C 
ATOM     32  F   UNL A   1      41.886  37.824  26.716  1.00  0.00    -0.164 F 
ATOM     33  F   UNL A   1      43.986  37.288  26.973  1.00  0.00    -0.164 F 
ATOM     34  F   UNL A   1      42.644  35.951  25.896  1.00  0.00    -0.164 F 
ENDBRANCH  17  31
ENDBRANCH   9  14
ENDBRANCH   7   8
ENDBRANCH   4   7
ENDBRANCH   2   3
ENDBRANCH   1   2
BRANCH   1  35
ATOM     35  C   UNL A   1      35.311  34.508  34.219  1.00  0.00     0.002 C 
BRANCH  35  36
ATOM     36  C   UNL A   1      34.381  33.550  33.458  1.00  0.00     0.002 C 
BRANCH  36  37
ATOM     37  C   UNL A   1      34.420  33.636  31.925  1.00  0.00     0.021 C 
BRANCH  37  38
ATOM     38  C   UNL A   1      34.992  32.399  31.251  1.00  0.00     0.116 C 
BRANCH  38  39
ATOM     39  N   UNL A   1      34.327  32.083  29.983  1.00  0.00    -0.352 N 
ATOM     40  C   UNL A   1      34.895  31.680  28.787  1.00  0.00     0.251 C 
ATOM     41  H   UNL A   1      33.346  32.168  29.983  1.00  0.00     0.163 HD
ATOM     42  O   UNL A   1      34.291  31.799  27.728  1.00  0.00    -0.269 OA
BRANCH  40  43
ATOM     43  C   UNL A   1      36.239  31.077  28.811  1.00  0.00     0.039 A 
ATOM     44  C   UNL A   1      37.409  31.830  28.667  1.00  0.00     0.014 A 
ATOM     45  C   UNL A   1      36.305  29.703  29.001  1.00  0.00     0.014 A 
ATOM     46  C   UNL A   1      38.640  31.182  28.779  1.00  0.00     0.010 A 
ATOM     47  C   UNL A   1      37.493  29.121  29.333  1.00  0.00     0.010 A 
ATOM     48  C   UNL A   1      38.668  29.821  29.120  1.00  0.00    -0.014 A 
BRANCH  48  49
ATOM     49  C   UNL A   1      39.904  29.086  29.352  1.00  0.00     0.031 A 
ATOM     50  C   UNL A   1      40.229  28.882  30.787  1.00  0.00     0.074 A 
ATOM     51  C   UNL A   1      40.535  28.411  28.361  1.00  0.00     0.049 A 
ATOM     52  N   UNL A   1      41.232  29.356  31.447  1.00  0.00    -0.248 NA
ATOM     53  C   UNL A   1      39.244  28.178  31.625  1.00  0.00     0.031 C 
ATOM     54  C   UNL A   1      40.128  28.255  26.961  1.00  0.00     0.029 A 
ATOM     55  N   UNL A   1      41.648  27.631  28.423  1.00  0.00    -0.354 N 
ATOM     56  C   UNL A   1      41.117  28.843  32.737  1.00  0.00     0.074 A 
ATOM     57  C   UNL A   1      39.788  28.304  32.837  1.00  0.00     0.031 C 
ATOM     58  C   UNL A   1      40.851  27.273  26.373  1.00  0.00     0.029 A 
ATOM     59  C   UNL A   1      41.887  26.845  27.293  1.00  0.00     0.049 A 
ATOM     60  H   UNL A   1      42.243  27.621  29.208  1.00  0.00     0.167 HD
ATOM     61  C   UNL A   1      42.219  28.678  33.522  1.00  0.00     0.037 A 
ATOM     62  C   UNL A   1      42.863  25.907  27.152  1.00  0.00     0.037 A 
ATOM     63  C   UNL A   1      43.332  29.439  33.009  1.00  0.00     0.049 A 
ATOM     64  C   UNL A   1      43.853  26.162  28.222  1.00  0.00     0.074 A 
ATOM     65  C   UNL A   1      43.558  30.781  32.767  1.00  0.00     0.029 A 
ATOM     66  N   UNL A   1      44.289  28.769  32.287  1.00  0.00    -0.354 N 
ATOM     67  N   UNL A   1      44.642  27.197  28.234  1.00  0.00    -0.248 NA
ATOM     68  C   UNL A   1      43.621  25.523  29.510  1.00  0.00     0.031 C 
ATOM     69  C   UNL A   1      44.285  30.816  31.540  1.00  0.00     0.029 A 
ATOM     70  C   UNL A   1      44.529  29.499  31.152  1.00  0.00     0.049 A 
ATOM     71  H   UNL A   1      44.722  27.922  32.537  1.00  0.00     0.167 HD
ATOM     72  C   UNL A   1      44.668  27.598  29.559  1.00  0.00     0.074 A 
ATOM     73  C   UNL A   1      44.080  26.489  30.311  1.00  0.00     0.031 C 
ATOM     74  C   UNL A   1      44.878  28.905  29.886  1.00  0.00     0.037 A 
BRANCH  61  75
ATOM     75  C   UNL A   1      42.413  27.547  34.507  1.00  0.00     0.064 A 
ATOM     76  C   UNL A   1      42.946  26.326  34.040  1.00  0.00     0.173 A 
ATOM     77  C   UNL A   1      41.834  27.497  35.794  1.00  0.00     0.173 A 
ATOM     78  F   UNL A   1      43.522  26.249  32.831  1.00  0.00    -0.203 F 
ATOM     79  C   UNL A   1      42.812  25.135  34.759  1.00  0.00     0.198 A 
ATOM     80  C   UNL A   1      41.751  26.317  36.532  1.00  0.00     0.198 A 
ATOM     81  F   UNL A   1      41.226  28.549  36.351  1.00  0.00    -0.203 F 
ATOM     82  F   UNL A   1      43.212  23.980  34.211  1.00  0.00    -0.200 F 
ATOM     83  C   UNL A   1      42.205  25.130  36.000  1.00  0.00     0.200 A 
ATOM     84  F   UNL A   1      41.151  26.333  37.731  1.00  0.00    -0.200 F 
ATOM     85  F   UNL A   1      42.018  23.983  36.663  1.00  0.00    -0.200 F 
ENDBRANCH  61  75
BRANCH  62  86
ATOM     86  C   UNL A   1      42.920  24.662  26.347  1.00  0.00     0.064 A 
ATOM     87  C   UNL A   1      43.867  24.461  25.332  1.00  0.00     0.173 A 
ATOM     88  C   UNL A   1      42.234  23.520  26.776  1.00  0.00     0.173 A 
ATOM     89  F   UNL A   1      44.601  25.488  24.884  1.00  0.00    -0.203 F 
ATOM     90  C   UNL A   1      44.126  23.188  24.803  1.00  0.00     0.198 A 
ATOM     91  C   UNL A   1      42.484  22.249  26.245  1.00  0.00     0.198 A 
ATOM     92  F   UNL A   1      41.375  23.637  27.790  1.00  0.00    -0.203 F 
ATOM     93  F   UNL A   1      45.077  23.028  23.872  1.00  0.00    -0.200 F 
ATOM     94  C   UNL A   1      43.443  22.082  25.270  1.00  0.00     0.200 A 
ATOM     95  F   UNL A   1      41.836  21.168  26.700  1.00  0.00    -0.200 F 
ATOM     96  F   UNL A   1      43.722  20.855  24.807  1.00  0.00    -0.200 F 
ENDBRANCH  62  86
BRANCH  74  97
ATOM     97  C   UNL A   1      45.286  29.845  28.785  1.00  0.00     0.064 A 
ATOM     98  C   UNL A   1      44.379  30.570  27.992  1.00  0.00     0.173 A 
ATOM     99  C   UNL A   1      46.645  30.141  28.641  1.00  0.00     0.173 A 
ATOM    100  F   UNL A   1      43.059  30.412  28.135  1.00  0.00    -0.203 F 
ATOM    101  C   UNL A   1      44.819  31.527  27.078  1.00  0.00     0.198 A 
ATOM    102  C   UNL A   1      47.081  31.121  27.754  1.00  0.00     0.198 A 
ATOM    103  F   UNL A   1      47.552  29.517  29.410  1.00  0.00    -0.203 F 
ATOM    104  F   UNL A   1      43.934  32.207  26.333  1.00  0.00    -0.200 F 
ATOM    105  C   UNL A   1      46.169  31.808  26.968  1.00  0.00     0.200 A 
ATOM    106  F   UNL A   1      48.384  31.423  27.687  1.00  0.00    -0.200 F 
ATOM    107  F   UNL A   1      46.593  32.762  26.127  1.00  0.00    -0.200 F 
ENDBRANCH  74  97
ENDBRANCH  48  49
ENDBRANCH  40  43
ENDBRANCH  38  39
ENDBRANCH  37  38
ENDBRANCH  36  37
ENDBRANCH  35  36
ENDBRANCH   1  35
TORSDOF 19
ENDMDL
MODEL 3
REMARK VINA RESULT:     -12.0      1.924      2.638
REMARK SMILES NS(=O)(=O)c1ccc(-n2nc(C(F)(F)F)cc2-c2ccc(CC(=O)NCCCCCCNC(=O)c3ccc(-c4c5nc(c(-c6c(F)c(F)c(F)c(F)c6F)c6ccc([nH]6)c(-c6c(F)c(F)c(F)c(F)c6F)c6nc(c(-c7c(F)c(F)c(F)c(F)c7F)c7ccc4[nH]7)C=C6)C=C5)cc3)cc2)cc1
REMARK SMILES IDX 27 1 26 2 25 3 23 4 24 5 22 7 21 8 18 9 19 10 99 11 20 12
REMARK SMILES IDX 98 13 17 14 9 15 10 16 11 17 16 18 8 19 5 20 6 21 101 22
REMARK SMILES IDX 7 23 100 24 2 25 3 26 4 27 1 28 12 31 13 32 14 33 15 34
REMARK SMILES IDX 28 35 29 36 30 37 31 38 32 39 33 40 34 42 35 43 36 44 97 45
REMARK SMILES IDX 37 46 96 47 38 48 39 49 40 50 90 51 41 52 95 53 89 54 91 55
REMARK SMILES IDX 42 56 94 57 88 58 87 59 43 61 75 62 55 63 74 64 56 65 59 66
REMARK SMILES IDX 73 67 92 68 57 69 58 70 72 72 93 73 60 74 44 75 45 76 53 77
REMARK SMILES IDX 46 78 47 79 51 80 54 81 48 82 49 83 52 84 50 85 76 86 77 87
REMARK SMILES IDX 85 88 78 89 79 90 83 91 86 92 80 93 81 94 84 95 82 96 61 97
REMARK SMILES IDX 62 98 70 99 63 100 64 101 68 102 71 103 65 104 66 105 69 106
REMARK SMILES IDX 67 107
REMARK H PARENT 25 6 1 29 1 30 32 41 91 60 59 71
REMARK Flexibility Score: inf
ROOT
ATOM      1  C   UNL A   1      35.268  34.386  28.985  1.00  0.00     0.021 C 
ENDROOT
BRANCH   1   2
ATOM      2  C   UNL A   1      34.735  33.412  27.934  1.00  0.00     0.116 C 
BRANCH   2   3
ATOM      3  N   UNL A   1      35.496  32.178  27.930  1.00  0.00    -0.356 N 
ATOM      4  C   UNL A   1      35.056  30.887  27.937  1.00  0.00     0.224 C 
ATOM      5  O   UNL A   1      35.888  29.985  28.054  1.00  0.00    -0.275 OA
ATOM      6  H   UNL A   1      36.475  32.287  27.921  1.00  0.00     0.163 HD
BRANCH   4   7
ATOM      7  C   UNL A   1      33.580  30.578  27.752  1.00  0.00     0.135 C 
BRANCH   7   8
ATOM      8  C   UNL A   1      33.306  29.260  27.071  1.00  0.00    -0.039 A 
ATOM      9  C   UNL A   1      32.706  26.905  25.683  1.00  0.00     0.000 A 
ATOM     10  C   UNL A   1      31.970  27.261  26.819  1.00  0.00     0.010 A 
ATOM     11  C   UNL A   1      33.783  27.695  25.281  1.00  0.00     0.010 A 
ATOM     12  C   UNL A   1      32.264  28.437  27.507  1.00  0.00     0.005 A 
ATOM     13  C   UNL A   1      34.090  28.856  25.981  1.00  0.00     0.005 A 
BRANCH   9  14
ATOM     14  C   UNL A   1      32.360  25.724  24.910  1.00  0.00     0.075 A 
ATOM     15  N   UNL A   1      31.354  25.670  23.964  1.00  0.00    -0.233 N 
ATOM     16  N   UNL A   1      31.212  24.424  23.444  1.00  0.00    -0.163 NA
ATOM     17  C   UNL A   1      32.141  23.671  24.060  1.00  0.00     0.167 A 
ATOM     18  C   UNL A   1      32.878  24.446  24.985  1.00  0.00     0.064 A 
BRANCH  15  19
ATOM     19  C   UNL A   1      30.575  26.746  23.468  1.00  0.00     0.065 A 
ATOM     20  C   UNL A   1      29.117  28.962  22.621  1.00  0.00     0.082 A 
ATOM     21  C   UNL A   1      28.483  27.941  23.337  1.00  0.00     0.024 A 
ATOM     22  C   UNL A   1      30.469  28.859  22.291  1.00  0.00     0.024 A 
ATOM     23  C   UNL A   1      29.211  26.823  23.762  1.00  0.00     0.030 A 
ATOM     24  C   UNL A   1      31.195  27.744  22.706  1.00  0.00     0.030 A 
BRANCH  20  25
ATOM     25  S   UNL A   1      28.236  30.391  22.062  1.00  0.00     0.238 S 
ATOM     26  O   UNL A   1      27.264  30.753  23.058  1.00  0.00    -0.207 OA
ATOM     27  O   UNL A   1      27.895  30.204  20.667  1.00  0.00    -0.207 OA
BRANCH  25  28
ATOM     28  N   UNL A   1      29.377  31.627  22.088  1.00  0.00    -0.225 NA
ATOM     29  H   UNL A   1      28.918  32.509  22.317  1.00  0.00     0.137 HD
ATOM     30  H   UNL A   1      29.819  31.701  21.172  1.00  0.00     0.137 HD
ENDBRANCH  25  28
ENDBRANCH  20  25
ENDBRANCH  15  19
BRANCH  17  31
ATOM     31  C   UNL A   1      32.327  22.206  23.768  1.00  0.00     0.435 C 
ATOM     32  F   UNL A   1      31.659  21.411  24.644  1.00  0.00    -0.164 F 
ATOM     33  F   UNL A   1      31.893  21.868  22.523  1.00  0.00    -0.164 F 
ATOM     34  F   UNL A   1      33.636  21.838  23.829  1.00  0.00    -0.164 F 
ENDBRANCH  17  31
ENDBRANCH   9  14
ENDBRANCH   7   8
ENDBRANCH   4   7
ENDBRANCH   2   3
ENDBRANCH   1   2
BRANCH   1  35
ATOM     35  C   UNL A   1      34.604  34.245  30.361  1.00  0.00     0.002 C 
BRANCH  35  36
ATOM     36  C   UNL A   1      35.535  33.867  31.524  1.00  0.00     0.002 C 
BRANCH  36  37
ATOM     37  C   UNL A   1      36.221  32.495  31.431  1.00  0.00     0.021 C 
BRANCH  37  38
ATOM     38  C   UNL A   1      37.604  32.538  30.800  1.00  0.00     0.116 C 
BRANCH  38  39
ATOM     39  N   UNL A   1      38.566  33.315  31.587  1.00  0.00    -0.352 N 
ATOM     40  C   UNL A   1      39.762  32.899  32.144  1.00  0.00     0.251 C 
ATOM     41  H   UNL A   1      38.329  34.258  31.740  1.00  0.00     0.163 HD
ATOM     42  O   UNL A   1      40.282  33.520  33.063  1.00  0.00    -0.269 OA
BRANCH  40  43
ATOM     43  C   UNL A   1      40.420  31.701  31.593  1.00  0.00     0.039 A 
ATOM     44  C   UNL A   1      41.530  31.770  30.745  1.00  0.00     0.014 A 
ATOM     45  C   UNL A   1      39.894  30.472  31.967  1.00  0.00     0.014 A 
ATOM     46  C   UNL A   1      42.133  30.581  30.334  1.00  0.00     0.010 A 
ATOM     47  C   UNL A   1      40.614  29.333  31.752  1.00  0.00     0.010 A 
ATOM     48  C   UNL A   1      41.667  29.362  30.852  1.00  0.00    -0.014 A 
BRANCH  48  49
ATOM     49  C   UNL A   1      42.293  28.081  30.556  1.00  0.00     0.031 A 
ATOM     50  C   UNL A   1      43.185  27.577  31.631  1.00  0.00     0.074 A 
ATOM     51  C   UNL A   1      41.876  27.298  29.532  1.00  0.00     0.049 A 
ATOM     52  N   UNL A   1      44.463  27.399  31.582  1.00  0.00    -0.248 NA
ATOM     53  C   UNL A   1      42.608  27.379  32.971  1.00  0.00     0.031 C 
ATOM     54  C   UNL A   1      40.772  27.531  28.595  1.00  0.00     0.029 A 
ATOM     55  N   UNL A   1      42.305  26.060  29.164  1.00  0.00    -0.354 N 
ATOM     56  C   UNL A   1      44.823  26.871  32.820  1.00  0.00     0.074 A 
ATOM     57  C   UNL A   1      43.692  27.073  33.686  1.00  0.00     0.031 C 
ATOM     58  C   UNL A   1      40.486  26.394  27.921  1.00  0.00     0.029 A 
ATOM     59  C   UNL A   1      41.489  25.398  28.244  1.00  0.00     0.049 A 
ATOM     60  H   UNL A   1      43.132  25.661  29.520  1.00  0.00     0.167 HD
ATOM     61  C   UNL A   1      45.926  26.081  32.947  1.00  0.00     0.037 A 
ATOM     62  C   UNL A   1      41.638  24.117  27.806  1.00  0.00     0.037 A 
ATOM     63  C   UNL A   1      46.794  26.227  31.803  1.00  0.00     0.049 A 
ATOM     64  C   UNL A   1      43.019  23.711  28.149  1.00  0.00     0.074 A 
ATOM     65  C   UNL A   1      47.470  27.287  31.229  1.00  0.00     0.029 A 
ATOM     66  N   UNL A   1      46.749  25.252  30.837  1.00  0.00    -0.354 N 
ATOM     67  N   UNL A   1      44.074  24.194  27.558  1.00  0.00    -0.248 NA
ATOM     68  C   UNL A   1      43.236  23.135  29.469  1.00  0.00     0.031 C 
ATOM     69  C   UNL A   1      47.337  27.088  29.822  1.00  0.00     0.029 A 
ATOM     70  C   UNL A   1      46.664  25.884  29.623  1.00  0.00     0.049 A 
ATOM     71  H   UNL A   1      46.774  24.279  30.987  1.00  0.00     0.167 HD
ATOM     72  C   UNL A   1      44.992  24.371  28.579  1.00  0.00     0.074 A 
ATOM     73  C   UNL A   1      44.448  23.636  29.721  1.00  0.00     0.031 C 
ATOM     74  C   UNL A   1      45.944  25.344  28.497  1.00  0.00     0.037 A 
BRANCH  61  75
ATOM     75  C   UNL A   1      46.039  24.904  33.889  1.00  0.00     0.064 A 
ATOM     76  C   UNL A   1      45.116  23.845  33.763  1.00  0.00     0.173 A 
ATOM     77  C   UNL A   1      46.799  24.901  35.079  1.00  0.00     0.173 A 
ATOM     78  F   UNL A   1      44.337  23.742  32.675  1.00  0.00    -0.203 F 
ATOM     79  C   UNL A   1      44.899  22.923  34.791  1.00  0.00     0.198 A 
ATOM     80  C   UNL A   1      46.618  23.947  36.080  1.00  0.00     0.198 A 
ATOM     81  F   UNL A   1      47.667  25.871  35.381  1.00  0.00    -0.203 F 
ATOM     82  F   UNL A   1      43.915  22.021  34.678  1.00  0.00    -0.200 F 
ATOM     83  C   UNL A   1      45.643  22.981  35.953  1.00  0.00     0.200 A 
ATOM     84  F   UNL A   1      47.346  24.026  37.203  1.00  0.00    -0.200 F 
ATOM     85  F   UNL A   1      45.396  22.141  36.965  1.00  0.00    -0.200 F 
ENDBRANCH  61  75
BRANCH  62  86
ATOM     86  C   UNL A   1      40.647  23.117  27.340  1.00  0.00     0.064 A 
ATOM     87  C   UNL A   1      39.341  23.465  26.960  1.00  0.00     0.173 A 
ATOM     88  C   UNL A   1      41.069  21.836  26.966  1.00  0.00     0.173 A 
ATOM     89  F   UNL A   1      38.863  24.686  27.240  1.00  0.00    -0.203 F 
ATOM     90  C   UNL A   1      38.526  22.592  26.228  1.00  0.00     0.198 A 
ATOM     91  C   UNL A   1      40.255  20.958  26.242  1.00  0.00     0.198 A 
ATOM     92  F   UNL A   1      42.325  21.477  27.234  1.00  0.00    -0.203 F 
ATOM     93  F   UNL A   1      37.304  22.982  25.837  1.00  0.00    -0.200 F 
ATOM     94  C   UNL A   1      38.988  21.344  25.858  1.00  0.00     0.200 A 
ATOM     95  F   UNL A   1      40.698  19.751  25.867  1.00  0.00    -0.200 F 
ATOM     96  F   UNL A   1      38.234  20.524  25.113  1.00  0.00    -0.200 F 
ENDBRANCH  62  86
BRANCH  74  97
ATOM     97  C   UNL A   1      46.095  26.067  27.187  1.00  0.00     0.064 A 
ATOM     98  C   UNL A   1      45.540  27.330  26.915  1.00  0.00     0.173 A 
ATOM     99  C   UNL A   1      46.968  25.530  26.235  1.00  0.00     0.173 A 
ATOM    100  F   UNL A   1      44.770  27.952  27.814  1.00  0.00    -0.203 F 
ATOM    101  C   UNL A   1      45.826  28.009  25.731  1.00  0.00     0.198 A 
ATOM    102  C   UNL A   1      47.280  26.223  25.069  1.00  0.00     0.198 A 
ATOM    103  F   UNL A   1      47.567  24.351  26.465  1.00  0.00    -0.203 F 
ATOM    104  F   UNL A   1      45.285  29.213  25.495  1.00  0.00    -0.200 F 
ATOM    105  C   UNL A   1      46.704  27.458  24.814  1.00  0.00     0.200 A 
ATOM    106  F   UNL A   1      48.168  25.708  24.209  1.00  0.00    -0.200 F 
ATOM    107  F   UNL A   1      47.021  28.128  23.697  1.00  0.00    -0.200 F 
ENDBRANCH  74  97
ENDBRANCH  48  49
ENDBRANCH  40  43
ENDBRANCH  38  39
ENDBRANCH  37  38
ENDBRANCH  36  37
ENDBRANCH  35  36
ENDBRANCH   1  35
TORSDOF 19
ENDMDL
