MODEL 1
REMARK VINA RESULT:     -13.0      0.000      0.000
REMARK SMILES Cc1ccc(S(=O)(=O)Nc2cc3c(cc2C(=O)NCCCCCCNC(=O)c2ccc(-c4c5nc(c(-c6c(F)c(F)c(F)c(F)c6F)c6ccc([nH]6)c(-c6c(F)c(F)c(F)c(F)c6F)c6nc(c(-c7c(F)c(F)c(F)c(F)c7F)c7ccc4[nH]7)C=C6)C=C5)cc2)OCCO3)s1
REMARK SMILES IDX 21 1 20 2 19 3 18 4 16 5 17 6 15 8 10 9 11 10 12 11 14 12
REMARK SMILES IDX 13 13 94 14 91 15 93 16 92 17 9 18 6 20 7 21 8 22 5 23 1 24
REMARK SMILES IDX 2 25 3 26 95 27 4 28 22 29 23 30 24 31 25 32 26 33 27 35
REMARK SMILES IDX 28 36 29 37 90 38 30 39 89 40 31 41 32 42 33 43 83 44 34 45
REMARK SMILES IDX 88 46 82 47 84 48 35 49 87 50 81 51 80 52 36 54 68 55 48 56
REMARK SMILES IDX 67 57 49 58 52 59 66 60 85 61 50 62 51 63 65 65 86 66 53 67
REMARK SMILES IDX 37 68 38 69 46 70 39 71 40 72 44 73 47 74 41 75 42 76 45 77
REMARK SMILES IDX 43 78 69 79 70 80 78 81 71 82 72 83 76 84 79 85 73 86 74 87
REMARK SMILES IDX 77 88 75 89 54 90 55 91 63 92 56 93 57 94 61 95 64 96 58 97
REMARK SMILES IDX 59 98 62 99 60 100
REMARK H PARENT 18 7 9 19 25 34 84 53 52 64
REMARK Flexibility Score: inf
ROOT
ATOM      1  C   UNL A   1      32.201  29.743  27.196  1.00  0.00     0.002 C 
ENDROOT
BRANCH   1   2
ATOM      2  C   UNL A   1      33.722  29.647  27.310  1.00  0.00     0.021 C 
BRANCH   2   3
ATOM      3  C   UNL A   1      34.440  28.657  26.399  1.00  0.00     0.116 C 
BRANCH   3   4
ATOM      4  N   UNL A   1      34.254  28.884  24.979  1.00  0.00    -0.352 N 
ATOM      5  C   UNL A   1      33.473  28.222  24.061  1.00  0.00     0.253 C 
ATOM      6  O   UNL A   1      33.357  28.702  22.936  1.00  0.00    -0.269 OA
ATOM      7  H   UNL A   1      34.774  29.636  24.612  1.00  0.00     0.163 HD
BRANCH   5   8
ATOM      8  C   UNL A   1      32.790  26.946  24.401  1.00  0.00     0.067 A 
ATOM      9  C   UNL A   1      31.386  26.893  24.537  1.00  0.00     0.066 A 
ATOM     10  C   UNL A   1      30.756  25.672  24.811  1.00  0.00     0.078 A 
ATOM     11  C   UNL A   1      31.516  24.509  24.937  1.00  0.00     0.163 A 
ATOM     12  C   UNL A   1      33.544  25.786  24.618  1.00  0.00     0.066 A 
ATOM     13  C   UNL A   1      32.907  24.566  24.824  1.00  0.00     0.162 A 
ATOM     14  O   UNL A   1      30.833  23.340  25.153  1.00  0.00    -0.486 OA
ATOM     15  O   UNL A   1      33.713  23.461  24.887  1.00  0.00    -0.486 OA
ATOM     16  C   UNL A   1      31.707  22.268  25.531  1.00  0.00     0.271 C 
ATOM     17  C   UNL A   1      32.959  22.262  24.670  1.00  0.00     0.271 C 
BRANCH   9  18
ATOM     18  N   UNL A   1      30.591  28.076  24.383  1.00  0.00    -0.278 N 
ATOM     19  H   UNL A   1      30.667  28.820  25.022  1.00  0.00     0.180 HD
BRANCH  18  20
ATOM     20  S   UNL A   1      29.520  28.163  23.080  1.00  0.00     0.271 S 
ATOM     21  O   UNL A   1      28.345  27.402  23.435  1.00  0.00    -0.200 OA
ATOM     22  O   UNL A   1      30.279  27.834  21.887  1.00  0.00    -0.200 OA
BRANCH  20  23
ATOM     23  C   UNL A   1      29.036  29.858  22.830  1.00  0.00     0.140 A 
ATOM     24  C   UNL A   1      27.741  32.947  20.786  1.00  0.00     0.056 C 
ATOM     25  C   UNL A   1      28.252  31.941  21.760  1.00  0.00     0.003 A 
ATOM     26  C   UNL A   1      28.691  32.155  23.050  1.00  0.00     0.016 A 
ATOM     27  S   UNL A   1      28.349  30.287  21.327  1.00  0.00    -0.127 S 
ATOM     28  C   UNL A   1      29.138  30.955  23.667  1.00  0.00     0.034 A 
ENDBRANCH  20  23
ENDBRANCH  18  20
ENDBRANCH   9  18
ENDBRANCH   5   8
ENDBRANCH   3   4
ENDBRANCH   2   3
ENDBRANCH   1   2
BRANCH   1  29
ATOM     29  C   UNL A   1      31.649  30.813  26.256  1.00  0.00     0.002 C 
BRANCH  29  30
ATOM     30  C   UNL A   1      31.411  32.197  26.861  1.00  0.00     0.021 C 
BRANCH  30  31
ATOM     31  C   UNL A   1      32.656  33.000  27.225  1.00  0.00     0.116 C 
BRANCH  31  32
ATOM     32  N   UNL A   1      32.363  34.349  27.673  1.00  0.00    -0.352 N 
ATOM     33  C   UNL A   1      32.971  35.095  28.652  1.00  0.00     0.251 C 
ATOM     34  H   UNL A   1      31.618  34.793  27.206  1.00  0.00     0.163 HD
ATOM     35  O   UNL A   1      32.519  36.194  28.959  1.00  0.00    -0.269 OA
BRANCH  33  36
ATOM     36  C   UNL A   1      34.154  34.567  29.370  1.00  0.00     0.039 A 
ATOM     37  C   UNL A   1      33.957  33.925  30.596  1.00  0.00     0.014 A 
ATOM     38  C   UNL A   1      35.445  34.706  28.854  1.00  0.00     0.014 A 
ATOM     39  C   UNL A   1      35.043  33.362  31.271  1.00  0.00     0.010 A 
ATOM     40  C   UNL A   1      36.521  34.095  29.498  1.00  0.00     0.010 A 
ATOM     41  C   UNL A   1      36.329  33.412  30.710  1.00  0.00    -0.014 A 
BRANCH  41  42
ATOM     42  C   UNL A   1      37.479  32.742  31.369  1.00  0.00     0.031 A 
ATOM     43  C   UNL A   1      38.170  31.588  30.700  1.00  0.00     0.074 A 
ATOM     44  C   UNL A   1      37.860  33.132  32.600  1.00  0.00     0.049 A 
ATOM     45  N   UNL A   1      39.141  30.832  31.150  1.00  0.00    -0.248 NA
ATOM     46  C   UNL A   1      37.694  31.221  29.359  1.00  0.00     0.031 C 
ATOM     47  C   UNL A   1      37.243  34.212  33.372  1.00  0.00     0.029 A 
ATOM     48  N   UNL A   1      38.850  32.658  33.424  1.00  0.00    -0.354 N 
ATOM     49  C   UNL A   1      39.380  29.893  30.155  1.00  0.00     0.074 A 
ATOM     50  C   UNL A   1      38.427  30.149  29.095  1.00  0.00     0.031 C 
ATOM     51  C   UNL A   1      37.875  34.326  34.552  1.00  0.00     0.029 A 
ATOM     52  C   UNL A   1      38.921  33.310  34.631  1.00  0.00     0.049 A 
ATOM     53  H   UNL A   1      39.452  31.921  33.174  1.00  0.00     0.167 HD
ATOM     54  C   UNL A   1      40.320  28.918  30.122  1.00  0.00     0.037 A 
ATOM     55  C   UNL A   1      39.732  33.106  35.686  1.00  0.00     0.037 A 
ATOM     56  C   UNL A   1      41.287  28.683  31.162  1.00  0.00     0.049 A 
ATOM     57  C   UNL A   1      40.772  32.022  35.620  1.00  0.00     0.074 A 
ATOM     58  C   UNL A   1      42.318  27.761  31.190  1.00  0.00     0.029 A 
ATOM     59  N   UNL A   1      41.341  29.379  32.361  1.00  0.00    -0.354 N 
ATOM     60  N   UNL A   1      41.025  31.178  34.650  1.00  0.00    -0.248 NA
ATOM     61  C   UNL A   1      41.641  31.865  36.795  1.00  0.00     0.031 C 
ATOM     62  C   UNL A   1      42.976  27.875  32.420  1.00  0.00     0.029 A 
ATOM     63  C   UNL A   1      42.378  28.893  33.143  1.00  0.00     0.049 A 
ATOM     64  H   UNL A   1      40.734  30.109  32.618  1.00  0.00     0.167 HD
ATOM     65  C   UNL A   1      42.094  30.408  35.086  1.00  0.00     0.074 A 
ATOM     66  C   UNL A   1      42.451  30.891  36.402  1.00  0.00     0.031 C 
ATOM     67  C   UNL A   1      42.723  29.389  34.450  1.00  0.00     0.037 A 
BRANCH  54  68
ATOM     68  C   UNL A   1      40.352  28.028  28.915  1.00  0.00     0.064 A 
ATOM     69  C   UNL A   1      41.125  28.349  27.789  1.00  0.00     0.173 A 
ATOM     70  C   UNL A   1      39.636  26.822  28.900  1.00  0.00     0.173 A 
ATOM     71  F   UNL A   1      41.818  29.496  27.750  1.00  0.00    -0.203 F 
ATOM     72  C   UNL A   1      41.161  27.504  26.682  1.00  0.00     0.198 A 
ATOM     73  C   UNL A   1      39.695  25.969  27.802  1.00  0.00     0.198 A 
ATOM     74  F   UNL A   1      38.886  26.468  29.955  1.00  0.00    -0.203 F 
ATOM     75  F   UNL A   1      41.873  27.850  25.600  1.00  0.00    -0.200 F 
ATOM     76  C   UNL A   1      40.452  26.313  26.692  1.00  0.00     0.200 A 
ATOM     77  F   UNL A   1      39.018  24.812  27.816  1.00  0.00    -0.200 F 
ATOM     78  F   UNL A   1      40.492  25.499  25.629  1.00  0.00    -0.200 F 
ENDBRANCH  54  68
BRANCH  55  79
ATOM     79  C   UNL A   1      39.607  33.965  36.891  1.00  0.00     0.064 A 
ATOM     80  C   UNL A   1      40.272  35.196  36.967  1.00  0.00     0.173 A 
ATOM     81  C   UNL A   1      38.823  33.576  37.986  1.00  0.00     0.173 A 
ATOM     82  F   UNL A   1      41.051  35.599  35.952  1.00  0.00    -0.203 F 
ATOM     83  C   UNL A   1      40.170  35.999  38.101  1.00  0.00     0.198 A 
ATOM     84  C   UNL A   1      38.702  34.391  39.110  1.00  0.00     0.198 A 
ATOM     85  F   UNL A   1      38.164  32.408  37.959  1.00  0.00    -0.203 F 
ATOM     86  F   UNL A   1      40.848  37.153  38.163  1.00  0.00    -0.200 F 
ATOM     87  C   UNL A   1      39.380  35.599  39.169  1.00  0.00     0.200 A 
ATOM     88  F   UNL A   1      37.929  34.005  40.134  1.00  0.00    -0.200 F 
ATOM     89  F   UNL A   1      39.280  36.374  40.257  1.00  0.00    -0.200 F 
ENDBRANCH  55  79
BRANCH  67  90
ATOM     90  C   UNL A   1      43.876  28.746  35.160  1.00  0.00     0.064 A 
ATOM     91  C   UNL A   1      43.692  27.648  36.011  1.00  0.00     0.173 A 
ATOM     92  C   UNL A   1      45.184  29.211  34.957  1.00  0.00     0.173 A 
ATOM     93  F   UNL A   1      42.458  27.177  36.248  1.00  0.00    -0.203 F 
ATOM     94  C   UNL A   1      44.775  27.051  36.651  1.00  0.00     0.198 A 
ATOM     95  C   UNL A   1      46.267  28.596  35.579  1.00  0.00     0.198 A 
ATOM     96  F   UNL A   1      45.412  30.257  34.147  1.00  0.00    -0.203 F 
ATOM     97  F   UNL A   1      44.572  26.027  37.493  1.00  0.00    -0.200 F 
ATOM     98  C   UNL A   1      46.061  27.521  36.430  1.00  0.00     0.200 A 
ATOM     99  F   UNL A   1      47.510  29.047  35.358  1.00  0.00    -0.200 F 
ATOM    100  F   UNL A   1      47.102  26.942  37.044  1.00  0.00    -0.200 F 
ENDBRANCH  67  90
ENDBRANCH  41  42
ENDBRANCH  33  36
ENDBRANCH  31  32
ENDBRANCH  30  31
ENDBRANCH  29  30
ENDBRANCH   1  29
TORSDOF 16
ENDMDL
MODEL 2
REMARK VINA RESULT:     -13.0      0.151      1.893
REMARK SMILES Cc1ccc(S(=O)(=O)Nc2cc3c(cc2C(=O)NCCCCCCNC(=O)c2ccc(-c4c5nc(c(-c6c(F)c(F)c(F)c(F)c6F)c6ccc([nH]6)c(-c6c(F)c(F)c(F)c(F)c6F)c6nc(c(-c7c(F)c(F)c(F)c(F)c7F)c7ccc4[nH]7)C=C6)C=C5)cc2)OCCO3)s1
REMARK SMILES IDX 21 1 20 2 19 3 18 4 16 5 17 6 15 8 10 9 11 10 12 11 14 12
REMARK SMILES IDX 13 13 94 14 91 15 93 16 92 17 9 18 6 20 7 21 8 22 5 23 1 24
REMARK SMILES IDX 2 25 3 26 95 27 4 28 22 29 23 30 24 31 25 32 26 33 27 35
REMARK SMILES IDX 28 36 29 37 90 38 30 39 89 40 31 41 32 42 33 43 83 44 34 45
REMARK SMILES IDX 88 46 82 47 84 48 35 49 87 50 81 51 80 52 36 54 68 55 48 56
REMARK SMILES IDX 67 57 49 58 52 59 66 60 85 61 50 62 51 63 65 65 86 66 53 67
REMARK SMILES IDX 37 68 38 69 46 70 39 71 40 72 44 73 47 74 41 75 42 76 45 77
REMARK SMILES IDX 43 78 69 79 70 80 78 81 71 82 72 83 76 84 79 85 73 86 74 87
REMARK SMILES IDX 77 88 75 89 54 90 55 91 63 92 56 93 57 94 61 95 64 96 58 97
REMARK SMILES IDX 59 98 62 99 60 100
REMARK H PARENT 18 7 9 19 25 34 84 53 52 64
REMARK Flexibility Score: inf
ROOT
ATOM      1  C   UNL A   1      32.077  29.761  27.166  1.00  0.00     0.002 C 
ENDROOT
BRANCH   1   2
ATOM      2  C   UNL A   1      33.578  29.589  27.393  1.00  0.00     0.021 C 
BRANCH   2   3
ATOM      3  C   UNL A   1      34.335  28.656  26.454  1.00  0.00     0.116 C 
BRANCH   3   4
ATOM      4  N   UNL A   1      34.148  28.925  25.041  1.00  0.00    -0.352 N 
ATOM      5  C   UNL A   1      33.390  28.271  24.098  1.00  0.00     0.253 C 
ATOM      6  O   UNL A   1      33.264  28.783  22.989  1.00  0.00    -0.269 OA
ATOM      7  H   UNL A   1      34.646  29.703  24.702  1.00  0.00     0.163 HD
BRANCH   5   8
ATOM      8  C   UNL A   1      32.744  26.964  24.392  1.00  0.00     0.067 A 
ATOM      9  C   UNL A   1      31.341  26.865  24.516  1.00  0.00     0.066 A 
ATOM     10  C   UNL A   1      30.747  25.617  24.747  1.00  0.00     0.078 A 
ATOM     11  C   UNL A   1      31.541  24.474  24.843  1.00  0.00     0.163 A 
ATOM     12  C   UNL A   1      33.531  25.821  24.580  1.00  0.00     0.066 A 
ATOM     13  C   UNL A   1      32.931  24.577  24.743  1.00  0.00     0.162 A 
ATOM     14  O   UNL A   1      30.893  23.279  25.017  1.00  0.00    -0.486 OA
ATOM     15  O   UNL A   1      33.770  23.495  24.777  1.00  0.00    -0.486 OA
ATOM     16  C   UNL A   1      31.797  22.222  25.368  1.00  0.00     0.271 C 
ATOM     17  C   UNL A   1      33.054  22.281  24.517  1.00  0.00     0.271 C 
BRANCH   9  18
ATOM     18  N   UNL A   1      30.512  28.027  24.392  1.00  0.00    -0.278 N 
ATOM     19  H   UNL A   1      30.548  28.745  25.065  1.00  0.00     0.180 HD
BRANCH  18  20
ATOM     20  S   UNL A   1      29.471  28.136  23.067  1.00  0.00     0.271 S 
ATOM     21  O   UNL A   1      28.282  27.381  23.388  1.00  0.00    -0.200 OA
ATOM     22  O   UNL A   1      30.253  27.816  21.888  1.00  0.00    -0.200 OA
BRANCH  20  23
ATOM     23  C   UNL A   1      29.004  29.838  22.826  1.00  0.00     0.140 A 
ATOM     24  C   UNL A   1      27.751  32.954  20.796  1.00  0.00     0.056 C 
ATOM     25  C   UNL A   1      28.247  31.936  21.766  1.00  0.00     0.003 A 
ATOM     26  C   UNL A   1      28.679  32.137  23.060  1.00  0.00     0.016 A 
ATOM     27  S   UNL A   1      28.330  30.284  21.322  1.00  0.00    -0.127 S 
ATOM     28  C   UNL A   1      29.112  30.928  23.671  1.00  0.00     0.034 A 
ENDBRANCH  20  23
ENDBRANCH  18  20
ENDBRANCH   9  18
ENDBRANCH   5   8
ENDBRANCH   3   4
ENDBRANCH   2   3
ENDBRANCH   1   2
BRANCH   1  29
ATOM     29  C   UNL A   1      31.652  30.832  26.162  1.00  0.00     0.002 C 
BRANCH  29  30
ATOM     30  C   UNL A   1      31.417  32.237  26.720  1.00  0.00     0.021 C 
BRANCH  30  31
ATOM     31  C   UNL A   1      32.629  32.935  27.329  1.00  0.00     0.116 C 
BRANCH  31  32
ATOM     32  N   UNL A   1      32.368  34.307  27.723  1.00  0.00    -0.352 N 
ATOM     33  C   UNL A   1      33.000  35.080  28.665  1.00  0.00     0.251 C 
ATOM     34  H   UNL A   1      31.629  34.747  27.244  1.00  0.00     0.163 HD
ATOM     35  O   UNL A   1      32.574  36.200  28.930  1.00  0.00    -0.269 OA
BRANCH  33  36
ATOM     36  C   UNL A   1      34.178  34.558  29.395  1.00  0.00     0.039 A 
ATOM     37  C   UNL A   1      33.979  33.971  30.648  1.00  0.00     0.014 A 
ATOM     38  C   UNL A   1      35.468  34.648  28.863  1.00  0.00     0.014 A 
ATOM     39  C   UNL A   1      35.060  33.414  31.337  1.00  0.00     0.010 A 
ATOM     40  C   UNL A   1      36.536  34.042  29.523  1.00  0.00     0.010 A 
ATOM     41  C   UNL A   1      36.341  33.414  30.765  1.00  0.00    -0.014 A 
BRANCH  41  42
ATOM     42  C   UNL A   1      37.483  32.748  31.442  1.00  0.00     0.031 A 
ATOM     43  C   UNL A   1      38.176  31.584  30.793  1.00  0.00     0.074 A 
ATOM     44  C   UNL A   1      37.854  33.151  32.671  1.00  0.00     0.049 A 
ATOM     45  N   UNL A   1      39.140  30.829  31.260  1.00  0.00    -0.248 NA
ATOM     46  C   UNL A   1      37.711  31.202  29.452  1.00  0.00     0.031 C 
ATOM     47  C   UNL A   1      37.234  34.242  33.425  1.00  0.00     0.029 A 
ATOM     48  N   UNL A   1      38.835  32.683  33.510  1.00  0.00    -0.354 N 
ATOM     49  C   UNL A   1      39.384  29.878  30.278  1.00  0.00     0.074 A 
ATOM     50  C   UNL A   1      38.442  30.125  29.207  1.00  0.00     0.031 C 
ATOM     51  C   UNL A   1      37.856  34.367  34.609  1.00  0.00     0.029 A 
ATOM     52  C   UNL A   1      38.897  33.348  34.710  1.00  0.00     0.049 A 
ATOM     53  H   UNL A   1      39.437  31.941  33.274  1.00  0.00     0.167 HD
ATOM     54  C   UNL A   1      40.321  28.900  30.265  1.00  0.00     0.037 A 
ATOM     55  C   UNL A   1      39.698  33.154  35.775  1.00  0.00     0.037 A 
ATOM     56  C   UNL A   1      41.278  28.674  31.317  1.00  0.00     0.049 A 
ATOM     57  C   UNL A   1      40.734  32.066  35.730  1.00  0.00     0.074 A 
ATOM     58  C   UNL A   1      42.306  27.749  31.364  1.00  0.00     0.029 A 
ATOM     59  N   UNL A   1      41.324  29.383  32.507  1.00  0.00    -0.354 N 
ATOM     60  N   UNL A   1      40.994  31.210  34.772  1.00  0.00    -0.248 NA
ATOM     61  C   UNL A   1      41.593  31.920  36.915  1.00  0.00     0.031 C 
ATOM     62  C   UNL A   1      42.953  27.875  32.599  1.00  0.00     0.029 A 
ATOM     63  C   UNL A   1      42.352  28.903  33.304  1.00  0.00     0.049 A 
ATOM     64  H   UNL A   1      40.717  30.119  32.750  1.00  0.00     0.167 HD
ATOM     65  C   UNL A   1      42.056  30.441  35.227  1.00  0.00     0.074 A 
ATOM     66  C   UNL A   1      42.403  30.939  36.541  1.00  0.00     0.031 C 
ATOM     67  C   UNL A   1      42.687  29.413  34.609  1.00  0.00     0.037 A 
BRANCH  54  68
ATOM     68  C   UNL A   1      40.361  27.996  29.069  1.00  0.00     0.064 A 
ATOM     69  C   UNL A   1      39.614  26.810  29.022  1.00  0.00     0.173 A 
ATOM     70  C   UNL A   1      41.122  28.340  27.941  1.00  0.00     0.173 A 
ATOM     71  F   UNL A   1      38.880  26.432  30.078  1.00  0.00    -0.203 F 
ATOM     72  C   UNL A   1      39.645  25.989  27.896  1.00  0.00     0.198 A 
ATOM     73  C   UNL A   1      41.130  27.530  26.810  1.00  0.00     0.198 A 
ATOM     74  F   UNL A   1      41.850  29.467  27.935  1.00  0.00    -0.203 F 
ATOM     75  F   UNL A   1      38.956  24.839  27.889  1.00  0.00    -0.200 F 
ATOM     76  C   UNL A   1      40.398  26.353  26.790  1.00  0.00     0.200 A 
ATOM     77  F   UNL A   1      41.850  27.887  25.736  1.00  0.00    -0.200 F 
ATOM     78  F   UNL A   1      40.422  25.565  25.707  1.00  0.00    -0.200 F 
ENDBRANCH  54  68
BRANCH  55  79
ATOM     79  C   UNL A   1      39.565  34.028  36.968  1.00  0.00     0.064 A 
ATOM     80  C   UNL A   1      38.791  33.628  38.066  1.00  0.00     0.173 A 
ATOM     81  C   UNL A   1      40.204  35.273  37.037  1.00  0.00     0.173 A 
ATOM     82  F   UNL A   1      38.143  32.454  38.036  1.00  0.00    -0.203 F 
ATOM     83  C   UNL A   1      38.650  34.449  39.183  1.00  0.00     0.198 A 
ATOM     84  C   UNL A   1      40.083  36.083  38.164  1.00  0.00     0.198 A 
ATOM     85  F   UNL A   1      40.958  35.697  36.012  1.00  0.00    -0.203 F 
ATOM     86  F   UNL A   1      37.874  34.060  40.203  1.00  0.00    -0.200 F 
ATOM     87  C   UNL A   1      39.301  35.673  39.234  1.00  0.00     0.200 A 
ATOM     88  F   UNL A   1      40.722  37.259  38.212  1.00  0.00    -0.200 F 
ATOM     89  F   UNL A   1      39.168  36.461  40.309  1.00  0.00    -0.200 F 
ENDBRANCH  55  79
BRANCH  67  90
ATOM     90  C   UNL A   1      43.831  28.775  35.336  1.00  0.00     0.064 A 
ATOM     91  C   UNL A   1      45.152  29.203  35.143  1.00  0.00     0.173 A 
ATOM     92  C   UNL A   1      43.601  27.749  36.265  1.00  0.00     0.173 A 
ATOM     93  F   UNL A   1      45.425  30.170  34.254  1.00  0.00    -0.203 F 
ATOM     94  C   UNL A   1      46.204  28.612  35.837  1.00  0.00     0.198 A 
ATOM     95  C   UNL A   1      44.652  27.177  36.976  1.00  0.00     0.198 A 
ATOM     96  F   UNL A   1      42.353  27.308  36.489  1.00  0.00    -0.203 F 
ATOM     97  F   UNL A   1      47.464  29.008  35.607  1.00  0.00    -0.200 F 
ATOM     98  C   UNL A   1      45.953  27.605  36.758  1.00  0.00     0.200 A 
ATOM     99  F   UNL A   1      44.406  26.210  37.870  1.00  0.00    -0.200 F 
ATOM    100  F   UNL A   1      46.966  27.040  37.429  1.00  0.00    -0.200 F 
ENDBRANCH  67  90
ENDBRANCH  41  42
ENDBRANCH  33  36
ENDBRANCH  31  32
ENDBRANCH  30  31
ENDBRANCH  29  30
ENDBRANCH   1  29
TORSDOF 16
ENDMDL
MODEL 3
REMARK VINA RESULT:     -12.7      1.383      3.921
REMARK SMILES Cc1ccc(S(=O)(=O)Nc2cc3c(cc2C(=O)NCCCCCCNC(=O)c2ccc(-c4c5nc(c(-c6c(F)c(F)c(F)c(F)c6F)c6ccc([nH]6)c(-c6c(F)c(F)c(F)c(F)c6F)c6nc(c(-c7c(F)c(F)c(F)c(F)c7F)c7ccc4[nH]7)C=C6)C=C5)cc2)OCCO3)s1
REMARK SMILES IDX 21 1 20 2 19 3 18 4 16 5 17 6 15 8 10 9 11 10 12 11 14 12
REMARK SMILES IDX 13 13 94 14 91 15 93 16 92 17 9 18 6 20 7 21 8 22 5 23 1 24
REMARK SMILES IDX 2 25 3 26 95 27 4 28 22 29 23 30 24 31 25 32 26 33 27 35
REMARK SMILES IDX 28 36 29 37 90 38 30 39 89 40 31 41 32 42 33 43 83 44 34 45
REMARK SMILES IDX 88 46 82 47 84 48 35 49 87 50 81 51 80 52 36 54 68 55 48 56
REMARK SMILES IDX 67 57 49 58 52 59 66 60 85 61 50 62 51 63 65 65 86 66 53 67
REMARK SMILES IDX 37 68 38 69 46 70 39 71 40 72 44 73 47 74 41 75 42 76 45 77
REMARK SMILES IDX 43 78 69 79 70 80 78 81 71 82 72 83 76 84 79 85 73 86 74 87
REMARK SMILES IDX 77 88 75 89 54 90 55 91 63 92 56 93 57 94 61 95 64 96 58 97
REMARK SMILES IDX 59 98 62 99 60 100
REMARK H PARENT 18 7 9 19 25 34 84 53 52 64
REMARK Flexibility Score: inf
ROOT
ATOM      1  C   UNL A   1      32.344  29.691  27.120  1.00  0.00     0.002 C 
ENDROOT
BRANCH   1   2
ATOM      2  C   UNL A   1      33.476  28.833  26.560  1.00  0.00     0.021 C 
BRANCH   2   3
ATOM      3  C   UNL A   1      33.742  28.901  25.060  1.00  0.00     0.116 C 
BRANCH   3   4
ATOM      4  N   UNL A   1      33.998  27.623  24.424  1.00  0.00    -0.352 N 
ATOM      5  C   UNL A   1      33.169  26.807  23.689  1.00  0.00     0.253 C 
ATOM      6  O   UNL A   1      33.660  25.840  23.112  1.00  0.00    -0.269 OA
ATOM      7  H   UNL A   1      34.915  27.285  24.536  1.00  0.00     0.163 HD
BRANCH   5   8
ATOM      8  C   UNL A   1      31.707  27.065  23.599  1.00  0.00     0.067 A 
ATOM      9  C   UNL A   1      30.776  26.096  24.030  1.00  0.00     0.066 A 
ATOM     10  C   UNL A   1      29.404  26.376  23.981  1.00  0.00     0.078 A 
ATOM     11  C   UNL A   1      28.961  27.615  23.517  1.00  0.00     0.163 A 
ATOM     12  C   UNL A   1      31.243  28.269  23.054  1.00  0.00     0.066 A 
ATOM     13  C   UNL A   1      29.883  28.565  23.070  1.00  0.00     0.162 A 
ATOM     14  O   UNL A   1      27.610  27.844  23.544  1.00  0.00    -0.486 OA
ATOM     15  O   UNL A   1      29.528  29.819  22.649  1.00  0.00    -0.486 OA
ATOM     16  C   UNL A   1      27.248  29.020  22.808  1.00  0.00     0.271 C 
ATOM     17  C   UNL A   1      28.211  30.158  23.101  1.00  0.00     0.271 C 
BRANCH   9  18
ATOM     18  N   UNL A   1      31.218  24.829  24.533  1.00  0.00    -0.278 N 
ATOM     19  H   UNL A   1      31.467  24.102  23.918  1.00  0.00     0.180 HD
BRANCH  18  20
ATOM     20  S   UNL A   1      31.301  24.612  26.206  1.00  0.00     0.271 S 
ATOM     21  O   UNL A   1      30.051  24.025  26.628  1.00  0.00    -0.200 OA
ATOM     22  O   UNL A   1      31.756  25.868  26.772  1.00  0.00    -0.200 OA
BRANCH  20  23
ATOM     23  C   UNL A   1      32.612  23.467  26.584  1.00  0.00     0.140 A 
ATOM     24  C   UNL A   1      35.822  21.332  25.853  1.00  0.00     0.056 C 
ATOM     25  C   UNL A   1      34.610  22.032  26.365  1.00  0.00     0.003 A 
ATOM     26  C   UNL A   1      33.965  21.842  27.569  1.00  0.00     0.016 A 
ATOM     27  S   UNL A   1      33.843  23.240  25.423  1.00  0.00    -0.127 S 
ATOM     28  C   UNL A   1      32.817  22.671  27.696  1.00  0.00     0.034 A 
ENDBRANCH  20  23
ENDBRANCH  18  20
ENDBRANCH   9  18
ENDBRANCH   5   8
ENDBRANCH   3   4
ENDBRANCH   2   3
ENDBRANCH   1   2
BRANCH   1  29
ATOM     29  C   UNL A   1      31.623  30.609  26.133  1.00  0.00     0.002 C 
BRANCH  29  30
ATOM     30  C   UNL A   1      31.403  32.055  26.580  1.00  0.00     0.021 C 
BRANCH  30  31
ATOM     31  C   UNL A   1      32.591  32.747  27.242  1.00  0.00     0.116 C 
BRANCH  31  32
ATOM     32  N   UNL A   1      32.322  34.122  27.619  1.00  0.00    -0.352 N 
ATOM     33  C   UNL A   1      32.955  34.913  28.545  1.00  0.00     0.251 C 
ATOM     34  H   UNL A   1      31.574  34.549  27.142  1.00  0.00     0.163 HD
ATOM     35  O   UNL A   1      32.522  36.033  28.799  1.00  0.00    -0.269 OA
BRANCH  33  36
ATOM     36  C   UNL A   1      34.144  34.411  29.272  1.00  0.00     0.039 A 
ATOM     37  C   UNL A   1      33.954  33.773  30.501  1.00  0.00     0.014 A 
ATOM     38  C   UNL A   1      35.435  34.570  28.760  1.00  0.00     0.014 A 
ATOM     39  C   UNL A   1      35.047  33.234  31.183  1.00  0.00     0.010 A 
ATOM     40  C   UNL A   1      36.519  33.982  29.412  1.00  0.00     0.010 A 
ATOM     41  C   UNL A   1      36.334  33.303  30.628  1.00  0.00    -0.014 A 
BRANCH  41  42
ATOM     42  C   UNL A   1      37.493  32.658  31.296  1.00  0.00     0.031 A 
ATOM     43  C   UNL A   1      38.221  31.526  30.628  1.00  0.00     0.074 A 
ATOM     44  C   UNL A   1      37.850  33.049  32.533  1.00  0.00     0.049 A 
ATOM     45  N   UNL A   1      39.205  30.791  31.084  1.00  0.00    -0.248 NA
ATOM     46  C   UNL A   1      37.769  31.156  29.279  1.00  0.00     0.031 C 
ATOM     47  C   UNL A   1      37.198  34.108  33.305  1.00  0.00     0.029 A 
ATOM     48  N   UNL A   1      38.842  32.594  33.366  1.00  0.00    -0.354 N 
ATOM     49  C   UNL A   1      39.478  29.865  30.085  1.00  0.00     0.074 A 
ATOM     50  C   UNL A   1      38.532  30.104  29.016  1.00  0.00     0.031 C 
ATOM     51  C   UNL A   1      37.813  34.229  34.493  1.00  0.00     0.029 A 
ATOM     52  C   UNL A   1      38.883  33.239  34.578  1.00  0.00     0.049 A 
ATOM     53  H   UNL A   1      39.466  31.874  33.118  1.00  0.00     0.167 HD
ATOM     54  C   UNL A   1      40.443  28.914  30.057  1.00  0.00     0.037 A 
ATOM     55  C   UNL A   1      39.687  33.049  35.641  1.00  0.00     0.037 A 
ATOM     56  C   UNL A   1      41.404  28.697  31.107  1.00  0.00     0.049 A 
ATOM     57  C   UNL A   1      40.755  31.992  35.579  1.00  0.00     0.074 A 
ATOM     58  C   UNL A   1      42.458  27.801  31.140  1.00  0.00     0.029 A 
ATOM     59  N   UNL A   1      41.427  29.386  32.310  1.00  0.00    -0.354 N 
ATOM     60  N   UNL A   1      41.040  31.161  34.607  1.00  0.00    -0.248 NA
ATOM     61  C   UNL A   1      41.615  31.849  36.763  1.00  0.00     0.031 C 
ATOM     62  C   UNL A   1      43.099  27.923  32.378  1.00  0.00     0.029 A 
ATOM     63  C   UNL A   1      42.467  28.921  33.101  1.00  0.00     0.049 A 
ATOM     64  H   UNL A   1      40.799  30.099  32.565  1.00  0.00     0.167 HD
ATOM     65  C   UNL A   1      42.123  30.415  35.050  1.00  0.00     0.074 A 
ATOM     66  C   UNL A   1      42.453  30.898  36.374  1.00  0.00     0.031 C 
ATOM     67  C   UNL A   1      42.784  29.416  34.415  1.00  0.00     0.037 A 
BRANCH  54  68
ATOM     68  C   UNL A   1      40.511  28.034  28.845  1.00  0.00     0.064 A 
ATOM     69  C   UNL A   1      39.797  26.829  28.774  1.00  0.00     0.173 A 
ATOM     70  C   UNL A   1      41.265  28.419  27.726  1.00  0.00     0.173 A 
ATOM     71  F   UNL A   1      39.071  26.411  29.821  1.00  0.00    -0.203 F 
ATOM     72  C   UNL A   1      39.854  26.029  27.634  1.00  0.00     0.198 A 
ATOM     73  C   UNL A   1      41.299  27.630  26.580  1.00  0.00     0.198 A 
ATOM     74  F   UNL A   1      41.962  29.565  27.743  1.00  0.00    -0.203 F 
ATOM     75  F   UNL A   1      39.197  24.861  27.603  1.00  0.00    -0.200 F 
ATOM     76  C   UNL A   1      40.599  26.434  26.537  1.00  0.00     0.200 A 
ATOM     77  F   UNL A   1      42.011  28.026  25.516  1.00  0.00    -0.200 F 
ATOM     78  F   UNL A   1      40.648  25.666  25.440  1.00  0.00    -0.200 F 
ENDBRANCH  54  68
BRANCH  55  79
ATOM     79  C   UNL A   1      39.527  33.896  36.850  1.00  0.00     0.064 A 
ATOM     80  C   UNL A   1      40.136  35.156  36.929  1.00  0.00     0.173 A 
ATOM     81  C   UNL A   1      38.764  33.468  37.945  1.00  0.00     0.173 A 
ATOM     82  F   UNL A   1      40.894  35.598  35.914  1.00  0.00    -0.203 F 
ATOM     83  C   UNL A   1      40.002  35.949  38.066  1.00  0.00     0.198 A 
ATOM     84  C   UNL A   1      38.610  34.272  39.072  1.00  0.00     0.198 A 
ATOM     85  F   UNL A   1      38.159  32.271  37.915  1.00  0.00    -0.203 F 
ATOM     86  F   UNL A   1      40.627  37.132  38.132  1.00  0.00    -0.200 F 
ATOM     87  C   UNL A   1      39.233  35.510  39.134  1.00  0.00     0.200 A 
ATOM     88  F   UNL A   1      37.859  33.848  40.097  1.00  0.00    -0.200 F 
ATOM     89  F   UNL A   1      39.101  36.274  40.227  1.00  0.00    -0.200 F 
ENDBRANCH  55  79
BRANCH  67  90
ATOM     90  C   UNL A   1      43.945  28.798  35.134  1.00  0.00     0.064 A 
ATOM     91  C   UNL A   1      45.244  29.312  35.007  1.00  0.00     0.173 A 
ATOM     92  C   UNL A   1      43.751  27.702  35.989  1.00  0.00     0.173 A 
ATOM     93  F   UNL A   1      45.481  30.349  34.189  1.00  0.00    -0.203 F 
ATOM     94  C   UNL A   1      46.310  28.737  35.693  1.00  0.00     0.198 A 
ATOM     95  C   UNL A   1      44.815  27.146  36.692  1.00  0.00     0.198 A 
ATOM     96  F   UNL A   1      42.526  27.178  36.148  1.00  0.00    -0.203 F 
ATOM     97  F   UNL A   1      47.550  29.218  35.525  1.00  0.00    -0.200 F 
ATOM     98  C   UNL A   1      46.094  27.660  36.540  1.00  0.00     0.200 A 
ATOM     99  F   UNL A   1      44.604  26.111  37.516  1.00  0.00    -0.200 F 
ATOM    100  F   UNL A   1      47.121  27.111  37.203  1.00  0.00    -0.200 F 
ENDBRANCH  67  90
ENDBRANCH  41  42
ENDBRANCH  33  36
ENDBRANCH  31  32
ENDBRANCH  30  31
ENDBRANCH  29  30
ENDBRANCH   1  29
TORSDOF 16
ENDMDL
