MODEL 1
REMARK VINA RESULT:      -9.8      0.000      0.000
REMARK SMILES C[C@H](C(=O)NCCCCCCNC(=O)c1ccc(-c2c3nc(c(-c4c(F)c(F)c(F)c(F)c4F)c4ccc([nH]4)c(-c4c(F)c(F)c(F)c(F)c4F)c4nc(c(-c5c(F)c(F)c(F)c(F)c5F)c5ccc2[nH]5)C=C4)C=C3)cc1)[C@H](C)c1ccoc1
REMARK SMILES IDX 8 1 7 2 6 3 5 4 3 5 4 6 2 8 1 9 78 10 79 11 80 12 81 13
REMARK SMILES IDX 84 14 82 15 83 16 9 17 10 18 11 19 12 20 13 21 14 23 15 24
REMARK SMILES IDX 16 25 77 26 17 27 76 28 18 29 19 30 20 31 70 32 21 33 75 34
REMARK SMILES IDX 69 35 71 36 22 37 74 38 68 39 67 40 23 42 55 43 35 44 54 45
REMARK SMILES IDX 36 46 39 47 53 48 72 49 37 50 38 51 52 53 73 54 40 55 24 56
REMARK SMILES IDX 25 57 33 58 26 59 27 60 31 61 34 62 28 63 29 64 32 65 30 66
REMARK SMILES IDX 56 67 57 68 65 69 58 70 59 71 63 72 66 73 60 74 61 75 64 76
REMARK SMILES IDX 62 77 41 78 42 79 50 80 43 81 44 82 48 83 51 84 45 85 46 86
REMARK SMILES IDX 49 87 47 88
REMARK H PARENT 5 7 12 22 71 41 39 52
REMARK Flexibility Score: inf
ROOT
ATOM      1  C   UNL A   1      42.073  23.268  28.751  1.00  0.00     0.002 C 
ENDROOT
BRANCH   1   2
ATOM      2  C   UNL A   1      43.212  23.915  29.549  1.00  0.00     0.021 C 
BRANCH   2   3
ATOM      3  C   UNL A   1      44.535  23.147  29.440  1.00  0.00     0.116 C 
BRANCH   3   4
ATOM      4  N   UNL A   1      45.467  23.918  28.649  1.00  0.00    -0.356 N 
ATOM      5  C   UNL A   1      45.951  23.724  27.394  1.00  0.00     0.223 C 
ATOM      6  O   UNL A   1      46.983  24.346  27.122  1.00  0.00    -0.275 OA
ATOM      7  H   UNL A   1      45.809  24.726  29.096  1.00  0.00     0.163 HD
BRANCH   5   8
ATOM      8  C   UNL A   1      45.185  22.925  26.322  1.00  0.00     0.082 C 
ATOM      9  C   UNL A   1      44.149  23.866  25.683  1.00  0.00     0.019 C 
BRANCH   8  10
ATOM     10  C   UNL A   1      46.029  22.133  25.271  1.00  0.00     0.031 C 
ATOM     11  C   UNL A   1      46.201  22.764  23.878  1.00  0.00     0.014 C 
BRANCH  10  12
ATOM     12  C   UNL A   1      45.587  20.683  25.135  1.00  0.00    -0.006 A 
ATOM     13  C   UNL A   1      44.262  20.187  25.352  1.00  0.00     0.046 A 
ATOM     14  C   UNL A   1      46.319  19.573  24.757  1.00  0.00     0.198 A 
ATOM     15  C   UNL A   1      44.288  18.844  25.068  1.00  0.00     0.195 A 
ATOM     16  O   UNL A   1      45.537  18.465  24.703  1.00  0.00    -0.472 OA
ENDBRANCH  10  12
ENDBRANCH   8  10
ENDBRANCH   5   8
ENDBRANCH   3   4
ENDBRANCH   2   3
ENDBRANCH   1   2
BRANCH   1  17
ATOM     17  C   UNL A   1      42.368  21.845  28.264  1.00  0.00     0.002 C 
BRANCH  17  18
ATOM     18  C   UNL A   1      41.199  21.159  27.554  1.00  0.00     0.021 C 
BRANCH  18  19
ATOM     19  C   UNL A   1      40.958  21.655  26.132  1.00  0.00     0.116 C 
BRANCH  19  20
ATOM     20  N   UNL A   1      39.537  21.752  25.833  1.00  0.00    -0.352 N 
ATOM     21  C   UNL A   1      38.653  22.754  26.143  1.00  0.00     0.251 C 
ATOM     22  H   UNL A   1      39.157  20.991  25.339  1.00  0.00     0.163 HD
ATOM     23  O   UNL A   1      37.446  22.571  26.038  1.00  0.00    -0.269 OA
BRANCH  21  24
ATOM     24  C   UNL A   1      39.163  24.058  26.615  1.00  0.00     0.039 A 
ATOM     25  C   UNL A   1      38.900  24.453  27.929  1.00  0.00     0.014 A 
ATOM     26  C   UNL A   1      39.880  24.895  25.756  1.00  0.00     0.014 A 
ATOM     27  C   UNL A   1      39.403  25.667  28.397  1.00  0.00     0.010 A 
ATOM     28  C   UNL A   1      40.443  26.070  26.245  1.00  0.00     0.010 A 
ATOM     29  C   UNL A   1      40.204  26.471  27.568  1.00  0.00    -0.014 A 
BRANCH  29  30
ATOM     30  C   UNL A   1      40.794  27.739  28.066  1.00  0.00     0.031 A 
ATOM     31  C   UNL A   1      42.285  27.926  28.073  1.00  0.00     0.074 A 
ATOM     32  C   UNL A   1      39.989  28.693  28.569  1.00  0.00     0.049 A 
ATOM     33  N   UNL A   1      42.992  28.931  28.524  1.00  0.00    -0.248 NA
ATOM     34  C   UNL A   1      43.093  26.825  27.523  1.00  0.00     0.031 C 
ATOM     35  C   UNL A   1      38.531  28.607  28.660  1.00  0.00     0.029 A 
ATOM     36  N   UNL A   1      40.284  29.920  29.110  1.00  0.00    -0.354 N 
ATOM     37  C   UNL A   1      44.320  28.578  28.326  1.00  0.00     0.074 A 
ATOM     38  C   UNL A   1      44.325  27.244  27.766  1.00  0.00     0.031 C 
ATOM     39  C   UNL A   1      38.056  29.740  29.200  1.00  0.00     0.029 A 
ATOM     40  C   UNL A   1      39.177  30.615  29.530  1.00  0.00     0.049 A 
ATOM     41  H   UNL A   1      41.202  30.267  29.189  1.00  0.00     0.167 HD
ATOM     42  C   UNL A   1      45.434  29.310  28.566  1.00  0.00     0.037 A 
ATOM     43  C   UNL A   1      39.079  31.821  30.123  1.00  0.00     0.037 A 
ATOM     44  C   UNL A   1      45.421  30.646  29.104  1.00  0.00     0.049 A 
ATOM     45  C   UNL A   1      40.333  32.610  30.390  1.00  0.00     0.074 A 
ATOM     46  C   UNL A   1      46.490  31.496  29.327  1.00  0.00     0.029 A 
ATOM     47  N   UNL A   1      44.280  31.324  29.507  1.00  0.00    -0.354 N 
ATOM     48  N   UNL A   1      41.579  32.297  30.131  1.00  0.00    -0.248 NA
ATOM     49  C   UNL A   1      40.164  33.924  31.024  1.00  0.00     0.031 C 
ATOM     50  C   UNL A   1      46.001  32.669  29.915  1.00  0.00     0.029 A 
ATOM     51  C   UNL A   1      44.622  32.572  30.004  1.00  0.00     0.049 A 
ATOM     52  H   UNL A   1      43.363  30.971  29.449  1.00  0.00     0.167 HD
ATOM     53  C   UNL A   1      42.339  33.382  30.545  1.00  0.00     0.074 A 
ATOM     54  C   UNL A   1      41.412  34.370  31.056  1.00  0.00     0.031 C 
ATOM     55  C   UNL A   1      43.685  33.545  30.506  1.00  0.00     0.037 A 
BRANCH  42  56
ATOM     56  C   UNL A   1      46.761  28.681  28.250  1.00  0.00     0.064 A 
ATOM     57  C   UNL A   1      47.497  27.986  29.223  1.00  0.00     0.173 A 
ATOM     58  C   UNL A   1      47.289  28.746  26.952  1.00  0.00     0.173 A 
ATOM     59  F   UNL A   1      47.043  27.903  30.482  1.00  0.00    -0.203 F 
ATOM     60  C   UNL A   1      48.727  27.410  28.915  1.00  0.00     0.198 A 
ATOM     61  C   UNL A   1      48.504  28.141  26.640  1.00  0.00     0.198 A 
ATOM     62  F   UNL A   1      46.624  29.393  25.982  1.00  0.00    -0.203 F 
ATOM     63  F   UNL A   1      49.438  26.799  29.874  1.00  0.00    -0.200 F 
ATOM     64  C   UNL A   1      49.226  27.482  27.624  1.00  0.00     0.200 A 
ATOM     65  F   UNL A   1      48.977  28.198  25.388  1.00  0.00    -0.200 F 
ATOM     66  F   UNL A   1      50.407  26.921  27.327  1.00  0.00    -0.200 F 
ENDBRANCH  42  56
BRANCH  43  67
ATOM     67  C   UNL A   1      37.743  32.365  30.481  1.00  0.00     0.064 A 
ATOM     68  C   UNL A   1      37.023  33.156  29.575  1.00  0.00     0.173 A 
ATOM     69  C   UNL A   1      37.159  32.106  31.729  1.00  0.00     0.173 A 
ATOM     70  F   UNL A   1      37.548  33.448  28.376  1.00  0.00    -0.203 F 
ATOM     71  C   UNL A   1      35.780  33.687  29.913  1.00  0.00     0.198 A 
ATOM     72  C   UNL A   1      35.903  32.613  32.055  1.00  0.00     0.198 A 
ATOM     73  F   UNL A   1      37.804  31.349  32.629  1.00  0.00    -0.203 F 
ATOM     74  F   UNL A   1      35.134  34.479  29.046  1.00  0.00    -0.200 F 
ATOM     75  C   UNL A   1      35.218  33.409  31.150  1.00  0.00     0.200 A 
ATOM     76  F   UNL A   1      35.357  32.329  33.245  1.00  0.00    -0.200 F 
ATOM     77  F   UNL A   1      34.020  33.914  31.473  1.00  0.00    -0.200 F 
ENDBRANCH  43  67
BRANCH  55  78
ATOM     78  C   UNL A   1      44.233  34.853  31.000  1.00  0.00     0.064 A 
ATOM     79  C   UNL A   1      44.316  35.979  30.168  1.00  0.00     0.173 A 
ATOM     80  C   UNL A   1      44.647  34.991  32.334  1.00  0.00     0.173 A 
ATOM     81  F   UNL A   1      43.948  35.896  28.880  1.00  0.00    -0.203 F 
ATOM     82  C   UNL A   1      44.817  37.187  30.646  1.00  0.00     0.198 A 
ATOM     83  C   UNL A   1      45.117  36.209  32.817  1.00  0.00     0.198 A 
ATOM     84  F   UNL A   1      44.583  33.946  33.173  1.00  0.00    -0.203 F 
ATOM     85  F   UNL A   1      44.934  38.237  29.819  1.00  0.00    -0.200 F 
ATOM     86  C   UNL A   1      45.209  37.303  31.971  1.00  0.00     0.200 A 
ATOM     87  F   UNL A   1      45.482  36.322  34.102  1.00  0.00    -0.200 F 
ATOM     88  F   UNL A   1      45.684  38.469  32.431  1.00  0.00    -0.200 F 
ENDBRANCH  55  78
ENDBRANCH  29  30
ENDBRANCH  21  24
ENDBRANCH  19  20
ENDBRANCH  18  19
ENDBRANCH  17  18
ENDBRANCH   1  17
TORSDOF 15
ENDMDL
MODEL 2
REMARK VINA RESULT:      -9.8      3.849     11.166
REMARK SMILES C[C@H](C(=O)NCCCCCCNC(=O)c1ccc(-c2c3nc(c(-c4c(F)c(F)c(F)c(F)c4F)c4ccc([nH]4)c(-c4c(F)c(F)c(F)c(F)c4F)c4nc(c(-c5c(F)c(F)c(F)c(F)c5F)c5ccc2[nH]5)C=C4)C=C3)cc1)[C@H](C)c1ccoc1
REMARK SMILES IDX 8 1 7 2 6 3 5 4 3 5 4 6 2 8 1 9 78 10 79 11 80 12 81 13
REMARK SMILES IDX 84 14 82 15 83 16 9 17 10 18 11 19 12 20 13 21 14 23 15 24
REMARK SMILES IDX 16 25 77 26 17 27 76 28 18 29 19 30 20 31 70 32 21 33 75 34
REMARK SMILES IDX 69 35 71 36 22 37 74 38 68 39 67 40 23 42 55 43 35 44 54 45
REMARK SMILES IDX 36 46 39 47 53 48 72 49 37 50 38 51 52 53 73 54 40 55 24 56
REMARK SMILES IDX 25 57 33 58 26 59 27 60 31 61 34 62 28 63 29 64 32 65 30 66
REMARK SMILES IDX 56 67 57 68 65 69 58 70 59 71 63 72 66 73 60 74 61 75 64 76
REMARK SMILES IDX 62 77 41 78 42 79 50 80 43 81 44 82 48 83 51 84 45 85 46 86
REMARK SMILES IDX 49 87 47 88
REMARK H PARENT 5 7 12 22 71 41 39 52
REMARK Flexibility Score: inf
ROOT
ATOM      1  C   UNL A   1      33.564  36.275  29.067  1.00  0.00     0.002 C 
ENDROOT
BRANCH   1   2
ATOM      2  C   UNL A   1      32.624  35.895  30.217  1.00  0.00     0.021 C 
BRANCH   2   3
ATOM      3  C   UNL A   1      33.206  36.212  31.601  1.00  0.00     0.116 C 
BRANCH   3   4
ATOM      4  N   UNL A   1      33.027  35.066  32.464  1.00  0.00    -0.356 N 
ATOM      5  C   UNL A   1      33.859  34.037  32.770  1.00  0.00     0.223 C 
ATOM      6  O   UNL A   1      33.314  33.039  33.251  1.00  0.00    -0.275 OA
ATOM      7  H   UNL A   1      32.149  35.025  32.909  1.00  0.00     0.163 HD
BRANCH   5   8
ATOM      8  C   UNL A   1      35.394  34.158  32.690  1.00  0.00     0.082 C 
ATOM      9  C   UNL A   1      35.937  34.227  34.128  1.00  0.00     0.019 C 
BRANCH   8  10
ATOM     10  C   UNL A   1      36.153  33.126  31.793  1.00  0.00     0.031 C 
ATOM     11  C   UNL A   1      36.551  31.785  32.437  1.00  0.00     0.014 C 
BRANCH  10  12
ATOM     12  C   UNL A   1      37.350  33.737  31.081  1.00  0.00    -0.006 A 
ATOM     13  C   UNL A   1      37.651  33.610  29.687  1.00  0.00     0.046 A 
ATOM     14  C   UNL A   1      38.356  34.541  31.584  1.00  0.00     0.198 A 
ATOM     15  C   UNL A   1      38.780  34.355  29.454  1.00  0.00     0.195 A 
ATOM     16  O   UNL A   1      39.211  34.927  30.604  1.00  0.00    -0.472 OA
ENDBRANCH  10  12
ENDBRANCH   8  10
ENDBRANCH   5   8
ENDBRANCH   3   4
ENDBRANCH   2   3
ENDBRANCH   1   2
BRANCH   1  17
ATOM     17  C   UNL A   1      34.455  35.131  28.572  1.00  0.00     0.002 C 
BRANCH  17  18
ATOM     18  C   UNL A   1      33.832  33.739  28.691  1.00  0.00     0.021 C 
BRANCH  18  19
ATOM     19  C   UNL A   1      34.759  32.604  28.268  1.00  0.00     0.116 C 
BRANCH  19  20
ATOM     20  N   UNL A   1      34.035  31.353  28.111  1.00  0.00    -0.352 N 
ATOM     21  C   UNL A   1      34.524  30.076  27.995  1.00  0.00     0.251 C 
ATOM     22  H   UNL A   1      33.055  31.433  28.085  1.00  0.00     0.163 HD
ATOM     23  O   UNL A   1      33.796  29.164  27.622  1.00  0.00    -0.269 OA
BRANCH  21  24
ATOM     24  C   UNL A   1      35.941  29.806  28.312  1.00  0.00     0.039 A 
ATOM     25  C   UNL A   1      36.277  29.364  29.594  1.00  0.00     0.014 A 
ATOM     26  C   UNL A   1      36.937  30.007  27.351  1.00  0.00     0.014 A 
ATOM     27  C   UNL A   1      37.608  29.073  29.897  1.00  0.00     0.010 A 
ATOM     28  C   UNL A   1      38.252  29.647  27.631  1.00  0.00     0.010 A 
ATOM     29  C   UNL A   1      38.601  29.184  28.908  1.00  0.00    -0.014 A 
BRANCH  29  30
ATOM     30  C   UNL A   1      40.013  28.827  29.196  1.00  0.00     0.031 A 
ATOM     31  C   UNL A   1      40.902  29.792  29.928  1.00  0.00     0.074 A 
ATOM     32  C   UNL A   1      40.508  27.661  28.741  1.00  0.00     0.049 A 
ATOM     33  N   UNL A   1      42.175  29.690  30.217  1.00  0.00    -0.248 NA
ATOM     34  C   UNL A   1      40.286  31.052  30.372  1.00  0.00     0.031 C 
ATOM     35  C   UNL A   1      39.756  26.663  27.977  1.00  0.00     0.029 A 
ATOM     36  N   UNL A   1      41.765  27.120  28.846  1.00  0.00    -0.354 N 
ATOM     37  C   UNL A   1      42.511  30.873  30.862  1.00  0.00     0.074 A 
ATOM     38  C   UNL A   1      41.325  31.702  30.872  1.00  0.00     0.031 C 
ATOM     39  C   UNL A   1      40.558  25.623  27.703  1.00  0.00     0.029 A 
ATOM     40  C   UNL A   1      41.890  25.896  28.235  1.00  0.00     0.049 A 
ATOM     41  H   UNL A   1      42.507  27.567  29.314  1.00  0.00     0.167 HD
ATOM     42  C   UNL A   1      43.696  31.226  31.416  1.00  0.00     0.037 A 
ATOM     43  C   UNL A   1      42.961  25.089  28.113  1.00  0.00     0.037 A 
ATOM     44  C   UNL A   1      44.866  30.387  31.421  1.00  0.00     0.049 A 
ATOM     45  C   UNL A   1      44.269  25.509  28.728  1.00  0.00     0.074 A 
ATOM     46  C   UNL A   1      46.096  30.625  32.010  1.00  0.00     0.029 A 
ATOM     47  N   UNL A   1      44.952  29.148  30.804  1.00  0.00    -0.354 N 
ATOM     48  N   UNL A   1      44.557  26.598  29.398  1.00  0.00    -0.248 NA
ATOM     49  C   UNL A   1      45.399  24.583  28.575  1.00  0.00     0.031 C 
ATOM     50  C   UNL A   1      46.942  29.554  31.703  1.00  0.00     0.029 A 
ATOM     51  C   UNL A   1      46.223  28.621  30.973  1.00  0.00     0.049 A 
ATOM     52  H   UNL A   1      44.219  28.707  30.317  1.00  0.00     0.167 HD
ATOM     53  C   UNL A   1      45.889  26.477  29.770  1.00  0.00     0.074 A 
ATOM     54  C   UNL A   1      46.348  25.199  29.265  1.00  0.00     0.031 C 
ATOM     55  C   UNL A   1      46.662  27.346  30.466  1.00  0.00     0.037 A 
BRANCH  42  56
ATOM     56  C   UNL A   1      43.785  32.578  32.063  1.00  0.00     0.064 A 
ATOM     57  C   UNL A   1      44.169  33.718  31.338  1.00  0.00     0.173 A 
ATOM     58  C   UNL A   1      43.451  32.745  33.416  1.00  0.00     0.173 A 
ATOM     59  F   UNL A   1      44.508  33.613  30.045  1.00  0.00    -0.203 F 
ATOM     60  C   UNL A   1      44.249  34.965  31.952  1.00  0.00     0.198 A 
ATOM     61  C   UNL A   1      43.501  33.999  34.018  1.00  0.00     0.198 A 
ATOM     62  F   UNL A   1      43.071  31.691  34.154  1.00  0.00    -0.203 F 
ATOM     63  F   UNL A   1      44.672  36.028  31.254  1.00  0.00    -0.200 F 
ATOM     64  C   UNL A   1      43.909  35.106  33.289  1.00  0.00     0.200 A 
ATOM     65  F   UNL A   1      43.158  34.137  35.306  1.00  0.00    -0.200 F 
ATOM     66  F   UNL A   1      43.980  36.309  33.877  1.00  0.00    -0.200 F 
ENDBRANCH  42  56
BRANCH  43  67
ATOM     67  C   UNL A   1      42.834  23.792  27.398  1.00  0.00     0.064 A 
ATOM     68  C   UNL A   1      43.229  23.669  26.058  1.00  0.00     0.173 A 
ATOM     69  C   UNL A   1      42.319  22.654  28.034  1.00  0.00     0.173 A 
ATOM     70  F   UNL A   1      43.709  24.734  25.400  1.00  0.00    -0.203 F 
ATOM     71  C   UNL A   1      43.092  22.461  25.376  1.00  0.00     0.198 A 
ATOM     72  C   UNL A   1      42.211  21.439  27.360  1.00  0.00     0.198 A 
ATOM     73  F   UNL A   1      41.934  22.718  29.317  1.00  0.00    -0.203 F 
ATOM     74  F   UNL A   1      43.434  22.383  24.083  1.00  0.00    -0.200 F 
ATOM     75  C   UNL A   1      42.590  21.346  26.030  1.00  0.00     0.200 A 
ATOM     76  F   UNL A   1      41.740  20.360  28.000  1.00  0.00    -0.200 F 
ATOM     77  F   UNL A   1      42.464  20.183  25.376  1.00  0.00    -0.200 F 
ENDBRANCH  43  67
BRANCH  55  78
ATOM     78  C   UNL A   1      48.077  26.930  30.752  1.00  0.00     0.064 A 
ATOM     79  C   UNL A   1      48.404  26.147  31.868  1.00  0.00     0.173 A 
ATOM     80  C   UNL A   1      49.113  27.291  29.876  1.00  0.00     0.173 A 
ATOM     81  F   UNL A   1      47.453  25.790  32.744  1.00  0.00    -0.203 F 
ATOM     82  C   UNL A   1      49.720  25.762  32.111  1.00  0.00     0.198 A 
ATOM     83  C   UNL A   1      50.422  26.876  30.105  1.00  0.00     0.198 A 
ATOM     84  F   UNL A   1      48.853  28.034  28.790  1.00  0.00    -0.203 F 
ATOM     85  F   UNL A   1      50.017  25.055  33.212  1.00  0.00    -0.200 F 
ATOM     86  C   UNL A   1      50.726  26.120  31.226  1.00  0.00     0.200 A 
ATOM     87  F   UNL A   1      51.390  27.211  29.240  1.00  0.00    -0.200 F 
ATOM     88  F   UNL A   1      51.991  25.741  31.458  1.00  0.00    -0.200 F 
ENDBRANCH  55  78
ENDBRANCH  29  30
ENDBRANCH  21  24
ENDBRANCH  19  20
ENDBRANCH  18  19
ENDBRANCH  17  18
ENDBRANCH   1  17
TORSDOF 15
ENDMDL
MODEL 3
REMARK VINA RESULT:      -9.8      6.242     10.453
REMARK SMILES C[C@H](C(=O)NCCCCCCNC(=O)c1ccc(-c2c3nc(c(-c4c(F)c(F)c(F)c(F)c4F)c4ccc([nH]4)c(-c4c(F)c(F)c(F)c(F)c4F)c4nc(c(-c5c(F)c(F)c(F)c(F)c5F)c5ccc2[nH]5)C=C4)C=C3)cc1)[C@H](C)c1ccoc1
REMARK SMILES IDX 8 1 7 2 6 3 5 4 3 5 4 6 2 8 1 9 78 10 79 11 80 12 81 13
REMARK SMILES IDX 84 14 82 15 83 16 9 17 10 18 11 19 12 20 13 21 14 23 15 24
REMARK SMILES IDX 16 25 77 26 17 27 76 28 18 29 19 30 20 31 70 32 21 33 75 34
REMARK SMILES IDX 69 35 71 36 22 37 74 38 68 39 67 40 23 42 55 43 35 44 54 45
REMARK SMILES IDX 36 46 39 47 53 48 72 49 37 50 38 51 52 53 73 54 40 55 24 56
REMARK SMILES IDX 25 57 33 58 26 59 27 60 31 61 34 62 28 63 29 64 32 65 30 66
REMARK SMILES IDX 56 67 57 68 65 69 58 70 59 71 63 72 66 73 60 74 61 75 64 76
REMARK SMILES IDX 62 77 41 78 42 79 50 80 43 81 44 82 48 83 51 84 45 85 46 86
REMARK SMILES IDX 49 87 47 88
REMARK H PARENT 5 7 12 22 71 41 39 52
REMARK Flexibility Score: inf
ROOT
ATOM      1  C   UNL A   1      32.457  30.063  27.022  1.00  0.00     0.002 C 
ENDROOT
BRANCH   1   2
ATOM      2  C   UNL A   1      32.957  28.774  26.357  1.00  0.00     0.021 C 
BRANCH   2   3
ATOM      3  C   UNL A   1      33.316  28.959  24.878  1.00  0.00     0.116 C 
BRANCH   3   4
ATOM      4  N   UNL A   1      33.633  27.671  24.302  1.00  0.00    -0.356 N 
ATOM      5  C   UNL A   1      32.875  26.798  23.589  1.00  0.00     0.223 C 
ATOM      6  O   UNL A   1      33.307  25.643  23.535  1.00  0.00    -0.275 OA
ATOM      7  H   UNL A   1      34.560  27.376  24.452  1.00  0.00     0.163 HD
BRANCH   5   8
ATOM      8  C   UNL A   1      31.656  27.243  22.758  1.00  0.00     0.082 C 
ATOM      9  C   UNL A   1      31.464  26.226  21.620  1.00  0.00     0.019 C 
BRANCH   8  10
ATOM     10  C   UNL A   1      30.333  27.561  23.530  1.00  0.00     0.031 C 
ATOM     11  C   UNL A   1      29.420  26.375  23.891  1.00  0.00     0.014 C 
BRANCH  10  12
ATOM     12  C   UNL A   1      29.519  28.663  22.870  1.00  0.00    -0.006 A 
ATOM     13  C   UNL A   1      30.040  29.719  22.057  1.00  0.00     0.046 A 
ATOM     14  C   UNL A   1      28.151  28.870  22.878  1.00  0.00     0.198 A 
ATOM     15  C   UNL A   1      28.966  30.454  21.621  1.00  0.00     0.195 A 
ATOM     16  O   UNL A   1      27.813  29.940  22.115  1.00  0.00    -0.472 OA
ENDBRANCH  10  12
ENDBRANCH   8  10
ENDBRANCH   5   8
ENDBRANCH   3   4
ENDBRANCH   2   3
ENDBRANCH   1   2
BRANCH   1  17
ATOM     17  C   UNL A   1      31.404  30.827  26.211  1.00  0.00     0.002 C 
BRANCH  17  18
ATOM     18  C   UNL A   1      31.354  32.331  26.489  1.00  0.00     0.021 C 
BRANCH  18  19
ATOM     19  C   UNL A   1      32.559  32.862  27.259  1.00  0.00     0.116 C 
BRANCH  19  20
ATOM     20  N   UNL A   1      32.385  34.259  27.626  1.00  0.00    -0.352 N 
ATOM     21  C   UNL A   1      32.968  34.966  28.648  1.00  0.00     0.251 C 
ATOM     22  H   UNL A   1      31.763  34.769  27.061  1.00  0.00     0.163 HD
ATOM     23  O   UNL A   1      32.529  36.063  28.972  1.00  0.00    -0.269 OA
BRANCH  21  24
ATOM     24  C   UNL A   1      34.123  34.392  29.367  1.00  0.00     0.039 A 
ATOM     25  C   UNL A   1      33.902  33.681  30.548  1.00  0.00     0.014 A 
ATOM     26  C   UNL A   1      35.423  34.574  28.885  1.00  0.00     0.014 A 
ATOM     27  C   UNL A   1      34.982  33.106  31.220  1.00  0.00     0.010 A 
ATOM     28  C   UNL A   1      36.490  33.940  29.515  1.00  0.00     0.010 A 
ATOM     29  C   UNL A   1      36.280  33.206  30.692  1.00  0.00    -0.014 A 
BRANCH  29  30
ATOM     30  C   UNL A   1      37.434  32.555  31.362  1.00  0.00     0.031 A 
ATOM     31  C   UNL A   1      38.145  31.410  30.697  1.00  0.00     0.074 A 
ATOM     32  C   UNL A   1      37.797  32.954  32.595  1.00  0.00     0.049 A 
ATOM     33  N   UNL A   1      39.130  30.673  31.147  1.00  0.00    -0.248 NA
ATOM     34  C   UNL A   1      37.671  31.024  29.359  1.00  0.00     0.031 C 
ATOM     35  C   UNL A   1      37.153  34.022  33.362  1.00  0.00     0.029 A 
ATOM     36  N   UNL A   1      38.791  32.502  33.426  1.00  0.00    -0.354 N 
ATOM     37  C   UNL A   1      39.380  29.733  30.156  1.00  0.00     0.074 A 
ATOM     38  C   UNL A   1      38.410  29.955  29.106  1.00  0.00     0.031 C 
ATOM     39  C   UNL A   1      37.782  34.159  34.540  1.00  0.00     0.029 A 
ATOM     40  C   UNL A   1      38.846  33.163  34.628  1.00  0.00     0.049 A 
ATOM     41  H   UNL A   1      39.406  31.772  33.183  1.00  0.00     0.167 HD
ATOM     42  C   UNL A   1      40.348  28.786  30.115  1.00  0.00     0.037 A 
ATOM     43  C   UNL A   1      39.660  32.982  35.686  1.00  0.00     0.037 A 
ATOM     44  C   UNL A   1      41.324  28.584  31.155  1.00  0.00     0.049 A 
ATOM     45  C   UNL A   1      40.720  31.915  35.620  1.00  0.00     0.074 A 
ATOM     46  C   UNL A   1      42.383  27.694  31.182  1.00  0.00     0.029 A 
ATOM     47  N   UNL A   1      41.357  29.282  32.353  1.00  0.00    -0.354 N 
ATOM     48  N   UNL A   1      40.995  31.080  34.648  1.00  0.00    -0.248 NA
ATOM     49  C   UNL A   1      41.587  31.772  36.797  1.00  0.00     0.031 C 
ATOM     50  C   UNL A   1      43.025  27.816  32.420  1.00  0.00     0.029 A 
ATOM     51  C   UNL A   1      42.402  28.823  33.140  1.00  0.00     0.049 A 
ATOM     52  H   UNL A   1      40.730  29.997  32.608  1.00  0.00     0.167 HD
ATOM     53  C   UNL A   1      42.081  30.332  35.083  1.00  0.00     0.074 A 
ATOM     54  C   UNL A   1      42.425  30.825  36.401  1.00  0.00     0.031 C 
ATOM     55  C   UNL A   1      42.733  29.327  34.449  1.00  0.00     0.037 A 
BRANCH  42  56
ATOM     56  C   UNL A   1      40.398  27.895  28.907  1.00  0.00     0.064 A 
ATOM     57  C   UNL A   1      41.183  28.214  27.787  1.00  0.00     0.173 A 
ATOM     58  C   UNL A   1      39.677  26.691  28.879  1.00  0.00     0.173 A 
ATOM     59  F   UNL A   1      41.882  29.359  27.758  1.00  0.00    -0.203 F 
ATOM     60  C   UNL A   1      41.217  27.380  26.674  1.00  0.00     0.198 A 
ATOM     61  C   UNL A   1      39.740  25.843  27.777  1.00  0.00     0.198 A 
ATOM     62  F   UNL A   1      38.916  26.334  29.925  1.00  0.00    -0.203 F 
ATOM     63  F   UNL A   1      41.929  27.733  25.595  1.00  0.00    -0.200 F 
ATOM     64  C   UNL A   1      40.501  26.192  26.671  1.00  0.00     0.200 A 
ATOM     65  F   UNL A   1      39.060  24.689  27.782  1.00  0.00    -0.200 F 
ATOM     66  F   UNL A   1      40.540  25.386  25.601  1.00  0.00    -0.200 F 
ENDBRANCH  42  56
BRANCH  43  67
ATOM     67  C   UNL A   1      39.519  33.846  36.887  1.00  0.00     0.064 A 
ATOM     68  C   UNL A   1      40.145  35.099  36.948  1.00  0.00     0.173 A 
ATOM     69  C   UNL A   1      38.759  33.441  37.994  1.00  0.00     0.173 A 
ATOM     70  F   UNL A   1      40.898  35.522  35.923  1.00  0.00    -0.203 F 
ATOM     71  C   UNL A   1      40.034  35.904  38.080  1.00  0.00     0.198 A 
ATOM     72  C   UNL A   1      38.625  34.260  39.113  1.00  0.00     0.198 A 
ATOM     73  F   UNL A   1      38.135  32.254  37.983  1.00  0.00    -0.203 F 
ATOM     74  F   UNL A   1      40.681  37.077  38.130  1.00  0.00    -0.200 F 
ATOM     75  C   UNL A   1      39.268  35.487  39.158  1.00  0.00     0.200 A 
ATOM     76  F   UNL A   1      37.871  33.860  40.146  1.00  0.00    -0.200 F 
ATOM     77  F   UNL A   1      39.157  36.264  40.244  1.00  0.00    -0.200 F 
ENDBRANCH  43  67
BRANCH  55  78
ATOM     78  C   UNL A   1      43.907  28.714  35.157  1.00  0.00     0.064 A 
ATOM     79  C   UNL A   1      45.203  29.231  35.018  1.00  0.00     0.173 A 
ATOM     80  C   UNL A   1      43.726  27.618  36.015  1.00  0.00     0.173 A 
ATOM     81  F   UNL A   1      45.433  30.267  34.197  1.00  0.00    -0.203 F 
ATOM     82  C   UNL A   1      46.278  28.656  35.690  1.00  0.00     0.198 A 
ATOM     83  C   UNL A   1      44.797  27.067  36.711  1.00  0.00     0.198 A 
ATOM     84  F   UNL A   1      42.504  27.090  36.188  1.00  0.00    -0.203 F 
ATOM     85  F   UNL A   1      47.517  29.135  35.504  1.00  0.00    -0.200 F 
ATOM     86  C   UNL A   1      46.074  27.581  36.543  1.00  0.00     0.200 A 
ATOM     87  F   UNL A   1      44.594  26.038  37.545  1.00  0.00    -0.200 F 
ATOM     88  F   UNL A   1      47.109  27.035  37.196  1.00  0.00    -0.200 F 
ENDBRANCH  55  78
ENDBRANCH  29  30
ENDBRANCH  21  24
ENDBRANCH  19  20
ENDBRANCH  18  19
ENDBRANCH  17  18
ENDBRANCH   1  17
TORSDOF 15
ENDMDL
