MODEL 1
REMARK VINA RESULT:     -12.3      0.000      0.000
REMARK SMILES O=C(NCCCCCCNC(=O)c1ccc(F)cc1-c1ccc(F)c(Cl)c1)c1ccc(-c2c3nc(c(-c4c(F)c(F)c(F)c(F)c4F)c4ccc([nH]4)c(-c4c(F)c(F)c(F)c(F)c4F)c4nc(c(-c5c(F)c(F)c(F)c(F)c5F)c5ccc2[nH]5)C=C4)C=C3)cc1
REMARK SMILES IDX 6 1 5 2 4 3 3 4 1 5 2 6 28 8 29 9 90 10 30 11 89 12 31 13
REMARK SMILES IDX 32 14 33 15 83 16 34 17 88 18 82 19 84 20 35 21 87 22 81 23
REMARK SMILES IDX 80 24 36 26 68 27 48 28 67 29 49 30 52 31 66 32 85 33 50 34
REMARK SMILES IDX 51 35 65 37 86 38 53 39 37 40 38 41 46 42 39 43 40 44 44 45
REMARK SMILES IDX 47 46 41 47 42 48 45 49 43 50 69 51 70 52 78 53 71 54 72 55
REMARK SMILES IDX 76 56 79 57 73 58 74 59 77 60 75 61 54 62 55 63 63 64 56 65
REMARK SMILES IDX 57 66 61 67 64 68 58 69 59 70 62 71 60 72 7 73 8 74 9 75
REMARK SMILES IDX 10 76 11 77 12 79 13 80 14 81 19 82 15 83 18 84 16 85 17 86
REMARK SMILES IDX 20 87 21 88 27 89 22 90 25 91 23 92 26 93 24 94
REMARK H PARENT 3 7 84 25 52 36 10 78
REMARK Flexibility Score: inf
ROOT
ATOM      1  C   UNL A   1      31.207  30.781  25.424  1.00  0.00     0.002 C 
ENDROOT
BRANCH   1   2
ATOM      2  C   UNL A   1      31.089  31.889  26.471  1.00  0.00     0.021 C 
BRANCH   2   3
ATOM      3  C   UNL A   1      32.410  32.481  26.941  1.00  0.00     0.116 C 
BRANCH   3   4
ATOM      4  N   UNL A   1      32.281  33.849  27.413  1.00  0.00    -0.352 N 
ATOM      5  O   UNL A   1      32.660  35.626  28.752  1.00  0.00    -0.269 OA
ATOM      6  C   UNL A   1      33.001  34.508  28.379  1.00  0.00     0.251 C 
ATOM      7  H   UNL A   1      31.574  34.380  26.978  1.00  0.00     0.163 HD
BRANCH   6   8
ATOM      8  C   UNL A   1      34.181  33.857  28.992  1.00  0.00     0.039 A 
ATOM      9  C   UNL A   1      34.028  32.824  29.919  1.00  0.00     0.014 A 
ATOM     10  C   UNL A   1      35.460  34.282  28.620  1.00  0.00     0.014 A 
ATOM     11  C   UNL A   1      35.143  32.308  30.570  1.00  0.00     0.010 A 
ATOM     12  C   UNL A   1      36.586  33.703  29.214  1.00  0.00     0.010 A 
ATOM     13  C   UNL A   1      36.435  32.730  30.214  1.00  0.00    -0.014 A 
BRANCH  13  14
ATOM     14  C   UNL A   1      37.612  32.080  30.844  1.00  0.00     0.031 A 
ATOM     15  C   UNL A   1      38.055  32.445  32.232  1.00  0.00     0.074 A 
ATOM     16  C   UNL A   1      38.264  31.124  30.155  1.00  0.00     0.049 A 
ATOM     17  N   UNL A   1      39.051  31.959  32.932  1.00  0.00    -0.248 NA
ATOM     18  C   UNL A   1      37.290  33.492  32.926  1.00  0.00     0.031 C 
ATOM     19  C   UNL A   1      37.925  30.694  28.797  1.00  0.00     0.029 A 
ATOM     20  N   UNL A   1      39.328  30.331  30.499  1.00  0.00    -0.354 N 
ATOM     21  C   UNL A   1      39.040  32.646  34.138  1.00  0.00     0.074 A 
ATOM     22  C   UNL A   1      37.955  33.602  34.070  1.00  0.00     0.031 C 
ATOM     23  C   UNL A   1      38.730  29.682  28.443  1.00  0.00     0.029 A 
ATOM     24  C   UNL A   1      39.681  29.435  29.521  1.00  0.00     0.049 A 
ATOM     25  H   UNL A   1      39.793  30.398  31.364  1.00  0.00     0.167 HD
ATOM     26  C   UNL A   1      39.857  32.482  35.206  1.00  0.00     0.037 A 
ATOM     27  C   UNL A   1      40.671  28.524  29.485  1.00  0.00     0.037 A 
ATOM     28  C   UNL A   1      40.925  31.517  35.271  1.00  0.00     0.049 A 
ATOM     29  C   UNL A   1      41.580  28.387  30.672  1.00  0.00     0.074 A 
ATOM     30  C   UNL A   1      41.786  31.256  36.324  1.00  0.00     0.029 A 
ATOM     31  N   UNL A   1      41.282  30.657  34.243  1.00  0.00    -0.354 N 
ATOM     32  N   UNL A   1      41.546  29.027  31.814  1.00  0.00    -0.248 NA
ATOM     33  C   UNL A   1      42.671  27.409  30.561  1.00  0.00     0.031 C 
ATOM     34  C   UNL A   1      42.692  30.272  35.915  1.00  0.00     0.029 A 
ATOM     35  C   UNL A   1      42.364  29.882  34.627  1.00  0.00     0.049 A 
ATOM     36  H   UNL A   1      40.832  30.605  33.368  1.00  0.00     0.167 HD
ATOM     37  C   UNL A   1      42.600  28.525  32.563  1.00  0.00     0.074 A 
ATOM     38  C   UNL A   1      43.243  27.512  31.753  1.00  0.00     0.031 C 
ATOM     39  C   UNL A   1      42.997  28.878  33.809  1.00  0.00     0.037 A 
BRANCH  26  40
ATOM     40  C   UNL A   1      39.643  33.364  36.402  1.00  0.00     0.064 A 
ATOM     41  C   UNL A   1      38.758  32.977  37.421  1.00  0.00     0.173 A 
ATOM     42  C   UNL A   1      40.239  34.629  36.498  1.00  0.00     0.173 A 
ATOM     43  F   UNL A   1      38.155  31.780  37.373  1.00  0.00    -0.203 F 
ATOM     44  C   UNL A   1      38.468  33.830  38.482  1.00  0.00     0.198 A 
ATOM     45  C   UNL A   1      39.966  35.471  37.573  1.00  0.00     0.198 A 
ATOM     46  F   UNL A   1      41.100  35.043  35.555  1.00  0.00    -0.203 F 
ATOM     47  F   UNL A   1      37.594  33.452  39.425  1.00  0.00    -0.200 F 
ATOM     48  C   UNL A   1      39.072  35.076  38.558  1.00  0.00     0.200 A 
ATOM     49  F   UNL A   1      40.566  36.666  37.657  1.00  0.00    -0.200 F 
ATOM     50  F   UNL A   1      38.796  35.895  39.582  1.00  0.00    -0.200 F 
ENDBRANCH  26  40
BRANCH  27  51
ATOM     51  C   UNL A   1      40.831  27.670  28.281  1.00  0.00     0.064 A 
ATOM     52  C   UNL A   1      40.236  26.402  28.204  1.00  0.00     0.173 A 
ATOM     53  C   UNL A   1      41.627  28.085  27.206  1.00  0.00     0.173 A 
ATOM     54  F   UNL A   1      39.470  25.958  29.211  1.00  0.00    -0.203 F 
ATOM     55  C   UNL A   1      40.455  25.570  27.110  1.00  0.00     0.198 A 
ATOM     56  C   UNL A   1      41.823  27.262  26.098  1.00  0.00     0.198 A 
ATOM     57  F   UNL A   1      42.203  29.296  27.227  1.00  0.00    -0.203 F 
ATOM     58  F   UNL A   1      39.912  24.345  27.082  1.00  0.00    -0.200 F 
ATOM     59  C   UNL A   1      41.246  26.001  26.056  1.00  0.00     0.200 A 
ATOM     60  F   UNL A   1      42.572  27.691  25.073  1.00  0.00    -0.200 F 
ATOM     61  F   UNL A   1      41.453  25.203  25.000  1.00  0.00    -0.200 F 
ENDBRANCH  27  51
BRANCH  39  62
ATOM     62  C   UNL A   1      44.179  28.159  34.386  1.00  0.00     0.064 A 
ATOM     63  C   UNL A   1      44.006  26.963  35.100  1.00  0.00     0.173 A 
ATOM     64  C   UNL A   1      45.475  28.687  34.291  1.00  0.00     0.173 A 
ATOM     65  F   UNL A   1      42.785  26.422  35.224  1.00  0.00    -0.203 F 
ATOM     66  C   UNL A   1      45.085  26.332  35.710  1.00  0.00     0.198 A 
ATOM     67  C   UNL A   1      46.555  28.038  34.881  1.00  0.00     0.198 A 
ATOM     68  F   UNL A   1      45.693  29.819  33.606  1.00  0.00    -0.203 F 
ATOM     69  F   UNL A   1      44.890  25.207  36.414  1.00  0.00    -0.200 F 
ATOM     70  C   UNL A   1      46.358  26.867  35.597  1.00  0.00     0.200 A 
ATOM     71  F   UNL A   1      47.790  28.542  34.750  1.00  0.00    -0.200 F 
ATOM     72  F   UNL A   1      47.399  26.251  36.177  1.00  0.00    -0.200 F 
ENDBRANCH  39  62
ENDBRANCH  13  14
ENDBRANCH   6   8
ENDBRANCH   3   4
ENDBRANCH   2   3
ENDBRANCH   1   2
BRANCH   1  73
ATOM     73  C   UNL A   1      31.809  29.461  25.915  1.00  0.00     0.002 C 
BRANCH  73  74
ATOM     74  C   UNL A   1      33.171  29.080  25.325  1.00  0.00     0.021 C 
BRANCH  74  75
ATOM     75  C   UNL A   1      33.651  27.664  25.629  1.00  0.00     0.116 C 
BRANCH  75  76
ATOM     76  N   UNL A   1      32.686  26.897  26.396  1.00  0.00    -0.352 N 
ATOM     77  C   UNL A   1      32.107  25.687  26.106  1.00  0.00     0.251 C 
ATOM     78  H   UNL A   1      32.404  27.305  27.247  1.00  0.00     0.163 HD
ATOM     79  O   UNL A   1      31.296  25.186  26.876  1.00  0.00    -0.269 OA
BRANCH  77  80
ATOM     80  C   UNL A   1      32.481  24.985  24.858  1.00  0.00     0.047 A 
ATOM     81  C   UNL A   1      33.469  23.987  24.933  1.00  0.00     0.017 A 
ATOM     82  C   UNL A   1      31.830  25.274  23.639  1.00  0.00    -0.003 A 
ATOM     83  C   UNL A   1      33.867  23.313  23.781  1.00  0.00     0.040 A 
ATOM     84  C   UNL A   1      32.253  24.580  22.490  1.00  0.00     0.048 A 
ATOM     85  C   UNL A   1      33.263  23.624  22.570  1.00  0.00     0.123 A 
ATOM     86  F   UNL A   1      33.652  22.983  21.460  1.00  0.00    -0.207 F 
BRANCH  82  87
ATOM     87  C   UNL A   1      30.721  26.237  23.530  1.00  0.00    -0.016 A 
ATOM     88  C   UNL A   1      29.438  25.939  24.018  1.00  0.00     0.012 A 
ATOM     89  C   UNL A   1      30.932  27.481  22.907  1.00  0.00     0.032 A 
ATOM     90  C   UNL A   1      28.391  26.854  23.876  1.00  0.00     0.041 A 
ATOM     91  C   UNL A   1      29.886  28.393  22.766  1.00  0.00     0.077 A 
ATOM     92  C   UNL A   1      28.621  28.075  23.248  1.00  0.00     0.141 A 
ATOM     93  Cl  UNL A   1      30.180  29.904  21.994  1.00  0.00    -0.081 Cl
ATOM     94  F   UNL A   1      27.600  28.937  23.121  1.00  0.00    -0.205 F 
ENDBRANCH  82  87
ENDBRANCH  77  80
ENDBRANCH  75  76
ENDBRANCH  74  75
ENDBRANCH  73  74
ENDBRANCH   1  73
TORSDOF 14
ENDMDL
MODEL 2
REMARK VINA RESULT:     -12.2      0.780      1.845
REMARK SMILES O=C(NCCCCCCNC(=O)c1ccc(F)cc1-c1ccc(F)c(Cl)c1)c1ccc(-c2c3nc(c(-c4c(F)c(F)c(F)c(F)c4F)c4ccc([nH]4)c(-c4c(F)c(F)c(F)c(F)c4F)c4nc(c(-c5c(F)c(F)c(F)c(F)c5F)c5ccc2[nH]5)C=C4)C=C3)cc1
REMARK SMILES IDX 6 1 5 2 4 3 3 4 1 5 2 6 28 8 29 9 90 10 30 11 89 12 31 13
REMARK SMILES IDX 32 14 33 15 83 16 34 17 88 18 82 19 84 20 35 21 87 22 81 23
REMARK SMILES IDX 80 24 36 26 68 27 48 28 67 29 49 30 52 31 66 32 85 33 50 34
REMARK SMILES IDX 51 35 65 37 86 38 53 39 37 40 38 41 46 42 39 43 40 44 44 45
REMARK SMILES IDX 47 46 41 47 42 48 45 49 43 50 69 51 70 52 78 53 71 54 72 55
REMARK SMILES IDX 76 56 79 57 73 58 74 59 77 60 75 61 54 62 55 63 63 64 56 65
REMARK SMILES IDX 57 66 61 67 64 68 58 69 59 70 62 71 60 72 7 73 8 74 9 75
REMARK SMILES IDX 10 76 11 77 12 79 13 80 14 81 19 82 15 83 18 84 16 85 17 86
REMARK SMILES IDX 20 87 21 88 27 89 22 90 25 91 23 92 26 93 24 94
REMARK H PARENT 3 7 84 25 52 36 10 78
REMARK Flexibility Score: inf
ROOT
ATOM      1  C   UNL A   1      31.401  30.412  25.880  1.00  0.00     0.002 C 
ENDROOT
BRANCH   1   2
ATOM      2  C   UNL A   1      31.252  31.828  26.438  1.00  0.00     0.021 C 
BRANCH   2   3
ATOM      3  C   UNL A   1      32.548  32.488  26.887  1.00  0.00     0.116 C 
BRANCH   3   4
ATOM      4  N   UNL A   1      32.354  33.842  27.376  1.00  0.00    -0.352 N 
ATOM      5  O   UNL A   1      32.621  35.606  28.758  1.00  0.00    -0.269 OA
ATOM      6  C   UNL A   1      33.015  34.508  28.380  1.00  0.00     0.251 C 
ATOM      7  H   UNL A   1      31.646  34.356  26.924  1.00  0.00     0.163 HD
BRANCH   6   8
ATOM      8  C   UNL A   1      34.193  33.887  29.026  1.00  0.00     0.039 A 
ATOM      9  C   UNL A   1      34.044  32.818  29.912  1.00  0.00     0.014 A 
ATOM     10  C   UNL A   1      35.468  34.378  28.728  1.00  0.00     0.014 A 
ATOM     11  C   UNL A   1      35.150  32.328  30.597  1.00  0.00     0.010 A 
ATOM     12  C   UNL A   1      36.590  33.828  29.355  1.00  0.00     0.010 A 
ATOM     13  C   UNL A   1      36.436  32.815  30.315  1.00  0.00    -0.014 A 
BRANCH  13  14
ATOM     14  C   UNL A   1      37.611  32.195  30.978  1.00  0.00     0.031 A 
ATOM     15  C   UNL A   1      38.015  32.581  32.372  1.00  0.00     0.074 A 
ATOM     16  C   UNL A   1      38.298  31.247  30.313  1.00  0.00     0.049 A 
ATOM     17  N   UNL A   1      39.003  32.121  33.100  1.00  0.00    -0.248 NA
ATOM     18  C   UNL A   1      37.213  33.618  33.039  1.00  0.00     0.031 C 
ATOM     19  C   UNL A   1      38.000  30.799  28.951  1.00  0.00     0.029 A 
ATOM     20  N   UNL A   1      39.370  30.478  30.689  1.00  0.00    -0.354 N 
ATOM     21  C   UNL A   1      38.950  32.818  34.299  1.00  0.00     0.074 A 
ATOM     22  C   UNL A   1      37.849  33.750  34.197  1.00  0.00     0.031 C 
ATOM     23  C   UNL A   1      38.833  29.800  28.625  1.00  0.00     0.029 A 
ATOM     24  C   UNL A   1      39.764  29.581  29.727  1.00  0.00     0.049 A 
ATOM     25  H   UNL A   1      39.813  30.562  31.564  1.00  0.00     0.167 HD
ATOM     26  C   UNL A   1      39.745  32.679  35.387  1.00  0.00     0.037 A 
ATOM     27  C   UNL A   1      40.772  28.690  29.723  1.00  0.00     0.037 A 
ATOM     28  C   UNL A   1      40.831  31.736  35.486  1.00  0.00     0.049 A 
ATOM     29  C   UNL A   1      41.656  28.582  30.931  1.00  0.00     0.074 A 
ATOM     30  C   UNL A   1      41.672  31.503  36.560  1.00  0.00     0.029 A 
ATOM     31  N   UNL A   1      41.228  30.875  34.474  1.00  0.00    -0.354 N 
ATOM     32  N   UNL A   1      41.582  29.230  32.066  1.00  0.00    -0.248 NA
ATOM     33  C   UNL A   1      42.768  27.626  30.854  1.00  0.00     0.031 C 
ATOM     34  C   UNL A   1      42.607  30.533  36.182  1.00  0.00     0.029 A 
ATOM     35  C   UNL A   1      42.317  30.126  34.890  1.00  0.00     0.049 A 
ATOM     36  H   UNL A   1      40.800  30.807  33.589  1.00  0.00     0.167 HD
ATOM     37  C   UNL A   1      42.628  28.757  32.844  1.00  0.00     0.074 A 
ATOM     38  C   UNL A   1      43.311  27.750  32.058  1.00  0.00     0.031 C 
ATOM     39  C   UNL A   1      42.988  29.128  34.096  1.00  0.00     0.037 A 
BRANCH  26  40
ATOM     40  C   UNL A   1      39.485  33.567  36.570  1.00  0.00     0.064 A 
ATOM     41  C   UNL A   1      40.108  34.821  36.668  1.00  0.00     0.173 A 
ATOM     42  C   UNL A   1      38.693  33.142  37.646  1.00  0.00     0.173 A 
ATOM     43  F   UNL A   1      40.883  35.270  35.670  1.00  0.00    -0.203 F 
ATOM     44  C   UNL A   1      39.961  35.608  37.807  1.00  0.00     0.198 A 
ATOM     45  C   UNL A   1      38.527  33.943  38.774  1.00  0.00     0.198 A 
ATOM     46  F   UNL A   1      38.067  31.956  37.598  1.00  0.00    -0.203 F 
ATOM     47  F   UNL A   1      40.594  36.786  37.892  1.00  0.00    -0.200 F 
ATOM     48  C   UNL A   1      39.170  35.169  38.858  1.00  0.00     0.200 A 
ATOM     49  F   UNL A   1      37.747  33.527  39.780  1.00  0.00    -0.200 F 
ATOM     50  F   UNL A   1      39.025  35.930  39.953  1.00  0.00    -0.200 F 
ENDBRANCH  26  40
BRANCH  27  51
ATOM     51  C   UNL A   1      40.978  27.830  28.530  1.00  0.00     0.064 A 
ATOM     52  C   UNL A   1      41.837  28.222  27.491  1.00  0.00     0.173 A 
ATOM     53  C   UNL A   1      40.279  26.626  28.381  1.00  0.00     0.173 A 
ATOM     54  F   UNL A   1      42.523  29.370  27.584  1.00  0.00    -0.203 F 
ATOM     55  C   UNL A   1      41.965  27.454  26.337  1.00  0.00     0.198 A 
ATOM     56  C   UNL A   1      40.430  25.844  27.237  1.00  0.00     0.198 A 
ATOM     57  F   UNL A   1      39.460  26.203  29.355  1.00  0.00    -0.203 F 
ATOM     58  F   UNL A   1      42.757  27.874  25.340  1.00  0.00    -0.200 F 
ATOM     59  C   UNL A   1      41.264  26.265  26.212  1.00  0.00     0.200 A 
ATOM     60  F   UNL A   1      39.766  24.686  27.129  1.00  0.00    -0.200 F 
ATOM     61  F   UNL A   1      41.392  25.523  25.103  1.00  0.00    -0.200 F 
ENDBRANCH  27  51
BRANCH  39  62
ATOM     62  C   UNL A   1      44.171  28.438  34.706  1.00  0.00     0.064 A 
ATOM     63  C   UNL A   1      44.001  27.261  35.451  1.00  0.00     0.173 A 
ATOM     64  C   UNL A   1      45.463  28.977  34.611  1.00  0.00     0.173 A 
ATOM     65  F   UNL A   1      42.785  26.710  35.577  1.00  0.00    -0.203 F 
ATOM     66  C   UNL A   1      45.080  26.658  36.092  1.00  0.00     0.198 A 
ATOM     67  C   UNL A   1      46.542  28.356  35.232  1.00  0.00     0.198 A 
ATOM     68  F   UNL A   1      45.677  30.092  33.898  1.00  0.00    -0.203 F 
ATOM     69  F   UNL A   1      44.888  25.552  36.825  1.00  0.00    -0.200 F 
ATOM     70  C   UNL A   1      46.349  27.203  35.978  1.00  0.00     0.200 A 
ATOM     71  F   UNL A   1      47.773  28.870  35.101  1.00  0.00    -0.200 F 
ATOM     72  F   UNL A   1      47.388  26.616  36.588  1.00  0.00    -0.200 F 
ENDBRANCH  39  62
ENDBRANCH  13  14
ENDBRANCH   6   8
ENDBRANCH   3   4
ENDBRANCH   2   3
ENDBRANCH   1   2
BRANCH   1  73
ATOM     73  C   UNL A   1      31.998  29.377  26.838  1.00  0.00     0.002 C 
BRANCH  73  74
ATOM     74  C   UNL A   1      33.054  28.439  26.244  1.00  0.00     0.021 C 
BRANCH  74  75
ATOM     75  C   UNL A   1      32.834  26.950  26.500  1.00  0.00     0.116 C 
BRANCH  75  76
ATOM     76  N   UNL A   1      31.444  26.626  26.765  1.00  0.00    -0.352 N 
ATOM     77  C   UNL A   1      30.631  25.711  26.146  1.00  0.00     0.251 C 
ATOM     78  H   UNL A   1      31.024  27.137  27.494  1.00  0.00     0.163 HD
ATOM     79  O   UNL A   1      29.465  25.576  26.501  1.00  0.00    -0.269 OA
BRANCH  77  80
ATOM     80  C   UNL A   1      31.177  24.879  25.050  1.00  0.00     0.047 A 
ATOM     81  C   UNL A   1      31.557  23.559  25.351  1.00  0.00     0.017 A 
ATOM     82  C   UNL A   1      31.267  25.380  23.733  1.00  0.00    -0.003 A 
ATOM     83  C   UNL A   1      32.094  22.745  24.356  1.00  0.00     0.040 A 
ATOM     84  C   UNL A   1      31.815  24.537  22.749  1.00  0.00     0.048 A 
ATOM     85  C   UNL A   1      32.227  23.246  23.069  1.00  0.00     0.123 A 
ATOM     86  F   UNL A   1      32.752  22.467  22.113  1.00  0.00    -0.207 F 
BRANCH  82  87
ATOM     87  C   UNL A   1      30.788  26.718  23.349  1.00  0.00    -0.016 A 
ATOM     88  C   UNL A   1      31.676  27.731  22.948  1.00  0.00     0.012 A 
ATOM     89  C   UNL A   1      29.412  27.012  23.398  1.00  0.00     0.032 A 
ATOM     90  C   UNL A   1      31.204  29.004  22.618  1.00  0.00     0.041 A 
ATOM     91  C   UNL A   1      28.943  28.283  23.068  1.00  0.00     0.077 A 
ATOM     92  C   UNL A   1      29.840  29.273  22.682  1.00  0.00     0.141 A 
ATOM     93  Cl  UNL A   1      27.253  28.607  23.144  1.00  0.00    -0.081 Cl
ATOM     94  F   UNL A   1      29.410  30.503  22.362  1.00  0.00    -0.205 F 
ENDBRANCH  82  87
ENDBRANCH  77  80
ENDBRANCH  75  76
ENDBRANCH  74  75
ENDBRANCH  73  74
ENDBRANCH   1  73
TORSDOF 14
ENDMDL
MODEL 3
REMARK VINA RESULT:     -12.1      5.322     10.572
REMARK SMILES O=C(NCCCCCCNC(=O)c1ccc(F)cc1-c1ccc(F)c(Cl)c1)c1ccc(-c2c3nc(c(-c4c(F)c(F)c(F)c(F)c4F)c4ccc([nH]4)c(-c4c(F)c(F)c(F)c(F)c4F)c4nc(c(-c5c(F)c(F)c(F)c(F)c5F)c5ccc2[nH]5)C=C4)C=C3)cc1
REMARK SMILES IDX 6 1 5 2 4 3 3 4 1 5 2 6 28 8 29 9 90 10 30 11 89 12 31 13
REMARK SMILES IDX 32 14 33 15 83 16 34 17 88 18 82 19 84 20 35 21 87 22 81 23
REMARK SMILES IDX 80 24 36 26 68 27 48 28 67 29 49 30 52 31 66 32 85 33 50 34
REMARK SMILES IDX 51 35 65 37 86 38 53 39 37 40 38 41 46 42 39 43 40 44 44 45
REMARK SMILES IDX 47 46 41 47 42 48 45 49 43 50 69 51 70 52 78 53 71 54 72 55
REMARK SMILES IDX 76 56 79 57 73 58 74 59 77 60 75 61 54 62 55 63 63 64 56 65
REMARK SMILES IDX 57 66 61 67 64 68 58 69 59 70 62 71 60 72 7 73 8 74 9 75
REMARK SMILES IDX 10 76 11 77 12 79 13 80 14 81 19 82 15 83 18 84 16 85 17 86
REMARK SMILES IDX 20 87 21 88 27 89 22 90 25 91 23 92 26 93 24 94
REMARK H PARENT 3 7 84 25 52 36 10 78
REMARK Flexibility Score: inf
ROOT
ATOM      1  C   UNL A   1      36.752  20.323  25.001  1.00  0.00     0.002 C 
ENDROOT
BRANCH   1   2
ATOM      2  C   UNL A   1      38.099  19.610  24.892  1.00  0.00     0.021 C 
BRANCH   2   3
ATOM      3  C   UNL A   1      39.096  19.932  25.997  1.00  0.00     0.116 C 
BRANCH   3   4
ATOM      4  N   UNL A   1      40.238  19.036  26.007  1.00  0.00    -0.352 N 
ATOM      5  O   UNL A   1      42.419  18.454  25.967  1.00  0.00    -0.269 OA
ATOM      6  C   UNL A   1      41.575  19.331  26.122  1.00  0.00     0.251 C 
ATOM      7  H   UNL A   1      40.024  18.078  25.918  1.00  0.00     0.163 HD
BRANCH   6   8
ATOM      8  C   UNL A   1      42.003  20.719  26.409  1.00  0.00     0.039 A 
ATOM      9  C   UNL A   1      42.150  21.650  25.379  1.00  0.00     0.014 A 
ATOM     10  C   UNL A   1      42.245  21.093  27.734  1.00  0.00     0.014 A 
ATOM     11  C   UNL A   1      42.665  22.912  25.656  1.00  0.00     0.010 A 
ATOM     12  C   UNL A   1      42.684  22.390  28.022  1.00  0.00     0.010 A 
ATOM     13  C   UNL A   1      42.922  23.301  26.981  1.00  0.00    -0.014 A 
BRANCH  13  14
ATOM     14  C   UNL A   1      43.363  24.692  27.258  1.00  0.00     0.031 A 
ATOM     15  C   UNL A   1      44.754  25.151  26.924  1.00  0.00     0.074 A 
ATOM     16  C   UNL A   1      42.476  25.553  27.791  1.00  0.00     0.049 A 
ATOM     17  N   UNL A   1      45.290  26.336  27.085  1.00  0.00    -0.248 NA
ATOM     18  C   UNL A   1      45.665  24.157  26.338  1.00  0.00     0.031 C 
ATOM     19  C   UNL A   1      41.100  25.214  28.162  1.00  0.00     0.029 A 
ATOM     20  N   UNL A   1      42.584  26.886  28.096  1.00  0.00    -0.354 N 
ATOM     21  C   UNL A   1      46.598  26.227  26.635  1.00  0.00     0.074 A 
ATOM     22  C   UNL A   1      46.787  24.856  26.215  1.00  0.00     0.031 C 
ATOM     23  C   UNL A   1      40.477  26.319  28.596  1.00  0.00     0.029 A 
ATOM     24  C   UNL A   1      41.425  27.428  28.595  1.00  0.00     0.049 A 
ATOM     25  H   UNL A   1      43.412  27.403  27.970  1.00  0.00     0.167 HD
ATOM     26  C   UNL A   1      47.548  27.192  26.570  1.00  0.00     0.037 A 
ATOM     27  C   UNL A   1      41.156  28.676  29.020  1.00  0.00     0.037 A 
ATOM     28  C   UNL A   1      47.346  28.560  26.976  1.00  0.00     0.049 A 
ATOM     29  C   UNL A   1      42.237  29.715  28.965  1.00  0.00     0.074 A 
ATOM     30  C   UNL A   1      48.239  29.615  26.918  1.00  0.00     0.029 A 
ATOM     31  N   UNL A   1      46.171  29.061  27.519  1.00  0.00    -0.354 N 
ATOM     32  N   UNL A   1      43.463  29.605  28.517  1.00  0.00    -0.248 NA
ATOM     33  C   UNL A   1      41.902  31.048  29.484  1.00  0.00     0.031 C 
ATOM     34  C   UNL A   1      47.622  30.743  27.468  1.00  0.00     0.029 A 
ATOM     35  C   UNL A   1      46.326  30.404  27.822  1.00  0.00     0.049 A 
ATOM     36  H   UNL A   1      45.349  28.539  27.667  1.00  0.00     0.167 HD
ATOM     37  C   UNL A   1      44.045  30.853  28.688  1.00  0.00     0.074 A 
ATOM     38  C   UNL A   1      43.030  31.711  29.263  1.00  0.00     0.031 C 
ATOM     39  C   UNL A   1      45.307  31.246  28.396  1.00  0.00     0.037 A 
BRANCH  26  40
ATOM     40  C   UNL A   1      48.903  26.815  26.045  1.00  0.00     0.064 A 
ATOM     41  C   UNL A   1      49.904  26.365  26.920  1.00  0.00     0.173 A 
ATOM     42  C   UNL A   1      49.239  26.983  24.695  1.00  0.00     0.173 A 
ATOM     43  F   UNL A   1      49.636  26.195  28.223  1.00  0.00    -0.203 F 
ATOM     44  C   UNL A   1      51.196  26.114  26.464  1.00  0.00     0.198 A 
ATOM     45  C   UNL A   1      50.525  26.707  24.237  1.00  0.00     0.198 A 
ATOM     46  F   UNL A   1      48.316  27.401  23.815  1.00  0.00    -0.203 F 
ATOM     47  F   UNL A   1      52.143  25.719  27.325  1.00  0.00    -0.200 F 
ATOM     48  C   UNL A   1      51.505  26.284  25.123  1.00  0.00     0.200 A 
ATOM     49  F   UNL A   1      50.818  26.853  22.937  1.00  0.00    -0.200 F 
ATOM     50  F   UNL A   1      52.747  26.038  24.684  1.00  0.00    -0.200 F 
ENDBRANCH  26  40
BRANCH  27  51
ATOM     51  C   UNL A   1      39.795  28.997  29.520  1.00  0.00     0.064 A 
ATOM     52  C   UNL A   1      39.446  28.785  30.863  1.00  0.00     0.173 A 
ATOM     53  C   UNL A   1      38.802  29.470  28.654  1.00  0.00     0.173 A 
ATOM     54  F   UNL A   1      40.361  28.326  31.730  1.00  0.00    -0.203 F 
ATOM     55  C   UNL A   1      38.147  29.007  31.312  1.00  0.00     0.198 A 
ATOM     56  C   UNL A   1      37.510  29.720  29.111  1.00  0.00     0.198 A 
ATOM     57  F   UNL A   1      39.094  29.704  27.366  1.00  0.00    -0.203 F 
ATOM     58  F   UNL A   1      37.829  28.753  32.589  1.00  0.00    -0.200 F 
ATOM     59  C   UNL A   1      37.181  29.478  30.436  1.00  0.00     0.200 A 
ATOM     60  F   UNL A   1      36.584  30.194  28.266  1.00  0.00    -0.200 F 
ATOM     61  F   UNL A   1      35.932  29.698  30.869  1.00  0.00    -0.200 F 
ENDBRANCH  27  51
BRANCH  39  62
ATOM     62  C   UNL A   1      45.668  32.674  28.683  1.00  0.00     0.064 A 
ATOM     63  C   UNL A   1      45.453  33.669  27.718  1.00  0.00     0.173 A 
ATOM     64  C   UNL A   1      46.290  33.044  29.885  1.00  0.00     0.173 A 
ATOM     65  F   UNL A   1      44.868  33.363  26.551  1.00  0.00    -0.203 F 
ATOM     66  C   UNL A   1      45.861  34.981  27.941  1.00  0.00     0.198 A 
ATOM     67  C   UNL A   1      46.672  34.362  30.113  1.00  0.00     0.198 A 
ATOM     68  F   UNL A   1      46.504  32.130  30.842  1.00  0.00    -0.203 F 
ATOM     69  F   UNL A   1      45.673  35.909  26.992  1.00  0.00    -0.200 F 
ATOM     70  C   UNL A   1      46.466  35.327  29.138  1.00  0.00     0.200 A 
ATOM     71  F   UNL A   1      47.235  34.701  31.281  1.00  0.00    -0.200 F 
ATOM     72  F   UNL A   1      46.849  36.593  29.355  1.00  0.00    -0.200 F 
ENDBRANCH  39  62
ENDBRANCH  13  14
ENDBRANCH   6   8
ENDBRANCH   3   4
ENDBRANCH   2   3
ENDBRANCH   1   2
BRANCH   1  73
ATOM     73  C   UNL A   1      36.705  21.751  24.449  1.00  0.00     0.002 C 
BRANCH  73  74
ATOM     74  C   UNL A   1      36.418  22.859  25.467  1.00  0.00     0.021 C 
BRANCH  74  75
ATOM     75  C   UNL A   1      35.440  23.939  25.012  1.00  0.00     0.116 C 
BRANCH  75  76
ATOM     76  N   UNL A   1      34.335  24.119  25.936  1.00  0.00    -0.352 N 
ATOM     77  C   UNL A   1      33.162  23.414  26.037  1.00  0.00     0.251 C 
ATOM     78  H   UNL A   1      34.442  24.853  26.582  1.00  0.00     0.163 HD
ATOM     79  O   UNL A   1      32.327  23.715  26.883  1.00  0.00    -0.269 OA
BRANCH  77  80
ATOM     80  C   UNL A   1      32.916  22.278  25.121  1.00  0.00     0.047 A 
ATOM     81  C   UNL A   1      33.193  20.981  25.590  1.00  0.00     0.017 A 
ATOM     82  C   UNL A   1      32.375  22.486  23.834  1.00  0.00    -0.003 A 
ATOM     83  C   UNL A   1      32.997  19.882  24.756  1.00  0.00     0.040 A 
ATOM     84  C   UNL A   1      32.188  21.359  23.012  1.00  0.00     0.048 A 
ATOM     85  C   UNL A   1      32.506  20.083  23.474  1.00  0.00     0.123 A 
ATOM     86  F   UNL A   1      32.326  19.028  22.668  1.00  0.00    -0.207 F 
BRANCH  82  87
ATOM     87  C   UNL A   1      31.974  23.812  23.337  1.00  0.00    -0.016 A 
ATOM     88  C   UNL A   1      32.783  24.541  22.448  1.00  0.00     0.012 A 
ATOM     89  C   UNL A   1      30.763  24.386  23.768  1.00  0.00     0.032 A 
ATOM     90  C   UNL A   1      32.398  25.812  22.013  1.00  0.00     0.041 A 
ATOM     91  C   UNL A   1      30.381  25.656  23.332  1.00  0.00     0.077 A 
ATOM     92  C   UNL A   1      31.201  26.362  22.460  1.00  0.00     0.141 A 
ATOM     93  Cl  UNL A   1      28.895  26.327  23.884  1.00  0.00    -0.081 Cl
ATOM     94  F   UNL A   1      30.854  27.586  22.030  1.00  0.00    -0.205 F 
ENDBRANCH  82  87
ENDBRANCH  77  80
ENDBRANCH  75  76
ENDBRANCH  74  75
ENDBRANCH  73  74
ENDBRANCH   1  73
TORSDOF 14
ENDMDL
