MODEL 1
REMARK VINA RESULT:     -13.8      0.000      0.000
REMARK SMILES Cc1ccc(Cn2c(C)c(C[NH2+]Cc3ccco3)c(C(=O)NCCCCCCNC(=O)c3ccc(-c4c5nc(c(-c6c(F)c(F)c(F)c(F)c6F)c6ccc([nH]6)c(-c6c(F)c(F)c(F)c(F)c6F)c6nc(c(-c7c(F)c(F)c(F)c(F)c7F)c7ccc4[nH]7)C=C6)C=C5)cc3)c2C)cc1
REMARK SMILES IDX 24 1 23 2 22 3 20 4 21 5 19 7 7 8 8 9 95 10 9 11 10 12 96 13
REMARK SMILES IDX 6 14 5 15 1 16 2 17 3 18 98 19 4 20 97 21 11 22 12 23 13 26
REMARK SMILES IDX 14 27 15 28 18 29 16 30 17 31 25 32 26 33 27 34 28 35 29 36
REMARK SMILES IDX 30 37 31 39 32 40 33 41 94 42 34 43 93 44 35 45 36 46 37 47
REMARK SMILES IDX 87 48 38 49 92 50 86 51 88 52 39 53 91 54 85 55 84 56 40 58
REMARK SMILES IDX 72 59 52 60 71 61 53 62 56 63 70 64 89 65 54 66 55 67 69 69
REMARK SMILES IDX 90 70 57 71 41 72 42 73 50 74 43 75 44 76 48 77 51 78 45 79
REMARK SMILES IDX 46 80 49 81 47 82 73 83 74 84 82 85 75 86 76 87 80 88 83 89
REMARK SMILES IDX 77 90 78 91 81 92 79 93 58 94 59 95 67 96 60 97 61 98 65 99
REMARK SMILES IDX 68 100 62 101 63 102 66 103 64 104
REMARK H PARENT 22 6 12 24 12 25 29 38 88 57 56 68
REMARK Flexibility Score: inf
ROOT
ATOM      1  C   UNL A   1      31.456  27.406  26.574  1.00  0.00     0.021 C 
ENDROOT
BRANCH   1   2
ATOM      2  C   UNL A   1      32.013  25.985  26.412  1.00  0.00     0.116 C 
BRANCH   2   3
ATOM      3  N   UNL A   1      31.076  25.023  26.948  1.00  0.00    -0.352 N 
ATOM      4  C   UNL A   1      30.862  23.699  26.669  1.00  0.00     0.253 C 
ATOM      5  O   UNL A   1      29.968  23.149  27.310  1.00  0.00    -0.269 OA
ATOM      6  H   UNL A   1      30.481  25.389  27.641  1.00  0.00     0.163 HD
BRANCH   4   7
ATOM      7  C   UNL A   1      31.701  22.953  25.723  1.00  0.00     0.069 A 
ATOM      8  N   UNL A   1      33.256  21.626  24.777  1.00  0.00    -0.343 N 
ATOM      9  C   UNL A   1      32.539  22.189  23.732  1.00  0.00     0.025 A 
ATOM     10  C   UNL A   1      32.937  22.339  25.930  1.00  0.00     0.028 A 
ATOM     11  C   UNL A   1      32.855  22.046  22.279  1.00  0.00     0.065 C 
ATOM     12  C   UNL A   1      31.535  22.976  24.290  1.00  0.00     0.040 A 
ATOM     13  C   UNL A   1      33.868  22.481  27.083  1.00  0.00     0.065 C 
BRANCH   8  14
ATOM     14  C   UNL A   1      34.347  20.649  24.655  1.00  0.00     0.157 C 
BRANCH  14  15
ATOM     15  C   UNL A   1      33.920  19.198  24.785  1.00  0.00    -0.028 A 
ATOM     16  C   UNL A   1      32.846  15.038  25.410  1.00  0.00     0.044 C 
ATOM     17  C   UNL A   1      33.234  16.472  25.197  1.00  0.00    -0.051 A 
ATOM     18  C   UNL A   1      32.415  17.493  25.680  1.00  0.00     0.004 A 
ATOM     19  C   UNL A   1      34.388  16.818  24.486  1.00  0.00     0.004 A 
ATOM     20  C   UNL A   1      32.765  18.833  25.489  1.00  0.00     0.006 A 
ATOM     21  C   UNL A   1      34.726  18.165  24.281  1.00  0.00     0.006 A 
ENDBRANCH  14  15
ENDBRANCH   8  14
BRANCH  12  22
ATOM     22  C   UNL A   1      30.528  23.819  23.539  1.00  0.00     0.300 C 
BRANCH  22  23
ATOM     23  N   UNL A   1      31.273  24.578  22.535  1.00  0.00    -0.336 N 
ATOM     24  H   UNL A   1      30.631  24.849  21.790  1.00  0.00     0.346 HD
ATOM     25  H   UNL A   1      32.023  23.978  22.192  1.00  0.00     0.346 HD
BRANCH  23  26
ATOM     26  C   UNL A   1      31.895  25.788  23.078  1.00  0.00     0.337 C 
BRANCH  26  27
ATOM     27  C   UNL A   1      31.017  26.987  22.983  1.00  0.00     0.157 A 
ATOM     28  C   UNL A   1      29.700  27.235  23.309  1.00  0.00     0.052 A 
ATOM     29  O   UNL A   1      31.584  28.115  22.459  1.00  0.00    -0.463 OA
ATOM     30  C   UNL A   1      29.458  28.595  22.996  1.00  0.00     0.042 A 
ATOM     31  C   UNL A   1      30.638  29.088  22.492  1.00  0.00     0.195 A 
ENDBRANCH  26  27
ENDBRANCH  23  26
ENDBRANCH  22  23
ENDBRANCH  12  22
ENDBRANCH   4   7
ENDBRANCH   2   3
ENDBRANCH   1   2
BRANCH   1  32
ATOM     32  C   UNL A   1      32.397  28.529  26.121  1.00  0.00     0.002 C 
BRANCH  32  33
ATOM     33  C   UNL A   1      31.804  29.947  26.113  1.00  0.00     0.002 C 
BRANCH  33  34
ATOM     34  C   UNL A   1      32.515  30.978  26.994  1.00  0.00     0.021 C 
BRANCH  34  35
ATOM     35  C   UNL A   1      33.898  30.542  27.462  1.00  0.00     0.116 C 
BRANCH  35  36
ATOM     36  N   UNL A   1      34.484  31.423  28.463  1.00  0.00    -0.352 N 
ATOM     37  C   UNL A   1      35.582  31.243  29.288  1.00  0.00     0.251 C 
ATOM     38  H   UNL A   1      34.025  32.288  28.572  1.00  0.00     0.163 HD
ATOM     39  O   UNL A   1      35.856  32.080  30.129  1.00  0.00    -0.269 OA
BRANCH  37  40
ATOM     40  C   UNL A   1      36.504  30.102  29.052  1.00  0.00     0.039 A 
ATOM     41  C   UNL A   1      36.766  29.240  30.126  1.00  0.00     0.014 A 
ATOM     42  C   UNL A   1      37.244  29.997  27.880  1.00  0.00     0.014 A 
ATOM     43  C   UNL A   1      37.920  28.459  30.116  1.00  0.00     0.010 A 
ATOM     44  C   UNL A   1      38.440  29.314  27.909  1.00  0.00     0.010 A 
ATOM     45  C   UNL A   1      38.809  28.598  29.052  1.00  0.00    -0.014 A 
BRANCH  45  46
ATOM     46  C   UNL A   1      40.190  28.138  29.086  1.00  0.00     0.031 A 
ATOM     47  C   UNL A   1      40.552  26.805  28.569  1.00  0.00     0.074 A 
ATOM     48  C   UNL A   1      41.157  29.011  29.449  1.00  0.00     0.049 A 
ATOM     49  N   UNL A   1      41.632  26.174  28.888  1.00  0.00    -0.248 NA
ATOM     50  C   UNL A   1      39.697  26.051  27.662  1.00  0.00     0.031 C 
ATOM     51  C   UNL A   1      42.591  28.885  29.210  1.00  0.00     0.029 A 
ATOM     52  N   UNL A   1      41.039  30.144  30.272  1.00  0.00    -0.354 N 
ATOM     53  C   UNL A   1      41.760  25.099  28.036  1.00  0.00     0.074 A 
ATOM     54  C   UNL A   1      40.492  25.023  27.348  1.00  0.00     0.031 C 
ATOM     55  C   UNL A   1      43.247  29.688  30.061  1.00  0.00     0.029 A 
ATOM     56  C   UNL A   1      42.261  30.234  30.975  1.00  0.00     0.049 A 
ATOM     57  H   UNL A   1      40.265  30.749  30.343  1.00  0.00     0.167 HD
ATOM     58  C   UNL A   1      42.979  24.493  27.913  1.00  0.00     0.037 A 
ATOM     59  C   UNL A   1      42.319  30.119  32.335  1.00  0.00     0.037 A 
ATOM     60  C   UNL A   1      43.957  25.107  28.811  1.00  0.00     0.049 A 
ATOM     61  C   UNL A   1      43.195  28.990  32.817  1.00  0.00     0.074 A 
ATOM     62  C   UNL A   1      44.944  26.057  28.598  1.00  0.00     0.029 A 
ATOM     63  N   UNL A   1      43.811  24.989  30.189  1.00  0.00    -0.354 N 
ATOM     64  N   UNL A   1      43.511  27.959  32.085  1.00  0.00    -0.248 NA
ATOM     65  C   UNL A   1      43.759  28.917  34.160  1.00  0.00     0.031 C 
ATOM     66  C   UNL A   1      45.379  26.528  29.859  1.00  0.00     0.029 A 
ATOM     67  C   UNL A   1      44.667  25.859  30.837  1.00  0.00     0.049 A 
ATOM     68  H   UNL A   1      43.186  24.374  30.637  1.00  0.00     0.167 HD
ATOM     69  C   UNL A   1      44.282  27.095  32.819  1.00  0.00     0.074 A 
ATOM     70  C   UNL A   1      44.420  27.746  34.108  1.00  0.00     0.031 C 
ATOM     71  C   UNL A   1      44.729  25.918  32.290  1.00  0.00     0.037 A 
BRANCH  58  72
ATOM     72  C   UNL A   1      43.382  23.570  26.777  1.00  0.00     0.064 A 
ATOM     73  C   UNL A   1      42.961  22.218  26.763  1.00  0.00     0.173 A 
ATOM     74  C   UNL A   1      44.221  23.923  25.705  1.00  0.00     0.173 A 
ATOM     75  F   UNL A   1      42.050  21.756  27.628  1.00  0.00    -0.203 F 
ATOM     76  C   UNL A   1      43.457  21.280  25.852  1.00  0.00     0.198 A 
ATOM     77  C   UNL A   1      44.755  22.977  24.822  1.00  0.00     0.198 A 
ATOM     78  F   UNL A   1      44.501  25.200  25.429  1.00  0.00    -0.203 F 
ATOM     79  F   UNL A   1      43.031  20.010  25.908  1.00  0.00    -0.200 F 
ATOM     80  C   UNL A   1      44.387  21.652  24.906  1.00  0.00     0.200 A 
ATOM     81  F   UNL A   1      45.630  23.368  23.883  1.00  0.00    -0.200 F 
ATOM     82  F   UNL A   1      44.897  20.747  24.061  1.00  0.00    -0.200 F 
ENDBRANCH  58  72
BRANCH  59  83
ATOM     83  C   UNL A   1      41.082  30.583  33.011  1.00  0.00     0.064 A 
ATOM     84  C   UNL A   1      40.860  31.969  33.113  1.00  0.00     0.173 A 
ATOM     85  C   UNL A   1      39.979  29.734  33.169  1.00  0.00     0.173 A 
ATOM     86  F   UNL A   1      41.887  32.823  32.965  1.00  0.00    -0.203 F 
ATOM     87  C   UNL A   1      39.575  32.488  33.243  1.00  0.00     0.198 A 
ATOM     88  C   UNL A   1      38.692  30.259  33.308  1.00  0.00     0.198 A 
ATOM     89  F   UNL A   1      40.125  28.406  33.066  1.00  0.00    -0.203 F 
ATOM     90  F   UNL A   1      39.384  33.815  33.223  1.00  0.00    -0.200 F 
ATOM     91  C   UNL A   1      38.488  31.632  33.308  1.00  0.00     0.200 A 
ATOM     92  F   UNL A   1      37.637  29.433  33.344  1.00  0.00    -0.200 F 
ATOM     93  F   UNL A   1      37.243  32.128  33.332  1.00  0.00    -0.200 F 
ENDBRANCH  59  83
BRANCH  71  94
ATOM     94  C   UNL A   1      45.361  24.765  33.037  1.00  0.00     0.064 A 
ATOM     95  C   UNL A   1      46.652  24.795  33.591  1.00  0.00     0.173 A 
ATOM     96  C   UNL A   1      44.599  23.610  33.350  1.00  0.00     0.173 A 
ATOM     97  F   UNL A   1      47.437  25.873  33.477  1.00  0.00    -0.203 F 
ATOM     98  C   UNL A   1      47.162  23.731  34.343  1.00  0.00     0.198 A 
ATOM     99  C   UNL A   1      45.089  22.579  34.151  1.00  0.00     0.198 A 
ATOM    100  F   UNL A   1      43.341  23.457  32.914  1.00  0.00    -0.203 F 
ATOM    101  F   UNL A   1      48.416  23.794  34.814  1.00  0.00    -0.200 F 
ATOM    102  C   UNL A   1      46.377  22.631  34.634  1.00  0.00     0.200 A 
ATOM    103  F   UNL A   1      44.294  21.547  34.467  1.00  0.00    -0.200 F 
ATOM    104  F   UNL A   1      46.854  21.638  35.397  1.00  0.00    -0.200 F 
ENDBRANCH  71  94
ENDBRANCH  45  46
ENDBRANCH  37  40
ENDBRANCH  35  36
ENDBRANCH  34  35
ENDBRANCH  33  34
ENDBRANCH  32  33
ENDBRANCH   1  32
TORSDOF 19
ENDMDL
MODEL 2
REMARK VINA RESULT:     -13.3      3.645     10.171
REMARK SMILES Cc1ccc(Cn2c(C)c(C[NH2+]Cc3ccco3)c(C(=O)NCCCCCCNC(=O)c3ccc(-c4c5nc(c(-c6c(F)c(F)c(F)c(F)c6F)c6ccc([nH]6)c(-c6c(F)c(F)c(F)c(F)c6F)c6nc(c(-c7c(F)c(F)c(F)c(F)c7F)c7ccc4[nH]7)C=C6)C=C5)cc3)c2C)cc1
REMARK SMILES IDX 24 1 23 2 22 3 20 4 21 5 19 7 7 8 8 9 95 10 9 11 10 12 96 13
REMARK SMILES IDX 6 14 5 15 1 16 2 17 3 18 98 19 4 20 97 21 11 22 12 23 13 26
REMARK SMILES IDX 14 27 15 28 18 29 16 30 17 31 25 32 26 33 27 34 28 35 29 36
REMARK SMILES IDX 30 37 31 39 32 40 33 41 94 42 34 43 93 44 35 45 36 46 37 47
REMARK SMILES IDX 87 48 38 49 92 50 86 51 88 52 39 53 91 54 85 55 84 56 40 58
REMARK SMILES IDX 72 59 52 60 71 61 53 62 56 63 70 64 89 65 54 66 55 67 69 69
REMARK SMILES IDX 90 70 57 71 41 72 42 73 50 74 43 75 44 76 48 77 51 78 45 79
REMARK SMILES IDX 46 80 49 81 47 82 73 83 74 84 82 85 75 86 76 87 80 88 83 89
REMARK SMILES IDX 77 90 78 91 81 92 79 93 58 94 59 95 67 96 60 97 61 98 65 99
REMARK SMILES IDX 68 100 62 101 63 102 66 103 64 104
REMARK H PARENT 22 6 12 24 12 25 29 38 88 57 56 68
REMARK Flexibility Score: inf
ROOT
ATOM      1  C   UNL A   1      34.762  22.157  27.248  1.00  0.00     0.021 C 
ENDROOT
BRANCH   1   2
ATOM      2  C   UNL A   1      33.662  23.217  27.102  1.00  0.00     0.116 C 
BRANCH   2   3
ATOM      3  N   UNL A   1      32.409  22.584  26.757  1.00  0.00    -0.352 N 
ATOM      4  C   UNL A   1      31.458  22.885  25.817  1.00  0.00     0.253 C 
ATOM      5  O   UNL A   1      30.483  22.136  25.776  1.00  0.00    -0.269 OA
ATOM      6  H   UNL A   1      32.201  21.789  27.298  1.00  0.00     0.163 HD
BRANCH   4   7
ATOM      7  C   UNL A   1      31.626  23.985  24.859  1.00  0.00     0.069 A 
ATOM      8  N   UNL A   1      31.594  25.980  23.816  1.00  0.00    -0.343 N 
ATOM      9  C   UNL A   1      32.209  25.096  22.942  1.00  0.00     0.025 A 
ATOM     10  C   UNL A   1      30.983  25.222  24.812  1.00  0.00     0.028 A 
ATOM     11  C   UNL A   1      32.618  25.398  21.538  1.00  0.00     0.065 C 
ATOM     12  C   UNL A   1      32.288  23.863  23.584  1.00  0.00     0.040 A 
ATOM     13  C   UNL A   1      29.776  25.677  25.555  1.00  0.00     0.065 C 
BRANCH   8  14
ATOM     14  C   UNL A   1      31.388  27.418  23.594  1.00  0.00     0.157 C 
BRANCH  14  15
ATOM     15  C   UNL A   1      32.102  28.324  24.582  1.00  0.00    -0.028 A 
ATOM     16  C   UNL A   1      34.059  30.728  27.622  1.00  0.00     0.044 C 
ATOM     17  C   UNL A   1      33.368  29.897  26.580  1.00  0.00    -0.051 A 
ATOM     18  C   UNL A   1      34.061  28.871  25.936  1.00  0.00     0.004 A 
ATOM     19  C   UNL A   1      32.044  30.148  26.206  1.00  0.00     0.004 A 
ATOM     20  C   UNL A   1      33.429  28.090  24.965  1.00  0.00     0.006 A 
ATOM     21  C   UNL A   1      31.419  29.373  25.218  1.00  0.00     0.006 A 
ENDBRANCH  14  15
ENDBRANCH   8  14
BRANCH  12  22
ATOM     22  C   UNL A   1      32.845  22.580  23.006  1.00  0.00     0.300 C 
BRANCH  22  23
ATOM     23  N   UNL A   1      31.851  21.535  23.255  1.00  0.00    -0.336 N 
ATOM     24  H   UNL A   1      30.941  21.870  22.938  1.00  0.00     0.346 HD
ATOM     25  H   UNL A   1      31.857  21.341  24.257  1.00  0.00     0.346 HD
BRANCH  23  26
ATOM     26  C   UNL A   1      32.154  20.281  22.564  1.00  0.00     0.337 C 
BRANCH  26  27
ATOM     27  C   UNL A   1      32.493  19.170  23.496  1.00  0.00     0.157 A 
ATOM     28  C   UNL A   1      33.090  17.937  23.336  1.00  0.00     0.052 A 
ATOM     29  O   UNL A   1      32.156  19.353  24.808  1.00  0.00    -0.463 OA
ATOM     30  C   UNL A   1      33.148  17.348  24.623  1.00  0.00     0.042 A 
ATOM     31  C   UNL A   1      32.576  18.255  25.485  1.00  0.00     0.195 A 
ENDBRANCH  26  27
ENDBRANCH  23  26
ENDBRANCH  22  23
ENDBRANCH  12  22
ENDBRANCH   4   7
ENDBRANCH   2   3
ENDBRANCH   1   2
BRANCH   1  32
ATOM     32  C   UNL A   1      35.004  21.295  26.003  1.00  0.00     0.002 C 
BRANCH  32  33
ATOM     33  C   UNL A   1      35.810  21.952  24.871  1.00  0.00     0.002 C 
BRANCH  33  34
ATOM     34  C   UNL A   1      37.333  21.855  24.988  1.00  0.00     0.021 C 
BRANCH  34  35
ATOM     35  C   UNL A   1      37.978  23.056  25.670  1.00  0.00     0.116 C 
BRANCH  35  36
ATOM     36  N   UNL A   1      39.318  22.792  26.178  1.00  0.00    -0.352 N 
ATOM     37  C   UNL A   1      40.243  23.645  26.758  1.00  0.00     0.251 C 
ATOM     38  H   UNL A   1      39.615  21.857  26.096  1.00  0.00     0.163 HD
ATOM     39  O   UNL A   1      41.355  23.236  27.039  1.00  0.00    -0.269 OA
BRANCH  37  40
ATOM     40  C   UNL A   1      39.832  25.013  27.169  1.00  0.00     0.039 A 
ATOM     41  C   UNL A   1      40.275  26.090  26.387  1.00  0.00     0.014 A 
ATOM     42  C   UNL A   1      39.208  25.249  28.387  1.00  0.00     0.014 A 
ATOM     43  C   UNL A   1      40.318  27.368  26.939  1.00  0.00     0.010 A 
ATOM     44  C   UNL A   1      39.350  26.486  28.978  1.00  0.00     0.010 A 
ATOM     45  C   UNL A   1      39.964  27.528  28.277  1.00  0.00    -0.014 A 
BRANCH  45  46
ATOM     46  C   UNL A   1      40.304  28.702  29.069  1.00  0.00     0.031 A 
ATOM     47  C   UNL A   1      39.285  29.722  29.379  1.00  0.00     0.074 A 
ATOM     48  C   UNL A   1      41.523  28.762  29.651  1.00  0.00     0.049 A 
ATOM     49  N   UNL A   1      39.557  30.934  29.729  1.00  0.00    -0.248 NA
ATOM     50  C   UNL A   1      37.854  29.462  29.285  1.00  0.00     0.031 C 
ATOM     51  C   UNL A   1      41.933  29.634  30.748  1.00  0.00     0.029 A 
ATOM     52  N   UNL A   1      42.712  28.135  29.241  1.00  0.00    -0.354 N 
ATOM     53  C   UNL A   1      38.392  31.515  30.179  1.00  0.00     0.074 A 
ATOM     54  C   UNL A   1      37.351  30.586  29.806  1.00  0.00     0.031 C 
ATOM     55  C   UNL A   1      43.271  29.720  30.759  1.00  0.00     0.029 A 
ATOM     56  C   UNL A   1      43.752  29.032  29.575  1.00  0.00     0.049 A 
ATOM     57  H   UNL A   1      42.801  27.253  28.811  1.00  0.00     0.167 HD
ATOM     58  C   UNL A   1      38.469  32.647  30.941  1.00  0.00     0.037 A 
ATOM     59  C   UNL A   1      44.548  29.598  28.621  1.00  0.00     0.037 A 
ATOM     60  C   UNL A   1      39.858  33.079  31.092  1.00  0.00     0.049 A 
ATOM     61  C   UNL A   1      44.509  31.105  28.608  1.00  0.00     0.074 A 
ATOM     62  C   UNL A   1      40.778  32.905  32.114  1.00  0.00     0.029 A 
ATOM     63  N   UNL A   1      40.572  33.531  29.988  1.00  0.00    -0.354 N 
ATOM     64  N   UNL A   1      43.530  31.807  29.106  1.00  0.00    -0.248 NA
ATOM     65  C   UNL A   1      45.547  31.939  28.011  1.00  0.00     0.031 C 
ATOM     66  C   UNL A   1      42.058  33.237  31.613  1.00  0.00     0.029 A 
ATOM     67  C   UNL A   1      41.916  33.622  30.292  1.00  0.00     0.049 A 
ATOM     68  H   UNL A   1      40.175  33.755  29.115  1.00  0.00     0.167 HD
ATOM     69  C   UNL A   1      43.773  33.141  28.903  1.00  0.00     0.074 A 
ATOM     70  C   UNL A   1      45.054  33.173  28.225  1.00  0.00     0.031 C 
ATOM     71  C   UNL A   1      42.885  34.094  29.313  1.00  0.00     0.037 A 
BRANCH  58  72
ATOM     72  C   UNL A   1      37.347  33.188  31.811  1.00  0.00     0.064 A 
ATOM     73  C   UNL A   1      36.264  33.895  31.233  1.00  0.00     0.173 A 
ATOM     74  C   UNL A   1      37.297  33.103  33.213  1.00  0.00     0.173 A 
ATOM     75  F   UNL A   1      36.085  33.946  29.907  1.00  0.00    -0.203 F 
ATOM     76  C   UNL A   1      35.312  34.577  31.996  1.00  0.00     0.198 A 
ATOM     77  C   UNL A   1      36.373  33.823  33.980  1.00  0.00     0.198 A 
ATOM     78  F   UNL A   1      38.091  32.269  33.891  1.00  0.00    -0.203 F 
ATOM     79  F   UNL A   1      34.324  35.244  31.384  1.00  0.00    -0.200 F 
ATOM     80  C   UNL A   1      35.391  34.576  33.372  1.00  0.00     0.200 A 
ATOM     81  F   UNL A   1      36.443  33.777  35.319  1.00  0.00    -0.200 F 
ATOM     82  F   UNL A   1      34.507  35.264  34.105  1.00  0.00    -0.200 F 
ENDBRANCH  58  72
BRANCH  59  83
ATOM     83  C   UNL A   1      44.715  28.742  27.420  1.00  0.00     0.064 A 
ATOM     84  C   UNL A   1      45.611  27.659  27.496  1.00  0.00     0.173 A 
ATOM     85  C   UNL A   1      43.751  28.718  26.404  1.00  0.00     0.173 A 
ATOM     86  F   UNL A   1      46.552  27.636  28.455  1.00  0.00    -0.203 F 
ATOM     87  C   UNL A   1      45.471  26.545  26.673  1.00  0.00     0.198 A 
ATOM     88  C   UNL A   1      43.619  27.602  25.575  1.00  0.00     0.198 A 
ATOM     89  F   UNL A   1      42.859  29.712  26.293  1.00  0.00    -0.203 F 
ATOM     90  F   UNL A   1      46.269  25.481  26.845  1.00  0.00    -0.200 F 
ATOM     91  C   UNL A   1      44.454  26.504  25.734  1.00  0.00     0.200 A 
ATOM     92  F   UNL A   1      42.619  27.550  24.685  1.00  0.00    -0.200 F 
ATOM     93  F   UNL A   1      44.252  25.395  25.009  1.00  0.00    -0.200 F 
ENDBRANCH  59  83
BRANCH  71  94
ATOM     94  C   UNL A   1      42.887  35.561  28.944  1.00  0.00     0.064 A 
ATOM     95  C   UNL A   1      42.203  36.099  27.840  1.00  0.00     0.173 A 
ATOM     96  C   UNL A   1      43.481  36.516  29.808  1.00  0.00     0.173 A 
ATOM     97  F   UNL A   1      41.497  35.324  27.009  1.00  0.00    -0.203 F 
ATOM     98  C   UNL A   1      42.169  37.474  27.588  1.00  0.00     0.198 A 
ATOM     99  C   UNL A   1      43.393  37.890  29.586  1.00  0.00     0.198 A 
ATOM    100  F   UNL A   1      44.141  36.150  30.916  1.00  0.00    -0.203 F 
ATOM    101  F   UNL A   1      41.537  37.931  26.497  1.00  0.00    -0.200 F 
ATOM    102  C   UNL A   1      42.751  38.370  28.465  1.00  0.00     0.200 A 
ATOM    103  F   UNL A   1      43.916  38.743  30.477  1.00  0.00    -0.200 F 
ATOM    104  F   UNL A   1      42.672  39.688  28.244  1.00  0.00    -0.200 F 
ENDBRANCH  71  94
ENDBRANCH  45  46
ENDBRANCH  37  40
ENDBRANCH  35  36
ENDBRANCH  34  35
ENDBRANCH  33  34
ENDBRANCH  32  33
ENDBRANCH   1  32
TORSDOF 19
ENDMDL
MODEL 3
REMARK VINA RESULT:     -13.0      2.894      4.726
REMARK SMILES Cc1ccc(Cn2c(C)c(C[NH2+]Cc3ccco3)c(C(=O)NCCCCCCNC(=O)c3ccc(-c4c5nc(c(-c6c(F)c(F)c(F)c(F)c6F)c6ccc([nH]6)c(-c6c(F)c(F)c(F)c(F)c6F)c6nc(c(-c7c(F)c(F)c(F)c(F)c7F)c7ccc4[nH]7)C=C6)C=C5)cc3)c2C)cc1
REMARK SMILES IDX 24 1 23 2 22 3 20 4 21 5 19 7 7 8 8 9 95 10 9 11 10 12 96 13
REMARK SMILES IDX 6 14 5 15 1 16 2 17 3 18 98 19 4 20 97 21 11 22 12 23 13 26
REMARK SMILES IDX 14 27 15 28 18 29 16 30 17 31 25 32 26 33 27 34 28 35 29 36
REMARK SMILES IDX 30 37 31 39 32 40 33 41 94 42 34 43 93 44 35 45 36 46 37 47
REMARK SMILES IDX 87 48 38 49 92 50 86 51 88 52 39 53 91 54 85 55 84 56 40 58
REMARK SMILES IDX 72 59 52 60 71 61 53 62 56 63 70 64 89 65 54 66 55 67 69 69
REMARK SMILES IDX 90 70 57 71 41 72 42 73 50 74 43 75 44 76 48 77 51 78 45 79
REMARK SMILES IDX 46 80 49 81 47 82 73 83 74 84 82 85 75 86 76 87 80 88 83 89
REMARK SMILES IDX 77 90 78 91 81 92 79 93 58 94 59 95 67 96 60 97 61 98 65 99
REMARK SMILES IDX 68 100 62 101 63 102 66 103 64 104
REMARK H PARENT 22 6 12 24 12 25 29 38 88 57 56 68
REMARK Flexibility Score: inf
ROOT
ATOM      1  C   UNL A   1      34.707  29.640  27.585  1.00  0.00     0.021 C 
ENDROOT
BRANCH   1   2
ATOM      2  C   UNL A   1      33.753  28.550  27.082  1.00  0.00     0.116 C 
BRANCH   2   3
ATOM      3  N   UNL A   1      33.918  28.368  25.657  1.00  0.00    -0.352 N 
ATOM      4  C   UNL A   1      33.729  27.281  24.844  1.00  0.00     0.253 C 
ATOM      5  O   UNL A   1      33.965  27.454  23.648  1.00  0.00    -0.269 OA
ATOM      6  H   UNL A   1      34.224  29.175  25.184  1.00  0.00     0.163 HD
BRANCH   4   7
ATOM      7  C   UNL A   1      33.198  26.009  25.348  1.00  0.00     0.069 A 
ATOM      8  N   UNL A   1      32.963  23.903  26.110  1.00  0.00    -0.343 N 
ATOM      9  C   UNL A   1      31.684  24.431  26.031  1.00  0.00     0.025 A 
ATOM     10  C   UNL A   1      33.808  24.756  25.404  1.00  0.00     0.028 A 
ATOM     11  C   UNL A   1      30.413  23.681  26.263  1.00  0.00     0.065 C 
ATOM     12  C   UNL A   1      31.803  25.753  25.611  1.00  0.00     0.040 A 
ATOM     13  C   UNL A   1      35.061  24.297  24.743  1.00  0.00     0.065 C 
BRANCH   8  14
ATOM     14  C   UNL A   1      33.322  22.566  26.603  1.00  0.00     0.157 C 
BRANCH  14  15
ATOM     15  C   UNL A   1      33.140  21.445  25.594  1.00  0.00    -0.028 A 
ATOM     16  C   UNL A   1      32.332  18.239  22.780  1.00  0.00     0.044 C 
ATOM     17  C   UNL A   1      32.603  19.339  23.765  1.00  0.00    -0.051 A 
ATOM     18  C   UNL A   1      32.528  20.671  23.359  1.00  0.00     0.004 A 
ATOM     19  C   UNL A   1      32.969  19.061  25.086  1.00  0.00     0.004 A 
ATOM     20  C   UNL A   1      32.778  21.705  24.266  1.00  0.00     0.006 A 
ATOM     21  C   UNL A   1      33.236  20.101  25.990  1.00  0.00     0.006 A 
ENDBRANCH  14  15
ENDBRANCH   8  14
BRANCH  12  22
ATOM     22  C   UNL A   1      30.671  26.720  25.342  1.00  0.00     0.300 C 
BRANCH  22  23
ATOM     23  N   UNL A   1      30.114  26.370  24.035  1.00  0.00    -0.336 N 
ATOM     24  H   UNL A   1      29.097  26.389  24.099  1.00  0.00     0.346 HD
ATOM     25  H   UNL A   1      30.463  25.443  23.792  1.00  0.00     0.346 HD
BRANCH  23  26
ATOM     26  C   UNL A   1      30.532  27.286  22.972  1.00  0.00     0.337 C 
BRANCH  26  27
ATOM     27  C   UNL A   1      29.521  28.340  22.681  1.00  0.00     0.157 A 
ATOM     28  C   UNL A   1      28.239  28.583  23.127  1.00  0.00     0.052 A 
ATOM     29  O   UNL A   1      29.885  29.298  21.776  1.00  0.00    -0.463 OA
ATOM     30  C   UNL A   1      27.807  29.769  22.483  1.00  0.00     0.042 A 
ATOM     31  C   UNL A   1      28.849  30.169  21.680  1.00  0.00     0.195 A 
ENDBRANCH  26  27
ENDBRANCH  23  26
ENDBRANCH  22  23
ENDBRANCH  12  22
ENDBRANCH   4   7
ENDBRANCH   2   3
ENDBRANCH   1   2
BRANCH   1  32
ATOM     32  C   UNL A   1      34.158  31.070  27.512  1.00  0.00     0.002 C 
BRANCH  32  33
ATOM     33  C   UNL A   1      35.048  32.169  28.116  1.00  0.00     0.002 C 
BRANCH  33  34
ATOM     34  C   UNL A   1      34.607  32.717  29.476  1.00  0.00     0.021 C 
BRANCH  34  35
ATOM     35  C   UNL A   1      34.306  34.211  29.473  1.00  0.00     0.116 C 
BRANCH  35  36
ATOM     36  N   UNL A   1      33.482  34.646  30.593  1.00  0.00    -0.352 N 
ATOM     37  C   UNL A   1      33.690  34.535  31.958  1.00  0.00     0.251 C 
ATOM     38  H   UNL A   1      32.641  35.091  30.339  1.00  0.00     0.163 HD
ATOM     39  O   UNL A   1      32.824  34.891  32.736  1.00  0.00    -0.269 OA
BRANCH  37  40
ATOM     40  C   UNL A   1      35.020  34.117  32.472  1.00  0.00     0.039 A 
ATOM     41  C   UNL A   1      36.130  34.905  32.133  1.00  0.00     0.014 A 
ATOM     42  C   UNL A   1      35.205  32.887  33.093  1.00  0.00     0.014 A 
ATOM     43  C   UNL A   1      37.408  34.353  32.185  1.00  0.00     0.010 A 
ATOM     44  C   UNL A   1      36.450  32.298  33.042  1.00  0.00     0.010 A 
ATOM     45  C   UNL A   1      37.539  33.008  32.527  1.00  0.00    -0.014 A 
BRANCH  45  46
ATOM     46  C   UNL A   1      38.737  32.222  32.271  1.00  0.00     0.031 A 
ATOM     47  C   UNL A   1      38.684  31.032  31.400  1.00  0.00     0.074 A 
ATOM     48  C   UNL A   1      39.927  32.689  32.710  1.00  0.00     0.049 A 
ATOM     49  N   UNL A   1      39.562  30.086  31.413  1.00  0.00    -0.248 NA
ATOM     50  C   UNL A   1      37.603  30.795  30.452  1.00  0.00     0.031 C 
ATOM     51  C   UNL A   1      41.254  32.273  32.266  1.00  0.00     0.029 A 
ATOM     52  N   UNL A   1      40.175  33.548  33.794  1.00  0.00    -0.354 N 
ATOM     53  C   UNL A   1      39.337  29.287  30.314  1.00  0.00     0.074 A 
ATOM     54  C   UNL A   1      38.061  29.724  29.797  1.00  0.00     0.031 C 
ATOM     55  C   UNL A   1      42.154  32.622  33.197  1.00  0.00     0.029 A 
ATOM     56  C   UNL A   1      41.413  33.131  34.336  1.00  0.00     0.049 A 
ATOM     57  H   UNL A   1      39.606  34.286  34.110  1.00  0.00     0.167 HD
ATOM     58  C   UNL A   1      40.330  28.448  29.892  1.00  0.00     0.037 A 
ATOM     59  C   UNL A   1      41.512  32.641  35.607  1.00  0.00     0.037 A 
ATOM     60  C   UNL A   1      41.490  28.527  30.780  1.00  0.00     0.049 A 
ATOM     61  C   UNL A   1      42.066  31.240  35.680  1.00  0.00     0.074 A 
ATOM     62  C   UNL A   1      42.688  29.217  30.683  1.00  0.00     0.029 A 
ATOM     63  N   UNL A   1      41.395  28.081  32.094  1.00  0.00    -0.354 N 
ATOM     64  N   UNL A   1      42.040  30.400  34.683  1.00  0.00    -0.248 NA
ATOM     65  C   UNL A   1      42.662  30.664  36.881  1.00  0.00     0.031 C 
ATOM     66  C   UNL A   1      43.308  29.202  31.954  1.00  0.00     0.029 A 
ATOM     67  C   UNL A   1      42.494  28.496  32.821  1.00  0.00     0.049 A 
ATOM     68  H   UNL A   1      40.650  27.547  32.453  1.00  0.00     0.167 HD
ATOM     69  C   UNL A   1      42.581  29.204  35.078  1.00  0.00     0.074 A 
ATOM     70  C   UNL A   1      42.967  29.423  36.459  1.00  0.00     0.031 C 
ATOM     71  C   UNL A   1      42.652  28.141  34.224  1.00  0.00     0.037 A 
BRANCH  58  72
ATOM     72  C   UNL A   1      40.396  27.797  28.521  1.00  0.00     0.064 A 
ATOM     73  C   UNL A   1      39.848  26.508  28.309  1.00  0.00     0.173 A 
ATOM     74  C   UNL A   1      41.027  28.348  27.392  1.00  0.00     0.173 A 
ATOM     75  F   UNL A   1      39.093  25.904  29.235  1.00  0.00    -0.203 F 
ATOM     76  C   UNL A   1      40.049  25.786  27.129  1.00  0.00     0.198 A 
ATOM     77  C   UNL A   1      41.270  27.609  26.228  1.00  0.00     0.198 A 
ATOM     78  F   UNL A   1      41.370  29.639  27.344  1.00  0.00    -0.203 F 
ATOM     79  F   UNL A   1      39.519  24.561  27.002  1.00  0.00    -0.200 F 
ATOM     80  C   UNL A   1      40.796  26.321  26.103  1.00  0.00     0.200 A 
ATOM     81  F   UNL A   1      41.966  28.164  25.224  1.00  0.00    -0.200 F 
ATOM     82  F   UNL A   1      41.028  25.615  24.989  1.00  0.00    -0.200 F 
ENDBRANCH  58  72
BRANCH  59  83
ATOM     83  C   UNL A   1      40.493  33.202  36.528  1.00  0.00     0.064 A 
ATOM     84  C   UNL A   1      39.319  32.458  36.752  1.00  0.00     0.173 A 
ATOM     85  C   UNL A   1      40.825  34.191  37.463  1.00  0.00     0.173 A 
ATOM     86  F   UNL A   1      38.962  31.496  35.885  1.00  0.00    -0.203 F 
ATOM     87  C   UNL A   1      38.578  32.611  37.920  1.00  0.00     0.198 A 
ATOM     88  C   UNL A   1      40.073  34.348  38.629  1.00  0.00     0.198 A 
ATOM     89  F   UNL A   1      41.940  34.919  37.312  1.00  0.00    -0.203 F 
ATOM     90  F   UNL A   1      37.530  31.810  38.157  1.00  0.00    -0.200 F 
ATOM     91  C   UNL A   1      38.974  33.535  38.873  1.00  0.00     0.200 A 
ATOM     92  F   UNL A   1      40.471  35.221  39.565  1.00  0.00    -0.200 F 
ATOM     93  F   UNL A   1      38.324  33.616  40.042  1.00  0.00    -0.200 F 
ENDBRANCH  59  83
BRANCH  71  94
ATOM     94  C   UNL A   1      42.980  26.707  34.577  1.00  0.00     0.064 A 
ATOM     95  C   UNL A   1      42.054  25.792  35.106  1.00  0.00     0.173 A 
ATOM     96  C   UNL A   1      44.245  26.159  34.244  1.00  0.00     0.173 A 
ATOM     97  F   UNL A   1      40.786  26.143  35.353  1.00  0.00    -0.203 F 
ATOM     98  C   UNL A   1      42.385  24.453  35.340  1.00  0.00     0.198 A 
ATOM     99  C   UNL A   1      44.552  24.810  34.423  1.00  0.00     0.198 A 
ATOM    100  F   UNL A   1      45.218  26.908  33.705  1.00  0.00    -0.203 F 
ATOM    101  F   UNL A   1      41.476  23.632  35.885  1.00  0.00    -0.200 F 
ATOM    102  C   UNL A   1      43.627  23.960  34.987  1.00  0.00     0.200 A 
ATOM    103  F   UNL A   1      45.742  24.340  34.023  1.00  0.00    -0.200 F 
ATOM    104  F   UNL A   1      43.922  22.666  35.168  1.00  0.00    -0.200 F 
ENDBRANCH  71  94
ENDBRANCH  45  46
ENDBRANCH  37  40
ENDBRANCH  35  36
ENDBRANCH  34  35
ENDBRANCH  33  34
ENDBRANCH  32  33
ENDBRANCH   1  32
TORSDOF 19
ENDMDL
