MODEL 1
REMARK VINA RESULT:     -13.4      0.000      0.000
REMARK SMILES C[NH+]1CCC([NH+]2CCC(Oc3ccc4ccccc4c3)(C(=O)NCCCCCCNC(=O)c3ccc(-c4c5nc(c(-c6c(F)c(F)c(F)c(F)c6F)c6ccc([nH]6)c(-c6c(F)c(F)c(F)c(F)c6F)c6nc(c(-c7c(F)c(F)c(F)c(F)c7F)c7ccc4[nH]7)C=C6)C=C5)cc3)CC2)CC1
REMARK SMILES IDX 26 1 25 2 24 3 23 4 21 5 22 6 9 8 6 9 7 10 97 11 8 13 96 14
REMARK SMILES IDX 5 15 1 16 2 17 3 18 99 19 4 21 98 22 10 23 11 24 12 25 20 26
REMARK SMILES IDX 13 27 19 28 14 29 18 30 15 31 17 32 16 33 27 34 28 35 29 36
REMARK SMILES IDX 30 37 31 38 32 40 33 41 34 42 95 43 35 44 94 45 36 46 37 47
REMARK SMILES IDX 38 48 88 49 39 50 93 51 87 52 89 53 40 54 92 55 86 56 85 57
REMARK SMILES IDX 41 59 73 60 53 61 72 62 54 63 57 64 71 65 90 66 55 67 56 68
REMARK SMILES IDX 70 70 91 71 58 72 42 73 43 74 51 75 44 76 45 77 49 78 52 79
REMARK SMILES IDX 46 80 47 81 50 82 48 83 74 84 75 85 83 86 76 87 77 88 81 89
REMARK SMILES IDX 84 90 78 91 79 92 82 93 80 94 59 95 60 96 68 97 61 98 62 99
REMARK SMILES IDX 66 100 69 101 63 102 64 103 67 104 65 105
REMARK H PARENT 23 7 6 12 2 20 30 39 89 58 57 69
REMARK Flexibility Score: inf
ROOT
ATOM      1  C   UNL A   1      31.995  29.559  25.504  1.00  0.00     0.002 C 
ENDROOT
BRANCH   1   2
ATOM      2  C   UNL A   1      31.404  28.434  26.363  1.00  0.00     0.021 C 
BRANCH   2   3
ATOM      3  C   UNL A   1      32.151  27.104  26.257  1.00  0.00     0.116 C 
BRANCH   3   4
ATOM      4  N   UNL A   1      31.356  26.018  26.793  1.00  0.00    -0.353 N 
ATOM      5  C   UNL A   1      30.966  24.837  26.229  1.00  0.00     0.264 C 
ATOM      6  O   UNL A   1      30.331  24.075  26.968  1.00  0.00    -0.270 OA
ATOM      7  H   UNL A   1      31.045  26.154  27.718  1.00  0.00     0.163 HD
BRANCH   5   8
ATOM      8  C   UNL A   1      31.311  24.480  24.752  1.00  0.00     0.197 C 
ATOM      9  N   UNL A   1      33.945  23.169  24.890  1.00  0.00    -0.332 N 
ATOM     10  C   UNL A   1      32.739  22.506  25.390  1.00  0.00     0.267 C 
ATOM     11  C   UNL A   1      33.853  24.631  25.039  1.00  0.00     0.267 C 
ATOM     12  H   UNL A   1      33.993  22.965  23.891  1.00  0.00     0.348 HD
ATOM     13  C   UNL A   1      31.542  22.975  24.578  1.00  0.00     0.120 C 
ATOM     14  C   UNL A   1      32.608  25.213  24.342  1.00  0.00     0.120 C 
BRANCH   9  15
ATOM     15  C   UNL A   1      35.205  22.614  25.448  1.00  0.00     0.195 C 
ATOM     16  C   UNL A   1      39.377  21.556  25.752  1.00  0.00     0.332 C 
ATOM     17  N   UNL A   1      38.067  22.012  25.292  1.00  0.00    -0.337 N 
ATOM     18  C   UNL A   1      37.603  23.154  26.090  1.00  0.00     0.268 C 
ATOM     19  C   UNL A   1      37.087  20.919  25.337  1.00  0.00     0.268 C 
ATOM     20  H   UNL A   1      38.160  22.315  24.323  1.00  0.00     0.347 HD
ATOM     21  C   UNL A   1      36.294  23.704  25.527  1.00  0.00     0.126 C 
ATOM     22  C   UNL A   1      35.754  21.367  24.733  1.00  0.00     0.126 C 
ENDBRANCH   9  15
BRANCH   8  23
ATOM     23  O   UNL A   1      30.136  24.998  24.078  1.00  0.00    -0.477 OA
BRANCH  23  24
ATOM     24  C   UNL A   1      30.153  26.261  23.570  1.00  0.00     0.121 A 
ATOM     25  C   UNL A   1      31.194  26.730  22.778  1.00  0.00     0.047 A 
ATOM     26  C   UNL A   1      28.992  27.022  23.713  1.00  0.00     0.055 A 
ATOM     27  C   UNL A   1      31.127  28.005  22.217  1.00  0.00     0.012 A 
ATOM     28  C   UNL A   1      28.893  28.294  23.126  1.00  0.00    -0.015 A 
ATOM     29  C   UNL A   1      29.986  28.801  22.387  1.00  0.00    -0.018 A 
ATOM     30  C   UNL A   1      27.730  29.071  23.246  1.00  0.00     0.009 A 
ATOM     31  C   UNL A   1      29.900  30.079  21.815  1.00  0.00     0.009 A 
ATOM     32  C   UNL A   1      27.653  30.336  22.660  1.00  0.00     0.001 A 
ATOM     33  C   UNL A   1      28.739  30.843  21.952  1.00  0.00     0.001 A 
ENDBRANCH  23  24
ENDBRANCH   8  23
ENDBRANCH   5   8
ENDBRANCH   3   4
ENDBRANCH   2   3
ENDBRANCH   1   2
BRANCH   1  34
ATOM     34  C   UNL A   1      31.132  30.821  25.400  1.00  0.00     0.002 C 
BRANCH  34  35
ATOM     35  C   UNL A   1      31.169  31.740  26.625  1.00  0.00     0.021 C 
BRANCH  35  36
ATOM     36  C   UNL A   1      32.514  32.410  26.880  1.00  0.00     0.116 C 
BRANCH  36  37
ATOM     37  N   UNL A   1      32.366  33.778  27.347  1.00  0.00    -0.352 N 
ATOM     38  C   UNL A   1      33.022  34.424  28.360  1.00  0.00     0.251 C 
ATOM     39  H   UNL A   1      31.696  34.317  26.867  1.00  0.00     0.163 HD
ATOM     40  O   UNL A   1      32.637  35.534  28.730  1.00  0.00    -0.269 OA
BRANCH  38  41
ATOM     41  C   UNL A   1      34.185  33.798  29.023  1.00  0.00     0.039 A 
ATOM     42  C   UNL A   1      35.467  34.258  28.703  1.00  0.00     0.014 A 
ATOM     43  C   UNL A   1      34.028  32.730  29.912  1.00  0.00     0.014 A 
ATOM     44  C   UNL A   1      36.585  33.665  29.291  1.00  0.00     0.010 A 
ATOM     45  C   UNL A   1      35.141  32.183  30.549  1.00  0.00     0.010 A 
ATOM     46  C   UNL A   1      36.431  32.629  30.226  1.00  0.00    -0.014 A 
BRANCH  46  47
ATOM     47  C   UNL A   1      37.614  31.965  30.828  1.00  0.00     0.031 A 
ATOM     48  C   UNL A   1      38.058  32.340  32.216  1.00  0.00     0.074 A 
ATOM     49  C   UNL A   1      38.306  31.053  30.121  1.00  0.00     0.049 A 
ATOM     50  N   UNL A   1      39.080  31.901  32.907  1.00  0.00    -0.248 NA
ATOM     51  C   UNL A   1      37.263  33.366  32.908  1.00  0.00     0.031 C 
ATOM     52  C   UNL A   1      38.005  30.639  28.751  1.00  0.00     0.029 A 
ATOM     53  N   UNL A   1      39.410  30.312  30.458  1.00  0.00    -0.354 N 
ATOM     54  C   UNL A   1      39.059  32.608  34.102  1.00  0.00     0.074 A 
ATOM     55  C   UNL A   1      37.957  33.542  34.022  1.00  0.00     0.031 C 
ATOM     56  C   UNL A   1      38.888  29.702  28.371  1.00  0.00     0.029 A 
ATOM     57  C   UNL A   1      39.831  29.466  29.461  1.00  0.00     0.049 A 
ATOM     58  H   UNL A   1      39.860  30.381  31.332  1.00  0.00     0.167 HD
ATOM     59  C   UNL A   1      39.870  32.475  35.180  1.00  0.00     0.037 A 
ATOM     60  C   UNL A   1      40.856  28.595  29.437  1.00  0.00     0.037 A 
ATOM     61  C   UNL A   1      40.943  31.522  35.272  1.00  0.00     0.049 A 
ATOM     62  C   UNL A   1      41.719  28.439  30.660  1.00  0.00     0.074 A 
ATOM     63  C   UNL A   1      41.792  31.274  36.337  1.00  0.00     0.029 A 
ATOM     64  N   UNL A   1      41.312  30.651  34.257  1.00  0.00    -0.354 N 
ATOM     65  N   UNL A   1      41.654  29.072  31.806  1.00  0.00    -0.248 NA
ATOM     66  C   UNL A   1      42.789  27.435  30.589  1.00  0.00     0.031 C 
ATOM     67  C   UNL A   1      42.693  30.273  35.956  1.00  0.00     0.029 A 
ATOM     68  C   UNL A   1      42.379  29.869  34.668  1.00  0.00     0.049 A 
ATOM     69  H   UNL A   1      40.878  30.596  33.374  1.00  0.00     0.167 HD
ATOM     70  C   UNL A   1      42.649  28.523  32.603  1.00  0.00     0.074 A 
ATOM     71  C   UNL A   1      43.295  27.494  31.813  1.00  0.00     0.031 C 
ATOM     72  C   UNL A   1      42.999  28.842  33.873  1.00  0.00     0.037 A 
BRANCH  59  73
ATOM     73  C   UNL A   1      39.617  33.382  36.349  1.00  0.00     0.064 A 
ATOM     74  C   UNL A   1      40.206  34.652  36.435  1.00  0.00     0.173 A 
ATOM     75  C   UNL A   1      38.758  32.986  37.386  1.00  0.00     0.173 A 
ATOM     76  F   UNL A   1      41.046  35.073  35.476  1.00  0.00    -0.203 F 
ATOM     77  C   UNL A   1      39.972  35.480  37.530  1.00  0.00     0.198 A 
ATOM     78  C   UNL A   1      38.503  33.829  38.465  1.00  0.00     0.198 A 
ATOM     79  F   UNL A   1      38.165  31.784  37.351  1.00  0.00    -0.203 F 
ATOM     80  F   UNL A   1      40.588  36.667  37.615  1.00  0.00    -0.200 F 
ATOM     81  C   UNL A   1      39.116  35.070  38.541  1.00  0.00     0.200 A 
ATOM     82  F   UNL A   1      37.667  33.436  39.437  1.00  0.00    -0.200 F 
ATOM     83  F   UNL A   1      38.889  35.869  39.593  1.00  0.00    -0.200 F 
ENDBRANCH  59  73
BRANCH  60  84
ATOM     84  C   UNL A   1      41.096  27.766  28.228  1.00  0.00     0.064 A 
ATOM     85  C   UNL A   1      40.574  26.468  28.133  1.00  0.00     0.173 A 
ATOM     86  C   UNL A   1      41.855  28.247  27.152  1.00  0.00     0.173 A 
ATOM     87  F   UNL A   1      39.859  25.958  29.147  1.00  0.00    -0.203 F 
ATOM     88  C   UNL A   1      40.820  25.673  27.016  1.00  0.00     0.198 A 
ATOM     89  C   UNL A   1      42.078  27.460  26.024  1.00  0.00     0.198 A 
ATOM     90  F   UNL A   1      42.370  29.483  27.193  1.00  0.00    -0.203 F 
ATOM     91  F   UNL A   1      40.349  24.421  26.970  1.00  0.00    -0.200 F 
ATOM     92  C   UNL A   1      41.569  26.172  25.960  1.00  0.00     0.200 A 
ATOM     93  F   UNL A   1      42.792  27.948  25.000  1.00  0.00    -0.200 F 
ATOM     94  F   UNL A   1      41.806  25.407  24.885  1.00  0.00    -0.200 F 
ENDBRANCH  60  84
BRANCH  72  95
ATOM     95  C   UNL A   1      44.103  28.040  34.498  1.00  0.00     0.064 A 
ATOM     96  C   UNL A   1      45.442  28.452  34.434  1.00  0.00     0.173 A 
ATOM     97  C   UNL A   1      43.813  26.853  35.187  1.00  0.00     0.173 A 
ATOM     98  F   UNL A   1      45.772  29.573  33.774  1.00  0.00    -0.203 F 
ATOM     99  C   UNL A   1      46.454  27.688  35.008  1.00  0.00     0.198 A 
ATOM    100  C   UNL A   1      44.823  26.105  35.784  1.00  0.00     0.198 A 
ATOM    101  F   UNL A   1      42.546  26.419  35.283  1.00  0.00    -0.203 F 
ATOM    102  F   UNL A   1      47.732  28.073  34.887  1.00  0.00    -0.200 F 
ATOM    103  C   UNL A   1      46.144  26.518  35.685  1.00  0.00     0.200 A 
ATOM    104  F   UNL A   1      44.521  24.981  36.449  1.00  0.00    -0.200 F 
ATOM    105  F   UNL A   1      47.119  25.783  36.236  1.00  0.00    -0.200 F 
ENDBRANCH  72  95
ENDBRANCH  46  47
ENDBRANCH  38  41
ENDBRANCH  36  37
ENDBRANCH  35  36
ENDBRANCH  34  35
ENDBRANCH   1  34
TORSDOF 16
ENDMDL
MODEL 2
REMARK VINA RESULT:     -13.4      5.588     10.936
REMARK SMILES C[NH+]1CCC([NH+]2CCC(Oc3ccc4ccccc4c3)(C(=O)NCCCCCCNC(=O)c3ccc(-c4c5nc(c(-c6c(F)c(F)c(F)c(F)c6F)c6ccc([nH]6)c(-c6c(F)c(F)c(F)c(F)c6F)c6nc(c(-c7c(F)c(F)c(F)c(F)c7F)c7ccc4[nH]7)C=C6)C=C5)cc3)CC2)CC1
REMARK SMILES IDX 26 1 25 2 24 3 23 4 21 5 22 6 9 8 6 9 7 10 97 11 8 13 96 14
REMARK SMILES IDX 5 15 1 16 2 17 3 18 99 19 4 21 98 22 10 23 11 24 12 25 20 26
REMARK SMILES IDX 13 27 19 28 14 29 18 30 15 31 17 32 16 33 27 34 28 35 29 36
REMARK SMILES IDX 30 37 31 38 32 40 33 41 34 42 95 43 35 44 94 45 36 46 37 47
REMARK SMILES IDX 38 48 88 49 39 50 93 51 87 52 89 53 40 54 92 55 86 56 85 57
REMARK SMILES IDX 41 59 73 60 53 61 72 62 54 63 57 64 71 65 90 66 55 67 56 68
REMARK SMILES IDX 70 70 91 71 58 72 42 73 43 74 51 75 44 76 45 77 49 78 52 79
REMARK SMILES IDX 46 80 47 81 50 82 48 83 74 84 75 85 83 86 76 87 77 88 81 89
REMARK SMILES IDX 84 90 78 91 79 92 82 93 80 94 59 95 60 96 68 97 61 98 62 99
REMARK SMILES IDX 66 100 69 101 63 102 64 103 67 104 65 105
REMARK H PARENT 23 7 6 12 2 20 30 39 89 58 57 69
REMARK Flexibility Score: inf
ROOT
ATOM      1  C   UNL A   1      39.577  21.597  26.105  1.00  0.00     0.002 C 
ENDROOT
BRANCH   1   2
ATOM      2  C   UNL A   1      39.318  23.055  26.501  1.00  0.00     0.021 C 
BRANCH   2   3
ATOM      3  C   UNL A   1      37.931  23.574  26.117  1.00  0.00     0.116 C 
BRANCH   3   4
ATOM      4  N   UNL A   1      37.625  23.263  24.736  1.00  0.00    -0.353 N 
ATOM      5  C   UNL A   1      36.428  23.194  24.083  1.00  0.00     0.264 C 
ATOM      6  O   UNL A   1      36.492  22.958  22.871  1.00  0.00    -0.270 OA
ATOM      7  H   UNL A   1      38.411  23.069  24.175  1.00  0.00     0.163 HD
BRANCH   5   8
ATOM      8  C   UNL A   1      35.075  23.408  24.826  1.00  0.00     0.197 C 
ATOM      9  N   UNL A   1      33.800  20.752  24.851  1.00  0.00    -0.332 N 
ATOM     10  C   UNL A   1      34.977  21.038  25.674  1.00  0.00     0.267 C 
ATOM     11  C   UNL A   1      33.813  21.540  23.606  1.00  0.00     0.267 C 
ATOM     12  H   UNL A   1      32.990  21.051  25.394  1.00  0.00     0.348 HD
ATOM     13  C   UNL A   1      34.966  22.508  26.062  1.00  0.00     0.120 C 
ATOM     14  C   UNL A   1      33.910  23.055  23.874  1.00  0.00     0.120 C 
BRANCH   9  15
ATOM     15  C   UNL A   1      33.579  19.303  24.609  1.00  0.00     0.195 C 
ATOM     16  C   UNL A   1      33.319  15.065  25.377  1.00  0.00     0.332 C 
ATOM     17  N   UNL A   1      33.556  16.505  25.471  1.00  0.00    -0.337 N 
ATOM     18  C   UNL A   1      32.293  17.247  25.367  1.00  0.00     0.268 C 
ATOM     19  C   UNL A   1      34.502  16.948  24.440  1.00  0.00     0.268 C 
ATOM     20  H   UNL A   1      33.966  16.698  26.384  1.00  0.00     0.347 HD
ATOM     21  C   UNL A   1      32.530  18.740  25.590  1.00  0.00     0.126 C 
ATOM     22  C   UNL A   1      34.845  18.428  24.626  1.00  0.00     0.126 C 
ENDBRANCH   9  15
BRANCH   8  23
ATOM     23  O   UNL A   1      35.157  24.828  25.110  1.00  0.00    -0.477 OA
BRANCH  23  24
ATOM     24  C   UNL A   1      34.032  25.593  25.054  1.00  0.00     0.121 A 
ATOM     25  C   UNL A   1      33.155  25.706  26.126  1.00  0.00     0.047 A 
ATOM     26  C   UNL A   1      33.876  26.417  23.939  1.00  0.00     0.055 A 
ATOM     27  C   UNL A   1      32.058  26.564  26.046  1.00  0.00     0.012 A 
ATOM     28  C   UNL A   1      32.797  27.313  23.856  1.00  0.00    -0.015 A 
ATOM     29  C   UNL A   1      31.863  27.369  24.915  1.00  0.00    -0.018 A 
ATOM     30  C   UNL A   1      32.629  28.161  22.751  1.00  0.00     0.009 A 
ATOM     31  C   UNL A   1      30.771  28.247  24.828  1.00  0.00     0.009 A 
ATOM     32  C   UNL A   1      31.546  29.040  22.684  1.00  0.00     0.001 A 
ATOM     33  C   UNL A   1      30.614  29.076  23.717  1.00  0.00     0.001 A 
ENDBRANCH  23  24
ENDBRANCH   8  23
ENDBRANCH   5   8
ENDBRANCH   3   4
ENDBRANCH   2   3
ENDBRANCH   1   2
BRANCH   1  34
ATOM     34  C   UNL A   1      40.931  21.032  26.544  1.00  0.00     0.002 C 
BRANCH  34  35
ATOM     35  C   UNL A   1      41.202  19.584  26.126  1.00  0.00     0.021 C 
BRANCH  35  36
ATOM     36  C   UNL A   1      42.571  19.048  26.530  1.00  0.00     0.116 C 
BRANCH  36  37
ATOM     37  N   UNL A   1      43.390  18.712  25.378  1.00  0.00    -0.352 N 
ATOM     38  C   UNL A   1      44.153  19.530  24.588  1.00  0.00     0.251 C 
ATOM     39  H   UNL A   1      43.396  17.759  25.128  1.00  0.00     0.163 HD
ATOM     40  O   UNL A   1      44.640  19.095  23.544  1.00  0.00    -0.269 OA
BRANCH  38  41
ATOM     41  C   UNL A   1      44.391  20.938  24.972  1.00  0.00     0.039 A 
ATOM     42  C   UNL A   1      45.170  21.201  26.103  1.00  0.00     0.014 A 
ATOM     43  C   UNL A   1      43.811  21.994  24.262  1.00  0.00     0.014 A 
ATOM     44  C   UNL A   1      45.387  22.520  26.506  1.00  0.00     0.010 A 
ATOM     45  C   UNL A   1      44.082  23.311  24.626  1.00  0.00     0.010 A 
ATOM     46  C   UNL A   1      44.852  23.586  25.766  1.00  0.00    -0.014 A 
BRANCH  46  47
ATOM     47  C   UNL A   1      45.043  24.990  26.207  1.00  0.00     0.031 A 
ATOM     48  C   UNL A   1      46.398  25.635  26.088  1.00  0.00     0.074 A 
ATOM     49  C   UNL A   1      44.014  25.673  26.742  1.00  0.00     0.049 A 
ATOM     50  N   UNL A   1      46.778  26.837  26.443  1.00  0.00    -0.248 NA
ATOM     51  C   UNL A   1      47.474  24.809  25.520  1.00  0.00     0.031 C 
ATOM     52  C   UNL A   1      42.667  25.144  26.953  1.00  0.00     0.029 A 
ATOM     53  N   UNL A   1      43.944  26.961  27.208  1.00  0.00    -0.354 N 
ATOM     54  C   UNL A   1      48.136  26.902  26.158  1.00  0.00     0.074 A 
ATOM     55  C   UNL A   1      48.525  25.605  25.651  1.00  0.00     0.031 C 
ATOM     56  C   UNL A   1      41.897  26.106  27.488  1.00  0.00     0.029 A 
ATOM     57  C   UNL A   1      42.701  27.310  27.677  1.00  0.00     0.049 A 
ATOM     58  H   UNL A   1      44.713  27.578  27.208  1.00  0.00     0.167 HD
ATOM     59  C   UNL A   1      48.979  27.957  26.284  1.00  0.00     0.037 A 
ATOM     60  C   UNL A   1      42.262  28.473  28.192  1.00  0.00     0.037 A 
ATOM     61  C   UNL A   1      48.583  29.257  26.755  1.00  0.00     0.049 A 
ATOM     62  C   UNL A   1      43.208  29.640  28.287  1.00  0.00     0.074 A 
ATOM     63  C   UNL A   1      49.347  30.404  26.876  1.00  0.00     0.029 A 
ATOM     64  N   UNL A   1      47.304  29.584  27.181  1.00  0.00    -0.354 N 
ATOM     65  N   UNL A   1      44.475  29.707  27.959  1.00  0.00    -0.248 NA
ATOM     66  C   UNL A   1      42.655  30.897  28.808  1.00  0.00     0.031 C 
ATOM     67  C   UNL A   1      48.538  31.418  27.400  1.00  0.00     0.029 A 
ATOM     68  C   UNL A   1      47.259  30.913  27.569  1.00  0.00     0.049 A 
ATOM     69  H   UNL A   1      46.539  28.963  27.203  1.00  0.00     0.167 HD
ATOM     70  C   UNL A   1      44.864  31.017  28.205  1.00  0.00     0.074 A 
ATOM     71  C   UNL A   1      43.692  31.714  28.695  1.00  0.00     0.031 C 
ATOM     72  C   UNL A   1      46.080  31.592  28.041  1.00  0.00     0.037 A 
BRANCH  59  73
ATOM     73  C   UNL A   1      50.413  27.742  25.898  1.00  0.00     0.064 A 
ATOM     74  C   UNL A   1      51.397  27.456  26.856  1.00  0.00     0.173 A 
ATOM     75  C   UNL A   1      50.805  27.802  24.552  1.00  0.00     0.173 A 
ATOM     76  F   UNL A   1      51.076  27.401  28.157  1.00  0.00    -0.203 F 
ATOM     77  C   UNL A   1      52.727  27.269  26.485  1.00  0.00     0.198 A 
ATOM     78  C   UNL A   1      52.130  27.586  24.182  1.00  0.00     0.198 A 
ATOM     79  F   UNL A   1      49.903  28.068  23.596  1.00  0.00    -0.203 F 
ATOM     80  F   UNL A   1      53.658  27.050  27.424  1.00  0.00    -0.200 F 
ATOM     81  C   UNL A   1      53.091  27.329  25.148  1.00  0.00     0.200 A 
ATOM     82  F   UNL A   1      52.480  27.633  22.889  1.00  0.00    -0.200 F 
ATOM     83  F   UNL A   1      54.370  27.147  24.793  1.00  0.00    -0.200 F 
ENDBRANCH  59  73
BRANCH  60  84
ATOM     84  C   UNL A   1      40.845  28.609  28.615  1.00  0.00     0.064 A 
ATOM     85  C   UNL A   1      40.456  28.312  29.929  1.00  0.00     0.173 A 
ATOM     86  C   UNL A   1      39.852  29.028  27.717  1.00  0.00     0.173 A 
ATOM     87  F   UNL A   1      41.368  27.889  30.816  1.00  0.00    -0.203 F 
ATOM     88  C   UNL A   1      39.125  28.408  30.324  1.00  0.00     0.198 A 
ATOM     89  C   UNL A   1      38.524  29.148  28.122  1.00  0.00     0.198 A 
ATOM     90  F   UNL A   1      40.175  29.328  26.451  1.00  0.00    -0.203 F 
ATOM     91  F   UNL A   1      38.773  28.074  31.573  1.00  0.00    -0.200 F 
ATOM     92  C   UNL A   1      38.159  28.830  29.421  1.00  0.00     0.200 A 
ATOM     93  F   UNL A   1      37.596  29.567  27.250  1.00  0.00    -0.200 F 
ATOM     94  F   UNL A   1      36.878  28.922  29.802  1.00  0.00    -0.200 F 
ENDBRANCH  60  84
BRANCH  72  95
ATOM     95  C   UNL A   1      46.192  33.055  28.356  1.00  0.00     0.064 A 
ATOM     96  C   UNL A   1      45.959  34.039  27.385  1.00  0.00     0.173 A 
ATOM     97  C   UNL A   1      46.518  33.477  29.654  1.00  0.00     0.173 A 
ATOM     98  F   UNL A   1      45.658  33.686  26.126  1.00  0.00    -0.203 F 
ATOM     99  C   UNL A   1      46.081  35.391  27.692  1.00  0.00     0.198 A 
ATOM    100  C   UNL A   1      46.611  34.830  29.966  1.00  0.00     0.198 A 
ATOM    101  F   UNL A   1      46.742  32.575  30.622  1.00  0.00    -0.203 F 
ATOM    102  F   UNL A   1      45.907  36.313  26.734  1.00  0.00    -0.200 F 
ATOM    103  C   UNL A   1      46.402  35.785  28.983  1.00  0.00     0.200 A 
ATOM    104  F   UNL A   1      46.910  35.210  31.216  1.00  0.00    -0.200 F 
ATOM    105  F   UNL A   1      46.520  37.087  29.276  1.00  0.00    -0.200 F 
ENDBRANCH  72  95
ENDBRANCH  46  47
ENDBRANCH  38  41
ENDBRANCH  36  37
ENDBRANCH  35  36
ENDBRANCH  34  35
ENDBRANCH   1  34
TORSDOF 16
ENDMDL
MODEL 3
REMARK VINA RESULT:     -13.4      5.600     10.957
REMARK SMILES C[NH+]1CCC([NH+]2CCC(Oc3ccc4ccccc4c3)(C(=O)NCCCCCCNC(=O)c3ccc(-c4c5nc(c(-c6c(F)c(F)c(F)c(F)c6F)c6ccc([nH]6)c(-c6c(F)c(F)c(F)c(F)c6F)c6nc(c(-c7c(F)c(F)c(F)c(F)c7F)c7ccc4[nH]7)C=C6)C=C5)cc3)CC2)CC1
REMARK SMILES IDX 26 1 25 2 24 3 23 4 21 5 22 6 9 8 6 9 7 10 97 11 8 13 96 14
REMARK SMILES IDX 5 15 1 16 2 17 3 18 99 19 4 21 98 22 10 23 11 24 12 25 20 26
REMARK SMILES IDX 13 27 19 28 14 29 18 30 15 31 17 32 16 33 27 34 28 35 29 36
REMARK SMILES IDX 30 37 31 38 32 40 33 41 34 42 95 43 35 44 94 45 36 46 37 47
REMARK SMILES IDX 38 48 88 49 39 50 93 51 87 52 89 53 40 54 92 55 86 56 85 57
REMARK SMILES IDX 41 59 73 60 53 61 72 62 54 63 57 64 71 65 90 66 55 67 56 68
REMARK SMILES IDX 70 70 91 71 58 72 42 73 43 74 51 75 44 76 45 77 49 78 52 79
REMARK SMILES IDX 46 80 47 81 50 82 48 83 74 84 75 85 83 86 76 87 77 88 81 89
REMARK SMILES IDX 84 90 78 91 79 92 82 93 80 94 59 95 60 96 68 97 61 98 62 99
REMARK SMILES IDX 66 100 69 101 63 102 64 103 67 104 65 105
REMARK H PARENT 23 7 6 12 2 20 30 39 89 58 57 69
REMARK Flexibility Score: inf
ROOT
ATOM      1  C   UNL A   1      40.487  22.280  26.432  1.00  0.00     0.002 C 
ENDROOT
BRANCH   1   2
ATOM      2  C   UNL A   1      39.075  21.778  26.109  1.00  0.00     0.021 C 
BRANCH   2   3
ATOM      3  C   UNL A   1      38.058  22.890  25.842  1.00  0.00     0.116 C 
BRANCH   3   4
ATOM      4  N   UNL A   1      37.629  22.878  24.459  1.00  0.00    -0.353 N 
ATOM      5  C   UNL A   1      36.389  23.046  23.909  1.00  0.00     0.264 C 
ATOM      6  O   UNL A   1      36.346  23.041  22.674  1.00  0.00    -0.270 OA
ATOM      7  H   UNL A   1      38.349  22.723  23.806  1.00  0.00     0.163 HD
BRANCH   5   8
ATOM      8  C   UNL A   1      35.120  23.239  24.793  1.00  0.00     0.197 C 
ATOM      9  N   UNL A   1      33.847  20.583  24.872  1.00  0.00    -0.332 N 
ATOM     10  C   UNL A   1      35.103  20.845  25.578  1.00  0.00     0.267 C 
ATOM     11  C   UNL A   1      33.735  21.406  23.656  1.00  0.00     0.267 C 
ATOM     12  H   UNL A   1      33.097  20.865  25.503  1.00  0.00     0.348 HD
ATOM     13  C   UNL A   1      35.135  22.304  26.007  1.00  0.00     0.120 C 
ATOM     14  C   UNL A   1      33.863  22.913  23.956  1.00  0.00     0.120 C 
BRANCH   9  15
ATOM     15  C   UNL A   1      33.599  19.142  24.613  1.00  0.00     0.195 C 
ATOM     16  C   UNL A   1      33.325  14.892  25.309  1.00  0.00     0.332 C 
ATOM     17  N   UNL A   1      33.582  16.327  25.420  1.00  0.00    -0.337 N 
ATOM     18  C   UNL A   1      32.325  17.085  25.389  1.00  0.00     0.268 C 
ATOM     19  C   UNL A   1      34.485  16.780  24.356  1.00  0.00     0.268 C 
ATOM     20  H   UNL A   1      34.036  16.498  26.318  1.00  0.00     0.347 HD
ATOM     21  C   UNL A   1      32.589  18.570  25.630  1.00  0.00     0.126 C 
ATOM     22  C   UNL A   1      34.853  18.253  24.555  1.00  0.00     0.126 C 
ENDBRANCH   9  15
BRANCH   8  23
ATOM     23  O   UNL A   1      35.234  24.650  25.108  1.00  0.00    -0.477 OA
BRANCH  23  24
ATOM     24  C   UNL A   1      34.127  25.441  25.071  1.00  0.00     0.121 A 
ATOM     25  C   UNL A   1      33.257  25.553  26.148  1.00  0.00     0.047 A 
ATOM     26  C   UNL A   1      33.987  26.291  23.973  1.00  0.00     0.055 A 
ATOM     27  C   UNL A   1      32.179  26.437  26.088  1.00  0.00     0.012 A 
ATOM     28  C   UNL A   1      32.928  27.211  23.911  1.00  0.00    -0.015 A 
ATOM     29  C   UNL A   1      31.999  27.268  24.974  1.00  0.00    -0.018 A 
ATOM     30  C   UNL A   1      32.776  28.085  22.823  1.00  0.00     0.009 A 
ATOM     31  C   UNL A   1      30.927  28.172  24.908  1.00  0.00     0.009 A 
ATOM     32  C   UNL A   1      31.713  28.989  22.777  1.00  0.00     0.001 A 
ATOM     33  C   UNL A   1      30.785  29.027  23.814  1.00  0.00     0.001 A 
ENDBRANCH  23  24
ENDBRANCH   8  23
ENDBRANCH   5   8
ENDBRANCH   3   4
ENDBRANCH   2   3
ENDBRANCH   1   2
BRANCH   1  34
ATOM     34  C   UNL A   1      41.461  21.209  26.932  1.00  0.00     0.002 C 
BRANCH  34  35
ATOM     35  C   UNL A   1      41.536  19.942  26.073  1.00  0.00     0.021 C 
BRANCH  35  36
ATOM     36  C   UNL A   1      42.708  19.021  26.395  1.00  0.00     0.116 C 
BRANCH  36  37
ATOM     37  N   UNL A   1      43.514  18.728  25.222  1.00  0.00    -0.352 N 
ATOM     38  C   UNL A   1      44.258  19.578  24.448  1.00  0.00     0.251 C 
ATOM     39  H   UNL A   1      43.526  17.784  24.944  1.00  0.00     0.163 HD
ATOM     40  O   UNL A   1      44.734  19.180  23.385  1.00  0.00    -0.269 OA
BRANCH  38  41
ATOM     41  C   UNL A   1      44.487  20.976  24.871  1.00  0.00     0.039 A 
ATOM     42  C   UNL A   1      45.206  21.210  26.047  1.00  0.00     0.014 A 
ATOM     43  C   UNL A   1      43.956  22.050  24.150  1.00  0.00     0.014 A 
ATOM     44  C   UNL A   1      45.411  22.519  26.487  1.00  0.00     0.010 A 
ATOM     45  C   UNL A   1      44.219  23.358  24.554  1.00  0.00     0.010 A 
ATOM     46  C   UNL A   1      44.928  23.604  25.739  1.00  0.00    -0.014 A 
BRANCH  46  47
ATOM     47  C   UNL A   1      45.107  24.998  26.217  1.00  0.00     0.031 A 
ATOM     48  C   UNL A   1      46.457  25.655  26.121  1.00  0.00     0.074 A 
ATOM     49  C   UNL A   1      44.071  25.660  26.764  1.00  0.00     0.049 A 
ATOM     50  N   UNL A   1      46.827  26.850  26.508  1.00  0.00    -0.248 NA
ATOM     51  C   UNL A   1      47.542  24.851  25.536  1.00  0.00     0.031 C 
ATOM     52  C   UNL A   1      42.727  25.116  26.956  1.00  0.00     0.029 A 
ATOM     53  N   UNL A   1      43.989  26.935  27.263  1.00  0.00    -0.354 N 
ATOM     54  C   UNL A   1      48.186  26.932  26.231  1.00  0.00     0.074 A 
ATOM     55  C   UNL A   1      48.586  25.650  25.693  1.00  0.00     0.031 C 
ATOM     56  C   UNL A   1      41.947  26.058  27.511  1.00  0.00     0.029 A 
ATOM     57  C   UNL A   1      42.742  27.263  27.734  1.00  0.00     0.049 A 
ATOM     58  H   UNL A   1      44.754  27.557  27.282  1.00  0.00     0.167 HD
ATOM     59  C   UNL A   1      49.021  27.988  26.388  1.00  0.00     0.037 A 
ATOM     60  C   UNL A   1      42.292  28.409  28.277  1.00  0.00     0.037 A 
ATOM     61  C   UNL A   1      48.614  29.273  26.890  1.00  0.00     0.049 A 
ATOM     62  C   UNL A   1      43.230  29.580  28.406  1.00  0.00     0.074 A 
ATOM     63  C   UNL A   1      49.370  30.423  27.043  1.00  0.00     0.029 A 
ATOM     64  N   UNL A   1      47.330  29.581  27.318  1.00  0.00    -0.354 N 
ATOM     65  N   UNL A   1      44.498  29.665  28.086  1.00  0.00    -0.248 NA
ATOM     66  C   UNL A   1      42.666  30.819  28.957  1.00  0.00     0.031 C 
ATOM     67  C   UNL A   1      48.551  31.417  27.590  1.00  0.00     0.029 A 
ATOM     68  C   UNL A   1      47.274  30.899  27.739  1.00  0.00     0.049 A 
ATOM     69  H   UNL A   1      46.570  28.954  27.320  1.00  0.00     0.167 HD
ATOM     70  C   UNL A   1      44.876  30.971  28.367  1.00  0.00     0.074 A 
ATOM     71  C   UNL A   1      43.697  31.647  28.869  1.00  0.00     0.031 C 
ATOM     72  C   UNL A   1      46.089  31.558  28.223  1.00  0.00     0.037 A 
BRANCH  59  73
ATOM     73  C   UNL A   1      50.458  27.794  26.003  1.00  0.00     0.064 A 
ATOM     74  C   UNL A   1      50.884  27.907  24.670  1.00  0.00     0.173 A 
ATOM     75  C   UNL A   1      51.426  27.513  26.979  1.00  0.00     0.173 A 
ATOM     76  F   UNL A   1      49.995  28.161  23.698  1.00  0.00    -0.203 F 
ATOM     77  C   UNL A   1      52.218  27.713  24.324  1.00  0.00     0.198 A 
ATOM     78  C   UNL A   1      52.765  27.349  26.633  1.00  0.00     0.198 A 
ATOM     79  F   UNL A   1      51.075  27.399  28.268  1.00  0.00    -0.203 F 
ATOM     80  F   UNL A   1      52.591  27.773  23.039  1.00  0.00    -0.200 F 
ATOM     81  C   UNL A   1      53.159  27.440  25.306  1.00  0.00     0.200 A 
ATOM     82  F   UNL A   1      53.676  27.097  27.583  1.00  0.00    -0.200 F 
ATOM     83  F   UNL A   1      54.444  27.257  24.972  1.00  0.00    -0.200 F 
ENDBRANCH  59  73
BRANCH  60  84
ATOM     84  C   UNL A   1      40.873  28.524  28.696  1.00  0.00     0.064 A 
ATOM     85  C   UNL A   1      39.896  28.994  27.805  1.00  0.00     0.173 A 
ATOM     86  C   UNL A   1      40.464  28.177  29.992  1.00  0.00     0.173 A 
ATOM     87  F   UNL A   1      40.245  29.357  26.563  1.00  0.00    -0.203 F 
ATOM     88  C   UNL A   1      38.569  29.134  28.201  1.00  0.00     0.198 A 
ATOM     89  C   UNL A   1      39.129  28.293  30.378  1.00  0.00     0.198 A 
ATOM     90  F   UNL A   1      41.358  27.717  30.878  1.00  0.00    -0.203 F 
ATOM     91  F   UNL A   1      37.665  29.629  27.346  1.00  0.00    -0.200 F 
ATOM     92  C   UNL A   1      38.185  28.779  29.487  1.00  0.00     0.200 A 
ATOM     93  F   UNL A   1      38.760  27.938  31.616  1.00  0.00    -0.200 F 
ATOM     94  F   UNL A   1      36.907  28.912  29.867  1.00  0.00    -0.200 F 
ENDBRANCH  60  84
BRANCH  72  95
ATOM     95  C   UNL A   1      46.189  33.013  28.576  1.00  0.00     0.064 A 
ATOM     96  C   UNL A   1      46.527  33.438  29.869  1.00  0.00     0.173 A 
ATOM     97  C   UNL A   1      45.961  33.995  27.600  1.00  0.00     0.173 A 
ATOM     98  F   UNL A   1      46.740  32.537  30.840  1.00  0.00    -0.203 F 
ATOM     99  C   UNL A   1      46.601  34.793  30.180  1.00  0.00     0.198 A 
ATOM    100  C   UNL A   1      46.063  35.348  27.907  1.00  0.00     0.198 A 
ATOM    101  F   UNL A   1      45.642  33.640  26.345  1.00  0.00    -0.203 F 
ATOM    102  F   UNL A   1      46.872  35.176  31.436  1.00  0.00    -0.200 F 
ATOM    103  C   UNL A   1      46.372  35.746  29.199  1.00  0.00     0.200 A 
ATOM    104  F   UNL A   1      45.854  36.268  26.955  1.00  0.00    -0.200 F 
ATOM    105  F   UNL A   1      46.443  37.049  29.501  1.00  0.00    -0.200 F 
ENDBRANCH  72  95
ENDBRANCH  46  47
ENDBRANCH  38  41
ENDBRANCH  36  37
ENDBRANCH  35  36
ENDBRANCH  34  35
ENDBRANCH   1  34
TORSDOF 16
ENDMDL
