MODEL 1
REMARK VINA RESULT:     -12.0      0.000      0.000
REMARK SMILES CC1(C)CCC[C@H]1NC(=O)N[C@@H]1COC[C@@]1(C)C(=O)NCCCCCCNC(=O)c1ccc(-c2c3nc(c(-c4c(F)c(F)c(F)c(F)c4F)c4ccc([nH]4)c(-c4c(F)c(F)c(F)c(F)c4F)c4nc(c(-c5c(F)c(F)c(F)c(F)c5F)c5ccc2[nH]5)C=C4)C=C3)cc1
REMARK SMILES IDX 23 1 22 2 21 3 20 4 18 5 19 6 16 8 12 9 13 10 14 11 15 12
REMARK SMILES IDX 17 13 11 14 8 15 9 16 10 18 7 20 1 21 2 22 3 23 4 24 5 25
REMARK SMILES IDX 6 26 24 27 25 28 26 29 27 30 28 31 29 33 30 34 31 35 92 36
REMARK SMILES IDX 32 37 91 38 33 39 34 40 35 41 85 42 36 43 90 44 84 45 86 46
REMARK SMILES IDX 37 47 89 48 83 49 82 50 38 52 70 53 50 54 69 55 51 56 54 57
REMARK SMILES IDX 68 58 87 59 52 60 53 61 67 63 88 64 55 65 39 66 40 67 48 68
REMARK SMILES IDX 41 69 42 70 46 71 49 72 43 73 44 74 47 75 45 76 71 77 72 78
REMARK SMILES IDX 80 79 73 80 74 81 78 82 81 83 75 84 76 85 79 86 77 87 56 88
REMARK SMILES IDX 57 89 65 90 58 91 59 92 63 93 66 94 60 95 61 96 64 97 62 98
REMARK H PARENT 20 7 8 17 11 19 27 32 86 51 54 62
REMARK Flexibility Score: inf
ROOT
ATOM      1  C   UNL A   1      37.742  22.224  25.411  1.00  0.00     0.002 C 
ENDROOT
BRANCH   1   2
ATOM      2  C   UNL A   1      37.099  23.506  24.880  1.00  0.00     0.021 C 
BRANCH   2   3
ATOM      3  C   UNL A   1      35.787  23.927  25.547  1.00  0.00     0.116 C 
BRANCH   3   4
ATOM      4  N   UNL A   1      35.176  22.932  26.408  1.00  0.00    -0.355 N 
ATOM      5  C   UNL A   1      34.061  22.160  26.242  1.00  0.00     0.230 C 
ATOM      6  O   UNL A   1      33.909  21.241  27.050  1.00  0.00    -0.274 OA
ATOM      7  H   UNL A   1      35.647  22.789  27.261  1.00  0.00     0.163 HD
BRANCH   5   8
ATOM      8  C   UNL A   1      33.008  22.464  25.164  1.00  0.00     0.092 C 
ATOM      9  C   UNL A   1      32.476  23.912  25.148  1.00  0.00     0.127 C 
ATOM     10  C   UNL A   1      32.555  24.396  23.703  1.00  0.00     0.186 C 
ATOM     11  O   UNL A   1      32.922  23.267  22.912  1.00  0.00    -0.378 OA
ATOM     12  C   UNL A   1      33.677  22.399  23.773  1.00  0.00     0.179 C 
ATOM     13  C   UNL A   1      31.975  21.359  25.227  1.00  0.00     0.026 C 
BRANCH   9  14
ATOM     14  N   UNL A   1      31.217  24.265  25.820  1.00  0.00    -0.332 N 
ATOM     15  N   UNL A   1      30.930  26.563  26.398  1.00  0.00    -0.335 N 
ATOM     16  C   UNL A   1      30.540  25.296  26.311  1.00  0.00     0.315 C 
ATOM     17  H   UNL A   1      30.170  27.155  26.601  1.00  0.00     0.165 HD
ATOM     18  O   UNL A   1      29.397  25.042  26.708  1.00  0.00    -0.249 OA
ATOM     19  H   UNL A   1      30.688  23.446  25.953  1.00  0.00     0.165 HD
BRANCH  15  20
ATOM     20  C   UNL A   1      32.174  27.320  26.274  1.00  0.00     0.089 C 
ATOM     21  C   UNL A   1      31.315  27.882  23.832  1.00  0.00     0.013 C 
ATOM     22  C   UNL A   1      32.193  28.283  25.030  1.00  0.00    -0.015 C 
ATOM     23  C   UNL A   1      33.640  28.505  24.525  1.00  0.00     0.013 C 
ATOM     24  C   UNL A   1      31.656  29.599  25.617  1.00  0.00     0.008 C 
ATOM     25  C   UNL A   1      32.316  29.687  26.979  1.00  0.00     0.003 C 
ATOM     26  C   UNL A   1      32.311  28.255  27.502  1.00  0.00     0.025 C 
ENDBRANCH  15  20
ENDBRANCH   9  14
ENDBRANCH   5   8
ENDBRANCH   3   4
ENDBRANCH   2   3
ENDBRANCH   1   2
BRANCH   1  27
ATOM     27  C   UNL A   1      37.414  20.949  24.635  1.00  0.00     0.002 C 
BRANCH  27  28
ATOM     28  C   UNL A   1      38.355  19.765  24.887  1.00  0.00     0.021 C 
BRANCH  28  29
ATOM     29  C   UNL A   1      39.255  19.914  26.110  1.00  0.00     0.116 C 
BRANCH  29  30
ATOM     30  N   UNL A   1      40.424  19.052  26.022  1.00  0.00    -0.352 N 
ATOM     31  C   UNL A   1      41.756  19.380  26.008  1.00  0.00     0.251 C 
ATOM     32  H   UNL A   1      40.229  18.089  25.965  1.00  0.00     0.163 HD
ATOM     33  O   UNL A   1      42.589  18.557  25.641  1.00  0.00    -0.269 OA
BRANCH  31  34
ATOM     34  C   UNL A   1      42.198  20.724  26.439  1.00  0.00     0.039 A 
ATOM     35  C   UNL A   1      42.586  21.655  25.472  1.00  0.00     0.014 A 
ATOM     36  C   UNL A   1      42.285  21.044  27.797  1.00  0.00     0.014 A 
ATOM     37  C   UNL A   1      43.017  22.924  25.865  1.00  0.00     0.010 A 
ATOM     38  C   UNL A   1      42.653  22.330  28.185  1.00  0.00     0.010 A 
ATOM     39  C   UNL A   1      43.032  23.278  27.224  1.00  0.00    -0.014 A 
BRANCH  39  40
ATOM     40  C   UNL A   1      43.457  24.631  27.664  1.00  0.00     0.031 A 
ATOM     41  C   UNL A   1      42.427  25.670  28.008  1.00  0.00     0.074 A 
ATOM     42  C   UNL A   1      44.767  24.941  27.693  1.00  0.00     0.049 A 
ATOM     43  N   UNL A   1      42.592  26.925  28.342  1.00  0.00    -0.248 NA
ATOM     44  C   UNL A   1      41.019  25.249  27.942  1.00  0.00     0.031 C 
ATOM     45  C   UNL A   1      45.858  24.031  27.344  1.00  0.00     0.029 A 
ATOM     46  N   UNL A   1      45.401  26.113  28.022  1.00  0.00    -0.354 N 
ATOM     47  C   UNL A   1      41.316  27.444  28.512  1.00  0.00     0.074 A 
ATOM     48  C   UNL A   1      40.383  26.384  28.191  1.00  0.00     0.031 C 
ATOM     49  C   UNL A   1      47.028  24.671  27.496  1.00  0.00     0.029 A 
ATOM     50  C   UNL A   1      46.769  26.044  27.919  1.00  0.00     0.049 A 
ATOM     51  H   UNL A   1      44.922  26.925  28.304  1.00  0.00     0.167 HD
ATOM     52  C   UNL A   1      40.953  28.684  28.920  1.00  0.00     0.037 A 
ATOM     53  C   UNL A   1      47.706  26.986  28.136  1.00  0.00     0.037 A 
ATOM     54  C   UNL A   1      41.885  29.728  29.256  1.00  0.00     0.049 A 
ATOM     55  C   UNL A   1      47.278  28.360  28.575  1.00  0.00     0.074 A 
ATOM     56  C   UNL A   1      41.623  31.002  29.730  1.00  0.00     0.029 A 
ATOM     57  N   UNL A   1      43.265  29.618  29.149  1.00  0.00    -0.354 N 
ATOM     58  N   UNL A   1      46.070  28.821  28.793  1.00  0.00    -0.248 NA
ATOM     59  C   UNL A   1      48.345  29.343  28.802  1.00  0.00     0.031 C 
ATOM     60  C   UNL A   1      42.840  31.676  29.869  1.00  0.00     0.029 A 
ATOM     61  C   UNL A   1      43.865  30.808  29.528  1.00  0.00     0.049 A 
ATOM     62  H   UNL A   1      43.745  28.814  28.848  1.00  0.00     0.167 HD
ATOM     63  C   UNL A   1      46.233  30.135  29.209  1.00  0.00     0.074 A 
ATOM     64  C   UNL A   1      47.658  30.394  29.226  1.00  0.00     0.031 C 
ATOM     65  C   UNL A   1      45.286  31.045  29.547  1.00  0.00     0.037 A 
BRANCH  52  66
ATOM     66  C   UNL A   1      39.484  28.974  29.027  1.00  0.00     0.064 A 
ATOM     67  C   UNL A   1      38.801  28.872  30.249  1.00  0.00     0.173 A 
ATOM     68  C   UNL A   1      38.753  29.383  27.901  1.00  0.00     0.173 A 
ATOM     69  F   UNL A   1      39.451  28.475  31.354  1.00  0.00    -0.203 F 
ATOM     70  C   UNL A   1      37.435  29.132  30.333  1.00  0.00     0.198 A 
ATOM     71  C   UNL A   1      37.394  29.673  27.995  1.00  0.00     0.198 A 
ATOM     72  F   UNL A   1      39.356  29.504  26.709  1.00  0.00    -0.203 F 
ATOM     73  F   UNL A   1      36.795  28.972  31.499  1.00  0.00    -0.200 F 
ATOM     74  C   UNL A   1      36.734  29.537  29.207  1.00  0.00     0.200 A 
ATOM     75  F   UNL A   1      36.719  30.077  26.910  1.00  0.00    -0.200 F 
ATOM     76  F   UNL A   1      35.421  29.790  29.290  1.00  0.00    -0.200 F 
ENDBRANCH  52  66
BRANCH  53  77
ATOM     77  C   UNL A   1      49.144  26.650  27.976  1.00  0.00     0.064 A 
ATOM     78  C   UNL A   1      49.733  26.613  26.704  1.00  0.00     0.173 A 
ATOM     79  C   UNL A   1      49.959  26.364  29.080  1.00  0.00     0.173 A 
ATOM     80  F   UNL A   1      48.989  26.859  25.615  1.00  0.00    -0.203 F 
ATOM     81  C   UNL A   1      51.077  26.288  26.542  1.00  0.00     0.198 A 
ATOM     82  C   UNL A   1      51.310  26.066  28.920  1.00  0.00     0.198 A 
ATOM     83  F   UNL A   1      49.444  26.391  30.319  1.00  0.00    -0.203 F 
ATOM     84  F   UNL A   1      51.604  26.220  25.312  1.00  0.00    -0.200 F 
ATOM     85  C   UNL A   1      51.867  26.020  27.650  1.00  0.00     0.200 A 
ATOM     86  F   UNL A   1      52.072  25.821  29.994  1.00  0.00    -0.200 F 
ATOM     87  F   UNL A   1      53.161  25.712  27.494  1.00  0.00    -0.200 F 
ENDBRANCH  53  77
BRANCH  65  88
ATOM     88  C   UNL A   1      45.764  32.396  29.995  1.00  0.00     0.064 A 
ATOM     89  C   UNL A   1      46.078  32.659  31.335  1.00  0.00     0.173 A 
ATOM     90  C   UNL A   1      45.944  33.430  29.062  1.00  0.00     0.173 A 
ATOM     91  F   UNL A   1      45.907  31.708  32.267  1.00  0.00    -0.203 F 
ATOM     92  C   UNL A   1      46.530  33.915  31.731  1.00  0.00     0.198 A 
ATOM     93  C   UNL A   1      46.424  34.675  29.456  1.00  0.00     0.198 A 
ATOM     94  F   UNL A   1      45.662  33.228  27.766  1.00  0.00    -0.203 F 
ATOM     95  F   UNL A   1      46.779  34.158  33.026  1.00  0.00    -0.200 F 
ATOM     96  C   UNL A   1      46.710  34.919  30.791  1.00  0.00     0.200 A 
ATOM     97  F   UNL A   1      46.609  35.639  28.545  1.00  0.00    -0.200 F 
ATOM     98  F   UNL A   1      47.152  36.124  31.173  1.00  0.00    -0.200 F 
ENDBRANCH  65  88
ENDBRANCH  39  40
ENDBRANCH  31  34
ENDBRANCH  29  30
ENDBRANCH  28  29
ENDBRANCH  27  28
ENDBRANCH   1  27
TORSDOF 15
ENDMDL
MODEL 2
REMARK VINA RESULT:     -12.0      1.005      2.270
REMARK SMILES CC1(C)CCC[C@H]1NC(=O)N[C@@H]1COC[C@@]1(C)C(=O)NCCCCCCNC(=O)c1ccc(-c2c3nc(c(-c4c(F)c(F)c(F)c(F)c4F)c4ccc([nH]4)c(-c4c(F)c(F)c(F)c(F)c4F)c4nc(c(-c5c(F)c(F)c(F)c(F)c5F)c5ccc2[nH]5)C=C4)C=C3)cc1
REMARK SMILES IDX 23 1 22 2 21 3 20 4 18 5 19 6 16 8 12 9 13 10 14 11 15 12
REMARK SMILES IDX 17 13 11 14 8 15 9 16 10 18 7 20 1 21 2 22 3 23 4 24 5 25
REMARK SMILES IDX 6 26 24 27 25 28 26 29 27 30 28 31 29 33 30 34 31 35 92 36
REMARK SMILES IDX 32 37 91 38 33 39 34 40 35 41 85 42 36 43 90 44 84 45 86 46
REMARK SMILES IDX 37 47 89 48 83 49 82 50 38 52 70 53 50 54 69 55 51 56 54 57
REMARK SMILES IDX 68 58 87 59 52 60 53 61 67 63 88 64 55 65 39 66 40 67 48 68
REMARK SMILES IDX 41 69 42 70 46 71 49 72 43 73 44 74 47 75 45 76 71 77 72 78
REMARK SMILES IDX 80 79 73 80 74 81 78 82 81 83 75 84 76 85 79 86 77 87 56 88
REMARK SMILES IDX 57 89 65 90 58 91 59 92 63 93 66 94 60 95 61 96 64 97 62 98
REMARK H PARENT 20 7 8 17 11 19 27 32 86 51 54 62
REMARK Flexibility Score: inf
ROOT
ATOM      1  C   UNL A   1      37.132  21.947  24.734  1.00  0.00     0.002 C 
ENDROOT
BRANCH   1   2
ATOM      2  C   UNL A   1      36.573  22.602  23.471  1.00  0.00     0.021 C 
BRANCH   2   3
ATOM      3  C   UNL A   1      35.162  23.186  23.584  1.00  0.00     0.116 C 
BRANCH   3   4
ATOM      4  N   UNL A   1      34.164  22.302  24.159  1.00  0.00    -0.355 N 
ATOM      5  C   UNL A   1      32.884  22.538  24.574  1.00  0.00     0.230 C 
ATOM      6  O   UNL A   1      32.197  21.542  24.816  1.00  0.00    -0.274 OA
ATOM      7  H   UNL A   1      34.464  21.371  24.271  1.00  0.00     0.163 HD
BRANCH   5   8
ATOM      8  C   UNL A   1      32.348  23.959  24.807  1.00  0.00     0.092 C 
ATOM      9  C   UNL A   1      31.824  24.684  23.550  1.00  0.00     0.127 C 
ATOM     10  C   UNL A   1      30.451  25.249  23.904  1.00  0.00     0.186 C 
ATOM     11  O   UNL A   1      30.270  25.038  25.304  1.00  0.00    -0.378 OA
ATOM     12  C   UNL A   1      31.049  23.879  25.641  1.00  0.00     0.179 C 
ATOM     13  C   UNL A   1      33.380  24.693  25.636  1.00  0.00     0.026 C 
BRANCH   9  14
ATOM     14  N   UNL A   1      32.676  25.625  22.807  1.00  0.00    -0.332 N 
ATOM     15  N   UNL A   1      32.947  27.793  23.767  1.00  0.00    -0.335 N 
ATOM     16  C   UNL A   1      33.177  26.854  22.858  1.00  0.00     0.315 C 
ATOM     17  H   UNL A   1      33.598  28.528  23.692  1.00  0.00     0.165 HD
ATOM     18  O   UNL A   1      33.975  27.140  21.958  1.00  0.00    -0.249 OA
ATOM     19  H   UNL A   1      32.983  25.190  21.980  1.00  0.00     0.165 HD
BRANCH  15  20
ATOM     20  C   UNL A   1      31.997  28.038  24.851  1.00  0.00     0.089 C 
ATOM     21  C   UNL A   1      34.140  28.092  26.405  1.00  0.00     0.013 C 
ATOM     22  C   UNL A   1      32.682  28.527  26.179  1.00  0.00    -0.015 C 
ATOM     23  C   UNL A   1      31.849  28.112  27.417  1.00  0.00     0.013 C 
ATOM     24  C   UNL A   1      32.640  30.057  26.033  1.00  0.00     0.008 C 
ATOM     25  C   UNL A   1      31.274  30.330  25.436  1.00  0.00     0.003 C 
ATOM     26  C   UNL A   1      31.059  29.200  24.435  1.00  0.00     0.025 C 
ENDBRANCH  15  20
ENDBRANCH   9  14
ENDBRANCH   5   8
ENDBRANCH   3   4
ENDBRANCH   2   3
ENDBRANCH   1   2
BRANCH   1  27
ATOM     27  C   UNL A   1      36.905  20.440  24.854  1.00  0.00     0.002 C 
BRANCH  27  28
ATOM     28  C   UNL A   1      38.176  19.585  24.899  1.00  0.00     0.021 C 
BRANCH  28  29
ATOM     29  C   UNL A   1      39.193  20.007  25.956  1.00  0.00     0.116 C 
BRANCH  29  30
ATOM     30  N   UNL A   1      40.360  19.139  25.953  1.00  0.00    -0.352 N 
ATOM     31  C   UNL A   1      41.693  19.461  26.011  1.00  0.00     0.251 C 
ATOM     32  H   UNL A   1      40.164  18.175  25.901  1.00  0.00     0.163 HD
ATOM     33  O   UNL A   1      42.541  18.627  25.708  1.00  0.00    -0.269 OA
BRANCH  31  34
ATOM     34  C   UNL A   1      42.115  20.810  26.443  1.00  0.00     0.039 A 
ATOM     35  C   UNL A   1      42.204  21.090  27.810  1.00  0.00     0.014 A 
ATOM     36  C   UNL A   1      42.367  21.814  25.503  1.00  0.00     0.014 A 
ATOM     37  C   UNL A   1      42.590  22.364  28.233  1.00  0.00     0.010 A 
ATOM     38  C   UNL A   1      42.814  23.063  25.925  1.00  0.00     0.010 A 
ATOM     39  C   UNL A   1      42.920  23.354  27.293  1.00  0.00    -0.014 A 
BRANCH  39  40
ATOM     40  C   UNL A   1      43.363  24.704  27.719  1.00  0.00     0.031 A 
ATOM     41  C   UNL A   1      42.347  25.760  28.055  1.00  0.00     0.074 A 
ATOM     42  C   UNL A   1      44.677  24.997  27.743  1.00  0.00     0.049 A 
ATOM     43  N   UNL A   1      42.530  27.016  28.378  1.00  0.00    -0.248 NA
ATOM     44  C   UNL A   1      40.934  25.357  27.996  1.00  0.00     0.031 C 
ATOM     45  C   UNL A   1      45.755  24.070  27.400  1.00  0.00     0.029 A 
ATOM     46  N   UNL A   1      45.327  26.164  28.060  1.00  0.00    -0.354 N 
ATOM     47  C   UNL A   1      41.261  27.553  28.545  1.00  0.00     0.074 A 
ATOM     48  C   UNL A   1      40.314  26.503  28.236  1.00  0.00     0.031 C 
ATOM     49  C   UNL A   1      46.934  24.696  27.545  1.00  0.00     0.029 A 
ATOM     50  C   UNL A   1      46.694  26.076  27.955  1.00  0.00     0.049 A 
ATOM     51  H   UNL A   1      44.859  26.985  28.335  1.00  0.00     0.167 HD
ATOM     52  C   UNL A   1      40.915  28.802  28.942  1.00  0.00     0.037 A 
ATOM     53  C   UNL A   1      47.644  27.007  28.162  1.00  0.00     0.037 A 
ATOM     54  C   UNL A   1      41.862  29.837  29.267  1.00  0.00     0.049 A 
ATOM     55  C   UNL A   1      47.234  28.391  28.589  1.00  0.00     0.074 A 
ATOM     56  C   UNL A   1      41.617  31.118  29.729  1.00  0.00     0.029 A 
ATOM     57  N   UNL A   1      43.239  29.707  29.159  1.00  0.00    -0.354 N 
ATOM     58  N   UNL A   1      46.034  28.870  28.805  1.00  0.00    -0.248 NA
ATOM     59  C   UNL A   1      48.315  29.362  28.806  1.00  0.00     0.031 C 
ATOM     60  C   UNL A   1      42.843  31.777  29.861  1.00  0.00     0.029 A 
ATOM     61  C   UNL A   1      43.856  30.892  29.526  1.00  0.00     0.049 A 
ATOM     62  H   UNL A   1      43.708  28.894  28.864  1.00  0.00     0.167 HD
ATOM     63  C   UNL A   1      46.214  30.185  29.209  1.00  0.00     0.074 A 
ATOM     64  C   UNL A   1      47.642  30.425  29.221  1.00  0.00     0.031 C 
ATOM     65  C   UNL A   1      45.280  31.111  29.540  1.00  0.00     0.037 A 
BRANCH  52  66
ATOM     66  C   UNL A   1      39.450  29.112  29.049  1.00  0.00     0.064 A 
ATOM     67  C   UNL A   1      38.688  29.463  27.923  1.00  0.00     0.173 A 
ATOM     68  C   UNL A   1      38.792  29.035  30.285  1.00  0.00     0.173 A 
ATOM     69  F   UNL A   1      39.272  29.560  26.718  1.00  0.00    -0.203 F 
ATOM     70  C   UNL A   1      37.333  29.760  28.037  1.00  0.00     0.198 A 
ATOM     71  C   UNL A   1      37.429  29.303  30.391  1.00  0.00     0.198 A 
ATOM     72  F   UNL A   1      39.469  28.698  31.394  1.00  0.00    -0.203 F 
ATOM     73  F   UNL A   1      36.641  30.147  26.956  1.00  0.00    -0.200 F 
ATOM     74  C   UNL A   1      36.703  29.675  29.269  1.00  0.00     0.200 A 
ATOM     75  F   UNL A   1      36.818  29.208  31.580  1.00  0.00    -0.200 F 
ATOM     76  F   UNL A   1      35.398  29.958  29.377  1.00  0.00    -0.200 F 
ENDBRANCH  52  66
BRANCH  53  77
ATOM     77  C   UNL A   1      49.077  26.651  28.002  1.00  0.00     0.064 A 
ATOM     78  C   UNL A   1      49.867  26.342  29.118  1.00  0.00     0.173 A 
ATOM     79  C   UNL A   1      49.686  26.609  26.740  1.00  0.00     0.173 A 
ATOM     80  F   UNL A   1      49.334  26.389  30.349  1.00  0.00    -0.203 F 
ATOM     81  C   UNL A   1      51.214  26.018  28.979  1.00  0.00     0.198 A 
ATOM     82  C   UNL A   1      51.027  26.258  26.599  1.00  0.00     0.198 A 
ATOM     83  F   UNL A   1      48.972  26.892  25.640  1.00  0.00    -0.203 F 
ATOM     84  F   UNL A   1      51.956  25.767  30.067  1.00  0.00    -0.200 F 
ATOM     85  C   UNL A   1      51.792  25.970  27.720  1.00  0.00     0.200 A 
ATOM     86  F   UNL A   1      51.578  26.201  25.380  1.00  0.00    -0.200 F 
ATOM     87  F   UNL A   1      53.087  25.655  27.586  1.00  0.00    -0.200 F 
ENDBRANCH  53  77
BRANCH  65  88
ATOM     88  C   UNL A   1      45.776  32.459  29.975  1.00  0.00     0.064 A 
ATOM     89  C   UNL A   1      46.117  32.724  31.308  1.00  0.00     0.173 A 
ATOM     90  C   UNL A   1      45.946  33.489  29.035  1.00  0.00     0.173 A 
ATOM     91  F   UNL A   1      45.957  31.778  32.246  1.00  0.00    -0.203 F 
ATOM     92  C   UNL A   1      46.587  33.978  31.692  1.00  0.00     0.198 A 
ATOM     93  C   UNL A   1      46.444  34.731  29.417  1.00  0.00     0.198 A 
ATOM     94  F   UNL A   1      45.639  33.285  27.746  1.00  0.00    -0.203 F 
ATOM     95  F   UNL A   1      46.862  34.223  32.980  1.00  0.00    -0.200 F 
ATOM     96  C   UNL A   1      46.756  34.977  30.745  1.00  0.00     0.200 A 
ATOM     97  F   UNL A   1      46.619  35.692  28.499  1.00  0.00    -0.200 F 
ATOM     98  F   UNL A   1      47.214  36.181  31.115  1.00  0.00    -0.200 F 
ENDBRANCH  65  88
ENDBRANCH  39  40
ENDBRANCH  31  34
ENDBRANCH  29  30
ENDBRANCH  28  29
ENDBRANCH  27  28
ENDBRANCH   1  27
TORSDOF 15
ENDMDL
MODEL 3
REMARK VINA RESULT:     -11.9      5.175     10.480
REMARK SMILES CC1(C)CCC[C@H]1NC(=O)N[C@@H]1COC[C@@]1(C)C(=O)NCCCCCCNC(=O)c1ccc(-c2c3nc(c(-c4c(F)c(F)c(F)c(F)c4F)c4ccc([nH]4)c(-c4c(F)c(F)c(F)c(F)c4F)c4nc(c(-c5c(F)c(F)c(F)c(F)c5F)c5ccc2[nH]5)C=C4)C=C3)cc1
REMARK SMILES IDX 23 1 22 2 21 3 20 4 18 5 19 6 16 8 12 9 13 10 14 11 15 12
REMARK SMILES IDX 17 13 11 14 8 15 9 16 10 18 7 20 1 21 2 22 3 23 4 24 5 25
REMARK SMILES IDX 6 26 24 27 25 28 26 29 27 30 28 31 29 33 30 34 31 35 92 36
REMARK SMILES IDX 32 37 91 38 33 39 34 40 35 41 85 42 36 43 90 44 84 45 86 46
REMARK SMILES IDX 37 47 89 48 83 49 82 50 38 52 70 53 50 54 69 55 51 56 54 57
REMARK SMILES IDX 68 58 87 59 52 60 53 61 67 63 88 64 55 65 39 66 40 67 48 68
REMARK SMILES IDX 41 69 42 70 46 71 49 72 43 73 44 74 47 75 45 76 71 77 72 78
REMARK SMILES IDX 80 79 73 80 74 81 78 82 81 83 75 84 76 85 79 86 77 87 56 88
REMARK SMILES IDX 57 89 65 90 58 91 59 92 63 93 66 94 60 95 61 96 64 97 62 98
REMARK H PARENT 20 7 8 17 11 19 27 32 86 51 54 62
REMARK Flexibility Score: inf
ROOT
ATOM      1  C   UNL A   1      32.345  30.070  26.565  1.00  0.00     0.002 C 
ENDROOT
BRANCH   1   2
ATOM      2  C   UNL A   1      31.808  28.785  27.195  1.00  0.00     0.021 C 
BRANCH   2   3
ATOM      3  C   UNL A   1      31.543  27.624  26.232  1.00  0.00     0.116 C 
BRANCH   3   4
ATOM      4  N   UNL A   1      31.438  27.986  24.831  1.00  0.00    -0.355 N 
ATOM      5  C   UNL A   1      31.620  27.249  23.694  1.00  0.00     0.230 C 
ATOM      6  O   UNL A   1      31.245  27.770  22.641  1.00  0.00    -0.274 OA
ATOM      7  H   UNL A   1      31.196  28.927  24.671  1.00  0.00     0.163 HD
BRANCH   5   8
ATOM      8  C   UNL A   1      32.325  25.883  23.709  1.00  0.00     0.092 C 
ATOM      9  C   UNL A   1      31.462  24.698  24.191  1.00  0.00     0.127 C 
ATOM     10  C   UNL A   1      31.626  23.584  23.161  1.00  0.00     0.186 C 
ATOM     11  O   UNL A   1      32.643  24.009  22.255  1.00  0.00    -0.378 OA
ATOM     12  C   UNL A   1      32.607  25.446  22.254  1.00  0.00     0.179 C 
ATOM     13  C   UNL A   1      33.660  26.079  24.396  1.00  0.00     0.026 C 
BRANCH   9  14
ATOM     14  N   UNL A   1      31.530  24.229  25.583  1.00  0.00    -0.332 N 
ATOM     15  N   UNL A   1      33.423  22.897  26.163  1.00  0.00    -0.335 N 
ATOM     16  C   UNL A   1      32.292  23.539  26.424  1.00  0.00     0.315 C 
ATOM     17  H   UNL A   1      33.893  22.651  26.992  1.00  0.00     0.165 HD
ATOM     18  O   UNL A   1      31.906  23.522  27.599  1.00  0.00    -0.249 OA
ATOM     19  H   UNL A   1      30.725  24.534  26.060  1.00  0.00     0.165 HD
BRANCH  15  20
ATOM     20  C   UNL A   1      34.166  22.454  24.984  1.00  0.00     0.089 C 
ATOM     21  C   UNL A   1      36.134  23.938  25.955  1.00  0.00     0.013 C 
ATOM     22  C   UNL A   1      35.708  22.750  25.075  1.00  0.00    -0.015 C 
ATOM     23  C   UNL A   1      36.318  22.942  23.664  1.00  0.00     0.013 C 
ATOM     24  C   UNL A   1      36.262  21.455  25.692  1.00  0.00     0.008 C 
ATOM     25  C   UNL A   1      35.478  20.357  25.000  1.00  0.00     0.003 C 
ATOM     26  C   UNL A   1      34.062  20.912  24.882  1.00  0.00     0.025 C 
ENDBRANCH  15  20
ENDBRANCH   9  14
ENDBRANCH   5   8
ENDBRANCH   3   4
ENDBRANCH   2   3
ENDBRANCH   1   2
BRANCH   1  27
ATOM     27  C   UNL A   1      31.295  30.994  25.948  1.00  0.00     0.002 C 
BRANCH  27  28
ATOM     28  C   UNL A   1      31.271  32.423  26.501  1.00  0.00     0.021 C 
BRANCH  28  29
ATOM     29  C   UNL A   1      32.534  32.840  27.251  1.00  0.00     0.116 C 
BRANCH  29  30
ATOM     30  N   UNL A   1      32.475  34.233  27.664  1.00  0.00    -0.352 N 
ATOM     31  C   UNL A   1      33.098  34.864  28.712  1.00  0.00     0.251 C 
ATOM     32  H   UNL A   1      31.903  34.811  27.109  1.00  0.00     0.163 HD
ATOM     33  O   UNL A   1      32.713  35.969  29.082  1.00  0.00    -0.269 OA
BRANCH  31  34
ATOM     34  C   UNL A   1      34.239  34.221  29.397  1.00  0.00     0.039 A 
ATOM     35  C   UNL A   1      35.533  34.443  28.918  1.00  0.00     0.014 A 
ATOM     36  C   UNL A   1      34.028  33.354  30.474  1.00  0.00     0.014 A 
ATOM     37  C   UNL A   1      36.621  33.832  29.547  1.00  0.00     0.010 A 
ATOM     38  C   UNL A   1      35.117  32.798  31.140  1.00  0.00     0.010 A 
ATOM     39  C   UNL A   1      36.422  33.023  30.678  1.00  0.00    -0.014 A 
BRANCH  39  40
ATOM     40  C   UNL A   1      37.564  32.388  31.382  1.00  0.00     0.031 A 
ATOM     41  C   UNL A   1      38.297  31.239  30.749  1.00  0.00     0.074 A 
ATOM     42  C   UNL A   1      37.901  32.808  32.617  1.00  0.00     0.049 A 
ATOM     43  N   UNL A   1      39.270  30.508  31.231  1.00  0.00    -0.248 NA
ATOM     44  C   UNL A   1      37.859  30.841  29.402  1.00  0.00     0.031 C 
ATOM     45  C   UNL A   1      37.240  33.886  33.352  1.00  0.00     0.029 A 
ATOM     46  N   UNL A   1      38.876  32.367  33.475  1.00  0.00    -0.354 N 
ATOM     47  C   UNL A   1      39.549  29.559  30.256  1.00  0.00     0.074 A 
ATOM     48  C   UNL A   1      38.608  29.771  29.178  1.00  0.00     0.031 C 
ATOM     49  C   UNL A   1      37.841  34.039  34.542  1.00  0.00     0.029 A 
ATOM     50  C   UNL A   1      38.905  33.047  34.669  1.00  0.00     0.049 A 
ATOM     51  H   UNL A   1      39.496  31.634  33.258  1.00  0.00     0.167 HD
ATOM     52  C   UNL A   1      40.518  28.611  30.251  1.00  0.00     0.037 A 
ATOM     53  C   UNL A   1      39.697  32.883  35.744  1.00  0.00     0.037 A 
ATOM     54  C   UNL A   1      41.464  28.417  31.318  1.00  0.00     0.049 A 
ATOM     55  C   UNL A   1      40.756  31.814  35.720  1.00  0.00     0.074 A 
ATOM     56  C   UNL A   1      42.516  27.520  31.388  1.00  0.00     0.029 A 
ATOM     57  N   UNL A   1      41.468  29.132  32.507  1.00  0.00    -0.354 N 
ATOM     58  N   UNL A   1      41.052  30.963  34.768  1.00  0.00    -0.248 NA
ATOM     59  C   UNL A   1      41.594  31.686  36.920  1.00  0.00     0.031 C 
ATOM     60  C   UNL A   1      43.130  27.664  32.636  1.00  0.00     0.029 A 
ATOM     61  C   UNL A   1      42.492  28.683  33.326  1.00  0.00     0.049 A 
ATOM     62  H   UNL A   1      40.837  29.851  32.736  1.00  0.00     0.167 HD
ATOM     63  C   UNL A   1      42.126  30.220  35.239  1.00  0.00     0.074 A 
ATOM     64  C   UNL A   1      42.437  30.730  36.559  1.00  0.00     0.031 C 
ATOM     65  C   UNL A   1      42.792  29.207  34.634  1.00  0.00     0.037 A 
BRANCH  52  66
ATOM     66  C   UNL A   1      40.600  27.715  29.049  1.00  0.00     0.064 A 
ATOM     67  C   UNL A   1      39.773  26.589  28.912  1.00  0.00     0.173 A 
ATOM     68  C   UNL A   1      41.499  27.997  28.009  1.00  0.00     0.173 A 
ATOM     69  F   UNL A   1      38.903  26.270  29.883  1.00  0.00    -0.203 F 
ATOM     70  C   UNL A   1      39.867  25.759  27.798  1.00  0.00     0.198 A 
ATOM     71  C   UNL A   1      41.569  27.181  26.881  1.00  0.00     0.198 A 
ATOM     72  F   UNL A   1      42.309  29.063  28.083  1.00  0.00    -0.203 F 
ATOM     73  F   UNL A   1      39.106  24.659  27.719  1.00  0.00    -0.200 F 
ATOM     74  C   UNL A   1      40.761  26.058  26.781  1.00  0.00     0.200 A 
ATOM     75  F   UNL A   1      42.424  27.479  25.893  1.00  0.00    -0.200 F 
ATOM     76  F   UNL A   1      40.849  25.261  25.708  1.00  0.00    -0.200 F 
ENDBRANCH  52  66
BRANCH  53  77
ATOM     77  C   UNL A   1      39.542  33.775  36.921  1.00  0.00     0.064 A 
ATOM     78  C   UNL A   1      40.174  35.025  36.960  1.00  0.00     0.173 A 
ATOM     79  C   UNL A   1      38.761  33.404  38.026  1.00  0.00     0.173 A 
ATOM     80  F   UNL A   1      40.948  35.416  35.937  1.00  0.00    -0.203 F 
ATOM     81  C   UNL A   1      40.044  35.864  38.065  1.00  0.00     0.198 A 
ATOM     82  C   UNL A   1      38.609  34.255  39.118  1.00  0.00     0.198 A 
ATOM     83  F   UNL A   1      38.131  32.219  38.035  1.00  0.00    -0.203 F 
ATOM     84  F   UNL A   1      40.692  37.036  38.093  1.00  0.00    -0.200 F 
ATOM     85  C   UNL A   1      39.256  35.482  39.140  1.00  0.00     0.200 A 
ATOM     86  F   UNL A   1      37.837  33.887  40.150  1.00  0.00    -0.200 F 
ATOM     87  F   UNL A   1      39.128  36.291  40.200  1.00  0.00    -0.200 F 
ENDBRANCH  53  77
BRANCH  65  88
ATOM     88  C   UNL A   1      43.947  28.604  35.380  1.00  0.00     0.064 A 
ATOM     89  C   UNL A   1      45.253  29.091  35.235  1.00  0.00     0.173 A 
ATOM     90  C   UNL A   1      43.735  27.549  36.282  1.00  0.00     0.173 A 
ATOM     91  F   UNL A   1      45.510  30.088  34.374  1.00  0.00    -0.203 F 
ATOM     92  C   UNL A   1      46.311  28.526  35.944  1.00  0.00     0.198 A 
ATOM     93  C   UNL A   1      44.789  27.006  37.011  1.00  0.00     0.198 A 
ATOM     94  F   UNL A   1      42.503  27.050  36.461  1.00  0.00    -0.203 F 
ATOM     95  F   UNL A   1      47.559  28.977  35.753  1.00  0.00    -0.200 F 
ATOM     96  C   UNL A   1      46.076  27.490  36.836  1.00  0.00     0.200 A 
ATOM     97  F   UNL A   1      44.559  26.015  37.882  1.00  0.00    -0.200 F 
ATOM     98  F   UNL A   1      47.094  26.954  37.523  1.00  0.00    -0.200 F 
ENDBRANCH  65  88
ENDBRANCH  39  40
ENDBRANCH  31  34
ENDBRANCH  29  30
ENDBRANCH  28  29
ENDBRANCH  27  28
ENDBRANCH   1  27
TORSDOF 15
ENDMDL
