MODEL 1
REMARK VINA RESULT:     -11.4      0.000      0.000
REMARK SMILES C#CCN(CC(=O)NCCCCCCNC(=O)c1ccc(-c2c3nc(c(-c4c(F)c(F)c(F)c(F)c4F)c4ccc([nH]4)c(-c4c(F)c(F)c(F)c(F)c4F)c4nc(c(-c5c(F)c(F)c(F)c(F)c5F)c5ccc2[nH]5)C=C4)C=C3)cc1)C(=O)Nc1cccc(C#N)c1
REMARK SMILES IDX 10 1 9 2 8 3 6 4 7 5 5 7 4 8 3 9 2 10 1 11 81 12 82 13 83 14
REMARK SMILES IDX 84 16 85 17 91 18 86 19 88 20 87 21 89 22 90 23 11 24 12 25
REMARK SMILES IDX 13 26 14 27 15 28 16 29 17 31 18 32 19 33 80 34 20 35 79 36
REMARK SMILES IDX 21 37 22 38 23 39 73 40 24 41 78 42 72 43 74 44 25 45 77 46
REMARK SMILES IDX 71 47 70 48 26 50 58 51 38 52 57 53 39 54 42 55 56 56 75 57
REMARK SMILES IDX 40 58 41 59 55 61 76 62 43 63 27 64 28 65 36 66 29 67 30 68
REMARK SMILES IDX 34 69 37 70 31 71 32 72 35 73 33 74 59 75 60 76 68 77 61 78
REMARK SMILES IDX 62 79 66 80 69 81 63 82 64 83 67 84 65 85 44 86 45 87 53 88
REMARK SMILES IDX 46 89 47 90 51 91 54 92 48 93 49 94 52 95 50 96
REMARK H PARENT 8 6 83 15 15 30 74 49 42 60
REMARK Flexibility Score: inf
ROOT
ATOM      1  C   UNL A   1      36.352  23.118  24.632  1.00  0.00     0.021 C 
ENDROOT
BRANCH   1   2
ATOM      2  C   UNL A   1      36.428  23.391  26.134  1.00  0.00     0.116 C 
BRANCH   2   3
ATOM      3  N   UNL A   1      35.365  22.730  26.834  1.00  0.00    -0.355 N 
ATOM      4  C   UNL A   1      34.057  23.031  26.973  1.00  0.00     0.239 C 
ATOM      5  O   UNL A   1      33.558  22.578  28.006  1.00  0.00    -0.273 OA
ATOM      6  H   UNL A   1      35.640  21.906  27.298  1.00  0.00     0.163 HD
BRANCH   4   7
ATOM      7  C   UNL A   1      33.176  23.685  25.883  1.00  0.00     0.222 C 
BRANCH   7   8
ATOM      8  N   UNL A   1      31.749  23.367  25.817  1.00  0.00    -0.304 N 
BRANCH   8   9
ATOM      9  C   UNL A   1      31.403  22.337  24.833  1.00  0.00     0.211 C 
BRANCH   9  10
ATOM     10  C   UNL A   1      32.273  21.090  24.841  1.00  0.00    -0.085 C 
ATOM     11  C   UNL A   1      33.019  20.021  24.849  1.00  0.00     0.006 C 
ENDBRANCH   9  10
ENDBRANCH   8   9
BRANCH   8  12
ATOM     12  C   UNL A   1      30.709  23.931  26.524  1.00  0.00     0.323 C 
ATOM     13  O   UNL A   1      29.993  23.229  27.251  1.00  0.00    -0.248 OA
ATOM     14  N   UNL A   1      30.508  25.269  26.658  1.00  0.00    -0.308 N 
ATOM     15  H   UNL A   1      30.049  25.475  27.505  1.00  0.00     0.171 HD
BRANCH  14  16
ATOM     16  C   UNL A   1      30.770  26.435  25.929  1.00  0.00     0.044 A 
ATOM     17  C   UNL A   1      30.308  26.511  24.609  1.00  0.00     0.026 A 
ATOM     18  C   UNL A   1      31.525  27.489  26.428  1.00  0.00     0.045 A 
ATOM     19  C   UNL A   1      30.435  27.697  23.879  1.00  0.00     0.004 A 
ATOM     20  C   UNL A   1      31.587  28.709  25.740  1.00  0.00     0.054 A 
ATOM     21  C   UNL A   1      31.030  28.813  24.465  1.00  0.00     0.019 A 
BRANCH  20  22
ATOM     22  C   UNL A   1      32.153  29.885  26.351  1.00  0.00     0.099 C 
ATOM     23  N   UNL A   1      32.645  30.784  26.886  1.00  0.00    -0.192 NA
ENDBRANCH  20  22
ENDBRANCH  14  16
ENDBRANCH   8  12
ENDBRANCH   7   8
ENDBRANCH   4   7
ENDBRANCH   2   3
ENDBRANCH   1   2
BRANCH   1  24
ATOM     24  C   UNL A   1      37.063  21.845  24.147  1.00  0.00     0.002 C 
BRANCH  24  25
ATOM     25  C   UNL A   1      36.868  20.579  24.987  1.00  0.00     0.002 C 
BRANCH  25  26
ATOM     26  C   UNL A   1      38.045  19.611  25.002  1.00  0.00     0.021 C 
BRANCH  26  27
ATOM     27  C   UNL A   1      39.259  20.132  25.745  1.00  0.00     0.116 C 
BRANCH  27  28
ATOM     28  N   UNL A   1      40.236  19.082  25.961  1.00  0.00    -0.352 N 
ATOM     29  C   UNL A   1      41.593  19.209  26.128  1.00  0.00     0.251 C 
ATOM     30  H   UNL A   1      39.883  18.163  25.990  1.00  0.00     0.163 HD
ATOM     31  O   UNL A   1      42.330  18.234  26.034  1.00  0.00    -0.269 OA
BRANCH  29  32
ATOM     32  C   UNL A   1      42.159  20.548  26.400  1.00  0.00     0.039 A 
ATOM     33  C   UNL A   1      42.556  21.349  25.329  1.00  0.00     0.014 A 
ATOM     34  C   UNL A   1      42.277  21.016  27.713  1.00  0.00     0.014 A 
ATOM     35  C   UNL A   1      43.026  22.640  25.574  1.00  0.00     0.010 A 
ATOM     36  C   UNL A   1      42.647  22.334  27.946  1.00  0.00     0.010 A 
ATOM     37  C   UNL A   1      43.047  23.155  26.881  1.00  0.00    -0.014 A 
BRANCH  37  38
ATOM     38  C   UNL A   1      43.518  24.535  27.160  1.00  0.00     0.031 A 
ATOM     39  C   UNL A   1      42.555  25.556  27.706  1.00  0.00     0.074 A 
ATOM     40  C   UNL A   1      44.790  24.882  26.882  1.00  0.00     0.049 A 
ATOM     41  N   UNL A   1      42.748  26.827  27.955  1.00  0.00    -0.248 NA
ATOM     42  C   UNL A   1      41.186  25.094  27.986  1.00  0.00     0.031 C 
ATOM     43  C   UNL A   1      45.805  23.994  26.315  1.00  0.00     0.029 A 
ATOM     44  N   UNL A   1      45.445  26.078  27.034  1.00  0.00    -0.354 N 
ATOM     45  C   UNL A   1      41.528  27.311  28.410  1.00  0.00     0.074 A 
ATOM     46  C   UNL A   1      40.583  26.219  28.340  1.00  0.00     0.031 C 
ATOM     47  C   UNL A   1      46.960  24.667  26.192  1.00  0.00     0.029 A 
ATOM     48  C   UNL A   1      46.756  26.046  26.625  1.00  0.00     0.049 A 
ATOM     49  H   UNL A   1      45.015  26.885  27.402  1.00  0.00     0.167 HD
ATOM     50  C   UNL A   1      41.230  28.547  28.875  1.00  0.00     0.037 A 
ATOM     51  C   UNL A   1      47.684  27.022  26.593  1.00  0.00     0.037 A 
ATOM     52  C   UNL A   1      42.179  29.625  28.963  1.00  0.00     0.049 A 
ATOM     53  C   UNL A   1      47.312  28.398  27.085  1.00  0.00     0.074 A 
ATOM     54  C   UNL A   1      41.986  30.903  29.456  1.00  0.00     0.029 A 
ATOM     55  N   UNL A   1      43.499  29.550  28.546  1.00  0.00    -0.354 N 
ATOM     56  N   UNL A   1      46.173  28.826  27.572  1.00  0.00    -0.248 NA
ATOM     57  C   UNL A   1      48.362  29.426  27.028  1.00  0.00     0.031 C 
ATOM     58  C   UNL A   1      43.174  31.620  29.285  1.00  0.00     0.029 A 
ATOM     59  C   UNL A   1      44.127  30.768  28.750  1.00  0.00     0.049 A 
ATOM     60  H   UNL A   1      43.926  28.751  28.162  1.00  0.00     0.167 HD
ATOM     61  C   UNL A   1      46.379  30.155  27.916  1.00  0.00     0.074 A 
ATOM     62  C   UNL A   1      47.758  30.459  27.596  1.00  0.00     0.031 C 
ATOM     63  C   UNL A   1      45.507  31.047  28.447  1.00  0.00     0.037 A 
BRANCH  50  64
ATOM     64  C   UNL A   1      39.824  28.801  29.336  1.00  0.00     0.064 A 
ATOM     65  C   UNL A   1      38.834  29.268  28.456  1.00  0.00     0.173 A 
ATOM     66  C   UNL A   1      39.444  28.520  30.657  1.00  0.00     0.173 A 
ATOM     67  F   UNL A   1      39.146  29.564  27.185  1.00  0.00    -0.203 F 
ATOM     68  C   UNL A   1      37.525  29.463  28.887  1.00  0.00     0.198 A 
ATOM     69  C   UNL A   1      38.126  28.684  31.076  1.00  0.00     0.198 A 
ATOM     70  F   UNL A   1      40.349  28.068  31.539  1.00  0.00    -0.203 F 
ATOM     71  F   UNL A   1      36.609  29.951  28.040  1.00  0.00    -0.200 F 
ATOM     72  C   UNL A   1      37.169  29.160  30.192  1.00  0.00     0.200 A 
ATOM     73  F   UNL A   1      37.782  28.376  32.333  1.00  0.00    -0.200 F 
ATOM     74  F   UNL A   1      35.905  29.332  30.601  1.00  0.00    -0.200 F 
ENDBRANCH  50  64
BRANCH  51  75
ATOM     75  C   UNL A   1      49.054  26.745  26.083  1.00  0.00     0.064 A 
ATOM     76  C   UNL A   1      49.406  27.041  24.758  1.00  0.00     0.173 A 
ATOM     77  C   UNL A   1      50.026  26.139  26.894  1.00  0.00     0.173 A 
ATOM     78  F   UNL A   1      48.508  27.604  23.937  1.00  0.00    -0.203 F 
ATOM     79  C   UNL A   1      50.660  26.704  24.252  1.00  0.00     0.198 A 
ATOM     80  C   UNL A   1      51.293  25.837  26.397  1.00  0.00     0.198 A 
ATOM     81  F   UNL A   1      49.748  25.840  28.170  1.00  0.00    -0.203 F 
ATOM     82  F   UNL A   1      50.943  26.934  22.962  1.00  0.00    -0.200 F 
ATOM     83  C   UNL A   1      51.603  26.105  25.073  1.00  0.00     0.200 A 
ATOM     84  F   UNL A   1      52.206  25.274  27.198  1.00  0.00    -0.200 F 
ATOM     85  F   UNL A   1      52.806  25.774  24.584  1.00  0.00    -0.200 F 
ENDBRANCH  51  75
BRANCH  63  86
ATOM     86  C   UNL A   1      46.028  32.417  28.773  1.00  0.00     0.064 A 
ATOM     87  C   UNL A   1      45.961  33.475  27.853  1.00  0.00     0.173 A 
ATOM     88  C   UNL A   1      46.565  32.686  30.042  1.00  0.00     0.173 A 
ATOM     89  F   UNL A   1      45.469  33.270  26.622  1.00  0.00    -0.203 F 
ATOM     90  C   UNL A   1      46.440  34.740  28.182  1.00  0.00     0.198 A 
ATOM     91  C   UNL A   1      47.008  33.961  30.380  1.00  0.00     0.198 A 
ATOM     92  F   UNL A   1      46.644  31.713  30.963  1.00  0.00    -0.203 F 
ATOM     93  F   UNL A   1      46.417  35.721  27.269  1.00  0.00    -0.200 F 
ATOM     94  C   UNL A   1      46.954  34.984  29.447  1.00  0.00     0.200 A 
ATOM     95  F   UNL A   1      47.486  34.199  31.609  1.00  0.00    -0.200 F 
ATOM     96  F   UNL A   1      47.404  36.205  29.764  1.00  0.00    -0.200 F 
ENDBRANCH  63  86
ENDBRANCH  37  38
ENDBRANCH  29  32
ENDBRANCH  27  28
ENDBRANCH  26  27
ENDBRANCH  25  26
ENDBRANCH  24  25
ENDBRANCH   1  24
TORSDOF 19
ENDMDL
MODEL 2
REMARK VINA RESULT:     -11.3      1.359      7.874
REMARK SMILES C#CCN(CC(=O)NCCCCCCNC(=O)c1ccc(-c2c3nc(c(-c4c(F)c(F)c(F)c(F)c4F)c4ccc([nH]4)c(-c4c(F)c(F)c(F)c(F)c4F)c4nc(c(-c5c(F)c(F)c(F)c(F)c5F)c5ccc2[nH]5)C=C4)C=C3)cc1)C(=O)Nc1cccc(C#N)c1
REMARK SMILES IDX 10 1 9 2 8 3 6 4 7 5 5 7 4 8 3 9 2 10 1 11 81 12 82 13 83 14
REMARK SMILES IDX 84 16 85 17 91 18 86 19 88 20 87 21 89 22 90 23 11 24 12 25
REMARK SMILES IDX 13 26 14 27 15 28 16 29 17 31 18 32 19 33 80 34 20 35 79 36
REMARK SMILES IDX 21 37 22 38 23 39 73 40 24 41 78 42 72 43 74 44 25 45 77 46
REMARK SMILES IDX 71 47 70 48 26 50 58 51 38 52 57 53 39 54 42 55 56 56 75 57
REMARK SMILES IDX 40 58 41 59 55 61 76 62 43 63 27 64 28 65 36 66 29 67 30 68
REMARK SMILES IDX 34 69 37 70 31 71 32 72 35 73 33 74 59 75 60 76 68 77 61 78
REMARK SMILES IDX 62 79 66 80 69 81 63 82 64 83 67 84 65 85 44 86 45 87 53 88
REMARK SMILES IDX 46 89 47 90 51 91 54 92 48 93 49 94 52 95 50 96
REMARK H PARENT 8 6 83 15 15 30 74 49 42 60
REMARK Flexibility Score: inf
ROOT
ATOM      1  C   UNL A   1      36.388  23.265  25.078  1.00  0.00     0.021 C 
ENDROOT
BRANCH   1   2
ATOM      2  C   UNL A   1      35.120  23.896  24.504  1.00  0.00     0.116 C 
BRANCH   2   3
ATOM      3  N   UNL A   1      34.670  24.987  25.320  1.00  0.00    -0.355 N 
ATOM      4  C   UNL A   1      33.824  26.007  25.072  1.00  0.00     0.239 C 
ATOM      5  O   UNL A   1      34.044  27.005  25.761  1.00  0.00    -0.273 OA
ATOM      6  H   UNL A   1      35.051  24.992  26.229  1.00  0.00     0.163 HD
BRANCH   4   7
ATOM      7  C   UNL A   1      32.561  25.914  24.184  1.00  0.00     0.222 C 
BRANCH   7   8
ATOM      8  N   UNL A   1      31.252  25.706  24.805  1.00  0.00    -0.304 N 
BRANCH   8   9
ATOM      9  C   UNL A   1      30.116  25.864  23.892  1.00  0.00     0.211 C 
BRANCH   9  10
ATOM     10  C   UNL A   1      29.914  27.256  23.316  1.00  0.00    -0.085 C 
ATOM     11  C   UNL A   1      29.741  28.450  22.822  1.00  0.00     0.006 C 
ENDBRANCH   9  10
ENDBRANCH   8   9
BRANCH   8  12
ATOM     12  C   UNL A   1      30.961  25.424  26.122  1.00  0.00     0.323 C 
ATOM     13  O   UNL A   1      30.311  26.227  26.806  1.00  0.00    -0.248 OA
ATOM     14  N   UNL A   1      31.157  24.213  26.709  1.00  0.00    -0.308 N 
ATOM     15  H   UNL A   1      30.514  24.066  27.440  1.00  0.00     0.171 HD
BRANCH  14  16
ATOM     16  C   UNL A   1      32.018  23.118  26.565  1.00  0.00     0.044 A 
ATOM     17  C   UNL A   1      32.976  22.891  27.561  1.00  0.00     0.026 A 
ATOM     18  C   UNL A   1      32.012  22.289  25.451  1.00  0.00     0.045 A 
ATOM     19  C   UNL A   1      33.777  21.745  27.529  1.00  0.00     0.004 A 
ATOM     20  C   UNL A   1      32.749  21.096  25.446  1.00  0.00     0.054 A 
ATOM     21  C   UNL A   1      33.626  20.821  26.496  1.00  0.00     0.019 A 
BRANCH  20  22
ATOM     22  C   UNL A   1      32.566  20.108  24.414  1.00  0.00     0.099 C 
ATOM     23  N   UNL A   1      32.459  19.268  23.627  1.00  0.00    -0.192 NA
ENDBRANCH  20  22
ENDBRANCH  14  16
ENDBRANCH   8  12
ENDBRANCH   7   8
ENDBRANCH   4   7
ENDBRANCH   2   3
ENDBRANCH   1   2
BRANCH   1  24
ATOM     24  C   UNL A   1      36.959  22.075  24.290  1.00  0.00     0.002 C 
BRANCH  24  25
ATOM     25  C   UNL A   1      36.637  20.674  24.818  1.00  0.00     0.002 C 
BRANCH  25  26
ATOM     26  C   UNL A   1      37.827  19.730  24.946  1.00  0.00     0.021 C 
BRANCH  26  27
ATOM     27  C   UNL A   1      38.968  20.289  25.772  1.00  0.00     0.116 C 
BRANCH  27  28
ATOM     28  N   UNL A   1      40.008  19.299  25.974  1.00  0.00    -0.352 N 
ATOM     29  C   UNL A   1      41.354  19.506  26.144  1.00  0.00     0.251 C 
ATOM     30  H   UNL A   1      39.712  18.360  25.989  1.00  0.00     0.163 HD
ATOM     31  O   UNL A   1      42.150  18.581  26.037  1.00  0.00    -0.269 OA
BRANCH  29  32
ATOM     32  C   UNL A   1      41.836  20.874  26.438  1.00  0.00     0.039 A 
ATOM     33  C   UNL A   1      42.059  21.757  25.381  1.00  0.00     0.014 A 
ATOM     34  C   UNL A   1      42.046  21.285  27.758  1.00  0.00     0.014 A 
ATOM     35  C   UNL A   1      42.447  23.070  25.654  1.00  0.00     0.010 A 
ATOM     36  C   UNL A   1      42.332  22.617  28.030  1.00  0.00     0.010 A 
ATOM     37  C   UNL A   1      42.557  23.520  26.980  1.00  0.00    -0.014 A 
BRANCH  37  38
ATOM     38  C   UNL A   1      42.942  24.920  27.292  1.00  0.00     0.031 A 
ATOM     39  C   UNL A   1      44.352  25.380  27.031  1.00  0.00     0.074 A 
ATOM     40  C   UNL A   1      42.045  25.758  27.847  1.00  0.00     0.049 A 
ATOM     41  N   UNL A   1      44.907  26.537  27.293  1.00  0.00    -0.248 NA
ATOM     42  C   UNL A   1      45.267  24.404  26.419  1.00  0.00     0.031 C 
ATOM     43  C   UNL A   1      40.662  25.417  28.183  1.00  0.00     0.029 A 
ATOM     44  N   UNL A   1      42.165  27.070  28.233  1.00  0.00    -0.354 N 
ATOM     45  C   UNL A   1      46.230  26.421  26.886  1.00  0.00     0.074 A 
ATOM     46  C   UNL A   1      46.416  25.064  26.423  1.00  0.00     0.031 C 
ATOM     47  C   UNL A   1      40.056  26.498  28.699  1.00  0.00     0.029 A 
ATOM     48  C   UNL A   1      41.017  27.593  28.776  1.00  0.00     0.049 A 
ATOM     49  H   UNL A   1      42.997  27.587  28.132  1.00  0.00     0.167 HD
ATOM     50  C   UNL A   1      47.195  27.370  26.869  1.00  0.00     0.037 A 
ATOM     51  C   UNL A   1      40.773  28.815  29.288  1.00  0.00     0.037 A 
ATOM     52  C   UNL A   1      47.000  28.725  27.311  1.00  0.00     0.049 A 
ATOM     53  C   UNL A   1      41.879  29.840  29.288  1.00  0.00     0.074 A 
ATOM     54  C   UNL A   1      47.903  29.773  27.298  1.00  0.00     0.029 A 
ATOM     55  N   UNL A   1      45.820  29.219  27.846  1.00  0.00    -0.354 N 
ATOM     56  N   UNL A   1      43.106  29.737  28.841  1.00  0.00    -0.248 NA
ATOM     57  C   UNL A   1      41.559  31.157  29.859  1.00  0.00     0.031 C 
ATOM     58  C   UNL A   1      47.288  30.886  27.878  1.00  0.00     0.029 A 
ATOM     59  C   UNL A   1      45.980  30.552  28.189  1.00  0.00     0.049 A 
ATOM     60  H   UNL A   1      44.993  28.700  27.965  1.00  0.00     0.167 HD
ATOM     61  C   UNL A   1      43.691  30.981  29.038  1.00  0.00     0.074 A 
ATOM     62  C   UNL A   1      42.678  31.828  29.631  1.00  0.00     0.031 C 
ATOM     63  C   UNL A   1      44.953  31.387  28.757  1.00  0.00     0.037 A 
BRANCH  50  64
ATOM     64  C   UNL A   1      48.549  26.983  26.346  1.00  0.00     0.064 A 
ATOM     65  C   UNL A   1      49.543  26.466  27.192  1.00  0.00     0.173 A 
ATOM     66  C   UNL A   1      48.837  27.072  24.976  1.00  0.00     0.173 A 
ATOM     67  F   UNL A   1      49.324  26.370  28.512  1.00  0.00    -0.203 F 
ATOM     68  C   UNL A   1      50.781  26.075  26.689  1.00  0.00     0.198 A 
ATOM     69  C   UNL A   1      50.063  26.648  24.471  1.00  0.00     0.198 A 
ATOM     70  F   UNL A   1      47.921  27.555  24.122  1.00  0.00    -0.203 F 
ATOM     71  F   UNL A   1      51.729  25.626  27.522  1.00  0.00    -0.200 F 
ATOM     72  C   UNL A   1      51.036  26.155  25.328  1.00  0.00     0.200 A 
ATOM     73  F   UNL A   1      50.301  26.713  23.155  1.00  0.00    -0.200 F 
ATOM     74  F   UNL A   1      52.221  25.762  24.843  1.00  0.00    -0.200 F 
ENDBRANCH  50  64
BRANCH  51  75
ATOM     75  C   UNL A   1      39.433  29.147  29.843  1.00  0.00     0.064 A 
ATOM     76  C   UNL A   1      38.468  29.798  29.060  1.00  0.00     0.173 A 
ATOM     77  C   UNL A   1      39.104  28.864  31.177  1.00  0.00     0.173 A 
ATOM     78  F   UNL A   1      38.739  30.108  27.784  1.00  0.00    -0.203 F 
ATOM     79  C   UNL A   1      37.244  30.188  29.601  1.00  0.00     0.198 A 
ATOM     80  C   UNL A   1      37.865  29.221  31.705  1.00  0.00     0.198 A 
ATOM     81  F   UNL A   1      39.985  28.237  31.969  1.00  0.00    -0.203 F 
ATOM     82  F   UNL A   1      36.370  30.872  28.849  1.00  0.00    -0.200 F 
ATOM     83  C   UNL A   1      36.942  29.897  30.922  1.00  0.00     0.200 A 
ATOM     84  F   UNL A   1      37.571  28.922  32.978  1.00  0.00    -0.200 F 
ATOM     85  F   UNL A   1      35.769  30.279  31.444  1.00  0.00    -0.200 F 
ENDBRANCH  51  75
BRANCH  63  86
ATOM     86  C   UNL A   1      45.296  32.824  29.029  1.00  0.00     0.064 A 
ATOM     87  C   UNL A   1      45.888  33.230  30.235  1.00  0.00     0.173 A 
ATOM     88  C   UNL A   1      45.068  33.802  28.048  1.00  0.00     0.173 A 
ATOM     89  F   UNL A   1      46.115  32.338  31.210  1.00  0.00    -0.203 F 
ATOM     90  C   UNL A   1      46.207  34.567  30.459  1.00  0.00     0.198 A 
ATOM     91  C   UNL A   1      45.424  35.130  28.261  1.00  0.00     0.198 A 
ATOM     92  F   UNL A   1      44.514  33.466  26.873  1.00  0.00    -0.203 F 
ATOM     93  F   UNL A   1      46.720  34.941  31.640  1.00  0.00    -0.200 F 
ATOM     94  C   UNL A   1      45.984  35.513  29.470  1.00  0.00     0.200 A 
ATOM     95  F   UNL A   1      45.225  36.039  27.297  1.00  0.00    -0.200 F 
ATOM     96  F   UNL A   1      46.303  36.796  29.685  1.00  0.00    -0.200 F 
ENDBRANCH  63  86
ENDBRANCH  37  38
ENDBRANCH  29  32
ENDBRANCH  27  28
ENDBRANCH  26  27
ENDBRANCH  25  26
ENDBRANCH  24  25
ENDBRANCH   1  24
TORSDOF 19
ENDMDL
MODEL 3
REMARK VINA RESULT:     -11.3      1.515      2.961
REMARK SMILES C#CCN(CC(=O)NCCCCCCNC(=O)c1ccc(-c2c3nc(c(-c4c(F)c(F)c(F)c(F)c4F)c4ccc([nH]4)c(-c4c(F)c(F)c(F)c(F)c4F)c4nc(c(-c5c(F)c(F)c(F)c(F)c5F)c5ccc2[nH]5)C=C4)C=C3)cc1)C(=O)Nc1cccc(C#N)c1
REMARK SMILES IDX 10 1 9 2 8 3 6 4 7 5 5 7 4 8 3 9 2 10 1 11 81 12 82 13 83 14
REMARK SMILES IDX 84 16 85 17 91 18 86 19 88 20 87 21 89 22 90 23 11 24 12 25
REMARK SMILES IDX 13 26 14 27 15 28 16 29 17 31 18 32 19 33 80 34 20 35 79 36
REMARK SMILES IDX 21 37 22 38 23 39 73 40 24 41 78 42 72 43 74 44 25 45 77 46
REMARK SMILES IDX 71 47 70 48 26 50 58 51 38 52 57 53 39 54 42 55 56 56 75 57
REMARK SMILES IDX 40 58 41 59 55 61 76 62 43 63 27 64 28 65 36 66 29 67 30 68
REMARK SMILES IDX 34 69 37 70 31 71 32 72 35 73 33 74 59 75 60 76 68 77 61 78
REMARK SMILES IDX 62 79 66 80 69 81 63 82 64 83 67 84 65 85 44 86 45 87 53 88
REMARK SMILES IDX 46 89 47 90 51 91 54 92 48 93 49 94 52 95 50 96
REMARK H PARENT 8 6 83 15 15 30 74 49 42 60
REMARK Flexibility Score: inf
ROOT
ATOM      1  C   UNL A   1      36.415  23.122  24.611  1.00  0.00     0.021 C 
ENDROOT
BRANCH   1   2
ATOM      2  C   UNL A   1      36.147  24.395  25.413  1.00  0.00     0.116 C 
BRANCH   2   3
ATOM      3  N   UNL A   1      34.741  24.580  25.634  1.00  0.00    -0.355 N 
ATOM      4  C   UNL A   1      33.897  25.569  25.275  1.00  0.00     0.239 C 
ATOM      5  O   UNL A   1      32.924  25.679  26.025  1.00  0.00    -0.273 OA
ATOM      6  H   UNL A   1      34.315  23.852  26.142  1.00  0.00     0.163 HD
BRANCH   4   7
ATOM      7  C   UNL A   1      33.978  26.368  23.953  1.00  0.00     0.222 C 
BRANCH   7   8
ATOM      8  N   UNL A   1      32.934  26.201  22.941  1.00  0.00    -0.304 N 
BRANCH   8   9
ATOM      9  C   UNL A   1      31.859  27.195  23.011  1.00  0.00     0.211 C 
BRANCH   9  10
ATOM     10  C   UNL A   1      30.556  26.722  23.636  1.00  0.00    -0.085 C 
ATOM     11  C   UNL A   1      29.439  26.316  24.173  1.00  0.00     0.006 C 
ENDBRANCH   9  10
ENDBRANCH   8   9
BRANCH   8  12
ATOM     12  C   UNL A   1      32.821  25.224  21.976  1.00  0.00     0.323 C 
ATOM     13  O   UNL A   1      32.884  25.521  20.775  1.00  0.00    -0.248 OA
ATOM     14  N   UNL A   1      32.843  23.889  22.228  1.00  0.00    -0.308 N 
ATOM     15  H   UNL A   1      33.198  23.388  21.458  1.00  0.00     0.171 HD
BRANCH  14  16
ATOM     16  C   UNL A   1      32.501  23.026  23.277  1.00  0.00     0.044 A 
ATOM     17  C   UNL A   1      33.165  21.796  23.369  1.00  0.00     0.026 A 
ATOM     18  C   UNL A   1      31.491  23.302  24.189  1.00  0.00     0.045 A 
ATOM     19  C   UNL A   1      32.951  20.952  24.463  1.00  0.00     0.004 A 
ATOM     20  C   UNL A   1      31.325  22.507  25.332  1.00  0.00     0.054 A 
ATOM     21  C   UNL A   1      32.068  21.334  25.471  1.00  0.00     0.019 A 
BRANCH  20  22
ATOM     22  C   UNL A   1      30.455  22.913  26.407  1.00  0.00     0.099 C 
ATOM     23  N   UNL A   1      29.702  23.206  27.233  1.00  0.00    -0.192 NA
ENDBRANCH  20  22
ENDBRANCH  14  16
ENDBRANCH   8  12
ENDBRANCH   7   8
ENDBRANCH   4   7
ENDBRANCH   2   3
ENDBRANCH   1   2
BRANCH   1  24
ATOM     24  C   UNL A   1      37.229  22.036  25.333  1.00  0.00     0.002 C 
BRANCH  24  25
ATOM     25  C   UNL A   1      36.930  20.581  24.959  1.00  0.00     0.002 C 
BRANCH  25  26
ATOM     26  C   UNL A   1      38.135  19.649  24.927  1.00  0.00     0.021 C 
BRANCH  26  27
ATOM     27  C   UNL A   1      39.317  20.146  25.736  1.00  0.00     0.116 C 
BRANCH  27  28
ATOM     28  N   UNL A   1      40.285  19.089  25.960  1.00  0.00    -0.352 N 
ATOM     29  C   UNL A   1      41.632  19.210  26.190  1.00  0.00     0.251 C 
ATOM     30  H   UNL A   1      39.932  18.170  25.943  1.00  0.00     0.163 HD
ATOM     31  O   UNL A   1      42.374  18.239  26.097  1.00  0.00    -0.269 OA
BRANCH  29  32
ATOM     32  C   UNL A   1      42.185  20.539  26.532  1.00  0.00     0.039 A 
ATOM     33  C   UNL A   1      42.655  21.363  25.509  1.00  0.00     0.014 A 
ATOM     34  C   UNL A   1      42.217  20.975  27.861  1.00  0.00     0.014 A 
ATOM     35  C   UNL A   1      43.113  22.646  25.816  1.00  0.00     0.010 A 
ATOM     36  C   UNL A   1      42.576  22.285  28.150  1.00  0.00     0.010 A 
ATOM     37  C   UNL A   1      43.048  23.129  27.133  1.00  0.00    -0.014 A 
BRANCH  37  38
ATOM     38  C   UNL A   1      43.505  24.500  27.476  1.00  0.00     0.031 A 
ATOM     39  C   UNL A   1      42.492  25.558  27.824  1.00  0.00     0.074 A 
ATOM     40  C   UNL A   1      44.817  24.804  27.431  1.00  0.00     0.049 A 
ATOM     41  N   UNL A   1      42.678  26.827  28.088  1.00  0.00    -0.248 NA
ATOM     42  C   UNL A   1      41.081  25.142  27.856  1.00  0.00     0.031 C 
ATOM     43  C   UNL A   1      45.890  23.876  27.069  1.00  0.00     0.029 A 
ATOM     44  N   UNL A   1      45.472  25.983  27.685  1.00  0.00    -0.354 N 
ATOM     45  C   UNL A   1      41.412  27.356  28.307  1.00  0.00     0.074 A 
ATOM     46  C   UNL A   1      40.461  26.291  28.079  1.00  0.00     0.031 C 
ATOM     47  C   UNL A   1      47.069  24.513  27.151  1.00  0.00     0.029 A 
ATOM     48  C   UNL A   1      46.834  25.904  27.522  1.00  0.00     0.049 A 
ATOM     49  H   UNL A   1      45.009  26.808  27.957  1.00  0.00     0.167 HD
ATOM     50  C   UNL A   1      41.074  28.608  28.694  1.00  0.00     0.037 A 
ATOM     51  C   UNL A   1      47.783  26.852  27.648  1.00  0.00     0.037 A 
ATOM     52  C   UNL A   1      42.025  29.659  28.940  1.00  0.00     0.049 A 
ATOM     53  C   UNL A   1      47.372  28.247  28.046  1.00  0.00     0.074 A 
ATOM     54  C   UNL A   1      41.788  30.951  29.373  1.00  0.00     0.029 A 
ATOM     55  N   UNL A   1      43.396  29.538  28.772  1.00  0.00    -0.354 N 
ATOM     56  N   UNL A   1      46.179  28.717  28.312  1.00  0.00    -0.248 NA
ATOM     57  C   UNL A   1      48.448  29.243  28.169  1.00  0.00     0.031 C 
ATOM     58  C   UNL A   1      43.009  31.630  29.413  1.00  0.00     0.029 A 
ATOM     59  C   UNL A   1      44.016  30.740  29.072  1.00  0.00     0.049 A 
ATOM     60  H   UNL A   1      43.861  28.720  28.483  1.00  0.00     0.167 HD
ATOM     61  C   UNL A   1      46.361  30.046  28.671  1.00  0.00     0.074 A 
ATOM     62  C   UNL A   1      47.784  30.303  28.604  1.00  0.00     0.031 C 
ATOM     63  C   UNL A   1      45.437  30.973  29.022  1.00  0.00     0.037 A 
BRANCH  50  64
ATOM     64  C   UNL A   1      39.616  28.912  28.887  1.00  0.00     0.064 A 
ATOM     65  C   UNL A   1      38.806  29.335  27.821  1.00  0.00     0.173 A 
ATOM     66  C   UNL A   1      39.008  28.723  30.137  1.00  0.00     0.173 A 
ATOM     67  F   UNL A   1      39.339  29.543  26.608  1.00  0.00    -0.203 F 
ATOM     68  C   UNL A   1      37.447  29.576  28.006  1.00  0.00     0.198 A 
ATOM     69  C   UNL A   1      37.642  28.933  30.310  1.00  0.00     0.198 A 
ATOM     70  F   UNL A   1      39.735  28.317  31.189  1.00  0.00    -0.203 F 
ATOM     71  F   UNL A   1      36.703  30.021  26.984  1.00  0.00    -0.200 F 
ATOM     72  C   UNL A   1      36.864  29.365  29.245  1.00  0.00     0.200 A 
ATOM     73  F   UNL A   1      37.079  28.712  31.505  1.00  0.00    -0.200 F 
ATOM     74  F   UNL A   1      35.554  29.580  29.418  1.00  0.00    -0.200 F 
ENDBRANCH  50  64
BRANCH  51  75
ATOM     75  C   UNL A   1      49.214  26.526  27.400  1.00  0.00     0.064 A 
ATOM     76  C   UNL A   1      50.079  26.218  28.460  1.00  0.00     0.173 A 
ATOM     77  C   UNL A   1      49.756  26.559  26.107  1.00  0.00     0.173 A 
ATOM     78  F   UNL A   1      49.614  26.192  29.718  1.00  0.00    -0.203 F 
ATOM     79  C   UNL A   1      51.438  25.997  28.241  1.00  0.00     0.198 A 
ATOM     80  C   UNL A   1      51.108  26.300  25.886  1.00  0.00     0.198 A 
ATOM     81  F   UNL A   1      48.974  26.840  25.055  1.00  0.00    -0.203 F 
ATOM     82  F   UNL A   1      52.254  25.776  29.281  1.00  0.00    -0.200 F 
ATOM     83  C   UNL A   1      51.950  26.035  26.954  1.00  0.00     0.200 A 
ATOM     84  F   UNL A   1      51.595  26.321  24.638  1.00  0.00    -0.200 F 
ATOM     85  F   UNL A   1      53.258  25.830  26.745  1.00  0.00    -0.200 F 
ENDBRANCH  51  75
BRANCH  63  86
ATOM     86  C   UNL A   1      45.933  32.333  29.420  1.00  0.00     0.064 A 
ATOM     87  C   UNL A   1      46.078  33.372  28.488  1.00  0.00     0.173 A 
ATOM     88  C   UNL A   1      46.229  32.612  30.764  1.00  0.00     0.173 A 
ATOM     89  F   UNL A   1      45.822  33.156  27.190  1.00  0.00    -0.203 F 
ATOM     90  C   UNL A   1      46.530  34.628  28.884  1.00  0.00     0.198 A 
ATOM     91  C   UNL A   1      46.643  33.879  31.161  1.00  0.00     0.198 A 
ATOM     92  F   UNL A   1      46.098  31.657  31.698  1.00  0.00    -0.203 F 
ATOM     93  F   UNL A   1      46.715  35.590  27.967  1.00  0.00    -0.200 F 
ATOM     94  C   UNL A   1      46.803  34.884  30.219  1.00  0.00     0.200 A 
ATOM     95  F   UNL A   1      46.888  34.129  32.454  1.00  0.00    -0.200 F 
ATOM     96  F   UNL A   1      47.227  36.097  30.597  1.00  0.00    -0.200 F 
ENDBRANCH  63  86
ENDBRANCH  37  38
ENDBRANCH  29  32
ENDBRANCH  27  28
ENDBRANCH  26  27
ENDBRANCH  25  26
ENDBRANCH  24  25
ENDBRANCH   1  24
TORSDOF 19
ENDMDL
