MODEL 1
REMARK VINA RESULT:     -11.4      0.000      0.000
REMARK SMILES O=C(CCNC(=O)C1CCCC1)NCCCCCCNC(=O)c1ccc(-c2c3nc(c(-c4c(F)c(F)c(F)c(F)c4F)c4ccc([nH]4)c(-c4c(F)c(F)c(F)c(F)c4F)c4nc(c(-c5c(F)c(F)c(F)c(F)c5F)c5ccc2[nH]5)C=C4)C=C3)cc1
REMARK SMILES IDX 16 1 15 2 14 3 13 4 1 5 2 6 3 8 4 9 5 10 6 11 7 13 8 14 9 15
REMARK SMILES IDX 12 16 10 17 11 18 17 19 18 20 19 21 20 22 21 23 22 25 23 26
REMARK SMILES IDX 24 27 85 28 25 29 84 30 26 31 27 32 28 33 78 34 29 35 83 36
REMARK SMILES IDX 77 37 79 38 30 39 82 40 76 41 75 42 31 44 63 45 43 46 62 47
REMARK SMILES IDX 44 48 47 49 61 50 80 51 45 52 46 53 60 55 81 56 48 57 32 58
REMARK SMILES IDX 33 59 41 60 34 61 35 62 39 63 42 64 36 65 37 66 40 67 38 68
REMARK SMILES IDX 64 69 65 70 73 71 66 72 67 73 71 74 74 75 68 76 69 77 72 78
REMARK SMILES IDX 70 79 49 80 50 81 58 82 51 83 52 84 56 85 59 86 53 87 54 88
REMARK SMILES IDX 57 89 55 90
REMARK H PARENT 13 7 5 12 20 24 79 43 47 54
REMARK Flexibility Score: inf
ROOT
ATOM      1  C   UNL A   1      32.669  29.927  27.230  1.00  0.00     0.002 C 
ENDROOT
BRANCH   1   2
ATOM      2  C   UNL A   1      32.879  28.448  26.872  1.00  0.00     0.021 C 
BRANCH   2   3
ATOM      3  C   UNL A   1      31.633  27.577  27.019  1.00  0.00     0.116 C 
BRANCH   3   4
ATOM      4  N   UNL A   1      31.155  27.136  25.726  1.00  0.00    -0.356 N 
ATOM      5  O   UNL A   1      29.773  25.462  26.485  1.00  0.00    -0.275 OA
ATOM      6  C   UNL A   1      30.266  26.101  25.563  1.00  0.00     0.221 C 
ATOM      7  H   UNL A   1      31.484  27.601  24.923  1.00  0.00     0.163 HD
BRANCH   6   8
ATOM      8  C   UNL A   1      29.937  25.823  24.116  1.00  0.00     0.121 C 
BRANCH   8   9
ATOM      9  C   UNL A   1      29.714  27.118  23.344  1.00  0.00     0.125 C 
BRANCH   9  10
ATOM     10  N   UNL A   1      28.322  27.548  23.362  1.00  0.00    -0.355 N 
ATOM     11  C   UNL A   1      27.737  28.747  23.107  1.00  0.00     0.223 C 
ATOM     12  H   UNL A   1      27.686  26.836  23.606  1.00  0.00     0.163 HD
ATOM     13  O   UNL A   1      26.521  28.824  23.298  1.00  0.00    -0.275 OA
BRANCH  11  14
ATOM     14  C   UNL A   1      28.513  29.952  22.600  1.00  0.00     0.078 C 
ATOM     15  C   UNL A   1      28.003  30.549  21.293  1.00  0.00     0.013 C 
ATOM     16  C   UNL A   1      28.612  31.110  23.600  1.00  0.00     0.013 C 
ATOM     17  C   UNL A   1      28.457  31.999  21.347  1.00  0.00     0.001 C 
ATOM     18  C   UNL A   1      28.317  32.384  22.811  1.00  0.00     0.001 C 
ENDBRANCH  11  14
ENDBRANCH   9  10
ENDBRANCH   8   9
ENDBRANCH   6   8
ENDBRANCH   3   4
ENDBRANCH   2   3
ENDBRANCH   1   2
BRANCH   1  19
ATOM     19  C   UNL A   1      31.620  30.659  26.388  1.00  0.00     0.002 C 
BRANCH  19  20
ATOM     20  C   UNL A   1      31.405  32.128  26.757  1.00  0.00     0.021 C 
BRANCH  20  21
ATOM     21  C   UNL A   1      32.682  32.910  27.050  1.00  0.00     0.116 C 
BRANCH  21  22
ATOM     22  N   UNL A   1      32.415  34.235  27.586  1.00  0.00    -0.352 N 
ATOM     23  C   UNL A   1      33.007  34.885  28.638  1.00  0.00     0.251 C 
ATOM     24  H   UNL A   1      31.706  34.740  27.125  1.00  0.00     0.163 HD
ATOM     25  O   UNL A   1      32.541  35.946  29.050  1.00  0.00    -0.269 OA
BRANCH  23  26
ATOM     26  C   UNL A   1      34.193  34.302  29.302  1.00  0.00     0.039 A 
ATOM     27  C   UNL A   1      33.999  33.444  30.388  1.00  0.00     0.014 A 
ATOM     28  C   UNL A   1      35.488  34.600  28.868  1.00  0.00     0.014 A 
ATOM     29  C   UNL A   1      35.099  32.844  31.002  1.00  0.00     0.010 A 
ATOM     30  C   UNL A   1      36.578  33.940  29.430  1.00  0.00     0.010 A 
ATOM     31  C   UNL A   1      36.397  33.059  30.506  1.00  0.00    -0.014 A 
BRANCH  31  32
ATOM     32  C   UNL A   1      37.563  32.358  31.102  1.00  0.00     0.031 A 
ATOM     33  C   UNL A   1      38.060  32.724  32.472  1.00  0.00     0.074 A 
ATOM     34  C   UNL A   1      38.204  31.414  30.383  1.00  0.00     0.049 A 
ATOM     35  N   UNL A   1      39.059  32.219  33.153  1.00  0.00    -0.248 NA
ATOM     36  C   UNL A   1      37.362  33.821  33.157  1.00  0.00     0.031 C 
ATOM     37  C   UNL A   1      37.851  31.006  29.023  1.00  0.00     0.029 A 
ATOM     38  N   UNL A   1      39.283  30.627  30.698  1.00  0.00    -0.354 N 
ATOM     39  C   UNL A   1      39.116  32.944  34.336  1.00  0.00     0.074 A 
ATOM     40  C   UNL A   1      38.088  33.961  34.256  1.00  0.00     0.031 C 
ATOM     41  C   UNL A   1      38.668  30.013  28.637  1.00  0.00     0.029 A 
ATOM     42  C   UNL A   1      39.626  29.743  29.705  1.00  0.00     0.049 A 
ATOM     43  H   UNL A   1      39.765  30.690  31.554  1.00  0.00     0.167 HD
ATOM     44  C   UNL A   1      39.935  32.765  35.401  1.00  0.00     0.037 A 
ATOM     45  C   UNL A   1      40.598  28.813  29.663  1.00  0.00     0.037 A 
ATOM     46  C   UNL A   1      40.944  31.739  35.482  1.00  0.00     0.049 A 
ATOM     47  C   UNL A   1      41.500  28.642  30.855  1.00  0.00     0.074 A 
ATOM     48  C   UNL A   1      41.770  31.423  36.546  1.00  0.00     0.029 A 
ATOM     49  N   UNL A   1      41.271  30.867  34.453  1.00  0.00    -0.354 N 
ATOM     50  N   UNL A   1      41.485  29.269  32.005  1.00  0.00    -0.248 NA
ATOM     51  C   UNL A   1      42.552  27.621  30.742  1.00  0.00     0.031 C 
ATOM     52  C   UNL A   1      42.640  30.405  36.139  1.00  0.00     0.029 A 
ATOM     53  C   UNL A   1      42.313  30.040  34.843  1.00  0.00     0.049 A 
ATOM     54  H   UNL A   1      40.828  30.842  33.574  1.00  0.00     0.167 HD
ATOM     55  C   UNL A   1      42.501  28.703  32.763  1.00  0.00     0.074 A 
ATOM     56  C   UNL A   1      43.099  27.666  31.948  1.00  0.00     0.031 C 
ATOM     57  C   UNL A   1      42.903  29.013  34.021  1.00  0.00     0.037 A 
BRANCH  44  58
ATOM     58  C   UNL A   1      39.784  33.710  36.560  1.00  0.00     0.064 A 
ATOM     59  C   UNL A   1      40.484  34.925  36.623  1.00  0.00     0.173 A 
ATOM     60  C   UNL A   1      38.912  33.404  37.616  1.00  0.00     0.173 A 
ATOM     61  F   UNL A   1      41.339  35.265  35.647  1.00  0.00    -0.203 F 
ATOM     62  C   UNL A   1      40.349  35.776  37.719  1.00  0.00     0.198 A 
ATOM     63  C   UNL A   1      38.752  34.274  38.692  1.00  0.00     0.198 A 
ATOM     64  F   UNL A   1      38.211  32.261  37.605  1.00  0.00    -0.203 F 
ATOM     65  F   UNL A   1      41.076  36.900  37.785  1.00  0.00    -0.200 F 
ATOM     66  C   UNL A   1      39.478  35.454  38.747  1.00  0.00     0.200 A 
ATOM     67  F   UNL A   1      37.898  33.967  39.678  1.00  0.00    -0.200 F 
ATOM     68  F   UNL A   1      39.347  36.274  39.799  1.00  0.00    -0.200 F 
ENDBRANCH  44  58
BRANCH  45  69
ATOM     69  C   UNL A   1      40.741  27.941  28.469  1.00  0.00     0.064 A 
ATOM     70  C   UNL A   1      41.522  28.346  27.376  1.00  0.00     0.173 A 
ATOM     71  C   UNL A   1      40.109  26.692  28.391  1.00  0.00     0.173 A 
ATOM     72  F   UNL A   1      42.129  29.542  27.395  1.00  0.00    -0.203 F 
ATOM     73  C   UNL A   1      41.648  27.545  26.244  1.00  0.00     0.198 A 
ATOM     74  C   UNL A   1      40.260  25.878  27.269  1.00  0.00     0.198 A 
ATOM     75  F   UNL A   1      39.356  26.255  29.410  1.00  0.00    -0.203 F 
ATOM     76  F   UNL A   1      42.362  27.978  25.195  1.00  0.00    -0.200 F 
ATOM     77  C   UNL A   1      41.022  26.309  26.193  1.00  0.00     0.200 A 
ATOM     78  F   UNL A   1      39.666  24.677  27.231  1.00  0.00    -0.200 F 
ATOM     79  F   UNL A   1      41.147  25.535  25.107  1.00  0.00    -0.200 F 
ENDBRANCH  45  69
BRANCH  57  80
ATOM     80  C   UNL A   1      44.023  28.197  34.602  1.00  0.00     0.064 A 
ATOM     81  C   UNL A   1      43.789  26.973  35.247  1.00  0.00     0.173 A 
ATOM     82  C   UNL A   1      45.350  28.641  34.506  1.00  0.00     0.173 A 
ATOM     83  F   UNL A   1      42.536  26.508  35.381  1.00  0.00    -0.203 F 
ATOM     84  C   UNL A   1      44.836  26.246  35.808  1.00  0.00     0.198 A 
ATOM     85  C   UNL A   1      46.399  27.894  35.034  1.00  0.00     0.198 A 
ATOM     86  F   UNL A   1      45.634  29.800  33.892  1.00  0.00    -0.203 F 
ATOM     87  F   UNL A   1      44.579  25.113  36.477  1.00  0.00    -0.200 F 
ATOM     88  C   UNL A   1      46.140  26.703  35.696  1.00  0.00     0.200 A 
ATOM     89  F   UNL A   1      47.661  28.330  34.911  1.00  0.00    -0.200 F 
ATOM     90  F   UNL A   1      47.146  26.003  36.236  1.00  0.00    -0.200 F 
ENDBRANCH  57  80
ENDBRANCH  31  32
ENDBRANCH  23  26
ENDBRANCH  21  22
ENDBRANCH  20  21
ENDBRANCH  19  20
ENDBRANCH   1  19
TORSDOF 16
ENDMDL
MODEL 2
REMARK VINA RESULT:     -11.1      1.082      7.487
REMARK SMILES O=C(CCNC(=O)C1CCCC1)NCCCCCCNC(=O)c1ccc(-c2c3nc(c(-c4c(F)c(F)c(F)c(F)c4F)c4ccc([nH]4)c(-c4c(F)c(F)c(F)c(F)c4F)c4nc(c(-c5c(F)c(F)c(F)c(F)c5F)c5ccc2[nH]5)C=C4)C=C3)cc1
REMARK SMILES IDX 16 1 15 2 14 3 13 4 1 5 2 6 3 8 4 9 5 10 6 11 7 13 8 14 9 15
REMARK SMILES IDX 12 16 10 17 11 18 17 19 18 20 19 21 20 22 21 23 22 25 23 26
REMARK SMILES IDX 24 27 85 28 25 29 84 30 26 31 27 32 28 33 78 34 29 35 83 36
REMARK SMILES IDX 77 37 79 38 30 39 82 40 76 41 75 42 31 44 63 45 43 46 62 47
REMARK SMILES IDX 44 48 47 49 61 50 80 51 45 52 46 53 60 55 81 56 48 57 32 58
REMARK SMILES IDX 33 59 41 60 34 61 35 62 39 63 42 64 36 65 37 66 40 67 38 68
REMARK SMILES IDX 64 69 65 70 73 71 66 72 67 73 71 74 74 75 68 76 69 77 72 78
REMARK SMILES IDX 70 79 49 80 50 81 58 82 51 83 52 84 56 85 59 86 53 87 54 88
REMARK SMILES IDX 57 89 55 90
REMARK H PARENT 13 7 5 12 20 24 79 43 47 54
REMARK Flexibility Score: inf
ROOT
ATOM      1  C   UNL A   1      32.318  29.961  26.936  1.00  0.00     0.002 C 
ENDROOT
BRANCH   1   2
ATOM      2  C   UNL A   1      33.642  29.501  26.307  1.00  0.00     0.021 C 
BRANCH   2   3
ATOM      3  C   UNL A   1      33.635  28.060  25.801  1.00  0.00     0.116 C 
BRANCH   3   4
ATOM      4  N   UNL A   1      32.506  27.825  24.925  1.00  0.00    -0.356 N 
ATOM      5  O   UNL A   1      33.399  28.790  23.038  1.00  0.00    -0.275 OA
ATOM      6  C   UNL A   1      32.477  28.221  23.610  1.00  0.00     0.221 C 
ATOM      7  H   UNL A   1      31.720  27.358  25.291  1.00  0.00     0.163 HD
BRANCH   6   8
ATOM      8  C   UNL A   1      31.182  27.875  22.915  1.00  0.00     0.121 C 
BRANCH   8   9
ATOM      9  C   UNL A   1      30.205  29.044  22.959  1.00  0.00     0.125 C 
BRANCH   9  10
ATOM     10  N   UNL A   1      28.819  28.611  23.073  1.00  0.00    -0.355 N 
ATOM     11  C   UNL A   1      27.651  29.302  23.117  1.00  0.00     0.223 C 
ATOM     12  H   UNL A   1      28.708  27.634  23.130  1.00  0.00     0.163 HD
ATOM     13  O   UNL A   1      26.624  28.647  23.313  1.00  0.00    -0.275 OA
BRANCH  11  14
ATOM     14  C   UNL A   1      27.576  30.809  22.928  1.00  0.00     0.078 C 
ATOM     15  C   UNL A   1      28.535  31.620  23.793  1.00  0.00     0.013 C 
ATOM     16  C   UNL A   1      27.788  31.279  21.484  1.00  0.00     0.013 C 
ATOM     17  C   UNL A   1      28.740  32.907  23.011  1.00  0.00     0.001 C 
ATOM     18  C   UNL A   1      28.743  32.468  21.555  1.00  0.00     0.001 C 
ENDBRANCH  11  14
ENDBRANCH   9  10
ENDBRANCH   8   9
ENDBRANCH   6   8
ENDBRANCH   3   4
ENDBRANCH   2   3
ENDBRANCH   1   2
BRANCH   1  19
ATOM     19  C   UNL A   1      31.478  30.906  26.071  1.00  0.00     0.002 C 
BRANCH  19  20
ATOM     20  C   UNL A   1      31.281  32.309  26.649  1.00  0.00     0.021 C 
BRANCH  20  21
ATOM     21  C   UNL A   1      32.525  32.921  27.286  1.00  0.00     0.116 C 
BRANCH  21  22
ATOM     22  N   UNL A   1      32.333  34.312  27.662  1.00  0.00    -0.352 N 
ATOM     23  C   UNL A   1      32.967  35.049  28.629  1.00  0.00     0.251 C 
ATOM     24  H   UNL A   1      31.647  34.796  27.146  1.00  0.00     0.163 HD
ATOM     25  O   UNL A   1      32.560  36.174  28.914  1.00  0.00    -0.269 OA
BRANCH  23  26
ATOM     26  C   UNL A   1      34.125  34.486  29.355  1.00  0.00     0.039 A 
ATOM     27  C   UNL A   1      33.918  33.926  30.618  1.00  0.00     0.014 A 
ATOM     28  C   UNL A   1      35.410  34.514  28.805  1.00  0.00     0.014 A 
ATOM     29  C   UNL A   1      34.986  33.345  31.304  1.00  0.00     0.010 A 
ATOM     30  C   UNL A   1      36.458  33.865  29.453  1.00  0.00     0.010 A 
ATOM     31  C   UNL A   1      36.259  33.279  30.712  1.00  0.00    -0.014 A 
BRANCH  31  32
ATOM     32  C   UNL A   1      37.381  32.589  31.400  1.00  0.00     0.031 A 
ATOM     33  C   UNL A   1      38.097  31.444  30.739  1.00  0.00     0.074 A 
ATOM     34  C   UNL A   1      37.726  32.970  32.645  1.00  0.00     0.049 A 
ATOM     35  N   UNL A   1      39.099  30.726  31.185  1.00  0.00    -0.248 NA
ATOM     36  C   UNL A   1      37.606  31.032  29.416  1.00  0.00     0.031 C 
ATOM     37  C   UNL A   1      37.074  34.031  33.414  1.00  0.00     0.029 A 
ATOM     38  N   UNL A   1      38.712  32.510  33.483  1.00  0.00    -0.354 N 
ATOM     39  C   UNL A   1      39.348  29.774  30.205  1.00  0.00     0.074 A 
ATOM     40  C   UNL A   1      38.356  29.968  29.169  1.00  0.00     0.031 C 
ATOM     41  C   UNL A   1      37.706  34.172  34.590  1.00  0.00     0.029 A 
ATOM     42  C   UNL A   1      38.779  33.187  34.675  1.00  0.00     0.049 A 
ATOM     43  H   UNL A   1      39.313  31.766  33.250  1.00  0.00     0.167 HD
ATOM     44  C   UNL A   1      40.325  28.837  30.163  1.00  0.00     0.037 A 
ATOM     45  C   UNL A   1      39.617  33.035  35.718  1.00  0.00     0.037 A 
ATOM     46  C   UNL A   1      41.321  28.661  31.190  1.00  0.00     0.049 A 
ATOM     47  C   UNL A   1      40.688  31.981  35.650  1.00  0.00     0.074 A 
ATOM     48  C   UNL A   1      42.401  27.796  31.206  1.00  0.00     0.029 A 
ATOM     49  N   UNL A   1      41.353  29.357  32.390  1.00  0.00    -0.354 N 
ATOM     50  N   UNL A   1      40.973  31.148  34.680  1.00  0.00    -0.248 NA
ATOM     51  C   UNL A   1      41.561  31.855  36.825  1.00  0.00     0.031 C 
ATOM     52  C   UNL A   1      43.047  27.922  32.441  1.00  0.00     0.029 A 
ATOM     53  C   UNL A   1      42.410  28.914  33.170  1.00  0.00     0.049 A 
ATOM     54  H   UNL A   1      40.717  30.062  32.649  1.00  0.00     0.167 HD
ATOM     55  C   UNL A   1      42.073  30.419  35.112  1.00  0.00     0.074 A 
ATOM     56  C   UNL A   1      42.416  30.925  36.425  1.00  0.00     0.031 C 
ATOM     57  C   UNL A   1      42.740  29.422  34.478  1.00  0.00     0.037 A 
BRANCH  44  58
ATOM     58  C   UNL A   1      40.357  27.919  28.973  1.00  0.00     0.064 A 
ATOM     59  C   UNL A   1      41.108  28.218  27.825  1.00  0.00     0.173 A 
ATOM     60  C   UNL A   1      39.640  26.713  28.987  1.00  0.00     0.173 A 
ATOM     61  F   UNL A   1      41.804  29.362  27.752  1.00  0.00    -0.203 F 
ATOM     62  C   UNL A   1      41.105  27.367  26.722  1.00  0.00     0.198 A 
ATOM     63  C   UNL A   1      39.669  25.846  27.898  1.00  0.00     0.198 A 
ATOM     64  F   UNL A   1      38.912  26.371  30.061  1.00  0.00    -0.203 F 
ATOM     65  F   UNL A   1      41.778  27.705  25.615  1.00  0.00    -0.200 F 
ATOM     66  C   UNL A   1      40.392  26.179  26.763  1.00  0.00     0.200 A 
ATOM     67  F   UNL A   1      38.991  24.691  27.945  1.00  0.00    -0.200 F 
ATOM     68  F   UNL A   1      40.392  25.359  25.702  1.00  0.00    -0.200 F 
ENDBRANCH  44  58
BRANCH  45  69
ATOM     69  C   UNL A   1      39.507  33.933  36.896  1.00  0.00     0.064 A 
ATOM     70  C   UNL A   1      40.154  35.178  36.910  1.00  0.00     0.173 A 
ATOM     71  C   UNL A   1      38.761  33.574  38.028  1.00  0.00     0.173 A 
ATOM     72  F   UNL A   1      40.896  35.557  35.860  1.00  0.00    -0.203 F 
ATOM     73  C   UNL A   1      40.074  36.019  38.017  1.00  0.00     0.198 A 
ATOM     74  C   UNL A   1      38.658  34.430  39.122  1.00  0.00     0.198 A 
ATOM     75  F   UNL A   1      38.120  32.397  38.064  1.00  0.00    -0.203 F 
ATOM     76  F   UNL A   1      40.740  37.183  38.021  1.00  0.00    -0.200 F 
ATOM     77  C   UNL A   1      39.321  35.648  39.120  1.00  0.00     0.200 A 
ATOM     78  F   UNL A   1      37.916  34.073  40.181  1.00  0.00    -0.200 F 
ATOM     79  F   UNL A   1      39.239  36.459  40.183  1.00  0.00    -0.200 F 
ENDBRANCH  45  69
BRANCH  57  80
ATOM     80  C   UNL A   1      43.928  28.836  35.187  1.00  0.00     0.064 A 
ATOM     81  C   UNL A   1      43.808  27.728  36.041  1.00  0.00     0.173 A 
ATOM     82  C   UNL A   1      45.207  29.384  35.004  1.00  0.00     0.173 A 
ATOM     83  F   UNL A   1      42.606  27.175  36.264  1.00  0.00    -0.203 F 
ATOM     84  C   UNL A   1      44.915  27.219  36.715  1.00  0.00     0.198 A 
ATOM     85  C   UNL A   1      46.318  28.848  35.649  1.00  0.00     0.198 A 
ATOM     86  F   UNL A   1      45.381  30.438  34.192  1.00  0.00    -0.203 F 
ATOM     87  F   UNL A   1      44.763  26.203  37.576  1.00  0.00    -0.200 F 
ATOM     88  C   UNL A   1      46.170  27.775  36.514  1.00  0.00     0.200 A 
ATOM     89  F   UNL A   1      47.532  29.377  35.441  1.00  0.00    -0.200 F 
ATOM     90  F   UNL A   1      47.233  27.283  37.163  1.00  0.00    -0.200 F 
ENDBRANCH  57  80
ENDBRANCH  31  32
ENDBRANCH  23  26
ENDBRANCH  21  22
ENDBRANCH  20  21
ENDBRANCH  19  20
ENDBRANCH   1  19
TORSDOF 16
ENDMDL
MODEL 3
REMARK VINA RESULT:     -11.1      4.252      7.352
REMARK SMILES O=C(CCNC(=O)C1CCCC1)NCCCCCCNC(=O)c1ccc(-c2c3nc(c(-c4c(F)c(F)c(F)c(F)c4F)c4ccc([nH]4)c(-c4c(F)c(F)c(F)c(F)c4F)c4nc(c(-c5c(F)c(F)c(F)c(F)c5F)c5ccc2[nH]5)C=C4)C=C3)cc1
REMARK SMILES IDX 16 1 15 2 14 3 13 4 1 5 2 6 3 8 4 9 5 10 6 11 7 13 8 14 9 15
REMARK SMILES IDX 12 16 10 17 11 18 17 19 18 20 19 21 20 22 21 23 22 25 23 26
REMARK SMILES IDX 24 27 85 28 25 29 84 30 26 31 27 32 28 33 78 34 29 35 83 36
REMARK SMILES IDX 77 37 79 38 30 39 82 40 76 41 75 42 31 44 63 45 43 46 62 47
REMARK SMILES IDX 44 48 47 49 61 50 80 51 45 52 46 53 60 55 81 56 48 57 32 58
REMARK SMILES IDX 33 59 41 60 34 61 35 62 39 63 42 64 36 65 37 66 40 67 38 68
REMARK SMILES IDX 64 69 65 70 73 71 66 72 67 73 71 74 74 75 68 76 69 77 72 78
REMARK SMILES IDX 70 79 49 80 50 81 58 82 51 83 52 84 56 85 59 86 53 87 54 88
REMARK SMILES IDX 57 89 55 90
REMARK H PARENT 13 7 5 12 20 24 79 43 47 54
REMARK Flexibility Score: inf
ROOT
ATOM      1  C   UNL A   1      32.927  35.588  29.648  1.00  0.00     0.002 C 
ENDROOT
BRANCH   1   2
ATOM      2  C   UNL A   1      33.219  36.861  30.455  1.00  0.00     0.021 C 
BRANCH   2   3
ATOM      3  C   UNL A   1      32.893  36.756  31.944  1.00  0.00     0.116 C 
BRANCH   3   4
ATOM      4  N   UNL A   1      33.017  35.389  32.404  1.00  0.00    -0.356 N 
ATOM      5  O   UNL A   1      35.150  35.560  33.247  1.00  0.00    -0.275 OA
ATOM      6  C   UNL A   1      34.146  34.897  33.013  1.00  0.00     0.221 C 
ATOM      7  H   UNL A   1      32.253  34.781  32.274  1.00  0.00     0.163 HD
BRANCH   6   8
ATOM      8  C   UNL A   1      34.033  33.438  33.385  1.00  0.00     0.121 C 
BRANCH   8   9
ATOM      9  C   UNL A   1      34.922  32.575  32.498  1.00  0.00     0.125 C 
BRANCH   9  10
ATOM     10  N   UNL A   1      36.272  32.434  33.027  1.00  0.00    -0.355 N 
ATOM     11  C   UNL A   1      37.471  32.902  32.593  1.00  0.00     0.223 C 
ATOM     12  H   UNL A   1      36.326  31.899  33.852  1.00  0.00     0.163 HD
ATOM     13  O   UNL A   1      38.470  32.532  33.215  1.00  0.00    -0.275 OA
BRANCH  11  14
ATOM     14  C   UNL A   1      37.610  33.846  31.409  1.00  0.00     0.078 C 
ATOM     15  C   UNL A   1      38.942  34.582  31.318  1.00  0.00     0.013 C 
ATOM     16  C   UNL A   1      37.380  33.188  30.043  1.00  0.00     0.013 C 
ATOM     17  C   UNL A   1      39.088  34.901  29.839  1.00  0.00     0.001 C 
ATOM     18  C   UNL A   1      38.498  33.691  29.132  1.00  0.00     0.001 C 
ENDBRANCH  11  14
ENDBRANCH   9  10
ENDBRANCH   8   9
ENDBRANCH   6   8
ENDBRANCH   3   4
ENDBRANCH   2   3
ENDBRANCH   1   2
BRANCH   1  19
ATOM     19  C   UNL A   1      34.125  35.004  28.894  1.00  0.00     0.002 C 
BRANCH  19  20
ATOM     20  C   UNL A   1      33.842  33.704  28.138  1.00  0.00     0.021 C 
BRANCH  20  21
ATOM     21  C   UNL A   1      34.582  32.480  28.668  1.00  0.00     0.116 C 
BRANCH  21  22
ATOM     22  N   UNL A   1      33.983  31.231  28.227  1.00  0.00    -0.352 N 
ATOM     23  C   UNL A   1      34.575  30.018  27.983  1.00  0.00     0.251 C 
ATOM     24  H   UNL A   1      33.008  31.259  28.083  1.00  0.00     0.163 HD
ATOM     25  O   UNL A   1      33.930  29.110  27.460  1.00  0.00    -0.269 OA
BRANCH  23  26
ATOM     26  C   UNL A   1      35.998  29.803  28.320  1.00  0.00     0.039 A 
ATOM     27  C   UNL A   1      36.322  29.347  29.600  1.00  0.00     0.014 A 
ATOM     28  C   UNL A   1      37.011  30.055  27.390  1.00  0.00     0.014 A 
ATOM     29  C   UNL A   1      37.654  29.091  29.929  1.00  0.00     0.010 A 
ATOM     30  C   UNL A   1      38.330  29.724  27.693  1.00  0.00     0.010 A 
ATOM     31  C   UNL A   1      38.667  29.244  28.967  1.00  0.00    -0.014 A 
BRANCH  31  32
ATOM     32  C   UNL A   1      40.075  28.893  29.284  1.00  0.00     0.031 A 
ATOM     33  C   UNL A   1      40.915  29.795  30.145  1.00  0.00     0.074 A 
ATOM     34  C   UNL A   1      40.612  27.775  28.757  1.00  0.00     0.049 A 
ATOM     35  N   UNL A   1      42.158  29.650  30.530  1.00  0.00    -0.248 NA
ATOM     36  C   UNL A   1      40.284  31.038  30.612  1.00  0.00     0.031 C 
ATOM     37  C   UNL A   1      39.917  26.846  27.864  1.00  0.00     0.029 A 
ATOM     38  N   UNL A   1      41.864  27.230  28.896  1.00  0.00    -0.354 N 
ATOM     39  C   UNL A   1      42.461  30.785  31.271  1.00  0.00     0.074 A 
ATOM     40  C   UNL A   1      41.290  31.636  31.233  1.00  0.00     0.031 C 
ATOM     41  C   UNL A   1      40.736  25.823  27.573  1.00  0.00     0.029 A 
ATOM     42  C   UNL A   1      42.024  26.044  28.224  1.00  0.00     0.049 A 
ATOM     43  H   UNL A   1      42.578  27.650  29.427  1.00  0.00     0.167 HD
ATOM     44  C   UNL A   1      43.602  31.082  31.938  1.00  0.00     0.037 A 
ATOM     45  C   UNL A   1      43.087  25.222  28.147  1.00  0.00     0.037 A 
ATOM     46  C   UNL A   1      44.758  30.222  31.987  1.00  0.00     0.049 A 
ATOM     47  C   UNL A   1      44.345  25.580  28.891  1.00  0.00     0.074 A 
ATOM     48  C   UNL A   1      45.931  30.393  32.700  1.00  0.00     0.029 A 
ATOM     49  N   UNL A   1      44.889  29.032  31.286  1.00  0.00    -0.354 N 
ATOM     50  N   UNL A   1      44.589  26.609  29.663  1.00  0.00    -0.248 NA
ATOM     51  C   UNL A   1      45.476  24.650  28.754  1.00  0.00     0.031 C 
ATOM     52  C   UNL A   1      46.797  29.341  32.379  1.00  0.00     0.029 A 
ATOM     53  C   UNL A   1      46.139  28.478  31.518  1.00  0.00     0.049 A 
ATOM     54  H   UNL A   1      44.196  28.639  30.708  1.00  0.00     0.167 HD
ATOM     55  C   UNL A   1      45.886  26.439  30.130  1.00  0.00     0.074 A 
ATOM     56  C   UNL A   1      46.369  25.194  29.568  1.00  0.00     0.031 C 
ATOM     57  C   UNL A   1      46.611  27.240  30.949  1.00  0.00     0.037 A 
BRANCH  44  58
ATOM     58  C   UNL A   1      43.662  32.399  32.659  1.00  0.00     0.064 A 
ATOM     59  C   UNL A   1      44.149  33.562  32.042  1.00  0.00     0.173 A 
ATOM     60  C   UNL A   1      43.210  32.505  33.984  1.00  0.00     0.173 A 
ATOM     61  F   UNL A   1      44.604  33.518  30.780  1.00  0.00    -0.203 F 
ATOM     62  C   UNL A   1      44.220  34.769  32.735  1.00  0.00     0.198 A 
ATOM     63  C   UNL A   1      43.248  33.721  34.662  1.00  0.00     0.198 A 
ATOM     64  F   UNL A   1      42.727  31.429  34.622  1.00  0.00    -0.203 F 
ATOM     65  F   UNL A   1      44.747  35.849  32.145  1.00  0.00    -0.200 F 
ATOM     66  C   UNL A   1      43.763  34.848  34.041  1.00  0.00     0.200 A 
ATOM     67  F   UNL A   1      42.792  33.799  35.920  1.00  0.00    -0.200 F 
ATOM     68  F   UNL A   1      43.829  36.010  34.707  1.00  0.00    -0.200 F 
ENDBRANCH  44  58
BRANCH  45  69
ATOM     69  C   UNL A   1      42.995  23.957  27.373  1.00  0.00     0.064 A 
ATOM     70  C   UNL A   1      42.556  22.774  27.987  1.00  0.00     0.173 A 
ATOM     71  C   UNL A   1      43.339  23.898  26.016  1.00  0.00     0.173 A 
ATOM     72  F   UNL A   1      42.234  22.775  29.289  1.00  0.00    -0.203 F 
ATOM     73  C   UNL A   1      42.483  21.578  27.276  1.00  0.00     0.198 A 
ATOM     74  C   UNL A   1      43.238  22.707  25.299  1.00  0.00     0.198 A 
ATOM     75  F   UNL A   1      43.760  25.001  25.381  1.00  0.00    -0.203 F 
ATOM     76  F   UNL A   1      42.104  20.453  27.899  1.00  0.00    -0.200 F 
ATOM     77  C   UNL A   1      42.819  21.546  25.931  1.00  0.00     0.200 A 
ATOM     78  F   UNL A   1      43.548  22.684  23.995  1.00  0.00    -0.200 F 
ATOM     79  F   UNL A   1      42.744  20.397  25.246  1.00  0.00    -0.200 F 
ENDBRANCH  45  69
BRANCH  57  80
ATOM     80  C   UNL A   1      47.993  26.776  31.312  1.00  0.00     0.064 A 
ATOM     81  C   UNL A   1      49.126  27.192  30.595  1.00  0.00     0.173 A 
ATOM     82  C   UNL A   1      48.190  25.909  32.398  1.00  0.00     0.173 A 
ATOM     83  F   UNL A   1      48.993  28.008  29.538  1.00  0.00    -0.203 F 
ATOM     84  C   UNL A   1      50.395  26.725  30.926  1.00  0.00     0.198 A 
ATOM     85  C   UNL A   1      49.465  25.475  32.750  1.00  0.00     0.198 A 
ATOM     86  F   UNL A   1      47.144  25.487  33.125  1.00  0.00    -0.203 F 
ATOM     87  F   UNL A   1      51.453  27.084  30.184  1.00  0.00    -0.200 F 
ATOM     88  C   UNL A   1      50.565  25.872  32.006  1.00  0.00     0.200 A 
ATOM     89  F   UNL A   1      49.628  24.663  33.804  1.00  0.00    -0.200 F 
ATOM     90  F   UNL A   1      51.787  25.425  32.323  1.00  0.00    -0.200 F 
ENDBRANCH  57  80
ENDBRANCH  31  32
ENDBRANCH  23  26
ENDBRANCH  21  22
ENDBRANCH  20  21
ENDBRANCH  19  20
ENDBRANCH   1  19
TORSDOF 16
ENDMDL
