MODEL 1
REMARK VINA RESULT:     -12.2      0.000      0.000
REMARK SMILES CCC[C@@H]1C[N@@H+](Cc2cc(OC)c3c(c2)OCO3)C[C@H]1C(=O)NCCCCCCNC(=O)c1ccc(-c2c3nc(c(-c4c(F)c(F)c(F)c(F)c4F)c4ccc([nH]4)c(-c4c(F)c(F)c(F)c(F)c4F)c4nc(c(-c5c(F)c(F)c(F)c(F)c5F)c5ccc2[nH]5)C=C4)C=C3)cc1
REMARK SMILES IDX 26 1 25 2 24 3 23 4 21 5 22 6 20 8 4 9 5 10 6 11 19 12 3 14
REMARK SMILES IDX 2 15 1 16 7 17 8 18 9 19 15 20 10 21 14 22 13 23 16 24 18 25
REMARK SMILES IDX 17 26 11 27 12 28 27 29 28 30 29 31 30 32 31 33 32 35 33 36
REMARK SMILES IDX 34 37 95 38 35 39 94 40 36 41 37 42 38 43 88 44 39 45 93 46
REMARK SMILES IDX 87 47 89 48 40 49 92 50 86 51 85 52 41 54 73 55 53 56 72 57
REMARK SMILES IDX 54 58 57 59 71 60 90 61 55 62 56 63 70 65 91 66 58 67 42 68
REMARK SMILES IDX 43 69 51 70 44 71 45 72 49 73 52 74 46 75 47 76 50 77 48 78
REMARK SMILES IDX 74 79 75 80 83 81 76 82 77 83 81 84 84 85 78 86 79 87 82 88
REMARK SMILES IDX 80 89 59 90 60 91 68 92 61 93 62 94 66 95 69 96 63 97 64 98
REMARK SMILES IDX 67 99 65 100
REMARK H PARENT 23 7 6 13 30 34 89 53 57 64
REMARK Flexibility Score: inf
ROOT
ATOM      1  C   UNL A   1      32.329  30.050  26.843  1.00  0.00     0.002 C 
ENDROOT
BRANCH   1   2
ATOM      2  C   UNL A   1      31.691  28.759  27.385  1.00  0.00     0.021 C 
BRANCH   2   3
ATOM      3  C   UNL A   1      32.219  27.419  26.803  1.00  0.00     0.116 C 
BRANCH   3   4
ATOM      4  N   UNL A   1      31.332  26.242  26.755  1.00  0.00    -0.356 N 
ATOM      5  C   UNL A   1      30.714  25.436  25.833  1.00  0.00     0.229 C 
ATOM      6  O   UNL A   1      30.275  24.374  26.304  1.00  0.00    -0.275 OA
ATOM      7  H   UNL A   1      31.116  25.941  27.668  1.00  0.00     0.163 HD
BRANCH   5   8
ATOM      8  C   UNL A   1      30.450  25.701  24.322  1.00  0.00     0.142 C 
ATOM      9  C   UNL A   1      31.474  26.654  23.597  1.00  0.00     0.062 C 
ATOM     10  C   UNL A   1      31.477  26.119  22.165  1.00  0.00     0.267 C 
ATOM     11  N   UNL A   1      31.396  24.678  22.324  1.00  0.00    -0.330 N 
ATOM     12  C   UNL A   1      30.401  24.492  23.384  1.00  0.00     0.276 C 
ATOM     13  H   UNL A   1      31.080  24.198  21.481  1.00  0.00     0.348 HD
BRANCH   9  14
ATOM     14  C   UNL A   1      31.360  28.181  23.654  1.00  0.00     0.010 C 
BRANCH  14  15
ATOM     15  C   UNL A   1      32.517  28.883  22.882  1.00  0.00    -0.003 C 
ATOM     16  C   UNL A   1      33.927  28.709  23.441  1.00  0.00     0.004 C 
ENDBRANCH  14  15
ENDBRANCH   9  14
BRANCH  11  17
ATOM     17  C   UNL A   1      32.693  23.959  22.406  1.00  0.00     0.299 C 
BRANCH  17  18
ATOM     18  C   UNL A   1      32.868  22.659  23.197  1.00  0.00     0.014 A 
ATOM     19  C   UNL A   1      33.497  22.673  24.444  1.00  0.00     0.060 A 
ATOM     20  C   UNL A   1      32.345  21.426  22.810  1.00  0.00     0.060 A 
ATOM     21  C   UNL A   1      33.773  21.578  25.262  1.00  0.00     0.165 A 
ATOM     22  C   UNL A   1      32.536  20.330  23.658  1.00  0.00     0.170 A 
ATOM     23  C   UNL A   1      33.248  20.392  24.845  1.00  0.00     0.207 A 
ATOM     24  O   UNL A   1      32.038  19.080  23.436  1.00  0.00    -0.453 OA
ATOM     25  O   UNL A   1      33.315  19.194  25.478  1.00  0.00    -0.450 OA
ATOM     26  C   UNL A   1      32.497  18.385  24.615  1.00  0.00     0.468 C 
BRANCH  21  27
ATOM     27  O   UNL A   1      34.530  21.886  26.345  1.00  0.00    -0.493 OA
ATOM     28  C   UNL A   1      33.970  21.724  27.636  1.00  0.00     0.278 C 
ENDBRANCH  21  27
ENDBRANCH  17  18
ENDBRANCH  11  17
ENDBRANCH   5   8
ENDBRANCH   3   4
ENDBRANCH   2   3
ENDBRANCH   1   2
BRANCH   1  29
ATOM     29  C   UNL A   1      31.344  30.960  26.079  1.00  0.00     0.002 C 
BRANCH  29  30
ATOM     30  C   UNL A   1      31.295  32.434  26.512  1.00  0.00     0.021 C 
BRANCH  30  31
ATOM     31  C   UNL A   1      32.552  32.939  27.220  1.00  0.00     0.116 C 
BRANCH  31  32
ATOM     32  N   UNL A   1      32.425  34.333  27.628  1.00  0.00    -0.352 N 
ATOM     33  C   UNL A   1      33.031  35.012  28.661  1.00  0.00     0.251 C 
ATOM     34  H   UNL A   1      31.810  34.873  27.080  1.00  0.00     0.163 HD
ATOM     35  O   UNL A   1      32.607  36.106  29.014  1.00  0.00    -0.269 OA
BRANCH  33  36
ATOM     36  C   UNL A   1      34.198  34.428  29.357  1.00  0.00     0.039 A 
ATOM     37  C   UNL A   1      34.010  33.765  30.575  1.00  0.00     0.014 A 
ATOM     38  C   UNL A   1      35.486  34.588  28.842  1.00  0.00     0.014 A 
ATOM     39  C   UNL A   1      35.107  33.208  31.242  1.00  0.00     0.010 A 
ATOM     40  C   UNL A   1      36.570  33.985  29.477  1.00  0.00     0.010 A 
ATOM     41  C   UNL A   1      36.394  33.290  30.684  1.00  0.00    -0.014 A 
BRANCH  41  42
ATOM     42  C   UNL A   1      37.567  32.661  31.346  1.00  0.00     0.031 A 
ATOM     43  C   UNL A   1      38.289  31.520  30.684  1.00  0.00     0.074 A 
ATOM     44  C   UNL A   1      37.939  33.068  32.575  1.00  0.00     0.049 A 
ATOM     45  N   UNL A   1      39.272  30.783  31.139  1.00  0.00    -0.248 NA
ATOM     46  C   UNL A   1      37.826  31.138  29.341  1.00  0.00     0.031 C 
ATOM     47  C   UNL A   1      37.297  34.137  33.341  1.00  0.00     0.029 A 
ATOM     48  N   UNL A   1      38.938  32.620  33.404  1.00  0.00    -0.354 N 
ATOM     49  C   UNL A   1      39.533  29.846  30.148  1.00  0.00     0.074 A 
ATOM     50  C   UNL A   1      38.572  30.073  29.089  1.00  0.00     0.031 C 
ATOM     51  C   UNL A   1      37.928  34.274  34.519  1.00  0.00     0.029 A 
ATOM     52  C   UNL A   1      38.992  33.279  34.609  1.00  0.00     0.049 A 
ATOM     53  H   UNL A   1      39.557  31.894  33.159  1.00  0.00     0.167 HD
ATOM     54  C   UNL A   1      40.499  28.896  30.114  1.00  0.00     0.037 A 
ATOM     55  C   UNL A   1      39.803  33.094  35.668  1.00  0.00     0.037 A 
ATOM     56  C   UNL A   1      41.468  28.686  31.158  1.00  0.00     0.049 A 
ATOM     57  C   UNL A   1      40.861  32.024  35.610  1.00  0.00     0.074 A 
ATOM     58  C   UNL A   1      42.521  27.788  31.192  1.00  0.00     0.029 A 
ATOM     59  N   UNL A   1      41.501  29.386  32.356  1.00  0.00    -0.354 N 
ATOM     60  N   UNL A   1      41.138  31.186  34.642  1.00  0.00    -0.248 NA
ATOM     61  C   UNL A   1      41.721  31.879  36.793  1.00  0.00     0.031 C 
ATOM     62  C   UNL A   1      43.162  27.913  32.428  1.00  0.00     0.029 A 
ATOM     63  C   UNL A   1      42.543  28.924  33.144  1.00  0.00     0.049 A 
ATOM     64  H   UNL A   1      40.876  30.104  32.608  1.00  0.00     0.167 HD
ATOM     65  C   UNL A   1      42.219  30.436  35.084  1.00  0.00     0.074 A 
ATOM     66  C   UNL A   1      42.557  30.927  36.403  1.00  0.00     0.031 C 
ATOM     67  C   UNL A   1      42.873  29.430  34.452  1.00  0.00     0.037 A 
BRANCH  54  68
ATOM     68  C   UNL A   1      40.560  28.011  28.901  1.00  0.00     0.064 A 
ATOM     69  C   UNL A   1      39.820  26.823  28.820  1.00  0.00     0.173 A 
ATOM     70  C   UNL A   1      41.339  28.375  27.792  1.00  0.00     0.173 A 
ATOM     71  F   UNL A   1      39.068  26.424  29.856  1.00  0.00    -0.203 F 
ATOM     72  C   UNL A   1      39.882  26.014  27.688  1.00  0.00     0.198 A 
ATOM     73  C   UNL A   1      41.374  27.580  26.648  1.00  0.00     0.198 A 
ATOM     74  F   UNL A   1      42.060  29.506  27.811  1.00  0.00    -0.203 F 
ATOM     75  F   UNL A   1      39.207  24.857  27.655  1.00  0.00    -0.200 F 
ATOM     76  C   UNL A   1      40.653  26.397  26.601  1.00  0.00     0.200 A 
ATOM     77  F   UNL A   1      42.109  27.958  25.592  1.00  0.00    -0.200 F 
ATOM     78  F   UNL A   1      40.707  25.621  25.510  1.00  0.00    -0.200 F 
ENDBRANCH  54  68
BRANCH  55  79
ATOM     79  C   UNL A   1      39.666  33.962  36.868  1.00  0.00     0.064 A 
ATOM     80  C   UNL A   1      40.340  35.188  36.947  1.00  0.00     0.173 A 
ATOM     81  C   UNL A   1      38.868  33.584  37.958  1.00  0.00     0.173 A 
ATOM     82  F   UNL A   1      41.132  35.583  35.940  1.00  0.00    -0.203 F 
ATOM     83  C   UNL A   1      40.237  35.995  38.078  1.00  0.00     0.198 A 
ATOM     84  C   UNL A   1      38.742  34.405  39.076  1.00  0.00     0.198 A 
ATOM     85  F   UNL A   1      38.199  32.421  37.930  1.00  0.00    -0.203 F 
ATOM     86  F   UNL A   1      40.927  37.142  38.146  1.00  0.00    -0.200 F 
ATOM     87  C   UNL A   1      39.433  35.606  39.139  1.00  0.00     0.200 A 
ATOM     88  F   UNL A   1      37.954  34.032  40.094  1.00  0.00    -0.200 F 
ATOM     89  F   UNL A   1      39.330  36.384  40.225  1.00  0.00    -0.200 F 
ENDBRANCH  55  79
BRANCH  67  90
ATOM     90  C   UNL A   1      44.045  28.817  35.162  1.00  0.00     0.064 A 
ATOM     91  C   UNL A   1      43.895  27.709  36.009  1.00  0.00     0.173 A 
ATOM     92  C   UNL A   1      45.340  29.317  34.956  1.00  0.00     0.173 A 
ATOM     93  F   UNL A   1      42.676  27.203  36.251  1.00  0.00    -0.203 F 
ATOM     94  C   UNL A   1      44.997  27.138  36.641  1.00  0.00     0.198 A 
ATOM     95  C   UNL A   1      46.442  28.724  35.567  1.00  0.00     0.198 A 
ATOM     96  F   UNL A   1      45.538  30.371  34.151  1.00  0.00    -0.203 F 
ATOM     97  F   UNL A   1      44.826  26.107  37.480  1.00  0.00    -0.200 F 
ATOM     98  C   UNL A   1      46.269  27.641  36.413  1.00  0.00     0.200 A 
ATOM     99  F   UNL A   1      47.672  29.204  35.335  1.00  0.00    -0.200 F 
ATOM    100  F   UNL A   1      47.329  27.083  37.014  1.00  0.00    -0.200 F 
ENDBRANCH  67  90
ENDBRANCH  41  42
ENDBRANCH  33  36
ENDBRANCH  31  32
ENDBRANCH  30  31
ENDBRANCH  29  30
ENDBRANCH   1  29
TORSDOF 18
ENDMDL
MODEL 2
REMARK VINA RESULT:     -12.2      0.394      1.643
REMARK SMILES CCC[C@@H]1C[N@@H+](Cc2cc(OC)c3c(c2)OCO3)C[C@H]1C(=O)NCCCCCCNC(=O)c1ccc(-c2c3nc(c(-c4c(F)c(F)c(F)c(F)c4F)c4ccc([nH]4)c(-c4c(F)c(F)c(F)c(F)c4F)c4nc(c(-c5c(F)c(F)c(F)c(F)c5F)c5ccc2[nH]5)C=C4)C=C3)cc1
REMARK SMILES IDX 26 1 25 2 24 3 23 4 21 5 22 6 20 8 4 9 5 10 6 11 19 12 3 14
REMARK SMILES IDX 2 15 1 16 7 17 8 18 9 19 15 20 10 21 14 22 13 23 16 24 18 25
REMARK SMILES IDX 17 26 11 27 12 28 27 29 28 30 29 31 30 32 31 33 32 35 33 36
REMARK SMILES IDX 34 37 95 38 35 39 94 40 36 41 37 42 38 43 88 44 39 45 93 46
REMARK SMILES IDX 87 47 89 48 40 49 92 50 86 51 85 52 41 54 73 55 53 56 72 57
REMARK SMILES IDX 54 58 57 59 71 60 90 61 55 62 56 63 70 65 91 66 58 67 42 68
REMARK SMILES IDX 43 69 51 70 44 71 45 72 49 73 52 74 46 75 47 76 50 77 48 78
REMARK SMILES IDX 74 79 75 80 83 81 76 82 77 83 81 84 84 85 78 86 79 87 82 88
REMARK SMILES IDX 80 89 59 90 60 91 68 92 61 93 62 94 66 95 69 96 63 97 64 98
REMARK SMILES IDX 67 99 65 100
REMARK H PARENT 23 7 6 13 30 34 89 53 57 64
REMARK Flexibility Score: inf
ROOT
ATOM      1  C   UNL A   1      32.572  30.021  26.703  1.00  0.00     0.002 C 
ENDROOT
BRANCH   1   2
ATOM      2  C   UNL A   1      32.231  28.748  27.499  1.00  0.00     0.021 C 
BRANCH   2   3
ATOM      3  C   UNL A   1      32.359  27.395  26.747  1.00  0.00     0.116 C 
BRANCH   3   4
ATOM      4  N   UNL A   1      31.245  26.430  26.782  1.00  0.00    -0.356 N 
ATOM      5  C   UNL A   1      30.498  25.663  25.924  1.00  0.00     0.229 C 
ATOM      6  O   UNL A   1      29.830  24.781  26.487  1.00  0.00    -0.275 OA
ATOM      7  H   UNL A   1      30.942  26.293  27.710  1.00  0.00     0.163 HD
BRANCH   5   8
ATOM      8  C   UNL A   1      30.342  25.792  24.381  1.00  0.00     0.142 C 
ATOM      9  C   UNL A   1      31.396  26.707  23.652  1.00  0.00     0.062 C 
ATOM     10  C   UNL A   1      31.517  26.052  22.276  1.00  0.00     0.267 C 
ATOM     11  N   UNL A   1      31.455  24.629  22.553  1.00  0.00    -0.330 N 
ATOM     12  C   UNL A   1      30.388  24.506  23.551  1.00  0.00     0.276 C 
ATOM     13  H   UNL A   1      31.213  24.069  21.735  1.00  0.00     0.348 HD
BRANCH   9  14
ATOM     14  C   UNL A   1      31.246  28.230  23.567  1.00  0.00     0.010 C 
BRANCH  14  15
ATOM     15  C   UNL A   1      29.868  28.648  22.971  1.00  0.00    -0.003 C 
ATOM     16  C   UNL A   1      29.877  29.746  21.912  1.00  0.00     0.004 C 
ENDBRANCH  14  15
ENDBRANCH   9  14
BRANCH  11  17
ATOM     17  C   UNL A   1      32.758  23.955  22.791  1.00  0.00     0.299 C 
BRANCH  17  18
ATOM     18  C   UNL A   1      32.866  22.584  23.465  1.00  0.00     0.014 A 
ATOM     19  C   UNL A   1      33.376  22.476  24.762  1.00  0.00     0.060 A 
ATOM     20  C   UNL A   1      32.392  21.395  22.914  1.00  0.00     0.060 A 
ATOM     21  C   UNL A   1      33.582  21.306  25.493  1.00  0.00     0.165 A 
ATOM     22  C   UNL A   1      32.510  20.222  23.666  1.00  0.00     0.170 A 
ATOM     23  C   UNL A   1      33.108  20.167  24.915  1.00  0.00     0.207 A 
ATOM     24  O   UNL A   1      32.046  19.000  23.277  1.00  0.00    -0.453 OA
ATOM     25  O   UNL A   1      33.123  18.913  25.432  1.00  0.00    -0.450 OA
ATOM     26  C   UNL A   1      32.397  18.193  24.421  1.00  0.00     0.468 C 
BRANCH  21  27
ATOM     27  O   UNL A   1      34.231  21.506  26.667  1.00  0.00    -0.493 OA
ATOM     28  C   UNL A   1      33.567  22.212  27.700  1.00  0.00     0.278 C 
ENDBRANCH  21  27
ENDBRANCH  17  18
ENDBRANCH  11  17
ENDBRANCH   5   8
ENDBRANCH   3   4
ENDBRANCH   2   3
ENDBRANCH   1   2
BRANCH   1  29
ATOM     29  C   UNL A   1      31.335  30.815  26.237  1.00  0.00     0.002 C 
BRANCH  29  30
ATOM     30  C   UNL A   1      31.365  32.333  26.471  1.00  0.00     0.021 C 
BRANCH  30  31
ATOM     31  C   UNL A   1      32.612  32.848  27.190  1.00  0.00     0.116 C 
BRANCH  31  32
ATOM     32  N   UNL A   1      32.466  34.238  27.606  1.00  0.00    -0.352 N 
ATOM     33  C   UNL A   1      33.050  34.914  28.654  1.00  0.00     0.251 C 
ATOM     34  H   UNL A   1      31.856  34.777  27.052  1.00  0.00     0.163 HD
ATOM     35  O   UNL A   1      32.611  36.002  29.008  1.00  0.00    -0.269 OA
BRANCH  33  36
ATOM     36  C   UNL A   1      34.210  34.335  29.364  1.00  0.00     0.039 A 
ATOM     37  C   UNL A   1      34.000  33.592  30.530  1.00  0.00     0.014 A 
ATOM     38  C   UNL A   1      35.511  34.578  28.917  1.00  0.00     0.014 A 
ATOM     39  C   UNL A   1      35.091  33.039  31.212  1.00  0.00     0.010 A 
ATOM     40  C   UNL A   1      36.592  33.979  29.562  1.00  0.00     0.010 A 
ATOM     41  C   UNL A   1      36.395  33.205  30.716  1.00  0.00    -0.014 A 
BRANCH  41  42
ATOM     42  C   UNL A   1      37.566  32.583  31.390  1.00  0.00     0.031 A 
ATOM     43  C   UNL A   1      38.295  31.439  30.742  1.00  0.00     0.074 A 
ATOM     44  C   UNL A   1      37.928  33.000  32.620  1.00  0.00     0.049 A 
ATOM     45  N   UNL A   1      39.276  30.708  31.208  1.00  0.00    -0.248 NA
ATOM     46  C   UNL A   1      37.842  31.048  29.398  1.00  0.00     0.031 C 
ATOM     47  C   UNL A   1      37.279  34.072  33.373  1.00  0.00     0.029 A 
ATOM     48  N   UNL A   1      38.923  32.560  33.458  1.00  0.00    -0.354 N 
ATOM     49  C   UNL A   1      39.546  29.765  30.225  1.00  0.00     0.074 A 
ATOM     50  C   UNL A   1      38.592  29.983  29.158  1.00  0.00     0.031 C 
ATOM     51  C   UNL A   1      37.901  34.219  34.555  1.00  0.00     0.029 A 
ATOM     52  C   UNL A   1      38.967  33.227  34.658  1.00  0.00     0.049 A 
ATOM     53  H   UNL A   1      39.545  31.834  33.222  1.00  0.00     0.167 HD
ATOM     54  C   UNL A   1      40.514  28.817  30.204  1.00  0.00     0.037 A 
ATOM     55  C   UNL A   1      39.771  33.051  35.725  1.00  0.00     0.037 A 
ATOM     56  C   UNL A   1      41.476  28.617  31.256  1.00  0.00     0.049 A 
ATOM     57  C   UNL A   1      40.831  31.983  35.681  1.00  0.00     0.074 A 
ATOM     58  C   UNL A   1      42.531  27.721  31.304  1.00  0.00     0.029 A 
ATOM     59  N   UNL A   1      41.500  29.324  32.449  1.00  0.00    -0.354 N 
ATOM     60  N   UNL A   1      41.117  31.140  34.720  1.00  0.00    -0.248 NA
ATOM     61  C   UNL A   1      41.684  31.848  36.871  1.00  0.00     0.031 C 
ATOM     62  C   UNL A   1      43.164  27.856  32.543  1.00  0.00     0.029 A 
ATOM     63  C   UNL A   1      42.537  28.871  33.248  1.00  0.00     0.049 A 
ATOM     64  H   UNL A   1      40.872  30.043  32.692  1.00  0.00     0.167 HD
ATOM     65  C   UNL A   1      42.197  30.395  35.175  1.00  0.00     0.074 A 
ATOM     66  C   UNL A   1      42.524  30.896  36.493  1.00  0.00     0.031 C 
ATOM     67  C   UNL A   1      42.858  29.387  34.555  1.00  0.00     0.037 A 
BRANCH  54  68
ATOM     68  C   UNL A   1      40.586  27.924  28.998  1.00  0.00     0.064 A 
ATOM     69  C   UNL A   1      41.439  28.210  27.922  1.00  0.00     0.173 A 
ATOM     70  C   UNL A   1      39.819  26.750  28.933  1.00  0.00     0.173 A 
ATOM     71  F   UNL A   1      42.185  29.324  27.929  1.00  0.00    -0.203 F 
ATOM     72  C   UNL A   1      41.499  27.370  26.812  1.00  0.00     0.198 A 
ATOM     73  C   UNL A   1      39.906  25.897  27.836  1.00  0.00     0.198 A 
ATOM     74  F   UNL A   1      38.993  26.424  29.939  1.00  0.00    -0.203 F 
ATOM     75  F   UNL A   1      42.283  27.692  25.773  1.00  0.00    -0.200 F 
ATOM     76  C   UNL A   1      40.738  26.212  26.772  1.00  0.00     0.200 A 
ATOM     77  F   UNL A   1      39.180  24.770  27.805  1.00  0.00    -0.200 F 
ATOM     78  F   UNL A   1      40.802  25.403  25.706  1.00  0.00    -0.200 F 
ENDBRANCH  54  68
BRANCH  55  79
ATOM     79  C   UNL A   1      39.624  33.927  36.918  1.00  0.00     0.064 A 
ATOM     80  C   UNL A   1      38.850  33.521  38.014  1.00  0.00     0.173 A 
ATOM     81  C   UNL A   1      40.243  35.183  36.986  1.00  0.00     0.173 A 
ATOM     82  F   UNL A   1      38.220  32.337  37.987  1.00  0.00    -0.203 F 
ATOM     83  C   UNL A   1      38.685  34.346  39.124  1.00  0.00     0.198 A 
ATOM     84  C   UNL A   1      40.102  35.995  38.109  1.00  0.00     0.198 A 
ATOM     85  F   UNL A   1      40.997  35.616  35.965  1.00  0.00    -0.203 F 
ATOM     86  F   UNL A   1      37.904  33.952  40.139  1.00  0.00    -0.200 F 
ATOM     87  C   UNL A   1      39.316  35.579  39.174  1.00  0.00     0.200 A 
ATOM     88  F   UNL A   1      40.724  37.181  38.159  1.00  0.00    -0.200 F 
ATOM     89  F   UNL A   1      39.162  36.371  40.244  1.00  0.00    -0.200 F 
ENDBRANCH  55  79
BRANCH  67  90
ATOM     90  C   UNL A   1      44.026  28.781  35.277  1.00  0.00     0.064 A 
ATOM     91  C   UNL A   1      43.871  27.685  36.139  1.00  0.00     0.173 A 
ATOM     92  C   UNL A   1      45.323  29.274  35.067  1.00  0.00     0.173 A 
ATOM     93  F   UNL A   1      42.651  27.186  36.385  1.00  0.00    -0.203 F 
ATOM     94  C   UNL A   1      44.970  27.121  36.782  1.00  0.00     0.198 A 
ATOM     95  C   UNL A   1      46.422  28.688  35.689  1.00  0.00     0.198 A 
ATOM     96  F   UNL A   1      45.525  30.316  34.247  1.00  0.00    -0.203 F 
ATOM     97  F   UNL A   1      44.794  26.103  37.636  1.00  0.00    -0.200 F 
ATOM     98  C   UNL A   1      46.244  27.617  36.550  1.00  0.00     0.200 A 
ATOM     99  F   UNL A   1      47.654  29.161  35.454  1.00  0.00    -0.200 F 
ATOM    100  F   UNL A   1      47.301  27.066  37.163  1.00  0.00    -0.200 F 
ENDBRANCH  67  90
ENDBRANCH  41  42
ENDBRANCH  33  36
ENDBRANCH  31  32
ENDBRANCH  30  31
ENDBRANCH  29  30
ENDBRANCH   1  29
TORSDOF 18
ENDMDL
MODEL 3
REMARK VINA RESULT:     -12.2      5.221     10.702
REMARK SMILES CCC[C@@H]1C[N@@H+](Cc2cc(OC)c3c(c2)OCO3)C[C@H]1C(=O)NCCCCCCNC(=O)c1ccc(-c2c3nc(c(-c4c(F)c(F)c(F)c(F)c4F)c4ccc([nH]4)c(-c4c(F)c(F)c(F)c(F)c4F)c4nc(c(-c5c(F)c(F)c(F)c(F)c5F)c5ccc2[nH]5)C=C4)C=C3)cc1
REMARK SMILES IDX 26 1 25 2 24 3 23 4 21 5 22 6 20 8 4 9 5 10 6 11 19 12 3 14
REMARK SMILES IDX 2 15 1 16 7 17 8 18 9 19 15 20 10 21 14 22 13 23 16 24 18 25
REMARK SMILES IDX 17 26 11 27 12 28 27 29 28 30 29 31 30 32 31 33 32 35 33 36
REMARK SMILES IDX 34 37 95 38 35 39 94 40 36 41 37 42 38 43 88 44 39 45 93 46
REMARK SMILES IDX 87 47 89 48 40 49 92 50 86 51 85 52 41 54 73 55 53 56 72 57
REMARK SMILES IDX 54 58 57 59 71 60 90 61 55 62 56 63 70 65 91 66 58 67 42 68
REMARK SMILES IDX 43 69 51 70 44 71 45 72 49 73 52 74 46 75 47 76 50 77 48 78
REMARK SMILES IDX 74 79 75 80 83 81 76 82 77 83 81 84 84 85 78 86 79 87 82 88
REMARK SMILES IDX 80 89 59 90 60 91 68 92 61 93 62 94 66 95 69 96 63 97 64 98
REMARK SMILES IDX 67 99 65 100
REMARK H PARENT 23 7 6 13 30 34 89 53 57 64
REMARK Flexibility Score: inf
ROOT
ATOM      1  C   UNL A   1      37.001  21.704  24.257  1.00  0.00     0.002 C 
ENDROOT
BRANCH   1   2
ATOM      2  C   UNL A   1      36.682  22.896  25.177  1.00  0.00     0.021 C 
BRANCH   2   3
ATOM      3  C   UNL A   1      35.467  23.780  24.781  1.00  0.00     0.116 C 
BRANCH   3   4
ATOM      4  N   UNL A   1      34.874  23.650  23.437  1.00  0.00    -0.356 N 
ATOM      5  C   UNL A   1      33.671  23.349  22.850  1.00  0.00     0.229 C 
ATOM      6  O   UNL A   1      33.610  23.646  21.646  1.00  0.00    -0.275 OA
ATOM      7  H   UNL A   1      35.552  23.836  22.747  1.00  0.00     0.163 HD
BRANCH   5   8
ATOM      8  C   UNL A   1      32.427  22.650  23.471  1.00  0.00     0.142 C 
ATOM      9  C   UNL A   1      32.541  22.256  24.992  1.00  0.00     0.062 C 
ATOM     10  C   UNL A   1      31.096  22.369  25.478  1.00  0.00     0.267 C 
ATOM     11  N   UNL A   1      30.578  23.536  24.786  1.00  0.00    -0.330 N 
ATOM     12  C   UNL A   1      31.091  23.397  23.420  1.00  0.00     0.276 C 
ATOM     13  H   UNL A   1      29.560  23.568  24.759  1.00  0.00     0.348 HD
BRANCH   9  14
ATOM     14  C   UNL A   1      33.219  20.963  25.459  1.00  0.00     0.010 C 
BRANCH  14  15
ATOM     15  C   UNL A   1      32.606  19.703  24.777  1.00  0.00    -0.003 C 
ATOM     16  C   UNL A   1      32.852  18.359  25.457  1.00  0.00     0.004 C 
ENDBRANCH  14  15
ENDBRANCH   9  14
BRANCH  11  17
ATOM     17  C   UNL A   1      30.731  24.833  25.495  1.00  0.00     0.299 C 
BRANCH  17  18
ATOM     18  C   UNL A   1      30.488  26.181  24.810  1.00  0.00     0.014 A 
ATOM     19  C   UNL A   1      31.525  27.111  24.698  1.00  0.00     0.060 A 
ATOM     20  C   UNL A   1      29.300  26.538  24.173  1.00  0.00     0.060 A 
ATOM     21  C   UNL A   1      31.454  28.391  24.149  1.00  0.00     0.165 A 
ATOM     22  C   UNL A   1      29.236  27.784  23.541  1.00  0.00     0.170 A 
ATOM     23  C   UNL A   1      30.274  28.701  23.542  1.00  0.00     0.207 A 
ATOM     24  O   UNL A   1      28.161  28.243  22.837  1.00  0.00    -0.453 OA
ATOM     25  O   UNL A   1      29.963  29.845  22.883  1.00  0.00    -0.450 OA
ATOM     26  C   UNL A   1      28.651  29.524  22.388  1.00  0.00     0.468 C 
BRANCH  21  27
ATOM     27  O   UNL A   1      32.587  29.118  24.320  1.00  0.00    -0.493 OA
ATOM     28  C   UNL A   1      32.747  29.859  25.516  1.00  0.00     0.278 C 
ENDBRANCH  21  27
ENDBRANCH  17  18
ENDBRANCH  11  17
ENDBRANCH   5   8
ENDBRANCH   3   4
ENDBRANCH   2   3
ENDBRANCH   1   2
BRANCH   1  29
ATOM     29  C   UNL A   1      36.807  20.328  24.927  1.00  0.00     0.002 C 
BRANCH  29  30
ATOM     30  C   UNL A   1      38.046  19.424  25.010  1.00  0.00     0.021 C 
BRANCH  30  31
ATOM     31  C   UNL A   1      39.216  20.007  25.803  1.00  0.00     0.116 C 
BRANCH  31  32
ATOM     32  N   UNL A   1      40.317  19.059  25.928  1.00  0.00    -0.352 N 
ATOM     33  C   UNL A   1      41.663  19.284  26.106  1.00  0.00     0.251 C 
ATOM     34  H   UNL A   1      40.056  18.111  25.879  1.00  0.00     0.163 HD
ATOM     35  O   UNL A   1      42.469  18.379  25.926  1.00  0.00    -0.269 OA
BRANCH  33  36
ATOM     36  C   UNL A   1      42.151  20.620  26.511  1.00  0.00     0.039 A 
ATOM     37  C   UNL A   1      42.633  21.500  25.537  1.00  0.00     0.014 A 
ATOM     38  C   UNL A   1      42.193  20.982  27.860  1.00  0.00     0.014 A 
ATOM     39  C   UNL A   1      43.097  22.767  25.909  1.00  0.00     0.010 A 
ATOM     40  C   UNL A   1      42.602  22.264  28.224  1.00  0.00     0.010 A 
ATOM     41  C   UNL A   1      43.059  23.170  27.254  1.00  0.00    -0.014 A 
BRANCH  41  42
ATOM     42  C   UNL A   1      43.497  24.529  27.670  1.00  0.00     0.031 A 
ATOM     43  C   UNL A   1      42.479  25.581  28.013  1.00  0.00     0.074 A 
ATOM     44  C   UNL A   1      44.808  24.839  27.667  1.00  0.00     0.049 A 
ATOM     45  N   UNL A   1      42.656  26.844  28.307  1.00  0.00    -0.248 NA
ATOM     46  C   UNL A   1      41.068  25.162  27.997  1.00  0.00     0.031 C 
ATOM     47  C   UNL A   1      45.892  23.921  27.317  1.00  0.00     0.029 A 
ATOM     48  N   UNL A   1      45.451  26.018  27.956  1.00  0.00    -0.354 N 
ATOM     49  C   UNL A   1      41.385  27.372  28.496  1.00  0.00     0.074 A 
ATOM     50  C   UNL A   1      40.443  26.306  28.233  1.00  0.00     0.031 C 
ATOM     51  C   UNL A   1      47.066  24.565  27.426  1.00  0.00     0.029 A 
ATOM     52  C   UNL A   1      46.816  25.950  27.817  1.00  0.00     0.049 A 
ATOM     53  H   UNL A   1      44.978  26.836  28.235  1.00  0.00     0.167 HD
ATOM     54  C   UNL A   1      41.037  28.626  28.875  1.00  0.00     0.037 A 
ATOM     55  C   UNL A   1      47.758  26.899  27.977  1.00  0.00     0.037 A 
ATOM     56  C   UNL A   1      41.977  29.679  29.158  1.00  0.00     0.049 A 
ATOM     57  C   UNL A   1      47.344  28.287  28.387  1.00  0.00     0.074 A 
ATOM     58  C   UNL A   1      41.725  30.965  29.603  1.00  0.00     0.029 A 
ATOM     59  N   UNL A   1      43.353  29.565  29.023  1.00  0.00    -0.354 N 
ATOM     60  N   UNL A   1      46.143  28.757  28.623  1.00  0.00    -0.248 NA
ATOM     61  C   UNL A   1      48.418  29.276  28.556  1.00  0.00     0.031 C 
ATOM     62  C   UNL A   1      42.945  31.644  29.694  1.00  0.00     0.029 A 
ATOM     63  C   UNL A   1      43.961  30.766  29.355  1.00  0.00     0.049 A 
ATOM     64  H   UNL A   1      43.827  28.753  28.733  1.00  0.00     0.167 HD
ATOM     65  C   UNL A   1      46.318  30.082  28.996  1.00  0.00     0.074 A 
ATOM     66  C   UNL A   1      47.742  30.339  28.968  1.00  0.00     0.031 C 
ATOM     67  C   UNL A   1      45.382  31.003  29.332  1.00  0.00     0.037 A 
BRANCH  54  68
ATOM     68  C   UNL A   1      39.571  28.927  29.012  1.00  0.00     0.064 A 
ATOM     69  C   UNL A   1      38.910  28.817  30.243  1.00  0.00     0.173 A 
ATOM     70  C   UNL A   1      38.827  29.366  27.905  1.00  0.00     0.173 A 
ATOM     71  F   UNL A   1      39.572  28.392  31.329  1.00  0.00    -0.203 F 
ATOM     72  C   UNL A   1      37.552  29.105  30.358  1.00  0.00     0.198 A 
ATOM     73  C   UNL A   1      37.477  29.683  28.029  1.00  0.00     0.198 A 
ATOM     74  F   UNL A   1      39.412  29.498  26.705  1.00  0.00    -0.203 F 
ATOM     75  F   UNL A   1      36.931  28.942  31.534  1.00  0.00    -0.200 F 
ATOM     76  C   UNL A   1      36.839  29.544  29.253  1.00  0.00     0.200 A 
ATOM     77  F   UNL A   1      36.791  30.121  26.964  1.00  0.00    -0.200 F 
ATOM     78  F   UNL A   1      35.533  29.825  29.365  1.00  0.00    -0.200 F 
ENDBRANCH  54  68
BRANCH  55  79
ATOM     79  C   UNL A   1      49.192  26.563  27.776  1.00  0.00     0.064 A 
ATOM     80  C   UNL A   1      50.026  26.294  28.871  1.00  0.00     0.173 A 
ATOM     81  C   UNL A   1      49.760  26.510  26.495  1.00  0.00     0.173 A 
ATOM     82  F   UNL A   1      49.535  26.353  30.117  1.00  0.00    -0.203 F 
ATOM     83  C   UNL A   1      51.377  26.003  28.693  1.00  0.00     0.198 A 
ATOM     84  C   UNL A   1      51.105  26.191  26.316  1.00  0.00     0.198 A 
ATOM     85  F   UNL A   1      49.004  26.757  25.415  1.00  0.00    -0.203 F 
ATOM     86  F   UNL A   1      52.161  25.793  29.759  1.00  0.00    -0.200 F 
ATOM     87  C   UNL A   1      51.914  25.946  27.416  1.00  0.00     0.200 A 
ATOM     88  F   UNL A   1      51.617  26.123  25.080  1.00  0.00    -0.200 F 
ATOM     89  F   UNL A   1      53.212  25.661  27.244  1.00  0.00    -0.200 F 
ENDBRANCH  55  79
BRANCH  67  90
ATOM     90  C   UNL A   1      45.868  32.366  29.734  1.00  0.00     0.064 A 
ATOM     91  C   UNL A   1      45.997  33.406  28.802  1.00  0.00     0.173 A 
ATOM     92  C   UNL A   1      46.165  32.645  31.076  1.00  0.00     0.173 A 
ATOM     93  F   UNL A   1      45.740  33.186  27.504  1.00  0.00    -0.203 F 
ATOM     94  C   UNL A   1      46.426  34.670  29.196  1.00  0.00     0.198 A 
ATOM     95  C   UNL A   1      46.566  33.919  31.472  1.00  0.00     0.198 A 
ATOM     96  F   UNL A   1      46.052  31.687  32.008  1.00  0.00    -0.203 F 
ATOM     97  F   UNL A   1      46.585  35.638  28.283  1.00  0.00    -0.200 F 
ATOM     98  C   UNL A   1      46.702  34.928  30.531  1.00  0.00     0.200 A 
ATOM     99  F   UNL A   1      46.819  34.169  32.764  1.00  0.00    -0.200 F 
ATOM    100  F   UNL A   1      47.106  36.148  30.910  1.00  0.00    -0.200 F 
ENDBRANCH  67  90
ENDBRANCH  41  42
ENDBRANCH  33  36
ENDBRANCH  31  32
ENDBRANCH  30  31
ENDBRANCH  29  30
ENDBRANCH   1  29
TORSDOF 18
ENDMDL
