MODEL 1
REMARK VINA RESULT:     -11.0      0.000      0.000
REMARK SMILES O=C(NCCCCCCNC(=O)[C@H](S)c1ccccc1)c1ccc(-c2c3nc(c(-c4c(F)c(F)c(F)c(F)c4F)c4ccc([nH]4)c(-c4c(F)c(F)c(F)c(F)c4F)c4nc(c(-c5c(F)c(F)c(F)c(F)c5F)c5ccc2[nH]5)C=C4)C=C3)cc1
REMARK SMILES IDX 6 1 5 2 4 3 3 4 1 5 2 6 21 8 22 9 83 10 23 11 82 12 24 13
REMARK SMILES IDX 25 14 26 15 76 16 27 17 81 18 75 19 77 20 28 21 80 22 74 23
REMARK SMILES IDX 73 24 29 26 61 27 41 28 60 29 42 30 45 31 59 32 78 33 43 34
REMARK SMILES IDX 44 35 58 37 79 38 46 39 30 40 31 41 39 42 32 43 33 44 37 45
REMARK SMILES IDX 40 46 34 47 35 48 38 49 36 50 62 51 63 52 71 53 64 54 65 55
REMARK SMILES IDX 69 56 72 57 66 58 67 59 70 60 68 61 47 62 48 63 56 64 49 65
REMARK SMILES IDX 50 66 54 67 57 68 51 69 52 70 55 71 53 72 7 73 8 74 9 75
REMARK SMILES IDX 10 76 11 77 12 79 13 80 15 81 16 82 20 83 17 84 19 85 18 86
REMARK SMILES IDX 14 87
REMARK H PARENT 3 7 77 25 45 36 10 78 14 88
REMARK Flexibility Score: inf
ROOT
ATOM      1  C   UNL A   1      31.396  30.855  26.010  1.00  0.00     0.002 C 
ENDROOT
BRANCH   1   2
ATOM      2  C   UNL A   1      31.252  32.297  26.496  1.00  0.00     0.021 C 
BRANCH   2   3
ATOM      3  C   UNL A   1      32.477  32.835  27.229  1.00  0.00     0.116 C 
BRANCH   3   4
ATOM      4  N   UNL A   1      32.312  34.228  27.609  1.00  0.00    -0.352 N 
ATOM      5  O   UNL A   1      32.547  36.045  28.929  1.00  0.00    -0.269 OA
ATOM      6  C   UNL A   1      32.961  34.940  28.583  1.00  0.00     0.251 C 
ATOM      7  H   UNL A   1      31.640  34.731  27.094  1.00  0.00     0.163 HD
BRANCH   6   8
ATOM      8  C   UNL A   1      34.155  34.366  29.233  1.00  0.00     0.039 A 
ATOM      9  C   UNL A   1      35.430  34.598  28.709  1.00  0.00     0.014 A 
ATOM     10  C   UNL A   1      33.995  33.598  30.389  1.00  0.00     0.014 A 
ATOM     11  C   UNL A   1      36.534  33.963  29.268  1.00  0.00     0.010 A 
ATOM     12  C   UNL A   1      35.113  33.027  30.995  1.00  0.00     0.010 A 
ATOM     13  C   UNL A   1      36.388  33.184  30.425  1.00  0.00    -0.014 A 
BRANCH  13  14
ATOM     14  C   UNL A   1      37.577  32.577  31.070  1.00  0.00     0.031 A 
ATOM     15  C   UNL A   1      38.330  31.466  30.397  1.00  0.00     0.074 A 
ATOM     16  C   UNL A   1      37.953  33.011  32.287  1.00  0.00     0.049 A 
ATOM     17  N   UNL A   1      39.328  30.750  30.849  1.00  0.00    -0.248 NA
ATOM     18  C   UNL A   1      37.894  31.103  29.040  1.00  0.00     0.031 C 
ATOM     19  C   UNL A   1      37.298  34.085  33.035  1.00  0.00     0.029 A 
ATOM     20  N   UNL A   1      38.964  32.596  33.115  1.00  0.00    -0.354 N 
ATOM     21  C   UNL A   1      39.626  29.838  29.845  1.00  0.00     0.074 A 
ATOM     22  C   UNL A   1      38.683  30.073  28.772  1.00  0.00     0.031 C 
ATOM     23  C   UNL A   1      37.929  34.251  34.206  1.00  0.00     0.029 A 
ATOM     24  C   UNL A   1      38.985  33.253  34.319  1.00  0.00     0.049 A 
ATOM     25  H   UNL A   1      39.611  31.895  32.869  1.00  0.00     0.167 HD
ATOM     26  C   UNL A   1      40.600  28.896  29.825  1.00  0.00     0.037 A 
ATOM     27  C   UNL A   1      39.745  33.048  35.411  1.00  0.00     0.037 A 
ATOM     28  C   UNL A   1      41.529  28.674  30.904  1.00  0.00     0.049 A 
ATOM     29  C   UNL A   1      40.783  31.964  35.387  1.00  0.00     0.074 A 
ATOM     30  C   UNL A   1      42.574  27.768  30.971  1.00  0.00     0.029 A 
ATOM     31  N   UNL A   1      41.515  29.355  32.114  1.00  0.00    -0.354 N 
ATOM     32  N   UNL A   1      41.081  31.128  34.422  1.00  0.00    -0.248 NA
ATOM     33  C   UNL A   1      41.592  31.795  36.600  1.00  0.00     0.031 C 
ATOM     34  C   UNL A   1      43.149  27.857  32.243  1.00  0.00     0.029 A 
ATOM     35  C   UNL A   1      42.514  28.869  32.945  1.00  0.00     0.049 A 
ATOM     36  H   UNL A   1      40.888  30.078  32.348  1.00  0.00     0.167 HD
ATOM     37  C   UNL A   1      42.131  30.356  34.897  1.00  0.00     0.074 A 
ATOM     38  C   UNL A   1      42.421  30.825  36.237  1.00  0.00     0.031 C 
ATOM     39  C   UNL A   1      42.799  29.355  34.273  1.00  0.00     0.037 A 
BRANCH  26  40
ATOM     40  C   UNL A   1      40.681  28.008  28.615  1.00  0.00     0.064 A 
ATOM     41  C   UNL A   1      41.454  28.348  27.493  1.00  0.00     0.173 A 
ATOM     42  C   UNL A   1      39.986  26.788  28.582  1.00  0.00     0.173 A 
ATOM     43  F   UNL A   1      42.134  29.505  27.467  1.00  0.00    -0.203 F 
ATOM     44  C   UNL A   1      41.491  27.525  26.370  1.00  0.00     0.198 A 
ATOM     45  C   UNL A   1      40.054  25.951  27.470  1.00  0.00     0.198 A 
ATOM     46  F   UNL A   1      39.240  26.406  29.628  1.00  0.00    -0.203 F 
ATOM     47  F   UNL A   1      42.183  27.905  25.287  1.00  0.00    -0.200 F 
ATOM     48  C   UNL A   1      40.796  26.326  26.361  1.00  0.00     0.200 A 
ATOM     49  F   UNL A   1      39.395  24.785  27.472  1.00  0.00    -0.200 F 
ATOM     50  F   UNL A   1      40.831  25.536  25.279  1.00  0.00    -0.200 F 
ENDBRANCH  26  40
BRANCH  27  51
ATOM     51  C   UNL A   1      39.532  33.896  36.612  1.00  0.00     0.064 A 
ATOM     52  C   UNL A   1      38.749  33.445  37.683  1.00  0.00     0.173 A 
ATOM     53  C   UNL A   1      40.144  35.153  36.732  1.00  0.00     0.173 A 
ATOM     54  F   UNL A   1      38.133  32.256  37.608  1.00  0.00    -0.203 F 
ATOM     55  C   UNL A   1      38.579  34.224  38.825  1.00  0.00     0.198 A 
ATOM     56  C   UNL A   1      39.997  35.917  37.888  1.00  0.00     0.198 A 
ATOM     57  F   UNL A   1      40.911  35.625  35.739  1.00  0.00    -0.203 F 
ATOM     58  F   UNL A   1      37.799  33.783  39.822  1.00  0.00    -0.200 F 
ATOM     59  C   UNL A   1      39.211  35.455  38.931  1.00  0.00     0.200 A 
ATOM     60  F   UNL A   1      40.627  37.095  37.993  1.00  0.00    -0.200 F 
ATOM     61  F   UNL A   1      39.060  36.194  40.038  1.00  0.00    -0.200 F 
ENDBRANCH  27  51
BRANCH  39  62
ATOM     62  C   UNL A   1      43.954  28.731  35.003  1.00  0.00     0.064 A 
ATOM     63  C   UNL A   1      45.260  29.229  34.891  1.00  0.00     0.173 A 
ATOM     64  C   UNL A   1      43.733  27.657  35.880  1.00  0.00     0.173 A 
ATOM     65  F   UNL A   1      45.528  30.242  34.055  1.00  0.00    -0.203 F 
ATOM     66  C   UNL A   1      46.306  28.662  35.618  1.00  0.00     0.198 A 
ATOM     67  C   UNL A   1      44.773  27.116  36.628  1.00  0.00     0.198 A 
ATOM     68  F   UNL A   1      42.501  27.147  36.027  1.00  0.00    -0.203 F 
ATOM     69  F   UNL A   1      47.553  29.126  35.466  1.00  0.00    -0.200 F 
ATOM     70  C   UNL A   1      46.059  27.614  36.494  1.00  0.00     0.200 A 
ATOM     71  F   UNL A   1      44.529  26.115  37.486  1.00  0.00    -0.200 F 
ATOM     72  F   UNL A   1      47.063  27.084  37.206  1.00  0.00    -0.200 F 
ENDBRANCH  39  62
ENDBRANCH  13  14
ENDBRANCH   6   8
ENDBRANCH   3   4
ENDBRANCH   2   3
ENDBRANCH   1   2
BRANCH   1  73
ATOM     73  C   UNL A   1      32.263  29.962  26.901  1.00  0.00     0.002 C 
BRANCH  73  74
ATOM     74  C   UNL A   1      31.880  28.476  26.900  1.00  0.00     0.021 C 
BRANCH  74  75
ATOM     75  C   UNL A   1      32.997  27.539  26.429  1.00  0.00     0.116 C 
BRANCH  75  76
ATOM     76  N   UNL A   1      33.693  28.094  25.289  1.00  0.00    -0.355 N 
ATOM     77  C   UNL A   1      33.594  27.829  23.951  1.00  0.00     0.237 C 
ATOM     78  H   UNL A   1      34.356  28.786  25.517  1.00  0.00     0.163 HD
ATOM     79  O   UNL A   1      34.402  28.434  23.238  1.00  0.00    -0.273 OA
BRANCH  77  80
ATOM     80  C   UNL A   1      32.486  26.901  23.396  1.00  0.00     0.162 C 
BRANCH  80  81
ATOM     81  C   UNL A   1      31.146  27.585  23.134  1.00  0.00    -0.026 A 
ATOM     82  C   UNL A   1      31.105  28.924  22.709  1.00  0.00     0.005 A 
ATOM     83  C   UNL A   1      29.931  26.952  23.455  1.00  0.00     0.005 A 
ATOM     84  C   UNL A   1      29.890  29.609  22.632  1.00  0.00     0.000 A 
ATOM     85  C   UNL A   1      28.719  27.635  23.372  1.00  0.00     0.000 A 
ATOM     86  C   UNL A   1      28.699  28.968  22.972  1.00  0.00     0.000 A 
ENDBRANCH  80  81
BRANCH  80  87
ATOM     87  S   UNL A   1      33.002  26.122  21.799  1.00  0.00    -0.161 SA
ATOM     88  H   UNL A   1      33.025  27.067  20.820  1.00  0.00     0.103 HD
ENDBRANCH  80  87
ENDBRANCH  77  80
ENDBRANCH  75  76
ENDBRANCH  74  75
ENDBRANCH  73  74
ENDBRANCH   1  73
TORSDOF 15
ENDMDL
MODEL 2
REMARK VINA RESULT:     -10.9      0.358      2.051
REMARK SMILES O=C(NCCCCCCNC(=O)[C@H](S)c1ccccc1)c1ccc(-c2c3nc(c(-c4c(F)c(F)c(F)c(F)c4F)c4ccc([nH]4)c(-c4c(F)c(F)c(F)c(F)c4F)c4nc(c(-c5c(F)c(F)c(F)c(F)c5F)c5ccc2[nH]5)C=C4)C=C3)cc1
REMARK SMILES IDX 6 1 5 2 4 3 3 4 1 5 2 6 21 8 22 9 83 10 23 11 82 12 24 13
REMARK SMILES IDX 25 14 26 15 76 16 27 17 81 18 75 19 77 20 28 21 80 22 74 23
REMARK SMILES IDX 73 24 29 26 61 27 41 28 60 29 42 30 45 31 59 32 78 33 43 34
REMARK SMILES IDX 44 35 58 37 79 38 46 39 30 40 31 41 39 42 32 43 33 44 37 45
REMARK SMILES IDX 40 46 34 47 35 48 38 49 36 50 62 51 63 52 71 53 64 54 65 55
REMARK SMILES IDX 69 56 72 57 66 58 67 59 70 60 68 61 47 62 48 63 56 64 49 65
REMARK SMILES IDX 50 66 54 67 57 68 51 69 52 70 55 71 53 72 7 73 8 74 9 75
REMARK SMILES IDX 10 76 11 77 12 79 13 80 15 81 16 82 20 83 17 84 19 85 18 86
REMARK SMILES IDX 14 87
REMARK H PARENT 3 7 77 25 45 36 10 78 14 88
REMARK Flexibility Score: inf
ROOT
ATOM      1  C   UNL A   1      31.380  30.846  26.017  1.00  0.00     0.002 C 
ENDROOT
BRANCH   1   2
ATOM      2  C   UNL A   1      31.265  32.298  26.482  1.00  0.00     0.021 C 
BRANCH   2   3
ATOM      3  C   UNL A   1      32.483  32.809  27.245  1.00  0.00     0.116 C 
BRANCH   3   4
ATOM      4  N   UNL A   1      32.331  34.200  27.636  1.00  0.00    -0.352 N 
ATOM      5  O   UNL A   1      32.593  36.006  28.967  1.00  0.00    -0.269 OA
ATOM      6  C   UNL A   1      32.995  34.900  28.610  1.00  0.00     0.251 C 
ATOM      7  H   UNL A   1      31.659  34.712  27.131  1.00  0.00     0.163 HD
BRANCH   6   8
ATOM      8  C   UNL A   1      34.190  34.313  29.245  1.00  0.00     0.039 A 
ATOM      9  C   UNL A   1      35.466  34.575  28.737  1.00  0.00     0.014 A 
ATOM     10  C   UNL A   1      34.031  33.502  30.371  1.00  0.00     0.014 A 
ATOM     11  C   UNL A   1      36.572  33.929  29.278  1.00  0.00     0.010 A 
ATOM     12  C   UNL A   1      35.151  32.918  30.961  1.00  0.00     0.010 A 
ATOM     13  C   UNL A   1      36.427  33.107  30.405  1.00  0.00    -0.014 A 
BRANCH  13  14
ATOM     14  C   UNL A   1      37.618  32.486  31.034  1.00  0.00     0.031 A 
ATOM     15  C   UNL A   1      38.357  31.376  30.345  1.00  0.00     0.074 A 
ATOM     16  C   UNL A   1      38.008  32.907  32.251  1.00  0.00     0.049 A 
ATOM     17  N   UNL A   1      39.355  30.650  30.780  1.00  0.00    -0.248 NA
ATOM     18  C   UNL A   1      37.907  31.029  28.988  1.00  0.00     0.031 C 
ATOM     19  C   UNL A   1      37.367  33.979  33.014  1.00  0.00     0.029 A 
ATOM     20  N   UNL A   1      39.023  32.478  33.066  1.00  0.00    -0.354 N 
ATOM     21  C   UNL A   1      39.638  29.745  29.767  1.00  0.00     0.074 A 
ATOM     22  C   UNL A   1      38.687  29.995  28.704  1.00  0.00     0.031 C 
ATOM     23  C   UNL A   1      38.009  34.130  34.181  1.00  0.00     0.029 A 
ATOM     24  C   UNL A   1      39.060  33.124  34.276  1.00  0.00     0.049 A 
ATOM     25  H   UNL A   1      39.663  31.775  32.808  1.00  0.00     0.167 HD
ATOM     26  C   UNL A   1      40.605  28.796  29.729  1.00  0.00     0.037 A 
ATOM     27  C   UNL A   1      39.828  32.905  35.359  1.00  0.00     0.037 A 
ATOM     28  C   UNL A   1      41.542  28.559  30.798  1.00  0.00     0.049 A 
ATOM     29  C   UNL A   1      40.859  31.814  35.316  1.00  0.00     0.074 A 
ATOM     30  C   UNL A   1      42.582  27.646  30.847  1.00  0.00     0.029 A 
ATOM     31  N   UNL A   1      41.544  29.230  32.014  1.00  0.00    -0.354 N 
ATOM     32  N   UNL A   1      41.142  30.985  34.341  1.00  0.00    -0.248 NA
ATOM     33  C   UNL A   1      41.677  31.629  36.520  1.00  0.00     0.031 C 
ATOM     34  C   UNL A   1      43.169  27.720  32.115  1.00  0.00     0.029 A 
ATOM     35  C   UNL A   1      42.547  28.730  32.831  1.00  0.00     0.049 A 
ATOM     36  H   UNL A   1      40.924  29.954  32.260  1.00  0.00     0.167 HD
ATOM     37  C   UNL A   1      42.192  30.202  34.799  1.00  0.00     0.074 A 
ATOM     38  C   UNL A   1      42.497  30.657  36.141  1.00  0.00     0.031 C 
ATOM     39  C   UNL A   1      42.847  29.202  34.161  1.00  0.00     0.037 A 
BRANCH  26  40
ATOM     40  C   UNL A   1      40.670  27.919  28.511  1.00  0.00     0.064 A 
ATOM     41  C   UNL A   1      39.999  26.687  28.444  1.00  0.00     0.173 A 
ATOM     42  C   UNL A   1      41.405  28.322  27.384  1.00  0.00     0.173 A 
ATOM     43  F   UNL A   1      39.287  26.248  29.493  1.00  0.00    -0.203 F 
ATOM     44  C   UNL A   1      40.098  25.876  27.316  1.00  0.00     0.198 A 
ATOM     45  C   UNL A   1      41.473  27.524  26.245  1.00  0.00     0.198 A 
ATOM     46  F   UNL A   1      42.059  29.493  27.386  1.00  0.00    -0.203 F 
ATOM     47  F   UNL A   1      39.502  24.675  27.303  1.00  0.00    -0.200 F 
ATOM     48  C   UNL A   1      40.830  26.296  26.216  1.00  0.00     0.200 A 
ATOM     49  F   UNL A   1      42.166  27.941  25.177  1.00  0.00    -0.200 F 
ATOM     50  F   UNL A   1      40.925  25.513  25.133  1.00  0.00    -0.200 F 
ENDBRANCH  26  40
BRANCH  27  51
ATOM     51  C   UNL A   1      39.632  33.743  36.569  1.00  0.00     0.064 A 
ATOM     52  C   UNL A   1      40.231  35.004  36.678  1.00  0.00     0.173 A 
ATOM     53  C   UNL A   1      38.805  33.318  37.621  1.00  0.00     0.173 A 
ATOM     54  F   UNL A   1      41.042  35.447  35.705  1.00  0.00    -0.203 F 
ATOM     55  C   UNL A   1      40.018  35.806  37.797  1.00  0.00     0.198 A 
ATOM     56  C   UNL A   1      38.569  34.134  38.725  1.00  0.00     0.198 A 
ATOM     57  F   UNL A   1      38.201  32.123  37.560  1.00  0.00    -0.203 F 
ATOM     58  F   UNL A   1      40.629  36.996  37.891  1.00  0.00    -0.200 F 
ATOM     59  C   UNL A   1      39.180  35.375  38.815  1.00  0.00     0.200 A 
ATOM     60  F   UNL A   1      37.742  33.722  39.695  1.00  0.00    -0.200 F 
ATOM     61  F   UNL A   1      38.962  36.155  39.882  1.00  0.00    -0.200 F 
ENDBRANCH  27  51
BRANCH  39  62
ATOM     62  C   UNL A   1      44.005  28.564  34.875  1.00  0.00     0.064 A 
ATOM     63  C   UNL A   1      43.855  27.400  35.642  1.00  0.00     0.173 A 
ATOM     64  C   UNL A   1      45.296  29.097  34.734  1.00  0.00     0.173 A 
ATOM     65  F   UNL A   1      42.640  26.861  35.822  1.00  0.00    -0.203 F 
ATOM     66  C   UNL A   1      44.954  26.802  36.255  1.00  0.00     0.198 A 
ATOM     67  C   UNL A   1      46.395  28.478  35.321  1.00  0.00     0.198 A 
ATOM     68  F   UNL A   1      45.494  30.207  34.008  1.00  0.00    -0.203 F 
ATOM     69  F   UNL A   1      44.783  25.713  37.016  1.00  0.00    -0.200 F 
ATOM     70  C   UNL A   1      46.223  27.334  36.085  1.00  0.00     0.200 A 
ATOM     71  F   UNL A   1      47.623  28.985  35.141  1.00  0.00    -0.200 F 
ATOM     72  F   UNL A   1      47.282  26.746  36.660  1.00  0.00    -0.200 F 
ENDBRANCH  39  62
ENDBRANCH  13  14
ENDBRANCH   6   8
ENDBRANCH   3   4
ENDBRANCH   2   3
ENDBRANCH   1   2
BRANCH   1  73
ATOM     73  C   UNL A   1      32.333  29.982  26.847  1.00  0.00     0.002 C 
BRANCH  73  74
ATOM     74  C   UNL A   1      31.721  28.689  27.401  1.00  0.00     0.021 C 
BRANCH  74  75
ATOM     75  C   UNL A   1      31.885  27.472  26.485  1.00  0.00     0.116 C 
BRANCH  75  76
ATOM     76  N   UNL A   1      32.875  27.725  25.460  1.00  0.00    -0.355 N 
ATOM     77  C   UNL A   1      32.929  27.358  24.143  1.00  0.00     0.237 C 
ATOM     78  H   UNL A   1      33.647  28.254  25.765  1.00  0.00     0.163 HD
ATOM     79  O   UNL A   1      33.968  27.676  23.556  1.00  0.00    -0.273 OA
BRANCH  77  80
ATOM     80  C   UNL A   1      31.725  26.676  23.450  1.00  0.00     0.162 C 
BRANCH  80  81
ATOM     81  C   UNL A   1      30.590  27.619  23.055  1.00  0.00    -0.026 A 
ATOM     82  C   UNL A   1      30.876  28.864  22.468  1.00  0.00     0.005 A 
ATOM     83  C   UNL A   1      29.256  27.338  23.403  1.00  0.00     0.005 A 
ATOM     84  C   UNL A   1      29.861  29.802  22.262  1.00  0.00     0.000 A 
ATOM     85  C   UNL A   1      28.245  28.273  23.191  1.00  0.00     0.000 A 
ATOM     86  C   UNL A   1      28.549  29.510  22.631  1.00  0.00     0.000 A 
ENDBRANCH  80  81
BRANCH  80  87
ATOM     87  S   UNL A   1      32.248  25.804  21.904  1.00  0.00    -0.161 SA
ATOM     88  H   UNL A   1      32.419  24.479  22.166  1.00  0.00     0.103 HD
ENDBRANCH  80  87
ENDBRANCH  77  80
ENDBRANCH  75  76
ENDBRANCH  74  75
ENDBRANCH  73  74
ENDBRANCH   1  73
TORSDOF 15
ENDMDL
MODEL 3
REMARK VINA RESULT:     -10.9      5.577     10.812
REMARK SMILES O=C(NCCCCCCNC(=O)[C@H](S)c1ccccc1)c1ccc(-c2c3nc(c(-c4c(F)c(F)c(F)c(F)c4F)c4ccc([nH]4)c(-c4c(F)c(F)c(F)c(F)c4F)c4nc(c(-c5c(F)c(F)c(F)c(F)c5F)c5ccc2[nH]5)C=C4)C=C3)cc1
REMARK SMILES IDX 6 1 5 2 4 3 3 4 1 5 2 6 21 8 22 9 83 10 23 11 82 12 24 13
REMARK SMILES IDX 25 14 26 15 76 16 27 17 81 18 75 19 77 20 28 21 80 22 74 23
REMARK SMILES IDX 73 24 29 26 61 27 41 28 60 29 42 30 45 31 59 32 78 33 43 34
REMARK SMILES IDX 44 35 58 37 79 38 46 39 30 40 31 41 39 42 32 43 33 44 37 45
REMARK SMILES IDX 40 46 34 47 35 48 38 49 36 50 62 51 63 52 71 53 64 54 65 55
REMARK SMILES IDX 69 56 72 57 66 58 67 59 70 60 68 61 47 62 48 63 56 64 49 65
REMARK SMILES IDX 50 66 54 67 57 68 51 69 52 70 55 71 53 72 7 73 8 74 9 75
REMARK SMILES IDX 10 76 11 77 12 79 13 80 15 81 16 82 20 83 17 84 19 85 18 86
REMARK SMILES IDX 14 87
REMARK H PARENT 3 7 77 25 45 36 10 78 14 88
REMARK Flexibility Score: inf
ROOT
ATOM      1  C   UNL A   1      36.804  20.609  24.928  1.00  0.00     0.002 C 
ENDROOT
BRANCH   1   2
ATOM      2  C   UNL A   1      38.030  19.696  24.909  1.00  0.00     0.021 C 
BRANCH   2   3
ATOM      3  C   UNL A   1      39.151  20.134  25.844  1.00  0.00     0.116 C 
BRANCH   3   4
ATOM      4  N   UNL A   1      40.240  19.171  25.871  1.00  0.00    -0.352 N 
ATOM      5  O   UNL A   1      42.394  18.496  25.821  1.00  0.00    -0.269 OA
ATOM      6  C   UNL A   1      41.581  19.389  26.049  1.00  0.00     0.251 C 
ATOM      7  H   UNL A   1      39.977  18.231  25.745  1.00  0.00     0.163 HD
BRANCH   6   8
ATOM      8  C   UNL A   1      42.051  20.713  26.501  1.00  0.00     0.039 A 
ATOM      9  C   UNL A   1      42.165  20.999  27.865  1.00  0.00     0.014 A 
ATOM     10  C   UNL A   1      42.397  21.673  25.547  1.00  0.00     0.014 A 
ATOM     11  C   UNL A   1      42.504  22.283  28.276  1.00  0.00     0.010 A 
ATOM     12  C   UNL A   1      42.814  22.937  25.962  1.00  0.00     0.010 A 
ATOM     13  C   UNL A   1      42.848  23.260  27.329  1.00  0.00    -0.014 A 
BRANCH  13  14
ATOM     14  C   UNL A   1      43.292  24.603  27.771  1.00  0.00     0.031 A 
ATOM     15  C   UNL A   1      42.291  25.665  28.120  1.00  0.00     0.074 A 
ATOM     16  C   UNL A   1      44.610  24.871  27.820  1.00  0.00     0.049 A 
ATOM     17  N   UNL A   1      42.489  26.921  28.430  1.00  0.00    -0.248 NA
ATOM     18  C   UNL A   1      40.876  25.265  28.107  1.00  0.00     0.031 C 
ATOM     19  C   UNL A   1      45.674  23.917  27.505  1.00  0.00     0.029 A 
ATOM     20  N   UNL A   1      45.280  26.025  28.138  1.00  0.00    -0.354 N 
ATOM     21  C   UNL A   1      41.229  27.468  28.626  1.00  0.00     0.074 A 
ATOM     22  C   UNL A   1      40.270  26.413  28.372  1.00  0.00     0.031 C 
ATOM     23  C   UNL A   1      46.862  24.520  27.654  1.00  0.00     0.029 A 
ATOM     24  C   UNL A   1      46.641  25.917  28.007  1.00  0.00     0.049 A 
ATOM     25  H   UNL A   1      44.828  26.849  28.431  1.00  0.00     0.167 HD
ATOM     26  C   UNL A   1      40.906  28.734  28.988  1.00  0.00     0.037 A 
ATOM     27  C   UNL A   1      47.605  26.850  28.121  1.00  0.00     0.037 A 
ATOM     28  C   UNL A   1      41.874  29.773  29.235  1.00  0.00     0.049 A 
ATOM     29  C   UNL A   1      47.222  28.258  28.471  1.00  0.00     0.074 A 
ATOM     30  C   UNL A   1      41.654  31.078  29.639  1.00  0.00     0.029 A 
ATOM     31  N   UNL A   1      43.247  29.628  29.086  1.00  0.00    -0.354 N 
ATOM     32  N   UNL A   1      46.030  28.760  28.688  1.00  0.00    -0.248 NA
ATOM     33  C   UNL A   1      48.315  29.231  28.595  1.00  0.00     0.031 C 
ATOM     34  C   UNL A   1      42.887  31.740  29.671  1.00  0.00     0.029 A 
ATOM     35  C   UNL A   1      43.884  30.829  29.360  1.00  0.00     0.049 A 
ATOM     36  H   UNL A   1      43.702  28.795  28.823  1.00  0.00     0.167 HD
ATOM     37  C   UNL A   1      46.230  30.095  29.005  1.00  0.00     0.074 A 
ATOM     38  C   UNL A   1      47.660  30.326  28.955  1.00  0.00     0.031 C 
ATOM     39  C   UNL A   1      45.310  31.041  29.318  1.00  0.00     0.037 A 
BRANCH  26  40
ATOM     40  C   UNL A   1      39.446  29.074  29.098  1.00  0.00     0.064 A 
ATOM     41  C   UNL A   1      38.765  29.040  30.325  1.00  0.00     0.173 A 
ATOM     42  C   UNL A   1      38.718  29.453  27.959  1.00  0.00     0.173 A 
ATOM     43  F   UNL A   1      39.408  28.678  31.446  1.00  0.00    -0.203 F 
ATOM     44  C   UNL A   1      37.404  29.330  30.399  1.00  0.00     0.198 A 
ATOM     45  C   UNL A   1      37.366  29.776  28.043  1.00  0.00     0.198 A 
ATOM     46  F   UNL A   1      39.318  29.512  26.761  1.00  0.00    -0.203 F 
ATOM     47  F   UNL A   1      36.762  29.226  31.571  1.00  0.00    -0.200 F 
ATOM     48  C   UNL A   1      36.707  29.702  29.260  1.00  0.00     0.200 A 
ATOM     49  F   UNL A   1      36.699  30.151  26.944  1.00  0.00    -0.200 F 
ATOM     50  F   UNL A   1      35.398  29.978  29.333  1.00  0.00    -0.200 F 
ENDBRANCH  26  40
BRANCH  27  51
ATOM     51  C   UNL A   1      49.020  26.463  27.890  1.00  0.00     0.064 A 
ATOM     52  C   UNL A   1      49.529  26.330  26.591  1.00  0.00     0.173 A 
ATOM     53  C   UNL A   1      49.903  26.261  28.962  1.00  0.00     0.173 A 
ATOM     54  F   UNL A   1      48.720  26.498  25.535  1.00  0.00    -0.203 F 
ATOM     55  C   UNL A   1      50.865  26.003  26.374  1.00  0.00     0.198 A 
ATOM     56  C   UNL A   1      51.246  25.964  28.742  1.00  0.00     0.198 A 
ATOM     57  F   UNL A   1      49.467  26.386  30.224  1.00  0.00    -0.203 F 
ATOM     58  F   UNL A   1      51.319  25.851  25.122  1.00  0.00    -0.200 F 
ATOM     59  C   UNL A   1      51.725  25.829  27.449  1.00  0.00     0.200 A 
ATOM     60  F   UNL A   1      52.076  25.819  29.784  1.00  0.00    -0.200 F 
ATOM     61  F   UNL A   1      53.014  25.532  27.237  1.00  0.00    -0.200 F 
ENDBRANCH  27  51
BRANCH  39  62
ATOM     62  C   UNL A   1      45.818  32.404  29.693  1.00  0.00     0.064 A 
ATOM     63  C   UNL A   1      46.174  32.728  31.010  1.00  0.00     0.173 A 
ATOM     64  C   UNL A   1      46.009  33.379  28.701  1.00  0.00     0.173 A 
ATOM     65  F   UNL A   1      45.995  31.839  31.997  1.00  0.00    -0.203 F 
ATOM     66  C   UNL A   1      46.689  33.986  31.322  1.00  0.00     0.198 A 
ATOM     67  C   UNL A   1      46.554  34.621  29.011  1.00  0.00     0.198 A 
ATOM     68  F   UNL A   1      45.688  33.118  27.425  1.00  0.00    -0.203 F 
ATOM     69  F   UNL A   1      46.985  34.288  32.593  1.00  0.00    -0.200 F 
ATOM     70  C   UNL A   1      46.888  34.926  30.321  1.00  0.00     0.200 A 
ATOM     71  F   UNL A   1      46.761  35.521  28.041  1.00  0.00    -0.200 F 
ATOM     72  F   UNL A   1      47.401  36.127  30.621  1.00  0.00    -0.200 F 
ENDBRANCH  39  62
ENDBRANCH  13  14
ENDBRANCH   6   8
ENDBRANCH   3   4
ENDBRANCH   2   3
ENDBRANCH   1   2
BRANCH   1  73
ATOM     73  C   UNL A   1      37.060  22.035  24.434  1.00  0.00     0.002 C 
BRANCH  73  74
ATOM     74  C   UNL A   1      37.048  23.113  25.527  1.00  0.00     0.021 C 
BRANCH  74  75
ATOM     75  C   UNL A   1      35.669  23.729  25.787  1.00  0.00     0.116 C 
BRANCH  75  76
ATOM     76  N   UNL A   1      35.149  24.358  24.592  1.00  0.00    -0.355 N 
ATOM     77  C   UNL A   1      33.923  24.899  24.314  1.00  0.00     0.237 C 
ATOM     78  H   UNL A   1      35.791  24.405  23.847  1.00  0.00     0.163 HD
ATOM     79  O   UNL A   1      33.778  25.291  23.152  1.00  0.00    -0.273 OA
BRANCH  77  80
ATOM     80  C   UNL A   1      32.852  25.070  25.419  1.00  0.00     0.162 C 
BRANCH  80  81
ATOM     81  C   UNL A   1      32.752  26.477  26.004  1.00  0.00    -0.026 A 
ATOM     82  C   UNL A   1      33.871  27.328  26.000  1.00  0.00     0.005 A 
ATOM     83  C   UNL A   1      31.599  26.899  26.691  1.00  0.00     0.005 A 
ATOM     84  C   UNL A   1      33.841  28.547  26.683  1.00  0.00     0.000 A 
ATOM     85  C   UNL A   1      31.569  28.118  27.367  1.00  0.00     0.000 A 
ATOM     86  C   UNL A   1      32.693  28.936  27.373  1.00  0.00     0.000 A 
ENDBRANCH  80  81
BRANCH  80  87
ATOM     87  S   UNL A   1      31.167  24.639  24.789  1.00  0.00    -0.161 SA
ATOM     88  H   UNL A   1      31.183  24.614  23.429  1.00  0.00     0.103 HD
ENDBRANCH  80  87
ENDBRANCH  77  80
ENDBRANCH  75  76
ENDBRANCH  74  75
ENDBRANCH  73  74
ENDBRANCH   1  73
TORSDOF 15
ENDMDL
