MODEL 1
REMARK VINA RESULT:     -10.4      0.000      0.000
REMARK SMILES O=C(NCCCCCCNC(=O)[C@@H](c1ccccc1)N1C(=O)/C(=C\c2ccc(-c3ccc(F)cc3)o2)SC1=S)c1ccc(-c2c3nc(c(-c4c(F)c(F)c(F)c(F)c4F)c4ccc([nH]4)c(-c4c(F)c(F)c(F)c(F)c4F)c4nc(c(-c5c(F)c(F)c(F)c(F)c5F)c5ccc2[nH]5)C=C4)C=C3)cc1
REMARK SMILES IDX 7 1 6 2 5 3 4 4 3 5 1 6 2 7 40 9 41 10 102 11 42 12 101 13
REMARK SMILES IDX 43 14 44 15 45 16 95 17 46 18 100 19 94 20 96 21 47 22 99 23
REMARK SMILES IDX 93 24 92 25 48 27 80 28 60 29 79 30 61 31 64 32 78 33 97 34
REMARK SMILES IDX 62 35 63 36 77 38 98 39 65 40 49 41 50 42 58 43 51 44 52 45
REMARK SMILES IDX 56 46 59 47 53 48 54 49 57 50 55 51 81 52 82 53 90 54 83 55
REMARK SMILES IDX 84 56 88 57 91 58 85 59 86 60 89 61 87 62 66 63 67 64 75 65
REMARK SMILES IDX 68 66 69 67 73 68 76 69 70 70 71 71 74 72 72 73 8 74 9 75
REMARK SMILES IDX 10 76 11 77 12 79 13 80 14 81 15 82 19 83 16 84 18 85 17 86
REMARK SMILES IDX 20 87 21 88 38 89 22 90 23 91 37 92 39 93 24 94 25 95 26 96
REMARK SMILES IDX 36 97 27 98 28 99 29 100 30 101 35 102 31 103 34 104 32 105
REMARK SMILES IDX 33 106
REMARK H PARENT 3 8 96 26 64 37 10 78
REMARK Flexibility Score: inf
ROOT
ATOM      1  C   UNL A   1      42.561  35.236  28.713  1.00  0.00     0.002 C 
ENDROOT
BRANCH   1   2
ATOM      2  C   UNL A   1      43.351  36.299  27.948  1.00  0.00     0.002 C 
BRANCH   2   3
ATOM      3  C   UNL A   1      44.011  37.366  28.819  1.00  0.00     0.021 C 
BRANCH   3   4
ATOM      4  C   UNL A   1      43.954  37.090  30.314  1.00  0.00     0.116 C 
BRANCH   4   5
ATOM      5  N   UNL A   1      45.227  37.324  30.976  1.00  0.00    -0.352 N 
ATOM      6  O   UNL A   1      47.117  36.770  32.085  1.00  0.00    -0.269 OA
ATOM      7  C   UNL A   1      46.172  36.416  31.388  1.00  0.00     0.251 C 
ATOM      8  H   UNL A   1      45.443  38.267  31.153  1.00  0.00     0.163 HD
BRANCH   7   9
ATOM      9  C   UNL A   1      46.020  34.996  31.010  1.00  0.00     0.039 A 
ATOM     10  C   UNL A   1      46.238  34.592  29.692  1.00  0.00     0.014 A 
ATOM     11  C   UNL A   1      45.622  34.067  31.974  1.00  0.00     0.014 A 
ATOM     12  C   UNL A   1      45.879  33.311  29.299  1.00  0.00     0.010 A 
ATOM     13  C   UNL A   1      45.373  32.745  31.597  1.00  0.00     0.010 A 
ATOM     14  C   UNL A   1      45.457  32.366  30.248  1.00  0.00    -0.014 A 
BRANCH  14  15
ATOM     15  C   UNL A   1      45.159  30.980  29.801  1.00  0.00     0.031 A 
ATOM     16  C   UNL A   1      43.746  30.516  29.576  1.00  0.00     0.074 A 
ATOM     17  C   UNL A   1      46.190  30.148  29.558  1.00  0.00     0.049 A 
ATOM     18  N   UNL A   1      43.319  29.355  29.143  1.00  0.00    -0.248 NA
ATOM     19  C   UNL A   1      42.671  31.471  29.882  1.00  0.00     0.031 C 
ATOM     20  C   UNL A   1      47.604  30.485  29.751  1.00  0.00     0.029 A 
ATOM     21  N   UNL A   1      46.219  28.865  29.076  1.00  0.00    -0.354 N 
ATOM     22  C   UNL A   1      41.932  29.430  29.152  1.00  0.00     0.074 A 
ATOM     23  C   UNL A   1      41.587  30.742  29.657  1.00  0.00     0.031 C 
ATOM     24  C   UNL A   1      48.361  29.462  29.332  1.00  0.00     0.029 A 
ATOM     25  C   UNL A   1      47.490  28.370  28.915  1.00  0.00     0.049 A 
ATOM     26  H   UNL A   1      45.407  28.350  28.865  1.00  0.00     0.167 HD
ATOM     27  C   UNL A   1      41.032  28.491  28.766  1.00  0.00     0.037 A 
ATOM     28  C   UNL A   1      47.910  27.164  28.494  1.00  0.00     0.037 A 
ATOM     29  C   UNL A   1      41.388  27.192  28.253  1.00  0.00     0.049 A 
ATOM     30  C   UNL A   1      46.888  26.135  28.105  1.00  0.00     0.074 A 
ATOM     31  C   UNL A   1      40.554  26.189  27.790  1.00  0.00     0.029 A 
ATOM     32  N   UNL A   1      42.686  26.709  28.145  1.00  0.00    -0.354 N 
ATOM     33  N   UNL A   1      45.582  26.236  28.068  1.00  0.00    -0.248 NA
ATOM     34  C   UNL A   1      47.402  24.822  27.700  1.00  0.00     0.031 C 
ATOM     35  C   UNL A   1      41.339  25.077  27.468  1.00  0.00     0.029 A 
ATOM     36  C   UNL A   1      42.671  25.411  27.655  1.00  0.00     0.049 A 
ATOM     37  H   UNL A   1      43.497  27.213  28.382  1.00  0.00     0.167 HD
ATOM     38  C   UNL A   1      45.118  25.013  27.607  1.00  0.00     0.074 A 
ATOM     39  C   UNL A   1      46.286  24.193  27.359  1.00  0.00     0.031 C 
ATOM     40  C   UNL A   1      43.840  24.606  27.406  1.00  0.00     0.037 A 
BRANCH  27  41
ATOM     41  C   UNL A   1      39.571  28.817  28.915  1.00  0.00     0.064 A 
ATOM     42  C   UNL A   1      38.894  28.668  30.135  1.00  0.00     0.173 A 
ATOM     43  C   UNL A   1      38.847  29.329  27.826  1.00  0.00     0.173 A 
ATOM     44  F   UNL A   1      39.533  28.175  31.206  1.00  0.00    -0.203 F 
ATOM     45  C   UNL A   1      37.541  28.985  30.249  1.00  0.00     0.198 A 
ATOM     46  C   UNL A   1      37.505  29.678  27.953  1.00  0.00     0.198 A 
ATOM     47  F   UNL A   1      39.444  29.502  26.637  1.00  0.00    -0.203 F 
ATOM     48  F   UNL A   1      36.903  28.781  31.410  1.00  0.00    -0.200 F 
ATOM     49  C   UNL A   1      36.851  29.497  29.162  1.00  0.00     0.200 A 
ATOM     50  F   UNL A   1      36.844  30.188  26.904  1.00  0.00    -0.200 F 
ATOM     51  F   UNL A   1      35.552  29.808  29.276  1.00  0.00    -0.200 F 
ENDBRANCH  27  41
BRANCH  28  52
ATOM     52  C   UNL A   1      49.365  26.872  28.415  1.00  0.00     0.064 A 
ATOM     53  C   UNL A   1      50.061  26.374  29.524  1.00  0.00     0.173 A 
ATOM     54  C   UNL A   1      50.090  27.084  27.232  1.00  0.00     0.173 A 
ATOM     55  F   UNL A   1      49.414  26.168  30.682  1.00  0.00    -0.203 F 
ATOM     56  C   UNL A   1      51.429  26.122  29.462  1.00  0.00     0.198 A 
ATOM     57  C   UNL A   1      51.451  26.798  27.161  1.00  0.00     0.198 A 
ATOM     58  F   UNL A   1      49.470  27.552  26.138  1.00  0.00    -0.203 F 
ATOM     59  F   UNL A   1      52.079  25.694  30.553  1.00  0.00    -0.200 F 
ATOM     60  C   UNL A   1      52.122  26.328  28.278  1.00  0.00     0.200 A 
ATOM     61  F   UNL A   1      52.111  26.977  26.008  1.00  0.00    -0.200 F 
ATOM     62  F   UNL A   1      53.437  26.078  28.217  1.00  0.00    -0.200 F 
ENDBRANCH  28  52
BRANCH  40  63
ATOM     63  C   UNL A   1      43.643  23.228  26.840  1.00  0.00     0.064 A 
ATOM     64  C   UNL A   1      43.030  22.202  27.575  1.00  0.00     0.173 A 
ATOM     65  C   UNL A   1      44.070  22.934  25.536  1.00  0.00     0.173 A 
ATOM     66  F   UNL A   1      42.620  22.424  28.832  1.00  0.00    -0.203 F 
ATOM     67  C   UNL A   1      42.887  20.924  27.039  1.00  0.00     0.198 A 
ATOM     68  C   UNL A   1      43.889  21.667  24.989  1.00  0.00     0.198 A 
ATOM     69  F   UNL A   1      44.656  23.879  24.785  1.00  0.00    -0.203 F 
ATOM     70  F   UNL A   1      42.360  19.943  27.784  1.00  0.00    -0.200 F 
ATOM     71  C   UNL A   1      43.309  20.659  25.745  1.00  0.00     0.200 A 
ATOM     72  F   UNL A   1      44.282  21.419  23.732  1.00  0.00    -0.200 F 
ATOM     73  F   UNL A   1      43.169  19.430  25.230  1.00  0.00    -0.200 F 
ENDBRANCH  40  63
ENDBRANCH  14  15
ENDBRANCH   7   9
ENDBRANCH   4   5
ENDBRANCH   3   4
ENDBRANCH   2   3
ENDBRANCH   1   2
BRANCH   1  74
ATOM     74  C   UNL A   1      41.044  35.339  28.577  1.00  0.00     0.021 C 
BRANCH  74  75
ATOM     75  C   UNL A   1      40.253  34.514  29.583  1.00  0.00     0.116 C 
BRANCH  75  76
ATOM     76  N   UNL A   1      40.694  34.707  30.947  1.00  0.00    -0.354 N 
ATOM     77  C   UNL A   1      40.164  34.225  32.112  1.00  0.00     0.247 C 
ATOM     78  H   UNL A   1      41.494  35.270  31.052  1.00  0.00     0.163 HD
ATOM     79  O   UNL A   1      40.530  34.785  33.151  1.00  0.00    -0.272 OA
BRANCH  77  80
ATOM     80  C   UNL A   1      39.093  33.088  32.152  1.00  0.00     0.211 C 
BRANCH  80  81
ATOM     81  C   UNL A   1      39.550  31.860  32.960  1.00  0.00    -0.016 A 
ATOM     82  C   UNL A   1      40.904  31.682  33.290  1.00  0.00     0.006 A 
ATOM     83  C   UNL A   1      38.656  30.838  33.328  1.00  0.00     0.006 A 
ATOM     84  C   UNL A   1      41.371  30.441  33.738  1.00  0.00     0.000 A 
ATOM     85  C   UNL A   1      39.120  29.602  33.786  1.00  0.00     0.000 A 
ATOM     86  C   UNL A   1      40.483  29.390  33.947  1.00  0.00     0.000 A 
ENDBRANCH  80  81
BRANCH  80  87
ATOM     87  N   UNL A   1      37.766  33.704  32.506  1.00  0.00    -0.276 N 
ATOM     88  C   UNL A   1      36.780  33.949  31.566  1.00  0.00     0.267 C 
ATOM     89  C   UNL A   1      37.418  34.025  33.808  1.00  0.00     0.149 C 
ATOM     90  O   UNL A   1      36.877  33.813  30.360  1.00  0.00    -0.268 OA
ATOM     91  C   UNL A   1      35.517  34.426  32.191  1.00  0.00     0.084 C 
ATOM     92  S   UNL A   1      35.755  34.615  33.879  1.00  0.00    -0.054 SA
ATOM     93  S   UNL A   1      38.331  33.898  35.199  1.00  0.00    -0.052 S 
ATOM     94  C   UNL A   1      34.364  34.681  31.553  1.00  0.00     0.068 C 
BRANCH  94  95
ATOM     95  C   UNL A   1      34.202  34.473  30.153  1.00  0.00     0.128 A 
ATOM     96  C   UNL A   1      34.509  35.324  29.095  1.00  0.00     0.051 A 
ATOM     97  O   UNL A   1      33.647  33.329  29.620  1.00  0.00    -0.457 OA
ATOM     98  C   UNL A   1      34.059  34.716  27.904  1.00  0.00     0.051 A 
ATOM     99  C   UNL A   1      33.552  33.491  28.270  1.00  0.00     0.134 A 
BRANCH  99 100
ATOM    100  C   UNL A   1      32.991  32.388  27.511  1.00  0.00     0.017 A 
ATOM    101  C   UNL A   1      31.756  32.501  26.858  1.00  0.00     0.015 A 
ATOM    102  C   UNL A   1      33.719  31.193  27.397  1.00  0.00     0.015 A 
ATOM    103  C   UNL A   1      31.259  31.435  26.102  1.00  0.00     0.040 A 
ATOM    104  C   UNL A   1      33.216  30.125  26.652  1.00  0.00     0.040 A 
ATOM    105  C   UNL A   1      31.993  30.258  26.009  1.00  0.00     0.123 A 
ATOM    106  F   UNL A   1      31.515  29.235  25.287  1.00  0.00    -0.207 F 
ENDBRANCH  99 100
ENDBRANCH  94  95
ENDBRANCH  80  87
ENDBRANCH  77  80
ENDBRANCH  75  76
ENDBRANCH  74  75
ENDBRANCH   1  74
TORSDOF 17
ENDMDL
MODEL 2
REMARK VINA RESULT:     -10.4      4.055      7.956
REMARK SMILES O=C(NCCCCCCNC(=O)[C@@H](c1ccccc1)N1C(=O)/C(=C\c2ccc(-c3ccc(F)cc3)o2)SC1=S)c1ccc(-c2c3nc(c(-c4c(F)c(F)c(F)c(F)c4F)c4ccc([nH]4)c(-c4c(F)c(F)c(F)c(F)c4F)c4nc(c(-c5c(F)c(F)c(F)c(F)c5F)c5ccc2[nH]5)C=C4)C=C3)cc1
REMARK SMILES IDX 7 1 6 2 5 3 4 4 3 5 1 6 2 7 40 9 41 10 102 11 42 12 101 13
REMARK SMILES IDX 43 14 44 15 45 16 95 17 46 18 100 19 94 20 96 21 47 22 99 23
REMARK SMILES IDX 93 24 92 25 48 27 80 28 60 29 79 30 61 31 64 32 78 33 97 34
REMARK SMILES IDX 62 35 63 36 77 38 98 39 65 40 49 41 50 42 58 43 51 44 52 45
REMARK SMILES IDX 56 46 59 47 53 48 54 49 57 50 55 51 81 52 82 53 90 54 83 55
REMARK SMILES IDX 84 56 88 57 91 58 85 59 86 60 89 61 87 62 66 63 67 64 75 65
REMARK SMILES IDX 68 66 69 67 73 68 76 69 70 70 71 71 74 72 72 73 8 74 9 75
REMARK SMILES IDX 10 76 11 77 12 79 13 80 14 81 15 82 19 83 16 84 18 85 17 86
REMARK SMILES IDX 20 87 21 88 38 89 22 90 23 91 37 92 39 93 24 94 25 95 26 96
REMARK SMILES IDX 36 97 27 98 28 99 29 100 30 101 35 102 31 103 34 104 32 105
REMARK SMILES IDX 33 106
REMARK H PARENT 3 8 96 26 64 37 10 78
REMARK Flexibility Score: inf
ROOT
ATOM      1  C   UNL A   1      37.777  32.295  35.495  1.00  0.00     0.002 C 
ENDROOT
BRANCH   1   2
ATOM      2  C   UNL A   1      38.242  32.263  36.952  1.00  0.00     0.002 C 
BRANCH   2   3
ATOM      3  C   UNL A   1      37.673  33.371  37.836  1.00  0.00     0.021 C 
BRANCH   3   4
ATOM      4  C   UNL A   1      38.598  33.828  38.954  1.00  0.00     0.116 C 
BRANCH   4   5
ATOM      5  N   UNL A   1      38.806  35.267  38.954  1.00  0.00    -0.352 N 
ATOM      6  O   UNL A   1      39.828  37.211  38.420  1.00  0.00    -0.269 OA
ATOM      7  C   UNL A   1      39.649  36.023  38.176  1.00  0.00     0.251 C 
ATOM      8  H   UNL A   1      38.267  35.771  39.604  1.00  0.00     0.163 HD
BRANCH   7   9
ATOM      9  C   UNL A   1      40.366  35.380  37.056  1.00  0.00     0.039 A 
ATOM     10  C   UNL A   1      39.799  35.352  35.781  1.00  0.00     0.014 A 
ATOM     11  C   UNL A   1      41.600  34.768  37.291  1.00  0.00     0.014 A 
ATOM     12  C   UNL A   1      40.367  34.560  34.795  1.00  0.00     0.010 A 
ATOM     13  C   UNL A   1      42.229  34.066  36.260  1.00  0.00     0.010 A 
ATOM     14  C   UNL A   1      41.597  33.919  35.015  1.00  0.00    -0.014 A 
BRANCH  14  15
ATOM     15  C   UNL A   1      42.215  33.144  33.907  1.00  0.00     0.031 A 
ATOM     16  C   UNL A   1      42.439  31.661  34.018  1.00  0.00     0.074 A 
ATOM     17  C   UNL A   1      42.537  33.794  32.772  1.00  0.00     0.049 A 
ATOM     18  N   UNL A   1      42.923  30.832  33.125  1.00  0.00    -0.248 NA
ATOM     19  C   UNL A   1      42.083  31.023  35.293  1.00  0.00     0.031 C 
ATOM     20  C   UNL A   1      42.374  35.234  32.554  1.00  0.00     0.029 A 
ATOM     21  N   UNL A   1      43.040  33.334  31.582  1.00  0.00    -0.354 N 
ATOM     22  C   UNL A   1      42.956  29.586  33.739  1.00  0.00     0.074 A 
ATOM     23  C   UNL A   1      42.467  29.771  35.089  1.00  0.00     0.031 C 
ATOM     24  C   UNL A   1      42.710  35.528  31.290  1.00  0.00     0.029 A 
ATOM     25  C   UNL A   1      43.183  34.317  30.633  1.00  0.00     0.049 A 
ATOM     26  H   UNL A   1      43.276  32.391  31.424  1.00  0.00     0.167 HD
ATOM     27  C   UNL A   1      43.352  28.398  33.218  1.00  0.00     0.037 A 
ATOM     28  C   UNL A   1      43.659  34.254  29.377  1.00  0.00     0.037 A 
ATOM     29  C   UNL A   1      43.826  28.223  31.867  1.00  0.00     0.049 A 
ATOM     30  C   UNL A   1      44.120  32.930  28.842  1.00  0.00     0.074 A 
ATOM     31  C   UNL A   1      44.204  27.055  31.230  1.00  0.00     0.029 A 
ATOM     32  N   UNL A   1      43.999  29.251  30.948  1.00  0.00    -0.354 N 
ATOM     33  N   UNL A   1      44.098  31.751  29.413  1.00  0.00    -0.248 NA
ATOM     34  C   UNL A   1      44.675  32.929  27.483  1.00  0.00     0.031 C 
ATOM     35  C   UNL A   1      44.670  27.381  29.952  1.00  0.00     0.029 A 
ATOM     36  C   UNL A   1      44.510  28.744  29.762  1.00  0.00     0.049 A 
ATOM     37  H   UNL A   1      43.790  30.198  31.114  1.00  0.00     0.167 HD
ATOM     38  C   UNL A   1      44.605  30.863  28.475  1.00  0.00     0.074 A 
ATOM     39  C   UNL A   1      44.907  31.639  27.290  1.00  0.00     0.031 C 
ATOM     40  C   UNL A   1      44.801  29.526  28.586  1.00  0.00     0.037 A 
BRANCH  27  41
ATOM     41  C   UNL A   1      43.324  27.194  34.119  1.00  0.00     0.064 A 
ATOM     42  C   UNL A   1      44.492  26.651  34.675  1.00  0.00     0.173 A 
ATOM     43  C   UNL A   1      42.100  26.598  34.465  1.00  0.00     0.173 A 
ATOM     44  F   UNL A   1      45.690  27.173  34.372  1.00  0.00    -0.203 F 
ATOM     45  C   UNL A   1      44.439  25.539  35.514  1.00  0.00     0.198 A 
ATOM     46  C   UNL A   1      42.048  25.510  35.331  1.00  0.00     0.198 A 
ATOM     47  F   UNL A   1      40.949  27.080  33.972  1.00  0.00    -0.203 F 
ATOM     48  F   UNL A   1      45.574  25.005  35.988  1.00  0.00    -0.200 F 
ATOM     49  C   UNL A   1      43.218  24.975  35.848  1.00  0.00     0.200 A 
ATOM     50  F   UNL A   1      40.864  24.977  35.666  1.00  0.00    -0.200 F 
ATOM     51  F   UNL A   1      43.168  23.910  36.660  1.00  0.00    -0.200 F 
ENDBRANCH  27  41
BRANCH  28  52
ATOM     52  C   UNL A   1      43.717  35.484  28.544  1.00  0.00     0.064 A 
ATOM     53  C   UNL A   1      44.921  36.177  28.365  1.00  0.00     0.173 A 
ATOM     54  C   UNL A   1      42.571  35.991  27.911  1.00  0.00     0.173 A 
ATOM     55  F   UNL A   1      46.040  35.739  28.961  1.00  0.00    -0.203 F 
ATOM     56  C   UNL A   1      44.974  37.343  27.605  1.00  0.00     0.198 A 
ATOM     57  C   UNL A   1      42.633  37.137  27.122  1.00  0.00     0.198 A 
ATOM     58  F   UNL A   1      41.395  35.361  28.044  1.00  0.00    -0.203 F 
ATOM     59  F   UNL A   1      46.129  38.013  27.492  1.00  0.00    -0.200 F 
ATOM     60  C   UNL A   1      43.831  37.819  26.979  1.00  0.00     0.200 A 
ATOM     61  F   UNL A   1      41.531  37.580  26.502  1.00  0.00    -0.200 F 
ATOM     62  F   UNL A   1      43.884  38.936  26.243  1.00  0.00    -0.200 F 
ENDBRANCH  28  52
BRANCH  40  63
ATOM     63  C   UNL A   1      45.320  28.809  27.371  1.00  0.00     0.064 A 
ATOM     64  C   UNL A   1      46.684  28.793  27.042  1.00  0.00     0.173 A 
ATOM     65  C   UNL A   1      44.435  28.120  26.527  1.00  0.00     0.173 A 
ATOM     66  F   UNL A   1      47.571  29.450  27.804  1.00  0.00    -0.203 F 
ATOM     67  C   UNL A   1      47.136  28.147  25.893  1.00  0.00     0.198 A 
ATOM     68  C   UNL A   1      44.896  27.443  25.402  1.00  0.00     0.198 A 
ATOM     69  F   UNL A   1      43.121  28.097  26.797  1.00  0.00    -0.203 F 
ATOM     70  F   UNL A   1      48.434  28.203  25.563  1.00  0.00    -0.200 F 
ATOM     71  C   UNL A   1      46.243  27.467  25.078  1.00  0.00     0.200 A 
ATOM     72  F   UNL A   1      44.033  26.772  24.626  1.00  0.00    -0.200 F 
ATOM     73  F   UNL A   1      46.680  26.845  23.975  1.00  0.00    -0.200 F 
ENDBRANCH  40  63
ENDBRANCH  14  15
ENDBRANCH   7   9
ENDBRANCH   4   5
ENDBRANCH   3   4
ENDBRANCH   2   3
ENDBRANCH   1   2
BRANCH   1  74
ATOM     74  C   UNL A   1      38.555  31.381  34.551  1.00  0.00     0.021 C 
BRANCH  74  75
ATOM     75  C   UNL A   1      38.156  31.486  33.085  1.00  0.00     0.116 C 
BRANCH  75  76
ATOM     76  N   UNL A   1      37.254  30.436  32.666  1.00  0.00    -0.354 N 
ATOM     77  C   UNL A   1      36.924  30.021  31.405  1.00  0.00     0.247 C 
ATOM     78  H   UNL A   1      36.812  29.947  33.397  1.00  0.00     0.163 HD
ATOM     79  O   UNL A   1      35.903  29.329  31.308  1.00  0.00    -0.272 OA
BRANCH  77  80
ATOM     80  C   UNL A   1      37.722  30.451  30.132  1.00  0.00     0.211 C 
BRANCH  80  81
ATOM     81  C   UNL A   1      38.565  29.307  29.538  1.00  0.00    -0.016 A 
ATOM     82  C   UNL A   1      39.184  29.449  28.285  1.00  0.00     0.006 A 
ATOM     83  C   UNL A   1      38.682  28.060  30.179  1.00  0.00     0.006 A 
ATOM     84  C   UNL A   1      39.678  28.331  27.603  1.00  0.00     0.000 A 
ATOM     85  C   UNL A   1      39.185  26.945  29.503  1.00  0.00     0.000 A 
ATOM     86  C   UNL A   1      39.640  27.073  28.197  1.00  0.00     0.000 A 
ENDBRANCH  80  81
BRANCH  80  87
ATOM     87  N   UNL A   1      36.781  31.178  29.211  1.00  0.00    -0.276 N 
ATOM     88  C   UNL A   1      35.799  30.531  28.481  1.00  0.00     0.267 C 
ATOM     89  C   UNL A   1      36.800  32.556  29.063  1.00  0.00     0.149 C 
ATOM     90  O   UNL A   1      35.631  29.329  28.396  1.00  0.00    -0.268 OA
ATOM     91  C   UNL A   1      34.914  31.487  27.763  1.00  0.00     0.084 C 
ATOM     92  S   UNL A   1      35.491  33.084  28.002  1.00  0.00    -0.054 SA
ATOM     93  S   UNL A   1      37.834  33.670  29.751  1.00  0.00    -0.052 S 
ATOM     94  C   UNL A   1      33.834  31.171  27.032  1.00  0.00     0.068 C 
BRANCH  94  95
ATOM     95  C   UNL A   1      33.369  29.832  26.892  1.00  0.00     0.128 A 
ATOM     96  C   UNL A   1      32.400  29.154  27.628  1.00  0.00     0.051 A 
ATOM     97  O   UNL A   1      33.879  28.950  25.964  1.00  0.00    -0.457 OA
ATOM     98  C   UNL A   1      32.379  27.814  27.188  1.00  0.00     0.051 A 
ATOM     99  C   UNL A   1      33.288  27.737  26.159  1.00  0.00     0.134 A 
BRANCH  99 100
ATOM    100  C   UNL A   1      33.686  26.658  25.272  1.00  0.00     0.017 A 
ATOM    101  C   UNL A   1      34.361  25.527  25.753  1.00  0.00     0.015 A 
ATOM    102  C   UNL A   1      33.356  26.732  23.910  1.00  0.00     0.015 A 
ATOM    103  C   UNL A   1      34.698  24.487  24.882  1.00  0.00     0.040 A 
ATOM    104  C   UNL A   1      33.704  25.698  23.039  1.00  0.00     0.040 A 
ATOM    105  C   UNL A   1      34.367  24.584  23.535  1.00  0.00     0.123 A 
ATOM    106  F   UNL A   1      34.693  23.587  22.700  1.00  0.00    -0.207 F 
ENDBRANCH  99 100
ENDBRANCH  94  95
ENDBRANCH  80  87
ENDBRANCH  77  80
ENDBRANCH  75  76
ENDBRANCH  74  75
ENDBRANCH   1  74
TORSDOF 17
ENDMDL
MODEL 3
REMARK VINA RESULT:     -10.0      4.015      7.668
REMARK SMILES O=C(NCCCCCCNC(=O)[C@@H](c1ccccc1)N1C(=O)/C(=C\c2ccc(-c3ccc(F)cc3)o2)SC1=S)c1ccc(-c2c3nc(c(-c4c(F)c(F)c(F)c(F)c4F)c4ccc([nH]4)c(-c4c(F)c(F)c(F)c(F)c4F)c4nc(c(-c5c(F)c(F)c(F)c(F)c5F)c5ccc2[nH]5)C=C4)C=C3)cc1
REMARK SMILES IDX 7 1 6 2 5 3 4 4 3 5 1 6 2 7 40 9 41 10 102 11 42 12 101 13
REMARK SMILES IDX 43 14 44 15 45 16 95 17 46 18 100 19 94 20 96 21 47 22 99 23
REMARK SMILES IDX 93 24 92 25 48 27 80 28 60 29 79 30 61 31 64 32 78 33 97 34
REMARK SMILES IDX 62 35 63 36 77 38 98 39 65 40 49 41 50 42 58 43 51 44 52 45
REMARK SMILES IDX 56 46 59 47 53 48 54 49 57 50 55 51 81 52 82 53 90 54 83 55
REMARK SMILES IDX 84 56 88 57 91 58 85 59 86 60 89 61 87 62 66 63 67 64 75 65
REMARK SMILES IDX 68 66 69 67 73 68 76 69 70 70 71 71 74 72 72 73 8 74 9 75
REMARK SMILES IDX 10 76 11 77 12 79 13 80 14 81 15 82 19 83 16 84 18 85 17 86
REMARK SMILES IDX 20 87 21 88 38 89 22 90 23 91 37 92 39 93 24 94 25 95 26 96
REMARK SMILES IDX 36 97 27 98 28 99 29 100 30 101 35 102 31 103 34 104 32 105
REMARK SMILES IDX 33 106
REMARK H PARENT 3 8 96 26 64 37 10 78
REMARK Flexibility Score: inf
ROOT
ATOM      1  C   UNL A   1      37.772  32.107  35.549  1.00  0.00     0.002 C 
ENDROOT
BRANCH   1   2
ATOM      2  C   UNL A   1      38.405  32.191  36.939  1.00  0.00     0.002 C 
BRANCH   2   3
ATOM      3  C   UNL A   1      37.810  33.256  37.858  1.00  0.00     0.021 C 
BRANCH   3   4
ATOM      4  C   UNL A   1      38.762  33.779  38.923  1.00  0.00     0.116 C 
BRANCH   4   5
ATOM      5  N   UNL A   1      38.903  35.226  38.885  1.00  0.00    -0.352 N 
ATOM      6  O   UNL A   1      39.812  37.202  38.271  1.00  0.00    -0.269 OA
ATOM      7  C   UNL A   1      39.680  36.001  38.059  1.00  0.00     0.251 C 
ATOM      8  H   UNL A   1      38.366  35.719  39.545  1.00  0.00     0.163 HD
BRANCH   7   9
ATOM      9  C   UNL A   1      40.383  35.366  36.926  1.00  0.00     0.039 A 
ATOM     10  C   UNL A   1      39.780  35.306  35.669  1.00  0.00     0.014 A 
ATOM     11  C   UNL A   1      41.642  34.796  37.131  1.00  0.00     0.014 A 
ATOM     12  C   UNL A   1      40.343  34.519  34.675  1.00  0.00     0.010 A 
ATOM     13  C   UNL A   1      42.262  34.100  36.090  1.00  0.00     0.010 A 
ATOM     14  C   UNL A   1      41.599  33.918  34.867  1.00  0.00    -0.014 A 
BRANCH  14  15
ATOM     15  C   UNL A   1      42.207  33.149  33.749  1.00  0.00     0.031 A 
ATOM     16  C   UNL A   1      42.613  33.820  32.467  1.00  0.00     0.074 A 
ATOM     17  C   UNL A   1      42.427  31.831  33.923  1.00  0.00     0.049 A 
ATOM     18  N   UNL A   1      43.198  33.301  31.415  1.00  0.00    -0.248 NA
ATOM     19  C   UNL A   1      42.322  35.255  32.340  1.00  0.00     0.031 C 
ATOM     20  C   UNL A   1      42.065  31.070  35.122  1.00  0.00     0.029 A 
ATOM     21  N   UNL A   1      43.028  30.904  33.112  1.00  0.00    -0.354 N 
ATOM     22  C   UNL A   1      43.318  34.335  30.494  1.00  0.00     0.074 A 
ATOM     23  C   UNL A   1      42.723  35.506  31.101  1.00  0.00     0.031 C 
ATOM     24  C   UNL A   1      42.506  29.811  34.994  1.00  0.00     0.029 A 
ATOM     25  C   UNL A   1      43.112  29.655  33.678  1.00  0.00     0.049 A 
ATOM     26  H   UNL A   1      43.367  31.113  32.211  1.00  0.00     0.167 HD
ATOM     27  C   UNL A   1      43.880  34.306  29.260  1.00  0.00     0.037 A 
ATOM     28  C   UNL A   1      43.606  28.505  33.185  1.00  0.00     0.037 A 
ATOM     29  C   UNL A   1      44.481  33.136  28.670  1.00  0.00     0.049 A 
ATOM     30  C   UNL A   1      44.191  28.500  31.803  1.00  0.00     0.074 A 
ATOM     31  C   UNL A   1      45.119  33.017  27.448  1.00  0.00     0.029 A 
ATOM     32  N   UNL A   1      44.508  31.877  29.257  1.00  0.00    -0.354 N 
ATOM     33  N   UNL A   1      44.346  29.495  30.964  1.00  0.00    -0.248 NA
ATOM     34  C   UNL A   1      44.671  27.208  31.299  1.00  0.00     0.031 C 
ATOM     35  C   UNL A   1      45.471  31.675  27.264  1.00  0.00     0.029 A 
ATOM     36  C   UNL A   1      45.121  30.970  28.405  1.00  0.00     0.049 A 
ATOM     37  H   UNL A   1      44.144  31.660  30.145  1.00  0.00     0.167 HD
ATOM     38  C   UNL A   1      44.969  28.958  29.847  1.00  0.00     0.074 A 
ATOM     39  C   UNL A   1      45.180  27.552  30.126  1.00  0.00     0.031 C 
ATOM     40  C   UNL A   1      45.332  29.574  28.695  1.00  0.00     0.037 A 
BRANCH  27  41
ATOM     41  C   UNL A   1      43.844  35.570  28.445  1.00  0.00     0.064 A 
ATOM     42  C   UNL A   1      42.665  36.036  27.843  1.00  0.00     0.173 A 
ATOM     43  C   UNL A   1      45.003  36.350  28.299  1.00  0.00     0.173 A 
ATOM     44  F   UNL A   1      41.531  35.328  27.942  1.00  0.00    -0.203 F 
ATOM     45  C   UNL A   1      42.656  37.215  27.099  1.00  0.00     0.198 A 
ATOM     46  C   UNL A   1      44.982  37.545  27.584  1.00  0.00     0.198 A 
ATOM     47  F   UNL A   1      46.157  35.959  28.859  1.00  0.00    -0.203 F 
ATOM     48  F   UNL A   1      41.530  37.611  26.488  1.00  0.00    -0.200 F 
ATOM     49  C   UNL A   1      43.811  37.972  26.978  1.00  0.00     0.200 A 
ATOM     50  F   UNL A   1      46.096  38.283  27.482  1.00  0.00    -0.200 F 
ATOM     51  F   UNL A   1      43.798  39.109  26.267  1.00  0.00    -0.200 F 
ENDBRANCH  27  41
BRANCH  28  52
ATOM     52  C   UNL A   1      43.569  27.270  34.011  1.00  0.00     0.064 A 
ATOM     53  C   UNL A   1      42.361  26.606  34.262  1.00  0.00     0.173 A 
ATOM     54  C   UNL A   1      44.739  26.727  34.566  1.00  0.00     0.173 A 
ATOM     55  F   UNL A   1      41.214  27.094  33.765  1.00  0.00    -0.203 F 
ATOM     56  C   UNL A   1      42.320  25.462  35.055  1.00  0.00     0.198 A 
ATOM     57  C   UNL A   1      44.701  25.563  35.328  1.00  0.00     0.198 A 
ATOM     58  F   UNL A   1      45.923  27.319  34.349  1.00  0.00    -0.203 F 
ATOM     59  F   UNL A   1      41.144  24.876  35.320  1.00  0.00    -0.200 F 
ATOM     60  C   UNL A   1      43.491  24.937  35.582  1.00  0.00     0.200 A 
ATOM     61  F   UNL A   1      45.838  25.048  35.817  1.00  0.00    -0.200 F 
ATOM     62  F   UNL A   1      43.451  23.833  36.339  1.00  0.00    -0.200 F 
ENDBRANCH  28  52
BRANCH  40  63
ATOM     63  C   UNL A   1      46.047  28.739  27.671  1.00  0.00     0.064 A 
ATOM     64  C   UNL A   1      45.364  28.083  26.635  1.00  0.00     0.173 A 
ATOM     65  C   UNL A   1      47.443  28.599  27.724  1.00  0.00     0.173 A 
ATOM     66  F   UNL A   1      44.028  28.169  26.547  1.00  0.00    -0.203 F 
ATOM     67  C   UNL A   1      46.046  27.290  25.716  1.00  0.00     0.198 A 
ATOM     68  C   UNL A   1      48.125  27.837  26.780  1.00  0.00     0.198 A 
ATOM     69  F   UNL A   1      48.148  29.209  28.689  1.00  0.00    -0.203 F 
ATOM     70  F   UNL A   1      45.364  26.619  24.777  1.00  0.00    -0.200 F 
ATOM     71  C   UNL A   1      47.426  27.173  25.784  1.00  0.00     0.200 A 
ATOM     72  F   UNL A   1      49.461  27.740  26.838  1.00  0.00    -0.200 F 
ATOM     73  F   UNL A   1      48.080  26.411  24.898  1.00  0.00    -0.200 F 
ENDBRANCH  40  63
ENDBRANCH  14  15
ENDBRANCH   7   9
ENDBRANCH   4   5
ENDBRANCH   3   4
ENDBRANCH   2   3
ENDBRANCH   1   2
BRANCH   1  74
ATOM     74  C   UNL A   1      38.595  31.347  34.512  1.00  0.00     0.021 C 
BRANCH  74  75
ATOM     75  C   UNL A   1      38.120  31.508  33.074  1.00  0.00     0.116 C 
BRANCH  75  76
ATOM     76  N   UNL A   1      37.236  30.447  32.647  1.00  0.00    -0.354 N 
ATOM     77  C   UNL A   1      36.911  30.036  31.383  1.00  0.00     0.247 C 
ATOM     78  H   UNL A   1      36.802  29.945  33.374  1.00  0.00     0.163 HD
ATOM     79  O   UNL A   1      35.903  29.328  31.280  1.00  0.00    -0.272 OA
BRANCH  77  80
ATOM     80  C   UNL A   1      37.701  30.490  30.113  1.00  0.00     0.211 C 
BRANCH  80  81
ATOM     81  C   UNL A   1      38.560  29.365  29.507  1.00  0.00    -0.016 A 
ATOM     82  C   UNL A   1      39.144  29.513  28.238  1.00  0.00     0.006 A 
ATOM     83  C   UNL A   1      38.726  28.126  30.153  1.00  0.00     0.006 A 
ATOM     84  C   UNL A   1      39.650  28.403  27.552  1.00  0.00     0.000 A 
ATOM     85  C   UNL A   1      39.241  27.020  29.474  1.00  0.00     0.000 A 
ATOM     86  C   UNL A   1      39.661  27.149  28.156  1.00  0.00     0.000 A 
ENDBRANCH  80  81
BRANCH  80  87
ATOM     87  N   UNL A   1      36.749  31.213  29.200  1.00  0.00    -0.276 N 
ATOM     88  C   UNL A   1      35.767  30.561  28.475  1.00  0.00     0.267 C 
ATOM     89  C   UNL A   1      36.756  32.591  29.058  1.00  0.00     0.149 C 
ATOM     90  O   UNL A   1      35.609  29.357  28.386  1.00  0.00    -0.268 OA
ATOM     91  C   UNL A   1      34.871  31.512  27.765  1.00  0.00     0.084 C 
ATOM     92  S   UNL A   1      35.436  33.113  28.006  1.00  0.00    -0.054 SA
ATOM     93  S   UNL A   1      37.785  33.711  29.743  1.00  0.00    -0.052 S 
ATOM     94  C   UNL A   1      33.789  31.190  27.039  1.00  0.00     0.068 C 
BRANCH  94  95
ATOM     95  C   UNL A   1      33.334  29.847  26.898  1.00  0.00     0.128 A 
ATOM     96  C   UNL A   1      32.365  29.164  27.627  1.00  0.00     0.051 A 
ATOM     97  O   UNL A   1      33.856  28.968  25.973  1.00  0.00    -0.457 OA
ATOM     98  C   UNL A   1      32.355  27.823  27.189  1.00  0.00     0.051 A 
ATOM     99  C   UNL A   1      33.272  27.751  26.166  1.00  0.00     0.134 A 
BRANCH  99 100
ATOM    100  C   UNL A   1      33.683  26.675  25.282  1.00  0.00     0.017 A 
ATOM    101  C   UNL A   1      34.174  25.462  25.786  1.00  0.00     0.015 A 
ATOM    102  C   UNL A   1      33.554  26.838  23.894  1.00  0.00     0.015 A 
ATOM    103  C   UNL A   1      34.525  24.429  24.912  1.00  0.00     0.040 A 
ATOM    104  C   UNL A   1      33.917  25.811  23.023  1.00  0.00     0.040 A 
ATOM    105  C   UNL A   1      34.396  24.615  23.540  1.00  0.00     0.123 A 
ATOM    106  F   UNL A   1      34.736  23.625  22.703  1.00  0.00    -0.207 F 
ENDBRANCH  99 100
ENDBRANCH  94  95
ENDBRANCH  80  87
ENDBRANCH  77  80
ENDBRANCH  75  76
ENDBRANCH  74  75
ENDBRANCH   1  74
TORSDOF 17
ENDMDL
