MODEL 1
REMARK VINA RESULT:     -11.8      0.000      0.000
REMARK SMILES N#C[C@@H](c1ccccc1)[C@H](CC(=O)NCCCCCCNC(=O)c1ccc(-c2c3nc(c(-c4c(F)c(F)c(F)c(F)c4F)c4ccc([nH]4)c(-c4c(F)c(F)c(F)c(F)c4F)c4nc(c(-c5c(F)c(F)c(F)c(F)c5F)c5ccc2[nH]5)C=C4)C=C3)cc1)c1ccccc1
REMARK SMILES IDX 17 1 16 2 15 3 14 4 12 5 13 6 11 8 10 9 3 10 2 11 1 12 4 13
REMARK SMILES IDX 5 14 9 15 6 16 8 17 7 18 87 19 88 20 92 21 89 22 91 23 90 24
REMARK SMILES IDX 18 25 19 26 20 27 21 28 22 29 23 31 24 32 25 33 86 34 26 35
REMARK SMILES IDX 85 36 27 37 28 38 29 39 79 40 30 41 84 42 78 43 80 44 31 45
REMARK SMILES IDX 83 46 77 47 76 48 32 50 64 51 44 52 63 53 45 54 48 55 62 56
REMARK SMILES IDX 81 57 46 58 47 59 61 61 82 62 49 63 33 64 34 65 42 66 35 67
REMARK SMILES IDX 36 68 40 69 43 70 37 71 38 72 41 73 39 74 65 75 66 76 74 77
REMARK SMILES IDX 67 78 68 79 72 80 75 81 69 82 70 83 73 84 71 85 50 86 51 87
REMARK SMILES IDX 59 88 52 89 53 90 57 91 60 92 54 93 55 94 58 95 56 96
REMARK H PARENT 14 7 21 30 80 49 48 60
REMARK Flexibility Score: inf
ROOT
ATOM      1  C   UNL A   1      31.816  29.352  26.781  1.00  0.00     0.002 C 
ENDROOT
BRANCH   1   2
ATOM      2  C   UNL A   1      33.054  28.578  26.316  1.00  0.00     0.021 C 
BRANCH   2   3
ATOM      3  C   UNL A   1      32.943  27.065  26.506  1.00  0.00     0.116 C 
BRANCH   3   4
ATOM      4  N   UNL A   1      31.589  26.612  26.759  1.00  0.00    -0.356 N 
ATOM      5  C   UNL A   1      30.615  26.114  25.959  1.00  0.00     0.220 C 
ATOM      6  O   UNL A   1      29.574  25.753  26.513  1.00  0.00    -0.275 OA
ATOM      7  H   UNL A   1      31.325  26.679  27.705  1.00  0.00     0.163 HD
BRANCH   5   8
ATOM      8  C   UNL A   1      30.756  25.969  24.451  1.00  0.00     0.110 C 
BRANCH   8   9
ATOM      9  C   UNL A   1      31.212  27.198  23.614  1.00  0.00     0.050 C 
BRANCH   9  10
ATOM     10  C   UNL A   1      32.385  26.771  22.607  1.00  0.00     0.130 C 
BRANCH  10  11
ATOM     11  C   UNL A   1      33.463  27.840  22.533  1.00  0.00     0.071 C 
ATOM     12  N   UNL A   1      34.356  28.727  22.471  1.00  0.00    -0.198 NA
ENDBRANCH  10  11
BRANCH  10  13
ATOM     13  C   UNL A   1      33.081  25.435  22.878  1.00  0.00    -0.030 A 
ATOM     14  C   UNL A   1      34.118  25.270  23.808  1.00  0.00     0.005 A 
ATOM     15  C   UNL A   1      32.741  24.333  22.066  1.00  0.00     0.005 A 
ATOM     16  C   UNL A   1      34.781  24.044  23.930  1.00  0.00     0.000 A 
ATOM     17  C   UNL A   1      33.412  23.114  22.182  1.00  0.00     0.000 A 
ATOM     18  C   UNL A   1      34.431  22.970  23.115  1.00  0.00     0.000 A 
ENDBRANCH  10  13
ENDBRANCH   9  10
BRANCH   9  19
ATOM     19  C   UNL A   1      30.063  28.121  23.110  1.00  0.00    -0.043 A 
ATOM     20  C   UNL A   1      30.364  29.337  22.464  1.00  0.00     0.004 A 
ATOM     21  C   UNL A   1      28.698  27.906  23.364  1.00  0.00     0.004 A 
ATOM     22  C   UNL A   1      29.374  30.162  21.913  1.00  0.00     0.000 A 
ATOM     23  C   UNL A   1      27.698  28.738  22.837  1.00  0.00     0.000 A 
ATOM     24  C   UNL A   1      28.036  29.848  22.078  1.00  0.00     0.000 A 
ENDBRANCH   9  19
ENDBRANCH   8   9
ENDBRANCH   5   8
ENDBRANCH   3   4
ENDBRANCH   2   3
ENDBRANCH   1   2
BRANCH   1  25
ATOM     25  C   UNL A   1      31.406  30.484  25.838  1.00  0.00     0.002 C 
BRANCH  25  26
ATOM     26  C   UNL A   1      31.252  31.853  26.509  1.00  0.00     0.021 C 
BRANCH  26  27
ATOM     27  C   UNL A   1      32.559  32.470  27.004  1.00  0.00     0.116 C 
BRANCH  27  28
ATOM     28  N   UNL A   1      32.379  33.850  27.418  1.00  0.00    -0.352 N 
ATOM     29  C   UNL A   1      33.017  34.546  28.413  1.00  0.00     0.251 C 
ATOM     30  H   UNL A   1      31.703  34.359  26.914  1.00  0.00     0.163 HD
ATOM     31  O   UNL A   1      32.594  35.638  28.774  1.00  0.00    -0.269 OA
BRANCH  29  32
ATOM     32  C   UNL A   1      34.210  33.967  29.066  1.00  0.00     0.039 A 
ATOM     33  C   UNL A   1      34.030  32.965  30.022  1.00  0.00     0.014 A 
ATOM     34  C   UNL A   1      35.496  34.426  28.759  1.00  0.00     0.014 A 
ATOM     35  C   UNL A   1      35.143  32.391  30.639  1.00  0.00     0.010 A 
ATOM     36  C   UNL A   1      36.608  33.815  29.334  1.00  0.00     0.010 A 
ATOM     37  C   UNL A   1      36.441  32.796  30.284  1.00  0.00    -0.014 A 
BRANCH  37  38
ATOM     38  C   UNL A   1      37.623  32.149  30.902  1.00  0.00     0.031 A 
ATOM     39  C   UNL A   1      38.077  32.540  32.280  1.00  0.00     0.074 A 
ATOM     40  C   UNL A   1      38.310  31.225  30.203  1.00  0.00     0.049 A 
ATOM     41  N   UNL A   1      39.069  32.061  32.990  1.00  0.00    -0.248 NA
ATOM     42  C   UNL A   1      37.337  33.626  32.938  1.00  0.00     0.031 C 
ATOM     43  C   UNL A   1      38.007  30.810  28.832  1.00  0.00     0.029 A 
ATOM     44  N   UNL A   1      39.401  30.470  30.548  1.00  0.00    -0.354 N 
ATOM     45  C   UNL A   1      39.075  32.791  34.170  1.00  0.00     0.074 A 
ATOM     46  C   UNL A   1      38.022  33.777  34.063  1.00  0.00     0.031 C 
ATOM     47  C   UNL A   1      38.877  29.857  28.461  1.00  0.00     0.029 A 
ATOM     48  C   UNL A   1      39.806  29.608  29.560  1.00  0.00     0.049 A 
ATOM     49  H   UNL A   1      39.852  30.541  31.420  1.00  0.00     0.167 HD
ATOM     50  C   UNL A   1      39.874  32.637  35.254  1.00  0.00     0.037 A 
ATOM     51  C   UNL A   1      40.807  28.708  29.545  1.00  0.00     0.037 A 
ATOM     52  C   UNL A   1      40.904  31.638  35.369  1.00  0.00     0.049 A 
ATOM     53  C   UNL A   1      41.655  28.532  30.775  1.00  0.00     0.074 A 
ATOM     54  C   UNL A   1      41.711  31.351  36.455  1.00  0.00     0.029 A 
ATOM     55  N   UNL A   1      41.272  30.765  34.355  1.00  0.00    -0.354 N 
ATOM     56  N   UNL A   1      41.593  29.165  31.919  1.00  0.00    -0.248 NA
ATOM     57  C   UNL A   1      42.704  27.505  30.712  1.00  0.00     0.031 C 
ATOM     58  C   UNL A   1      42.594  30.329  36.086  1.00  0.00     0.029 A 
ATOM     59  C   UNL A   1      42.310  29.952  34.784  1.00  0.00     0.049 A 
ATOM     60  H   UNL A   1      40.856  30.728  33.464  1.00  0.00     0.167 HD
ATOM     61  C   UNL A   1      42.580  28.606  32.719  1.00  0.00     0.074 A 
ATOM     62  C   UNL A   1      43.213  27.565  31.935  1.00  0.00     0.031 C 
ATOM     63  C   UNL A   1      42.934  28.928  33.988  1.00  0.00     0.037 A 
BRANCH  50  64
ATOM     64  C   UNL A   1      39.658  33.569  36.409  1.00  0.00     0.064 A 
ATOM     65  C   UNL A   1      38.847  33.212  37.498  1.00  0.00     0.173 A 
ATOM     66  C   UNL A   1      40.296  34.817  36.449  1.00  0.00     0.173 A 
ATOM     67  F   UNL A   1      38.205  32.034  37.504  1.00  0.00    -0.203 F 
ATOM     68  C   UNL A   1      38.664  34.082  38.570  1.00  0.00     0.198 A 
ATOM     69  C   UNL A   1      40.132  35.673  37.534  1.00  0.00     0.198 A 
ATOM     70  F   UNL A   1      41.087  35.204  35.436  1.00  0.00    -0.203 F 
ATOM     71  F   UNL A   1      37.850  33.737  39.578  1.00  0.00    -0.200 F 
ATOM     72  C   UNL A   1      39.310  35.308  38.590  1.00  0.00     0.200 A 
ATOM     73  F   UNL A   1      40.766  36.853  37.559  1.00  0.00    -0.200 F 
ATOM     74  F   UNL A   1      39.138  36.141  39.626  1.00  0.00    -0.200 F 
ENDBRANCH  50  64
BRANCH  51  75
ATOM     75  C   UNL A   1      41.032  27.876  28.337  1.00  0.00     0.064 A 
ATOM     76  C   UNL A   1      40.385  26.643  28.183  1.00  0.00     0.173 A 
ATOM     77  C   UNL A   1      41.887  28.300  27.310  1.00  0.00     0.173 A 
ATOM     78  F   UNL A   1      39.572  26.189  29.150  1.00  0.00    -0.203 F 
ATOM     79  C   UNL A   1      40.595  25.856  27.053  1.00  0.00     0.198 A 
ATOM     80  C   UNL A   1      42.079  27.523  26.170  1.00  0.00     0.198 A 
ATOM     81  F   UNL A   1      42.526  29.475  27.409  1.00  0.00    -0.203 F 
ATOM     82  F   UNL A   1      39.992  24.665  26.947  1.00  0.00    -0.200 F 
ATOM     83  C   UNL A   1      41.438  26.300  26.045  1.00  0.00     0.200 A 
ATOM     84  F   UNL A   1      42.884  27.961  25.192  1.00  0.00    -0.200 F 
ATOM     85  F   UNL A   1      41.636  25.546  24.955  1.00  0.00    -0.200 F 
ENDBRANCH  51  75
BRANCH  63  86
ATOM     86  C   UNL A   1      44.051  28.140  34.602  1.00  0.00     0.064 A 
ATOM     87  C   UNL A   1      45.374  28.606  34.580  1.00  0.00     0.173 A 
ATOM     88  C   UNL A   1      43.795  26.916  35.238  1.00  0.00     0.173 A 
ATOM     89  F   UNL A   1      45.671  29.764  33.969  1.00  0.00    -0.203 F 
ATOM     90  C   UNL A   1      46.405  27.863  35.147  1.00  0.00     0.198 A 
ATOM     91  C   UNL A   1      44.824  26.187  35.827  1.00  0.00     0.198 A 
ATOM     92  F   UNL A   1      42.547  26.429  35.291  1.00  0.00    -0.203 F 
ATOM     93  F   UNL A   1      47.668  28.304  35.070  1.00  0.00    -0.200 F 
ATOM     94  C   UNL A   1      46.128  26.656  35.774  1.00  0.00     0.200 A 
ATOM     95  F   UNL A   1      44.556  25.026  36.441  1.00  0.00    -0.200 F 
ATOM     96  F   UNL A   1      47.122  25.942  36.319  1.00  0.00    -0.200 F 
ENDBRANCH  63  86
ENDBRANCH  37  38
ENDBRANCH  29  32
ENDBRANCH  27  28
ENDBRANCH  26  27
ENDBRANCH  25  26
ENDBRANCH   1  25
TORSDOF 18
ENDMDL
MODEL 2
REMARK VINA RESULT:     -11.8      1.212      3.631
REMARK SMILES N#C[C@@H](c1ccccc1)[C@H](CC(=O)NCCCCCCNC(=O)c1ccc(-c2c3nc(c(-c4c(F)c(F)c(F)c(F)c4F)c4ccc([nH]4)c(-c4c(F)c(F)c(F)c(F)c4F)c4nc(c(-c5c(F)c(F)c(F)c(F)c5F)c5ccc2[nH]5)C=C4)C=C3)cc1)c1ccccc1
REMARK SMILES IDX 17 1 16 2 15 3 14 4 12 5 13 6 11 8 10 9 3 10 2 11 1 12 4 13
REMARK SMILES IDX 5 14 9 15 6 16 8 17 7 18 87 19 88 20 92 21 89 22 91 23 90 24
REMARK SMILES IDX 18 25 19 26 20 27 21 28 22 29 23 31 24 32 25 33 86 34 26 35
REMARK SMILES IDX 85 36 27 37 28 38 29 39 79 40 30 41 84 42 78 43 80 44 31 45
REMARK SMILES IDX 83 46 77 47 76 48 32 50 64 51 44 52 63 53 45 54 48 55 62 56
REMARK SMILES IDX 81 57 46 58 47 59 61 61 82 62 49 63 33 64 34 65 42 66 35 67
REMARK SMILES IDX 36 68 40 69 43 70 37 71 38 72 41 73 39 74 65 75 66 76 74 77
REMARK SMILES IDX 67 78 68 79 72 80 75 81 69 82 70 83 73 84 71 85 50 86 51 87
REMARK SMILES IDX 59 88 52 89 53 90 57 91 60 92 54 93 55 94 58 95 56 96
REMARK H PARENT 14 7 21 30 80 49 48 60
REMARK Flexibility Score: inf
ROOT
ATOM      1  C   UNL A   1      32.013  29.582  26.917  1.00  0.00     0.002 C 
ENDROOT
BRANCH   1   2
ATOM      2  C   UNL A   1      33.173  28.777  26.324  1.00  0.00     0.021 C 
BRANCH   2   3
ATOM      3  C   UNL A   1      33.695  29.331  24.998  1.00  0.00     0.116 C 
BRANCH   3   4
ATOM      4  N   UNL A   1      33.742  28.343  23.937  1.00  0.00    -0.356 N 
ATOM      5  C   UNL A   1      32.892  28.027  22.929  1.00  0.00     0.220 C 
ATOM      6  O   UNL A   1      33.270  27.157  22.140  1.00  0.00    -0.275 OA
ATOM      7  H   UNL A   1      34.557  27.791  23.952  1.00  0.00     0.163 HD
BRANCH   5   8
ATOM      8  C   UNL A   1      31.539  28.693  22.728  1.00  0.00     0.110 C 
BRANCH   8   9
ATOM      9  C   UNL A   1      30.300  28.127  23.478  1.00  0.00     0.050 C 
BRANCH   9  10
ATOM     10  C   UNL A   1      28.958  28.529  22.700  1.00  0.00     0.130 C 
BRANCH  10  11
ATOM     11  C   UNL A   1      27.730  27.948  23.384  1.00  0.00     0.071 C 
ATOM     12  N   UNL A   1      26.713  27.466  23.951  1.00  0.00    -0.198 NA
ENDBRANCH  10  11
BRANCH  10  13
ATOM     13  C   UNL A   1      28.700  30.022  22.483  1.00  0.00    -0.030 A 
ATOM     14  C   UNL A   1      28.403  30.589  21.234  1.00  0.00     0.005 A 
ATOM     15  C   UNL A   1      28.883  30.893  23.576  1.00  0.00     0.005 A 
ATOM     16  C   UNL A   1      28.282  31.975  21.089  1.00  0.00     0.000 A 
ATOM     17  C   UNL A   1      28.773  32.276  23.426  1.00  0.00     0.000 A 
ATOM     18  C   UNL A   1      28.471  32.817  22.182  1.00  0.00     0.000 A 
ENDBRANCH  10  13
ENDBRANCH   9  10
BRANCH   9  19
ATOM     19  C   UNL A   1      30.464  26.681  24.035  1.00  0.00    -0.043 A 
ATOM     20  C   UNL A   1      30.649  26.473  25.417  1.00  0.00     0.004 A 
ATOM     21  C   UNL A   1      30.576  25.528  23.240  1.00  0.00     0.004 A 
ATOM     22  C   UNL A   1      30.714  25.192  25.983  1.00  0.00     0.000 A 
ATOM     23  C   UNL A   1      30.664  24.242  23.794  1.00  0.00     0.000 A 
ATOM     24  C   UNL A   1      30.695  24.071  25.170  1.00  0.00     0.000 A 
ENDBRANCH   9  19
ENDBRANCH   8   9
ENDBRANCH   5   8
ENDBRANCH   3   4
ENDBRANCH   2   3
ENDBRANCH   1   2
BRANCH   1  25
ATOM     25  C   UNL A   1      31.411  30.603  25.949  1.00  0.00     0.002 C 
BRANCH  25  26
ATOM     26  C   UNL A   1      31.285  32.022  26.512  1.00  0.00     0.021 C 
BRANCH  26  27
ATOM     27  C   UNL A   1      32.570  32.585  27.114  1.00  0.00     0.116 C 
BRANCH  27  28
ATOM     28  N   UNL A   1      32.407  33.965  27.538  1.00  0.00    -0.352 N 
ATOM     29  C   UNL A   1      33.059  34.649  28.532  1.00  0.00     0.251 C 
ATOM     30  H   UNL A   1      31.732  34.483  27.042  1.00  0.00     0.163 HD
ATOM     31  O   UNL A   1      32.650  35.743  28.902  1.00  0.00    -0.269 OA
BRANCH  29  32
ATOM     32  C   UNL A   1      34.251  34.055  29.172  1.00  0.00     0.039 A 
ATOM     33  C   UNL A   1      34.068  33.085  30.159  1.00  0.00     0.014 A 
ATOM     34  C   UNL A   1      35.541  34.471  28.822  1.00  0.00     0.014 A 
ATOM     35  C   UNL A   1      35.180  32.497  30.765  1.00  0.00     0.010 A 
ATOM     36  C   UNL A   1      36.650  33.845  29.388  1.00  0.00     0.010 A 
ATOM     37  C   UNL A   1      36.479  32.857  30.369  1.00  0.00    -0.014 A 
BRANCH  37  38
ATOM     38  C   UNL A   1      37.659  32.194  30.977  1.00  0.00     0.031 A 
ATOM     39  C   UNL A   1      38.128  32.577  32.352  1.00  0.00     0.074 A 
ATOM     40  C   UNL A   1      38.328  31.263  30.271  1.00  0.00     0.049 A 
ATOM     41  N   UNL A   1      39.119  32.086  33.053  1.00  0.00    -0.248 NA
ATOM     42  C   UNL A   1      37.406  33.672  33.018  1.00  0.00     0.031 C 
ATOM     43  C   UNL A   1      38.009  30.854  28.902  1.00  0.00     0.029 A 
ATOM     44  N   UNL A   1      39.413  30.495  30.606  1.00  0.00    -0.354 N 
ATOM     45  C   UNL A   1      39.144  32.814  34.234  1.00  0.00     0.074 A 
ATOM     46  C   UNL A   1      38.102  33.813  34.137  1.00  0.00     0.031 C 
ATOM     47  C   UNL A   1      38.865  29.892  28.522  1.00  0.00     0.029 A 
ATOM     48  C   UNL A   1      39.799  29.629  29.613  1.00  0.00     0.049 A 
ATOM     49  H   UNL A   1      39.871  30.559  31.475  1.00  0.00     0.167 HD
ATOM     50  C   UNL A   1      39.949  32.649  35.311  1.00  0.00     0.037 A 
ATOM     51  C   UNL A   1      40.789  28.718  29.590  1.00  0.00     0.037 A 
ATOM     52  C   UNL A   1      40.968  31.637  35.417  1.00  0.00     0.049 A 
ATOM     53  C   UNL A   1      41.645  28.529  30.812  1.00  0.00     0.074 A 
ATOM     54  C   UNL A   1      41.780  31.338  36.496  1.00  0.00     0.029 A 
ATOM     55  N   UNL A   1      41.317  30.761  34.399  1.00  0.00    -0.354 N 
ATOM     56  N   UNL A   1      41.599  29.161  31.958  1.00  0.00    -0.248 NA
ATOM     57  C   UNL A   1      42.681  27.489  30.740  1.00  0.00     0.031 C 
ATOM     58  C   UNL A   1      42.647  30.306  36.119  1.00  0.00     0.029 A 
ATOM     59  C   UNL A   1      42.348  29.935  34.818  1.00  0.00     0.049 A 
ATOM     60  H   UNL A   1      40.894  30.730  33.511  1.00  0.00     0.167 HD
ATOM     61  C   UNL A   1      42.586  28.589  32.749  1.00  0.00     0.074 A 
ATOM     62  C   UNL A   1      43.200  27.542  31.959  1.00  0.00     0.031 C 
ATOM     63  C   UNL A   1      42.953  28.905  34.015  1.00  0.00     0.037 A 
BRANCH  50  64
ATOM     64  C   UNL A   1      39.753  33.581  36.470  1.00  0.00     0.064 A 
ATOM     65  C   UNL A   1      40.388  34.831  36.522  1.00  0.00     0.173 A 
ATOM     66  C   UNL A   1      38.891  33.240  37.522  1.00  0.00     0.173 A 
ATOM     67  F   UNL A   1      41.231  35.201  35.545  1.00  0.00    -0.203 F 
ATOM     68  C   UNL A   1      40.189  35.692  37.597  1.00  0.00     0.198 A 
ATOM     69  C   UNL A   1      38.674  34.114  38.584  1.00  0.00     0.198 A 
ATOM     70  F   UNL A   1      38.254  32.059  37.518  1.00  0.00    -0.203 F 
ATOM     71  F   UNL A   1      40.841  36.863  37.647  1.00  0.00    -0.200 F 
ATOM     72  C   UNL A   1      39.328  35.336  38.623  1.00  0.00     0.200 A 
ATOM     73  F   UNL A   1      37.832  33.774  39.569  1.00  0.00    -0.200 F 
ATOM     74  F   UNL A   1      39.131  36.169  39.655  1.00  0.00    -0.200 F 
ENDBRANCH  50  64
BRANCH  51  75
ATOM     75  C   UNL A   1      40.995  27.884  28.379  1.00  0.00     0.064 A 
ATOM     76  C   UNL A   1      41.869  28.294  27.364  1.00  0.00     0.173 A 
ATOM     77  C   UNL A   1      40.333  26.658  28.218  1.00  0.00     0.173 A 
ATOM     78  F   UNL A   1      42.509  29.469  27.466  1.00  0.00    -0.203 F 
ATOM     79  C   UNL A   1      42.062  27.517  26.224  1.00  0.00     0.198 A 
ATOM     80  C   UNL A   1      40.544  25.871  27.089  1.00  0.00     0.198 A 
ATOM     81  F   UNL A   1      39.491  26.220  29.165  1.00  0.00    -0.203 F 
ATOM     82  F   UNL A   1      42.875  27.950  25.251  1.00  0.00    -0.200 F 
ATOM     83  C   UNL A   1      41.404  26.304  26.090  1.00  0.00     0.200 A 
ATOM     84  F   UNL A   1      39.917  24.693  26.969  1.00  0.00    -0.200 F 
ATOM     85  F   UNL A   1      41.595  25.553  24.996  1.00  0.00    -0.200 F 
ENDBRANCH  51  75
BRANCH  63  86
ATOM     86  C   UNL A   1      44.066  28.102  34.620  1.00  0.00     0.064 A 
ATOM     87  C   UNL A   1      43.815  26.900  35.299  1.00  0.00     0.173 A 
ATOM     88  C   UNL A   1      45.398  28.527  34.503  1.00  0.00     0.173 A 
ATOM     89  F   UNL A   1      42.555  26.461  35.451  1.00  0.00    -0.203 F 
ATOM     90  C   UNL A   1      44.855  26.166  35.863  1.00  0.00     0.198 A 
ATOM     91  C   UNL A   1      46.438  27.777  35.046  1.00  0.00     0.198 A 
ATOM     92  F   UNL A   1      45.690  29.666  33.860  1.00  0.00    -0.203 F 
ATOM     93  F   UNL A   1      44.587  25.047  36.550  1.00  0.00    -0.200 F 
ATOM     94  C   UNL A   1      46.165  26.603  35.732  1.00  0.00     0.200 A 
ATOM     95  F   UNL A   1      47.704  28.195  34.912  1.00  0.00    -0.200 F 
ATOM     96  F   UNL A   1      47.165  25.896  36.277  1.00  0.00    -0.200 F 
ENDBRANCH  63  86
ENDBRANCH  37  38
ENDBRANCH  29  32
ENDBRANCH  27  28
ENDBRANCH  26  27
ENDBRANCH  25  26
ENDBRANCH   1  25
TORSDOF 18
ENDMDL
MODEL 3
REMARK VINA RESULT:     -11.8      1.608      3.552
REMARK SMILES N#C[C@@H](c1ccccc1)[C@H](CC(=O)NCCCCCCNC(=O)c1ccc(-c2c3nc(c(-c4c(F)c(F)c(F)c(F)c4F)c4ccc([nH]4)c(-c4c(F)c(F)c(F)c(F)c4F)c4nc(c(-c5c(F)c(F)c(F)c(F)c5F)c5ccc2[nH]5)C=C4)C=C3)cc1)c1ccccc1
REMARK SMILES IDX 17 1 16 2 15 3 14 4 12 5 13 6 11 8 10 9 3 10 2 11 1 12 4 13
REMARK SMILES IDX 5 14 9 15 6 16 8 17 7 18 87 19 88 20 92 21 89 22 91 23 90 24
REMARK SMILES IDX 18 25 19 26 20 27 21 28 22 29 23 31 24 32 25 33 86 34 26 35
REMARK SMILES IDX 85 36 27 37 28 38 29 39 79 40 30 41 84 42 78 43 80 44 31 45
REMARK SMILES IDX 83 46 77 47 76 48 32 50 64 51 44 52 63 53 45 54 48 55 62 56
REMARK SMILES IDX 81 57 46 58 47 59 61 61 82 62 49 63 33 64 34 65 42 66 35 67
REMARK SMILES IDX 36 68 40 69 43 70 37 71 38 72 41 73 39 74 65 75 66 76 74 77
REMARK SMILES IDX 67 78 68 79 72 80 75 81 69 82 70 83 73 84 71 85 50 86 51 87
REMARK SMILES IDX 59 88 52 89 53 90 57 91 60 92 54 93 55 94 58 95 56 96
REMARK H PARENT 14 7 21 30 80 49 48 60
REMARK Flexibility Score: inf
ROOT
ATOM      1  C   UNL A   1      32.386  29.785  26.886  1.00  0.00     0.002 C 
ENDROOT
BRANCH   1   2
ATOM      2  C   UNL A   1      31.763  28.477  27.382  1.00  0.00     0.021 C 
BRANCH   2   3
ATOM      3  C   UNL A   1      31.602  27.417  26.292  1.00  0.00     0.116 C 
BRANCH   3   4
ATOM      4  N   UNL A   1      31.301  26.096  26.810  1.00  0.00    -0.356 N 
ATOM      5  C   UNL A   1      31.840  24.871  26.590  1.00  0.00     0.220 C 
ATOM      6  O   UNL A   1      31.383  23.939  27.255  1.00  0.00    -0.275 OA
ATOM      7  H   UNL A   1      30.555  26.088  27.451  1.00  0.00     0.163 HD
BRANCH   5   8
ATOM      8  C   UNL A   1      32.963  24.611  25.597  1.00  0.00     0.110 C 
BRANCH   8   9
ATOM      9  C   UNL A   1      33.442  23.150  25.365  1.00  0.00     0.050 C 
BRANCH   9  10
ATOM     10  C   UNL A   1      32.581  22.469  24.197  1.00  0.00     0.130 C 
BRANCH  10  11
ATOM     11  C   UNL A   1      33.098  22.873  22.826  1.00  0.00     0.071 C 
ATOM     12  N   UNL A   1      33.527  23.208  21.689  1.00  0.00    -0.198 NA
ENDBRANCH  10  11
BRANCH  10  13
ATOM     13  C   UNL A   1      32.469  20.943  24.215  1.00  0.00    -0.030 A 
ATOM     14  C   UNL A   1      32.620  20.163  25.371  1.00  0.00     0.005 A 
ATOM     15  C   UNL A   1      32.320  20.274  22.983  1.00  0.00     0.005 A 
ATOM     16  C   UNL A   1      32.610  18.766  25.298  1.00  0.00     0.000 A 
ATOM     17  C   UNL A   1      32.322  18.880  22.911  1.00  0.00     0.000 A 
ATOM     18  C   UNL A   1      32.466  18.126  24.070  1.00  0.00     0.000 A 
ENDBRANCH  10  13
ENDBRANCH   9  10
BRANCH   9  19
ATOM     19  C   UNL A   1      34.986  22.944  25.404  1.00  0.00    -0.043 A 
ATOM     20  C   UNL A   1      35.528  21.643  25.358  1.00  0.00     0.004 A 
ATOM     21  C   UNL A   1      35.922  23.970  25.615  1.00  0.00     0.004 A 
ATOM     22  C   UNL A   1      36.908  21.404  25.300  1.00  0.00     0.000 A 
ATOM     23  C   UNL A   1      37.306  23.740  25.583  1.00  0.00     0.000 A 
ATOM     24  C   UNL A   1      37.800  22.459  25.387  1.00  0.00     0.000 A 
ENDBRANCH   9  19
ENDBRANCH   8   9
ENDBRANCH   5   8
ENDBRANCH   3   4
ENDBRANCH   2   3
ENDBRANCH   1   2
BRANCH   1  25
ATOM     25  C   UNL A   1      31.431  30.649  26.060  1.00  0.00     0.002 C 
BRANCH  25  26
ATOM     26  C   UNL A   1      31.337  32.110  26.512  1.00  0.00     0.021 C 
BRANCH  26  27
ATOM     27  C   UNL A   1      32.614  32.667  27.137  1.00  0.00     0.116 C 
BRANCH  27  28
ATOM     28  N   UNL A   1      32.440  34.037  27.586  1.00  0.00    -0.352 N 
ATOM     29  C   UNL A   1      33.084  34.706  28.595  1.00  0.00     0.251 C 
ATOM     30  H   UNL A   1      31.764  34.560  27.097  1.00  0.00     0.163 HD
ATOM     31  O   UNL A   1      32.667  35.791  28.984  1.00  0.00    -0.269 OA
BRANCH  29  32
ATOM     32  C   UNL A   1      34.278  34.108  29.229  1.00  0.00     0.039 A 
ATOM     33  C   UNL A   1      34.097  33.178  30.253  1.00  0.00     0.014 A 
ATOM     34  C   UNL A   1      35.568  34.481  28.834  1.00  0.00     0.014 A 
ATOM     35  C   UNL A   1      35.209  32.586  30.854  1.00  0.00     0.010 A 
ATOM     36  C   UNL A   1      36.676  33.850  29.397  1.00  0.00     0.010 A 
ATOM     37  C   UNL A   1      36.507  32.902  30.416  1.00  0.00    -0.014 A 
BRANCH  37  38
ATOM     38  C   UNL A   1      37.685  32.233  31.020  1.00  0.00     0.031 A 
ATOM     39  C   UNL A   1      38.160  32.613  32.393  1.00  0.00     0.074 A 
ATOM     40  C   UNL A   1      38.349  31.300  30.311  1.00  0.00     0.049 A 
ATOM     41  N   UNL A   1      39.151  32.117  33.091  1.00  0.00    -0.248 NA
ATOM     42  C   UNL A   1      37.445  33.710  33.062  1.00  0.00     0.031 C 
ATOM     43  C   UNL A   1      38.024  30.894  28.943  1.00  0.00     0.029 A 
ATOM     44  N   UNL A   1      39.431  30.527  30.642  1.00  0.00    -0.354 N 
ATOM     45  C   UNL A   1      39.182  32.844  34.274  1.00  0.00     0.074 A 
ATOM     46  C   UNL A   1      38.144  33.847  34.180  1.00  0.00     0.031 C 
ATOM     47  C   UNL A   1      38.875  29.928  28.559  1.00  0.00     0.029 A 
ATOM     48  C   UNL A   1      39.811  29.661  29.648  1.00  0.00     0.049 A 
ATOM     49  H   UNL A   1      39.893  30.588  31.509  1.00  0.00     0.167 HD
ATOM     50  C   UNL A   1      39.990  32.674  35.348  1.00  0.00     0.037 A 
ATOM     51  C   UNL A   1      40.798  28.745  29.620  1.00  0.00     0.037 A 
ATOM     52  C   UNL A   1      41.005  31.658  35.450  1.00  0.00     0.049 A 
ATOM     53  C   UNL A   1      41.656  28.552  30.840  1.00  0.00     0.074 A 
ATOM     54  C   UNL A   1      41.819  31.355  36.526  1.00  0.00     0.029 A 
ATOM     55  N   UNL A   1      41.347  30.781  34.430  1.00  0.00    -0.354 N 
ATOM     56  N   UNL A   1      41.616  29.183  31.987  1.00  0.00    -0.248 NA
ATOM     57  C   UNL A   1      42.687  27.508  30.763  1.00  0.00     0.031 C 
ATOM     58  C   UNL A   1      42.681  30.319  36.145  1.00  0.00     0.029 A 
ATOM     59  C   UNL A   1      42.376  29.951  34.845  1.00  0.00     0.049 A 
ATOM     60  H   UNL A   1      40.921  30.753  33.543  1.00  0.00     0.167 HD
ATOM     61  C   UNL A   1      42.603  28.606  32.774  1.00  0.00     0.074 A 
ATOM     62  C   UNL A   1      43.210  27.557  31.981  1.00  0.00     0.031 C 
ATOM     63  C   UNL A   1      42.975  28.919  34.040  1.00  0.00     0.037 A 
BRANCH  50  64
ATOM     64  C   UNL A   1      39.801  33.606  36.508  1.00  0.00     0.064 A 
ATOM     65  C   UNL A   1      40.454  34.847  36.567  1.00  0.00     0.173 A 
ATOM     66  C   UNL A   1      38.928  33.275  37.554  1.00  0.00     0.173 A 
ATOM     67  F   UNL A   1      41.308  35.207  35.596  1.00  0.00    -0.203 F 
ATOM     68  C   UNL A   1      40.261  35.707  37.644  1.00  0.00     0.198 A 
ATOM     69  C   UNL A   1      38.717  34.149  38.617  1.00  0.00     0.198 A 
ATOM     70  F   UNL A   1      38.273  32.103  37.543  1.00  0.00    -0.203 F 
ATOM     71  F   UNL A   1      40.930  36.869  37.700  1.00  0.00    -0.200 F 
ATOM     72  C   UNL A   1      39.389  35.361  38.664  1.00  0.00     0.200 A 
ATOM     73  F   UNL A   1      37.865  33.819  39.597  1.00  0.00    -0.200 F 
ATOM     74  F   UNL A   1      39.199  36.194  39.697  1.00  0.00    -0.200 F 
ENDBRANCH  50  64
BRANCH  51  75
ATOM     75  C   UNL A   1      40.996  27.912  28.408  1.00  0.00     0.064 A 
ATOM     76  C   UNL A   1      40.397  26.650  28.296  1.00  0.00     0.173 A 
ATOM     77  C   UNL A   1      41.776  28.364  27.334  1.00  0.00     0.173 A 
ATOM     78  F   UNL A   1      39.658  26.170  29.308  1.00  0.00    -0.203 F 
ATOM     79  C   UNL A   1      40.583  25.863  27.163  1.00  0.00     0.198 A 
ATOM     80  C   UNL A   1      41.943  27.586  26.191  1.00  0.00     0.198 A 
ATOM     81  F   UNL A   1      42.366  29.567  27.391  1.00  0.00    -0.203 F 
ATOM     82  F   UNL A   1      40.029  24.645  27.097  1.00  0.00    -0.200 F 
ATOM     83  C   UNL A   1      41.351  26.334  26.108  1.00  0.00     0.200 A 
ATOM     84  F   UNL A   1      42.675  28.050  25.168  1.00  0.00    -0.200 F 
ATOM     85  F   UNL A   1      41.525  25.580  25.014  1.00  0.00    -0.200 F 
ENDBRANCH  51  75
BRANCH  63  86
ATOM     86  C   UNL A   1      44.086  28.111  34.641  1.00  0.00     0.064 A 
ATOM     87  C   UNL A   1      43.830  26.923  35.340  1.00  0.00     0.173 A 
ATOM     88  C   UNL A   1      45.421  28.517  34.498  1.00  0.00     0.173 A 
ATOM     89  F   UNL A   1      42.567  26.502  35.517  1.00  0.00    -0.203 F 
ATOM     90  C   UNL A   1      44.869  26.184  35.901  1.00  0.00     0.198 A 
ATOM     91  C   UNL A   1      46.459  27.763  35.037  1.00  0.00     0.198 A 
ATOM     92  F   UNL A   1      45.719  29.643  33.834  1.00  0.00    -0.203 F 
ATOM     93  F   UNL A   1      44.597  25.079  36.608  1.00  0.00    -0.200 F 
ATOM     94  C   UNL A   1      46.182  26.602  35.744  1.00  0.00     0.200 A 
ATOM     95  F   UNL A   1      47.729  28.162  34.879  1.00  0.00    -0.200 F 
ATOM     96  F   UNL A   1      47.180  25.890  36.285  1.00  0.00    -0.200 F 
ENDBRANCH  63  86
ENDBRANCH  37  38
ENDBRANCH  29  32
ENDBRANCH  27  28
ENDBRANCH  26  27
ENDBRANCH  25  26
ENDBRANCH   1  25
TORSDOF 18
ENDMDL
