MODEL 1
REMARK VINA RESULT:     -12.2      0.000      0.000
REMARK SMILES C[C@H]1[C@H](C(=O)NCCCCCCNC(=O)c2ccc(-c3c4nc(c(-c5c(F)c(F)c(F)c(F)c5F)c5ccc([nH]5)c(-c5c(F)c(F)c(F)c(F)c5F)c5nc(c(-c6c(F)c(F)c(F)c(F)c6F)c6ccc3[nH]6)C=C5)C=C4)cc2)CCN1C(=O)[C@H]1CC[C@@H](C[NH3+])CC1
REMARK SMILES IDX 8 1 7 2 6 3 4 4 5 5 3 7 1 8 2 9 81 10 79 11 80 12 82 13
REMARK SMILES IDX 83 14 84 15 91 16 85 17 90 18 86 19 87 20 88 21 89 22 9 26
REMARK SMILES IDX 10 27 11 28 12 29 13 30 14 31 15 33 16 34 17 35 78 36 18 37
REMARK SMILES IDX 77 38 19 39 20 40 21 41 71 42 22 43 76 44 70 45 72 46 23 47
REMARK SMILES IDX 75 48 69 49 68 50 24 52 56 53 36 54 55 55 37 56 40 57 54 58
REMARK SMILES IDX 73 59 38 60 39 61 53 63 74 64 41 65 25 66 26 67 34 68 27 69
REMARK SMILES IDX 28 70 32 71 35 72 29 73 30 74 33 75 31 76 57 77 58 78 66 79
REMARK SMILES IDX 59 80 60 81 64 82 67 83 61 84 62 85 65 86 63 87 42 88 43 89
REMARK SMILES IDX 51 90 44 91 45 92 49 93 52 94 46 95 47 96 50 97 48 98
REMARK H PARENT 6 6 89 23 89 24 89 25 13 32 72 51 40 62
REMARK Flexibility Score: inf
ROOT
ATOM      1  C   UNL A   1      32.823  29.039  27.319  1.00  0.00     0.021 C 
ENDROOT
BRANCH   1   2
ATOM      2  C   UNL A   1      31.418  28.512  27.596  1.00  0.00     0.116 C 
BRANCH   2   3
ATOM      3  N   UNL A   1      31.366  27.076  27.421  1.00  0.00    -0.356 N 
ATOM      4  C   UNL A   1      31.384  26.316  26.300  1.00  0.00     0.225 C 
ATOM      5  O   UNL A   1      31.222  25.100  26.445  1.00  0.00    -0.275 OA
ATOM      6  H   UNL A   1      31.307  26.565  28.260  1.00  0.00     0.163 HD
BRANCH   4   7
ATOM      7  C   UNL A   1      31.577  26.890  24.906  1.00  0.00     0.102 C 
ATOM      8  C   UNL A   1      33.725  27.728  24.006  1.00  0.00     0.032 C 
ATOM      9  C   UNL A   1      32.890  26.454  24.214  1.00  0.00     0.094 C 
ATOM     10  N   UNL A   1      32.467  25.833  22.946  1.00  0.00    -0.339 N 
ATOM     11  C   UNL A   1      30.446  26.617  23.916  1.00  0.00     0.037 C 
ATOM     12  C   UNL A   1      31.140  26.322  22.597  1.00  0.00     0.120 C 
BRANCH  10  13
ATOM     13  C   UNL A   1      33.062  24.908  22.106  1.00  0.00     0.225 C 
ATOM     14  O   UNL A   1      33.300  25.218  20.929  1.00  0.00    -0.275 OA
BRANCH  13  15
ATOM     15  C   UNL A   1      33.398  23.461  22.518  1.00  0.00     0.078 C 
ATOM     16  C   UNL A   1      34.591  23.334  23.461  1.00  0.00     0.014 C 
ATOM     17  C   UNL A   1      32.160  22.673  22.946  1.00  0.00     0.014 C 
ATOM     18  C   UNL A   1      34.824  21.916  23.983  1.00  0.00     0.010 C 
ATOM     19  C   UNL A   1      32.478  21.275  23.472  1.00  0.00     0.010 C 
ATOM     20  C   UNL A   1      33.547  21.295  24.575  1.00  0.00     0.044 C 
BRANCH  20  21
ATOM     21  C   UNL A   1      33.116  22.028  25.864  1.00  0.00     0.262 C 
BRANCH  21  22
ATOM     22  N   UNL A   1      31.711  21.819  26.197  1.00  0.00    -0.357 N 
ATOM     23  H   UNL A   1      31.637  21.463  27.149  1.00  0.00     0.344 HD
ATOM     24  H   UNL A   1      31.305  21.144  25.548  1.00  0.00     0.344 HD
ATOM     25  H   UNL A   1      31.210  22.704  26.124  1.00  0.00     0.344 HD
ENDBRANCH  21  22
ENDBRANCH  20  21
ENDBRANCH  13  15
ENDBRANCH  10  13
ENDBRANCH   4   7
ENDBRANCH   2   3
ENDBRANCH   1   2
BRANCH   1  26
ATOM     26  C   UNL A   1      32.896  30.231  26.366  1.00  0.00     0.002 C 
BRANCH  26  27
ATOM     27  C   UNL A   1      31.550  30.880  26.034  1.00  0.00     0.002 C 
BRANCH  27  28
ATOM     28  C   UNL A   1      31.352  32.293  26.588  1.00  0.00     0.021 C 
BRANCH  28  29
ATOM     29  C   UNL A   1      32.562  32.876  27.313  1.00  0.00     0.116 C 
BRANCH  29  30
ATOM     30  N   UNL A   1      32.374  34.273  27.662  1.00  0.00    -0.352 N 
ATOM     31  C   UNL A   1      32.991  35.024  28.630  1.00  0.00     0.251 C 
ATOM     32  H   UNL A   1      31.702  34.753  27.125  1.00  0.00     0.163 HD
ATOM     33  O   UNL A   1      32.565  36.138  28.912  1.00  0.00    -0.269 OA
BRANCH  31  34
ATOM     34  C   UNL A   1      34.162  34.481  29.349  1.00  0.00     0.039 A 
ATOM     35  C   UNL A   1      33.962  33.842  30.575  1.00  0.00     0.014 A 
ATOM     36  C   UNL A   1      35.453  34.610  28.827  1.00  0.00     0.014 A 
ATOM     37  C   UNL A   1      35.048  33.280  31.248  1.00  0.00     0.010 A 
ATOM     38  C   UNL A   1      36.522  33.983  29.460  1.00  0.00     0.010 A 
ATOM     39  C   UNL A   1      36.332  33.316  30.680  1.00  0.00    -0.014 A 
BRANCH  39  40
ATOM     40  C   UNL A   1      37.484  32.658  31.346  1.00  0.00     0.031 A 
ATOM     41  C   UNL A   1      38.199  31.520  30.674  1.00  0.00     0.074 A 
ATOM     42  C   UNL A   1      37.850  33.050  32.582  1.00  0.00     0.049 A 
ATOM     43  N   UNL A   1      39.190  30.785  31.119  1.00  0.00    -0.248 NA
ATOM     44  C   UNL A   1      37.724  31.137  29.337  1.00  0.00     0.031 C 
ATOM     45  C   UNL A   1      37.206  34.112  33.356  1.00  0.00     0.029 A 
ATOM     46  N   UNL A   1      38.847  32.595  33.409  1.00  0.00    -0.354 N 
ATOM     47  C   UNL A   1      39.446  29.854  30.121  1.00  0.00     0.074 A 
ATOM     48  C   UNL A   1      38.471  30.076  29.076  1.00  0.00     0.031 C 
ATOM     49  C   UNL A   1      37.838  34.244  34.532  1.00  0.00     0.029 A 
ATOM     50  C   UNL A   1      38.904  33.251  34.615  1.00  0.00     0.049 A 
ATOM     51  H   UNL A   1      39.462  31.868  33.161  1.00  0.00     0.167 HD
ATOM     52  C   UNL A   1      40.422  28.915  30.073  1.00  0.00     0.037 A 
ATOM     53  C   UNL A   1      39.718  33.064  35.671  1.00  0.00     0.037 A 
ATOM     54  C   UNL A   1      41.398  28.709  31.111  1.00  0.00     0.049 A 
ATOM     55  C   UNL A   1      40.778  31.997  35.601  1.00  0.00     0.074 A 
ATOM     56  C   UNL A   1      42.462  27.823  31.130  1.00  0.00     0.029 A 
ATOM     57  N   UNL A   1      41.426  29.394  32.317  1.00  0.00    -0.354 N 
ATOM     58  N   UNL A   1      41.059  31.172  34.622  1.00  0.00    -0.248 NA
ATOM     59  C   UNL A   1      41.638  31.842  36.781  1.00  0.00     0.031 C 
ATOM     60  C   UNL A   1      43.098  27.932  32.371  1.00  0.00     0.029 A 
ATOM     61  C   UNL A   1      42.470  28.929  33.101  1.00  0.00     0.049 A 
ATOM     62  H   UNL A   1      40.798  30.105  32.577  1.00  0.00     0.167 HD
ATOM     63  C   UNL A   1      42.141  30.419  35.056  1.00  0.00     0.074 A 
ATOM     64  C   UNL A   1      42.479  30.899  36.380  1.00  0.00     0.031 C 
ATOM     65  C   UNL A   1      42.797  29.419  34.415  1.00  0.00     0.037 A 
BRANCH  52  66
ATOM     66  C   UNL A   1      40.479  28.036  28.856  1.00  0.00     0.064 A 
ATOM     67  C   UNL A   1      41.236  28.388  27.727  1.00  0.00     0.173 A 
ATOM     68  C   UNL A   1      39.796  26.811  28.828  1.00  0.00     0.173 A 
ATOM     69  F   UNL A   1      41.901  29.553  27.696  1.00  0.00    -0.203 F 
ATOM     70  C   UNL A   1      41.280  27.563  26.606  1.00  0.00     0.198 A 
ATOM     71  C   UNL A   1      39.869  25.972  27.718  1.00  0.00     0.198 A 
ATOM     72  F   UNL A   1      39.063  26.421  29.882  1.00  0.00    -0.203 F 
ATOM     73  F   UNL A   1      41.965  27.947  25.520  1.00  0.00    -0.200 F 
ATOM     74  C   UNL A   1      40.603  26.353  26.605  1.00  0.00     0.200 A 
ATOM     75  F   UNL A   1      39.227  24.796  27.726  1.00  0.00    -0.200 F 
ATOM     76  F   UNL A   1      40.651  25.557  25.528  1.00  0.00    -0.200 F 
ENDBRANCH  52  66
BRANCH  53  77
ATOM     77  C   UNL A   1      39.577  33.920  36.879  1.00  0.00     0.064 A 
ATOM     78  C   UNL A   1      38.814  33.494  37.976  1.00  0.00     0.173 A 
ATOM     79  C   UNL A   1      40.192  35.176  36.961  1.00  0.00     0.173 A 
ATOM     80  F   UNL A   1      38.190  32.307  37.937  1.00  0.00    -0.203 F 
ATOM     81  C   UNL A   1      38.654  34.303  39.099  1.00  0.00     0.198 A 
ATOM     82  C   UNL A   1      40.058  35.971  38.098  1.00  0.00     0.198 A 
ATOM     83  F   UNL A   1      40.937  35.629  35.942  1.00  0.00    -0.203 F 
ATOM     84  F   UNL A   1      37.880  33.892  40.112  1.00  0.00    -0.200 F 
ATOM     85  C   UNL A   1      39.281  35.538  39.162  1.00  0.00     0.200 A 
ATOM     86  F   UNL A   1      40.678  37.157  38.162  1.00  0.00    -0.200 F 
ATOM     87  F   UNL A   1      39.131  36.314  40.244  1.00  0.00    -0.200 F 
ENDBRANCH  53  77
BRANCH  65  88
ATOM     88  C   UNL A   1      43.968  28.799  35.125  1.00  0.00     0.064 A 
ATOM     89  C   UNL A   1      43.819  27.677  35.954  1.00  0.00     0.173 A 
ATOM     90  C   UNL A   1      45.261  29.312  34.940  1.00  0.00     0.173 A 
ATOM     91  F   UNL A   1      42.602  27.158  36.176  1.00  0.00    -0.203 F 
ATOM     92  C   UNL A   1      44.918  27.110  36.594  1.00  0.00     0.198 A 
ATOM     93  C   UNL A   1      46.361  28.721  35.554  1.00  0.00     0.198 A 
ATOM     94  F   UNL A   1      45.460  30.379  34.152  1.00  0.00    -0.203 F 
ATOM     95  F   UNL A   1      44.745  26.071  37.423  1.00  0.00    -0.200 F 
ATOM     96  C   UNL A   1      46.188  27.626  36.388  1.00  0.00     0.200 A 
ATOM     97  F   UNL A   1      47.590  29.212  35.340  1.00  0.00    -0.200 F 
ATOM     98  F   UNL A   1      47.245  27.073  36.998  1.00  0.00    -0.200 F 
ENDBRANCH  65  88
ENDBRANCH  39  40
ENDBRANCH  31  34
ENDBRANCH  29  30
ENDBRANCH  28  29
ENDBRANCH  27  28
ENDBRANCH  26  27
ENDBRANCH   1  26
TORSDOF 17
ENDMDL
MODEL 2
REMARK VINA RESULT:     -12.1      5.965     11.094
REMARK SMILES C[C@H]1[C@H](C(=O)NCCCCCCNC(=O)c2ccc(-c3c4nc(c(-c5c(F)c(F)c(F)c(F)c5F)c5ccc([nH]5)c(-c5c(F)c(F)c(F)c(F)c5F)c5nc(c(-c6c(F)c(F)c(F)c(F)c6F)c6ccc3[nH]6)C=C5)C=C4)cc2)CCN1C(=O)[C@H]1CC[C@@H](C[NH3+])CC1
REMARK SMILES IDX 8 1 7 2 6 3 4 4 5 5 3 7 1 8 2 9 81 10 79 11 80 12 82 13
REMARK SMILES IDX 83 14 84 15 91 16 85 17 90 18 86 19 87 20 88 21 89 22 9 26
REMARK SMILES IDX 10 27 11 28 12 29 13 30 14 31 15 33 16 34 17 35 78 36 18 37
REMARK SMILES IDX 77 38 19 39 20 40 21 41 71 42 22 43 76 44 70 45 72 46 23 47
REMARK SMILES IDX 75 48 69 49 68 50 24 52 56 53 36 54 55 55 37 56 40 57 54 58
REMARK SMILES IDX 73 59 38 60 39 61 53 63 74 64 41 65 25 66 26 67 34 68 27 69
REMARK SMILES IDX 28 70 32 71 35 72 29 73 30 74 33 75 31 76 57 77 58 78 66 79
REMARK SMILES IDX 59 80 60 81 64 82 67 83 61 84 62 85 65 86 63 87 42 88 43 89
REMARK SMILES IDX 51 90 44 91 45 92 49 93 52 94 46 95 47 96 50 97 48 98
REMARK H PARENT 6 6 89 23 89 24 89 25 13 32 72 51 40 62
REMARK Flexibility Score: inf
ROOT
ATOM      1  C   UNL A   1      37.716  22.902  25.584  1.00  0.00     0.021 C 
ENDROOT
BRANCH   1   2
ATOM      2  C   UNL A   1      36.523  23.721  26.067  1.00  0.00     0.116 C 
BRANCH   2   3
ATOM      3  N   UNL A   1      35.667  22.925  26.921  1.00  0.00    -0.356 N 
ATOM      4  C   UNL A   1      34.360  22.588  26.805  1.00  0.00     0.225 C 
ATOM      5  O   UNL A   1      33.855  21.973  27.749  1.00  0.00    -0.275 OA
ATOM      6  H   UNL A   1      36.112  22.568  27.723  1.00  0.00     0.163 HD
BRANCH   4   7
ATOM      7  C   UNL A   1      33.512  22.943  25.596  1.00  0.00     0.102 C 
ATOM      8  C   UNL A   1      34.364  23.137  23.279  1.00  0.00     0.032 C 
ATOM      9  C   UNL A   1      33.848  22.132  24.322  1.00  0.00     0.094 C 
ATOM     10  N   UNL A   1      32.579  21.496  23.927  1.00  0.00    -0.339 N 
ATOM     11  C   UNL A   1      32.002  22.843  25.795  1.00  0.00     0.037 C 
ATOM     12  C   UNL A   1      31.472  22.247  24.501  1.00  0.00     0.120 C 
BRANCH  10  13
ATOM     13  C   UNL A   1      32.283  20.368  23.180  1.00  0.00     0.225 C 
ATOM     14  O   UNL A   1      31.920  20.496  22.001  1.00  0.00    -0.275 OA
BRANCH  13  15
ATOM     15  C   UNL A   1      32.309  18.932  23.740  1.00  0.00     0.078 C 
ATOM     16  C   UNL A   1      33.081  17.934  22.883  1.00  0.00     0.014 C 
ATOM     17  C   UNL A   1      32.651  18.893  25.230  1.00  0.00     0.014 C 
ATOM     18  C   UNL A   1      33.228  16.551  23.519  1.00  0.00     0.010 C 
ATOM     19  C   UNL A   1      32.800  17.478  25.785  1.00  0.00     0.010 C 
ATOM     20  C   UNL A   1      33.772  16.625  24.956  1.00  0.00     0.044 C 
BRANCH  20  21
ATOM     21  C   UNL A   1      35.233  17.128  24.976  1.00  0.00     0.262 C 
BRANCH  21  22
ATOM     22  N   UNL A   1      36.110  16.303  25.799  1.00  0.00    -0.357 N 
ATOM     23  H   UNL A   1      36.166  16.698  26.736  1.00  0.00     0.344 HD
ATOM     24  H   UNL A   1      37.041  16.278  25.383  1.00  0.00     0.344 HD
ATOM     25  H   UNL A   1      35.735  15.356  25.851  1.00  0.00     0.344 HD
ENDBRANCH  21  22
ENDBRANCH  20  21
ENDBRANCH  13  15
ENDBRANCH  10  13
ENDBRANCH   4   7
ENDBRANCH   2   3
ENDBRANCH   1   2
BRANCH   1  26
ATOM     26  C   UNL A   1      37.405  21.883  24.489  1.00  0.00     0.002 C 
BRANCH  26  27
ATOM     27  C   UNL A   1      37.172  20.452  24.981  1.00  0.00     0.002 C 
BRANCH  27  28
ATOM     28  C   UNL A   1      38.403  19.543  24.952  1.00  0.00     0.021 C 
BRANCH  28  29
ATOM     29  C   UNL A   1      39.491  19.899  25.960  1.00  0.00     0.116 C 
BRANCH  29  30
ATOM     30  N   UNL A   1      40.562  18.918  25.983  1.00  0.00    -0.352 N 
ATOM     31  C   UNL A   1      41.918  19.105  26.070  1.00  0.00     0.251 C 
ATOM     32  H   UNL A   1      40.271  17.979  25.928  1.00  0.00     0.163 HD
ATOM     33  O   UNL A   1      42.684  18.167  25.878  1.00  0.00    -0.269 OA
BRANCH  31  34
ATOM     34  C   UNL A   1      42.459  20.446  26.376  1.00  0.00     0.039 A 
ATOM     35  C   UNL A   1      42.993  21.209  25.335  1.00  0.00     0.014 A 
ATOM     36  C   UNL A   1      42.454  20.945  27.682  1.00  0.00     0.014 A 
ATOM     37  C   UNL A   1      43.466  22.497  25.594  1.00  0.00     0.010 A 
ATOM     38  C   UNL A   1      42.855  22.255  27.924  1.00  0.00     0.010 A 
ATOM     39  C   UNL A   1      43.370  23.043  26.884  1.00  0.00    -0.014 A 
BRANCH  39  40
ATOM     40  C   UNL A   1      43.798  24.438  27.159  1.00  0.00     0.031 A 
ATOM     41  C   UNL A   1      42.806  25.453  27.654  1.00  0.00     0.074 A 
ATOM     42  C   UNL A   1      45.071  24.803  26.911  1.00  0.00     0.049 A 
ATOM     43  N   UNL A   1      42.978  26.728  27.899  1.00  0.00    -0.248 NA
ATOM     44  C   UNL A   1      41.433  24.980  27.878  1.00  0.00     0.031 C 
ATOM     45  C   UNL A   1      46.116  23.921  26.388  1.00  0.00     0.029 A 
ATOM     46  N   UNL A   1      45.701  26.014  27.057  1.00  0.00    -0.354 N 
ATOM     47  C   UNL A   1      41.736  27.206  28.296  1.00  0.00     0.074 A 
ATOM     48  C   UNL A   1      40.808  26.101  28.202  1.00  0.00     0.031 C 
ATOM     49  C   UNL A   1      47.261  24.613  26.281  1.00  0.00     0.029 A 
ATOM     50  C   UNL A   1      47.024  25.995  26.685  1.00  0.00     0.049 A 
ATOM     51  H   UNL A   1      45.248  26.820  27.394  1.00  0.00     0.167 HD
ATOM     52  C   UNL A   1      41.407  28.450  28.723  1.00  0.00     0.037 A 
ATOM     53  C   UNL A   1      47.938  26.983  26.665  1.00  0.00     0.037 A 
ATOM     54  C   UNL A   1      42.339  29.542  28.828  1.00  0.00     0.049 A 
ATOM     55  C   UNL A   1      47.539  28.361  27.121  1.00  0.00     0.074 A 
ATOM     56  C   UNL A   1      42.116  30.823  29.304  1.00  0.00     0.029 A 
ATOM     57  N   UNL A   1      43.671  29.484  28.446  1.00  0.00    -0.354 N 
ATOM     58  N   UNL A   1      46.381  28.784  27.564  1.00  0.00    -0.248 NA
ATOM     59  C   UNL A   1      48.580  29.397  27.078  1.00  0.00     0.031 C 
ATOM     60  C   UNL A   1      43.298  31.556  29.156  1.00  0.00     0.029 A 
ATOM     61  C   UNL A   1      44.276  30.716  28.646  1.00  0.00     0.049 A 
ATOM     62  H   UNL A   1      44.121  28.686  28.085  1.00  0.00     0.167 HD
ATOM     63  C   UNL A   1      46.559  30.124  27.878  1.00  0.00     0.074 A 
ATOM     64  C   UNL A   1      47.943  30.439  27.593  1.00  0.00     0.031 C 
ATOM     65  C   UNL A   1      45.655  31.014  28.361  1.00  0.00     0.037 A 
BRANCH  52  66
ATOM     66  C   UNL A   1      39.975  28.695  29.106  1.00  0.00     0.064 A 
ATOM     67  C   UNL A   1      39.032  29.158  28.175  1.00  0.00     0.173 A 
ATOM     68  C   UNL A   1      39.531  28.433  30.411  1.00  0.00     0.173 A 
ATOM     69  F   UNL A   1      39.404  29.433  26.916  1.00  0.00    -0.203 F 
ATOM     70  C   UNL A   1      37.707  29.380  28.545  1.00  0.00     0.198 A 
ATOM     71  C   UNL A   1      38.199  28.625  30.769  1.00  0.00     0.198 A 
ATOM     72  F   UNL A   1      40.388  27.983  31.340  1.00  0.00    -0.203 F 
ATOM     73  F   UNL A   1      36.839  29.874  27.652  1.00  0.00    -0.200 F 
ATOM     74  C   UNL A   1      37.291  29.107  29.838  1.00  0.00     0.200 A 
ATOM     75  F   UNL A   1      37.794  28.345  32.016  1.00  0.00    -0.200 F 
ATOM     76  F   UNL A   1      36.015  29.315  30.191  1.00  0.00    -0.200 F 
ENDBRANCH  52  66
BRANCH  53  77
ATOM     77  C   UNL A   1      49.327  26.701  26.214  1.00  0.00     0.064 A 
ATOM     78  C   UNL A   1      49.709  26.921  24.883  1.00  0.00     0.173 A 
ATOM     79  C   UNL A   1      50.296  26.204  27.096  1.00  0.00     0.173 A 
ATOM     80  F   UNL A   1      48.813  27.378  23.995  1.00  0.00    -0.203 F 
ATOM     81  C   UNL A   1      51.001  26.633  24.447  1.00  0.00     0.198 A 
ATOM     82  C   UNL A   1      51.597  25.946  26.668  1.00  0.00     0.198 A 
ATOM     83  F   UNL A   1      49.984  25.981  28.382  1.00  0.00    -0.203 F 
ATOM     84  F   UNL A   1      51.325  26.806  23.159  1.00  0.00    -0.200 F 
ATOM     85  C   UNL A   1      51.946  26.151  25.341  1.00  0.00     0.200 A 
ATOM     86  F   UNL A   1      52.510  25.496  27.538  1.00  0.00    -0.200 F 
ATOM     87  F   UNL A   1      53.188  25.877  24.923  1.00  0.00    -0.200 F 
ENDBRANCH  53  77
BRANCH  65  88
ATOM     88  C   UNL A   1      46.145  32.407  28.641  1.00  0.00     0.064 A 
ATOM     89  C   UNL A   1      46.027  33.436  27.694  1.00  0.00     0.173 A 
ATOM     90  C   UNL A   1      46.702  32.724  29.890  1.00  0.00     0.173 A 
ATOM     91  F   UNL A   1      45.516  33.181  26.481  1.00  0.00    -0.203 F 
ATOM     92  C   UNL A   1      46.476  34.723  27.977  1.00  0.00     0.198 A 
ATOM     93  C   UNL A   1      47.118  34.020  30.180  1.00  0.00     0.198 A 
ATOM     94  F   UNL A   1      46.831  31.780  30.833  1.00  0.00    -0.203 F 
ATOM     95  F   UNL A   1      46.403  35.677  27.039  1.00  0.00    -0.200 F 
ATOM     96  C   UNL A   1      47.014  35.016  29.221  1.00  0.00     0.200 A 
ATOM     97  F   UNL A   1      47.622  34.305  31.390  1.00  0.00    -0.200 F 
ATOM     98  F   UNL A   1      47.437  36.258  29.494  1.00  0.00    -0.200 F 
ENDBRANCH  65  88
ENDBRANCH  39  40
ENDBRANCH  31  34
ENDBRANCH  29  30
ENDBRANCH  28  29
ENDBRANCH  27  28
ENDBRANCH  26  27
ENDBRANCH   1  26
TORSDOF 17
ENDMDL
MODEL 3
REMARK VINA RESULT:     -12.0      1.397      2.261
REMARK SMILES C[C@H]1[C@H](C(=O)NCCCCCCNC(=O)c2ccc(-c3c4nc(c(-c5c(F)c(F)c(F)c(F)c5F)c5ccc([nH]5)c(-c5c(F)c(F)c(F)c(F)c5F)c5nc(c(-c6c(F)c(F)c(F)c(F)c6F)c6ccc3[nH]6)C=C5)C=C4)cc2)CCN1C(=O)[C@H]1CC[C@@H](C[NH3+])CC1
REMARK SMILES IDX 8 1 7 2 6 3 4 4 5 5 3 7 1 8 2 9 81 10 79 11 80 12 82 13
REMARK SMILES IDX 83 14 84 15 91 16 85 17 90 18 86 19 87 20 88 21 89 22 9 26
REMARK SMILES IDX 10 27 11 28 12 29 13 30 14 31 15 33 16 34 17 35 78 36 18 37
REMARK SMILES IDX 77 38 19 39 20 40 21 41 71 42 22 43 76 44 70 45 72 46 23 47
REMARK SMILES IDX 75 48 69 49 68 50 24 52 56 53 36 54 55 55 37 56 40 57 54 58
REMARK SMILES IDX 73 59 38 60 39 61 53 63 74 64 41 65 25 66 26 67 34 68 27 69
REMARK SMILES IDX 28 70 32 71 35 72 29 73 30 74 33 75 31 76 57 77 58 78 66 79
REMARK SMILES IDX 59 80 60 81 64 82 67 83 61 84 62 85 65 86 63 87 42 88 43 89
REMARK SMILES IDX 51 90 44 91 45 92 49 93 52 94 46 95 47 96 50 97 48 98
REMARK H PARENT 6 6 89 23 89 24 89 25 13 32 72 51 40 62
REMARK Flexibility Score: inf
ROOT
ATOM      1  C   UNL A   1      33.777  29.145  26.357  1.00  0.00     0.021 C 
ENDROOT
BRANCH   1   2
ATOM      2  C   UNL A   1      33.606  27.825  25.612  1.00  0.00     0.116 C 
BRANCH   2   3
ATOM      3  N   UNL A   1      32.626  26.988  26.270  1.00  0.00    -0.356 N 
ATOM      4  C   UNL A   1      32.452  25.645  26.259  1.00  0.00     0.225 C 
ATOM      5  O   UNL A   1      31.456  25.205  26.841  1.00  0.00    -0.275 OA
ATOM      6  H   UNL A   1      31.974  27.480  26.820  1.00  0.00     0.163 HD
BRANCH   4   7
ATOM      7  C   UNL A   1      33.404  24.687  25.564  1.00  0.00     0.102 C 
ATOM      8  C   UNL A   1      34.770  22.969  26.710  1.00  0.00     0.032 C 
ATOM      9  C   UNL A   1      33.377  23.244  26.122  1.00  0.00     0.094 C 
ATOM     10  N   UNL A   1      33.067  22.390  24.961  1.00  0.00    -0.339 N 
ATOM     11  C   UNL A   1      33.243  24.576  24.050  1.00  0.00     0.037 C 
ATOM     12  C   UNL A   1      33.424  23.099  23.740  1.00  0.00     0.120 C 
BRANCH  10  13
ATOM     13  C   UNL A   1      32.504  21.131  24.842  1.00  0.00     0.225 C 
ATOM     14  O   UNL A   1      31.408  20.901  25.374  1.00  0.00    -0.275 OA
BRANCH  13  15
ATOM     15  C   UNL A   1      33.189  19.944  24.136  1.00  0.00     0.078 C 
ATOM     16  C   UNL A   1      34.370  19.352  24.900  1.00  0.00     0.014 C 
ATOM     17  C   UNL A   1      32.185  18.915  23.617  1.00  0.00     0.014 C 
ATOM     18  C   UNL A   1      34.947  18.084  24.267  1.00  0.00     0.010 C 
ATOM     19  C   UNL A   1      32.839  17.672  23.018  1.00  0.00     0.010 C 
ATOM     20  C   UNL A   1      33.863  17.035  23.969  1.00  0.00     0.044 C 
BRANCH  20  21
ATOM     21  C   UNL A   1      33.254  16.475  25.275  1.00  0.00     0.262 C 
BRANCH  21  22
ATOM     22  N   UNL A   1      32.392  15.319  25.053  1.00  0.00    -0.357 N 
ATOM     23  H   UNL A   1      32.912  14.466  25.252  1.00  0.00     0.344 HD
ATOM     24  H   UNL A   1      32.080  15.310  24.082  1.00  0.00     0.344 HD
ATOM     25  H   UNL A   1      31.582  15.376  25.671  1.00  0.00     0.344 HD
ENDBRANCH  21  22
ENDBRANCH  20  21
ENDBRANCH  13  15
ENDBRANCH  10  13
ENDBRANCH   4   7
ENDBRANCH   2   3
ENDBRANCH   1   2
BRANCH   1  26
ATOM     26  C   UNL A   1      32.507  29.698  27.001  1.00  0.00     0.002 C 
BRANCH  26  27
ATOM     27  C   UNL A   1      31.653  30.589  26.095  1.00  0.00     0.002 C 
BRANCH  27  28
ATOM     28  C   UNL A   1      31.447  32.021  26.595  1.00  0.00     0.021 C 
BRANCH  28  29
ATOM     29  C   UNL A   1      32.664  32.651  27.265  1.00  0.00     0.116 C 
BRANCH  29  30
ATOM     30  N   UNL A   1      32.441  34.043  27.613  1.00  0.00    -0.352 N 
ATOM     31  C   UNL A   1      33.014  34.801  28.602  1.00  0.00     0.251 C 
ATOM     32  H   UNL A   1      31.779  34.514  27.056  1.00  0.00     0.163 HD
ATOM     33  O   UNL A   1      32.561  35.906  28.875  1.00  0.00    -0.269 OA
BRANCH  31  34
ATOM     34  C   UNL A   1      34.171  34.274  29.357  1.00  0.00     0.039 A 
ATOM     35  C   UNL A   1      33.936  33.477  30.480  1.00  0.00     0.014 A 
ATOM     36  C   UNL A   1      35.481  34.573  28.971  1.00  0.00     0.014 A 
ATOM     37  C   UNL A   1      35.012  32.930  31.179  1.00  0.00     0.010 A 
ATOM     38  C   UNL A   1      36.551  33.966  29.621  1.00  0.00     0.010 A 
ATOM     39  C   UNL A   1      36.328  33.143  30.735  1.00  0.00    -0.014 A 
BRANCH  39  40
ATOM     40  C   UNL A   1      37.480  32.507  31.423  1.00  0.00     0.031 A 
ATOM     41  C   UNL A   1      38.202  31.353  30.785  1.00  0.00     0.074 A 
ATOM     42  C   UNL A   1      37.841  32.934  32.649  1.00  0.00     0.049 A 
ATOM     43  N   UNL A   1      39.194  30.635  31.252  1.00  0.00    -0.248 NA
ATOM     44  C   UNL A   1      37.732  30.932  29.457  1.00  0.00     0.031 C 
ATOM     45  C   UNL A   1      37.192  34.016  33.391  1.00  0.00     0.029 A 
ATOM     46  N   UNL A   1      38.839  32.506  33.490  1.00  0.00    -0.354 N 
ATOM     47  C   UNL A   1      39.456  29.678  30.281  1.00  0.00     0.074 A 
ATOM     48  C   UNL A   1      38.483  29.867  29.227  1.00  0.00     0.031 C 
ATOM     49  C   UNL A   1      37.821  34.182  34.565  1.00  0.00     0.029 A 
ATOM     50  C   UNL A   1      38.889  33.195  34.678  1.00  0.00     0.049 A 
ATOM     51  H   UNL A   1      39.457  31.774  33.264  1.00  0.00     0.167 HD
ATOM     52  C   UNL A   1      40.435  28.741  30.262  1.00  0.00     0.037 A 
ATOM     53  C   UNL A   1      39.702  33.041  35.740  1.00  0.00     0.037 A 
ATOM     54  C   UNL A   1      41.409  28.567  31.307  1.00  0.00     0.049 A 
ATOM     55  C   UNL A   1      40.765  31.976  35.703  1.00  0.00     0.074 A 
ATOM     56  C   UNL A   1      42.476  27.686  31.355  1.00  0.00     0.029 A 
ATOM     57  N   UNL A   1      41.432  29.285  32.494  1.00  0.00    -0.354 N 
ATOM     58  N   UNL A   1      41.052  31.125  34.749  1.00  0.00    -0.248 NA
ATOM     59  C   UNL A   1      41.622  31.857  36.890  1.00  0.00     0.031 C 
ATOM     60  C   UNL A   1      43.108  27.831  32.593  1.00  0.00     0.029 A 
ATOM     61  C   UNL A   1      42.475  28.846  33.294  1.00  0.00     0.049 A 
ATOM     62  H   UNL A   1      40.800  30.001  32.733  1.00  0.00     0.167 HD
ATOM     63  C   UNL A   1      42.135  30.389  35.206  1.00  0.00     0.074 A 
ATOM     64  C   UNL A   1      42.468  30.907  36.517  1.00  0.00     0.031 C 
ATOM     65  C   UNL A   1      42.796  29.374  34.595  1.00  0.00     0.037 A 
BRANCH  52  66
ATOM     66  C   UNL A   1      40.498  27.829  29.070  1.00  0.00     0.064 A 
ATOM     67  C   UNL A   1      39.718  26.665  28.989  1.00  0.00     0.173 A 
ATOM     68  C   UNL A   1      41.325  28.138  27.978  1.00  0.00     0.173 A 
ATOM     69  F   UNL A   1      38.918  26.317  30.008  1.00  0.00    -0.203 F 
ATOM     70  C   UNL A   1      39.787  25.829  27.877  1.00  0.00     0.198 A 
ATOM     71  C   UNL A   1      41.367  27.318  26.853  1.00  0.00     0.198 A 
ATOM     72  F   UNL A   1      42.087  29.242  27.998  1.00  0.00    -0.203 F 
ATOM     73  F   UNL A   1      39.073  24.695  27.849  1.00  0.00    -0.200 F 
ATOM     74  C   UNL A   1      40.605  26.159  26.808  1.00  0.00     0.200 A 
ATOM     75  F   UNL A   1      42.146  27.647  25.814  1.00  0.00    -0.200 F 
ATOM     76  F   UNL A   1      40.666  25.358  25.736  1.00  0.00    -0.200 F 
ENDBRANCH  52  66
BRANCH  53  77
ATOM     77  C   UNL A   1      39.554  33.929  36.924  1.00  0.00     0.064 A 
ATOM     78  C   UNL A   1      38.784  33.534  38.027  1.00  0.00     0.173 A 
ATOM     79  C   UNL A   1      40.170  35.187  36.976  1.00  0.00     0.173 A 
ATOM     80  F   UNL A   1      38.158  32.347  38.017  1.00  0.00    -0.203 F 
ATOM     81  C   UNL A   1      38.618  34.373  39.128  1.00  0.00     0.198 A 
ATOM     82  C   UNL A   1      40.030  36.012  38.090  1.00  0.00     0.198 A 
ATOM     83  F   UNL A   1      40.922  35.611  35.950  1.00  0.00    -0.203 F 
ATOM     84  F   UNL A   1      37.837  33.991  40.146  1.00  0.00    -0.200 F 
ATOM     85  C   UNL A   1      39.246  35.609  39.161  1.00  0.00     0.200 A 
ATOM     86  F   UNL A   1      40.651  37.199  38.126  1.00  0.00    -0.200 F 
ATOM     87  F   UNL A   1      39.090  36.414  40.220  1.00  0.00    -0.200 F 
ENDBRANCH  53  77
BRANCH  65  88
ATOM     88  C   UNL A   1      43.967  28.778  35.325  1.00  0.00     0.064 A 
ATOM     89  C   UNL A   1      43.821  27.675  36.180  1.00  0.00     0.173 A 
ATOM     90  C   UNL A   1      45.258  29.292  35.132  1.00  0.00     0.173 A 
ATOM     91  F   UNL A   1      42.606  27.156  36.410  1.00  0.00    -0.203 F 
ATOM     92  C   UNL A   1      44.920  27.130  36.839  1.00  0.00     0.198 A 
ATOM     93  C   UNL A   1      46.359  28.723  35.766  1.00  0.00     0.198 A 
ATOM     94  F   UNL A   1      45.456  30.341  34.319  1.00  0.00    -0.203 F 
ATOM     95  F   UNL A   1      44.749  26.111  37.692  1.00  0.00    -0.200 F 
ATOM     96  C   UNL A   1      46.188  27.648  36.625  1.00  0.00     0.200 A 
ATOM     97  F   UNL A   1      47.587  29.215  35.545  1.00  0.00    -0.200 F 
ATOM     98  F   UNL A   1      47.246  27.116  37.253  1.00  0.00    -0.200 F 
ENDBRANCH  65  88
ENDBRANCH  39  40
ENDBRANCH  31  34
ENDBRANCH  29  30
ENDBRANCH  28  29
ENDBRANCH  27  28
ENDBRANCH  26  27
ENDBRANCH   1  26
TORSDOF 17
ENDMDL
