MODEL 1
REMARK VINA RESULT:     -12.2      0.000      0.000
REMARK SMILES Cc1nsc(NCc2ccncc2)c1C(=O)NCCCCCCNC(=O)c1ccc(-c2c3nc(c(-c4c(F)c(F)c(F)c(F)c4F)c4ccc([nH]4)c(-c4c(F)c(F)c(F)c(F)c4F)c4nc(c(-c5c(F)c(F)c(F)c(F)c5F)c5ccc2[nH]5)C=C4)C=C3)cc1
REMARK SMILES IDX 20 1 19 2 18 3 17 4 15 5 16 6 14 8 1 9 2 10 3 11 4 12 5 13
REMARK SMILES IDX 6 14 7 16 8 17 9 18 13 19 10 20 12 21 11 22 21 23 22 24
REMARK SMILES IDX 23 25 24 26 25 27 26 29 27 30 28 31 89 32 29 33 88 34 30 35
REMARK SMILES IDX 31 36 32 37 82 38 33 39 87 40 81 41 83 42 34 43 86 44 80 45
REMARK SMILES IDX 79 46 35 48 67 49 47 50 66 51 48 52 51 53 65 54 84 55 49 56
REMARK SMILES IDX 50 57 64 59 85 60 52 61 36 62 37 63 45 64 38 65 39 66 43 67
REMARK SMILES IDX 46 68 40 69 41 70 44 71 42 72 68 73 69 74 77 75 70 76 71 77
REMARK SMILES IDX 75 78 78 79 72 80 73 81 76 82 74 83 53 84 54 85 62 86 55 87
REMARK SMILES IDX 56 88 60 89 63 90 57 91 58 92 61 93 59 94
REMARK H PARENT 17 7 6 15 24 28 83 47 51 58
REMARK Flexibility Score: inf
ROOT
ATOM      1  C   UNL A   1      39.798  21.720  26.355  1.00  0.00     0.002 C 
ENDROOT
BRANCH   1   2
ATOM      2  C   UNL A   1      38.824  22.893  26.508  1.00  0.00     0.021 C 
BRANCH   2   3
ATOM      3  C   UNL A   1      37.572  22.759  25.648  1.00  0.00     0.116 C 
BRANCH   3   4
ATOM      4  N   UNL A   1      36.436  22.345  26.415  1.00  0.00    -0.352 N 
ATOM      5  C   UNL A   1      35.082  22.334  26.251  1.00  0.00     0.256 C 
ATOM      6  O   UNL A   1      34.527  21.798  27.225  1.00  0.00    -0.269 OA
ATOM      7  H   UNL A   1      36.701  21.970  27.286  1.00  0.00     0.163 HD
BRANCH   5   8
ATOM      8  C   UNL A   1      34.284  22.859  25.115  1.00  0.00     0.097 A 
ATOM      9  C   UNL A   1      34.404  25.561  24.963  1.00  0.00     0.069 C 
ATOM     10  C   UNL A   1      33.983  24.189  24.565  1.00  0.00     0.066 A 
ATOM     11  N   UNL A   1      33.181  24.221  23.500  1.00  0.00    -0.195 NA
ATOM     12  S   UNL A   1      32.731  22.715  23.088  1.00  0.00    -0.018 S 
ATOM     13  C   UNL A   1      33.607  21.908  24.314  1.00  0.00     0.122 A 
BRANCH  13  14
ATOM     14  N   UNL A   1      33.632  20.554  24.466  1.00  0.00    -0.371 N 
ATOM     15  H   UNL A   1      34.498  20.109  24.314  1.00  0.00     0.161 HD
BRANCH  14  16
ATOM     16  C   UNL A   1      32.523  19.705  24.826  1.00  0.00     0.149 C 
BRANCH  16  17
ATOM     17  C   UNL A   1      32.936  18.261  24.701  1.00  0.00    -0.026 A 
ATOM     18  C   UNL A   1      32.603  17.338  25.698  1.00  0.00     0.025 A 
ATOM     19  C   UNL A   1      33.650  17.810  23.588  1.00  0.00     0.025 A 
ATOM     20  C   UNL A   1      33.013  16.023  25.550  1.00  0.00     0.111 A 
ATOM     21  C   UNL A   1      34.016  16.474  23.534  1.00  0.00     0.111 A 
ATOM     22  N   UNL A   1      33.719  15.571  24.491  1.00  0.00    -0.265 NA
ENDBRANCH  16  17
ENDBRANCH  14  16
ENDBRANCH  13  14
ENDBRANCH   5   8
ENDBRANCH   3   4
ENDBRANCH   2   3
ENDBRANCH   1   2
BRANCH   1  23
ATOM     23  C   UNL A   1      40.818  21.544  27.495  1.00  0.00     0.002 C 
BRANCH  23  24
ATOM     24  C   UNL A   1      41.904  20.475  27.291  1.00  0.00     0.021 C 
BRANCH  24  25
ATOM     25  C   UNL A   1      41.950  19.934  25.874  1.00  0.00     0.116 C 
BRANCH  25  26
ATOM     26  N   UNL A   1      43.321  19.667  25.420  1.00  0.00    -0.352 N 
ATOM     27  C   UNL A   1      44.293  20.565  25.001  1.00  0.00     0.251 C 
ATOM     28  H   UNL A   1      43.587  18.719  25.410  1.00  0.00     0.163 HD
ATOM     29  O   UNL A   1      45.253  20.211  24.348  1.00  0.00    -0.269 OA
BRANCH  27  30
ATOM     30  C   UNL A   1      44.129  21.973  25.395  1.00  0.00     0.039 A 
ATOM     31  C   UNL A   1      43.216  22.836  24.786  1.00  0.00     0.014 A 
ATOM     32  C   UNL A   1      44.890  22.386  26.477  1.00  0.00     0.014 A 
ATOM     33  C   UNL A   1      43.041  24.103  25.337  1.00  0.00     0.010 A 
ATOM     34  C   UNL A   1      44.489  23.477  27.180  1.00  0.00     0.010 A 
ATOM     35  C   UNL A   1      43.683  24.406  26.548  1.00  0.00    -0.014 A 
BRANCH  35  36
ATOM     36  C   UNL A   1      43.516  25.672  27.241  1.00  0.00     0.031 A 
ATOM     37  C   UNL A   1      44.487  26.711  26.833  1.00  0.00     0.074 A 
ATOM     38  C   UNL A   1      42.419  25.927  27.992  1.00  0.00     0.049 A 
ATOM     39  N   UNL A   1      45.462  27.187  27.530  1.00  0.00    -0.248 NA
ATOM     40  C   UNL A   1      44.482  27.166  25.432  1.00  0.00     0.031 C 
ATOM     41  C   UNL A   1      41.234  25.071  28.192  1.00  0.00     0.029 A 
ATOM     42  N   UNL A   1      42.074  27.058  28.667  1.00  0.00    -0.354 N 
ATOM     43  C   UNL A   1      46.029  28.187  26.745  1.00  0.00     0.074 A 
ATOM     44  C   UNL A   1      45.544  27.975  25.409  1.00  0.00     0.031 C 
ATOM     45  C   UNL A   1      40.221  25.795  28.714  1.00  0.00     0.029 A 
ATOM     46  C   UNL A   1      40.746  27.093  29.083  1.00  0.00     0.049 A 
ATOM     47  H   UNL A   1      42.708  27.791  28.844  1.00  0.00     0.167 HD
ATOM     48  C   UNL A   1      46.562  29.291  27.339  1.00  0.00     0.037 A 
ATOM     49  C   UNL A   1      40.121  28.114  29.712  1.00  0.00     0.037 A 
ATOM     50  C   UNL A   1      46.716  29.072  28.757  1.00  0.00     0.049 A 
ATOM     51  C   UNL A   1      41.175  28.926  30.359  1.00  0.00     0.074 A 
ATOM     52  C   UNL A   1      47.580  28.382  29.579  1.00  0.00     0.029 A 
ATOM     53  N   UNL A   1      45.572  29.310  29.471  1.00  0.00    -0.354 N 
ATOM     54  N   UNL A   1      41.939  28.470  31.315  1.00  0.00    -0.248 NA
ATOM     55  C   UNL A   1      41.658  30.128  29.691  1.00  0.00     0.031 C 
ATOM     56  C   UNL A   1      46.841  28.075  30.764  1.00  0.00     0.029 A 
ATOM     57  C   UNL A   1      45.565  28.623  30.653  1.00  0.00     0.049 A 
ATOM     58  H   UNL A   1      44.846  29.903  29.170  1.00  0.00     0.167 HD
ATOM     59  C   UNL A   1      43.164  29.064  31.088  1.00  0.00     0.074 A 
ATOM     60  C   UNL A   1      42.891  30.190  30.203  1.00  0.00     0.031 C 
ATOM     61  C   UNL A   1      44.323  28.398  31.358  1.00  0.00     0.037 A 
BRANCH  48  62
ATOM     62  C   UNL A   1      46.442  30.705  26.803  1.00  0.00     0.064 A 
ATOM     63  C   UNL A   1      47.589  31.529  26.809  1.00  0.00     0.173 A 
ATOM     64  C   UNL A   1      45.216  31.379  26.612  1.00  0.00     0.173 A 
ATOM     65  F   UNL A   1      48.807  31.001  27.000  1.00  0.00    -0.203 F 
ATOM     66  C   UNL A   1      47.501  32.921  26.712  1.00  0.00     0.198 A 
ATOM     67  C   UNL A   1      45.139  32.763  26.467  1.00  0.00     0.198 A 
ATOM     68  F   UNL A   1      44.037  30.754  26.677  1.00  0.00    -0.203 F 
ATOM     69  F   UNL A   1      48.604  33.670  26.848  1.00  0.00    -0.200 F 
ATOM     70  C   UNL A   1      46.275  33.538  26.549  1.00  0.00     0.200 A 
ATOM     71  F   UNL A   1      43.937  33.344  26.334  1.00  0.00    -0.200 F 
ATOM     72  F   UNL A   1      46.179  34.873  26.520  1.00  0.00    -0.200 F 
ENDBRANCH  48  62
BRANCH  49  73
ATOM     73  C   UNL A   1      38.730  28.585  29.534  1.00  0.00     0.064 A 
ATOM     74  C   UNL A   1      37.899  28.839  30.636  1.00  0.00     0.173 A 
ATOM     75  C   UNL A   1      38.292  29.082  28.289  1.00  0.00     0.173 A 
ATOM     76  F   UNL A   1      38.264  28.428  31.859  1.00  0.00    -0.203 F 
ATOM     77  C   UNL A   1      36.722  29.584  30.509  1.00  0.00     0.198 A 
ATOM     78  C   UNL A   1      37.119  29.825  28.165  1.00  0.00     0.198 A 
ATOM     79  F   UNL A   1      39.050  28.940  27.191  1.00  0.00    -0.203 F 
ATOM     80  F   UNL A   1      35.989  29.865  31.597  1.00  0.00    -0.200 F 
ATOM     81  C   UNL A   1      36.341  30.090  29.278  1.00  0.00     0.200 A 
ATOM     82  F   UNL A   1      36.782  30.342  26.974  1.00  0.00    -0.200 F 
ATOM     83  F   UNL A   1      35.255  30.868  29.170  1.00  0.00    -0.200 F 
ENDBRANCH  49  73
BRANCH  61  84
ATOM     84  C   UNL A   1      44.258  27.259  32.327  1.00  0.00     0.064 A 
ATOM     85  C   UNL A   1      44.241  25.904  31.961  1.00  0.00     0.173 A 
ATOM     86  C   UNL A   1      44.305  27.559  33.693  1.00  0.00     0.173 A 
ATOM     87  F   UNL A   1      44.268  25.538  30.676  1.00  0.00    -0.203 F 
ATOM     88  C   UNL A   1      44.243  24.897  32.925  1.00  0.00     0.198 A 
ATOM     89  C   UNL A   1      44.339  26.554  34.653  1.00  0.00     0.198 A 
ATOM     90  F   UNL A   1      44.365  28.839  34.096  1.00  0.00    -0.203 F 
ATOM     91  F   UNL A   1      44.218  23.608  32.551  1.00  0.00    -0.200 F 
ATOM     92  C   UNL A   1      44.300  25.222  34.270  1.00  0.00     0.200 A 
ATOM     93  F   UNL A   1      44.433  26.875  35.949  1.00  0.00    -0.200 F 
ATOM     94  F   UNL A   1      44.337  24.255  35.197  1.00  0.00    -0.200 F 
ENDBRANCH  61  84
ENDBRANCH  35  36
ENDBRANCH  27  30
ENDBRANCH  25  26
ENDBRANCH  24  25
ENDBRANCH  23  24
ENDBRANCH   1  23
TORSDOF 16
ENDMDL
MODEL 2
REMARK VINA RESULT:     -12.0      1.310      3.513
REMARK SMILES Cc1nsc(NCc2ccncc2)c1C(=O)NCCCCCCNC(=O)c1ccc(-c2c3nc(c(-c4c(F)c(F)c(F)c(F)c4F)c4ccc([nH]4)c(-c4c(F)c(F)c(F)c(F)c4F)c4nc(c(-c5c(F)c(F)c(F)c(F)c5F)c5ccc2[nH]5)C=C4)C=C3)cc1
REMARK SMILES IDX 20 1 19 2 18 3 17 4 15 5 16 6 14 8 1 9 2 10 3 11 4 12 5 13
REMARK SMILES IDX 6 14 7 16 8 17 9 18 13 19 10 20 12 21 11 22 21 23 22 24
REMARK SMILES IDX 23 25 24 26 25 27 26 29 27 30 28 31 89 32 29 33 88 34 30 35
REMARK SMILES IDX 31 36 32 37 82 38 33 39 87 40 81 41 83 42 34 43 86 44 80 45
REMARK SMILES IDX 79 46 35 48 67 49 47 50 66 51 48 52 51 53 65 54 84 55 49 56
REMARK SMILES IDX 50 57 64 59 85 60 52 61 36 62 37 63 45 64 38 65 39 66 43 67
REMARK SMILES IDX 46 68 40 69 41 70 44 71 42 72 68 73 69 74 77 75 70 76 71 77
REMARK SMILES IDX 75 78 78 79 72 80 73 81 76 82 74 83 53 84 54 85 62 86 55 87
REMARK SMILES IDX 56 88 60 89 63 90 57 91 58 92 61 93 59 94
REMARK H PARENT 17 7 6 15 24 28 83 47 51 58
REMARK Flexibility Score: inf
ROOT
ATOM      1  C   UNL A   1      39.928  21.592  26.347  1.00  0.00     0.002 C 
ENDROOT
BRANCH   1   2
ATOM      2  C   UNL A   1      39.326  23.000  26.292  1.00  0.00     0.021 C 
BRANCH   2   3
ATOM      3  C   UNL A   1      37.818  23.007  26.064  1.00  0.00     0.116 C 
BRANCH   3   4
ATOM      4  N   UNL A   1      37.485  23.047  24.673  1.00  0.00    -0.352 N 
ATOM      5  C   UNL A   1      36.350  22.945  23.923  1.00  0.00     0.256 C 
ATOM      6  O   UNL A   1      36.604  23.109  22.718  1.00  0.00    -0.269 OA
ATOM      7  H   UNL A   1      38.282  23.183  24.111  1.00  0.00     0.163 HD
BRANCH   5   8
ATOM      8  C   UNL A   1      34.962  22.680  24.378  1.00  0.00     0.097 A 
ATOM      9  C   UNL A   1      34.516  20.036  24.764  1.00  0.00     0.069 C 
ATOM     10  C   UNL A   1      34.178  21.486  24.727  1.00  0.00     0.066 A 
ATOM     11  N   UNL A   1      32.911  21.695  25.088  1.00  0.00    -0.195 NA
ATOM     12  S   UNL A   1      32.565  23.281  25.035  1.00  0.00    -0.018 S 
ATOM     13  C   UNL A   1      34.114  23.803  24.536  1.00  0.00     0.122 A 
BRANCH  13  14
ATOM     14  N   UNL A   1      34.450  25.108  24.334  1.00  0.00    -0.371 N 
ATOM     15  H   UNL A   1      35.340  25.388  24.648  1.00  0.00     0.161 HD
BRANCH  14  16
ATOM     16  C   UNL A   1      33.637  26.121  23.708  1.00  0.00     0.149 C 
BRANCH  16  17
ATOM     17  C   UNL A   1      33.518  27.308  24.629  1.00  0.00    -0.026 A 
ATOM     18  C   UNL A   1      33.907  27.211  25.968  1.00  0.00     0.025 A 
ATOM     19  C   UNL A   1      33.027  28.532  24.166  1.00  0.00     0.025 A 
ATOM     20  C   UNL A   1      33.769  28.322  26.783  1.00  0.00     0.111 A 
ATOM     21  C   UNL A   1      32.925  29.585  25.061  1.00  0.00     0.111 A 
ATOM     22  N   UNL A   1      33.279  29.508  26.360  1.00  0.00    -0.265 NA
ENDBRANCH  16  17
ENDBRANCH  14  16
ENDBRANCH  13  14
ENDBRANCH   5   8
ENDBRANCH   3   4
ENDBRANCH   2   3
ENDBRANCH   1   2
BRANCH   1  23
ATOM     23  C   UNL A   1      40.894  21.323  27.515  1.00  0.00     0.002 C 
BRANCH  23  24
ATOM     24  C   UNL A   1      42.050  20.346  27.243  1.00  0.00     0.021 C 
BRANCH  24  25
ATOM     25  C   UNL A   1      42.107  19.873  25.803  1.00  0.00     0.116 C 
BRANCH  25  26
ATOM     26  N   UNL A   1      43.481  19.629  25.345  1.00  0.00    -0.352 N 
ATOM     27  C   UNL A   1      44.438  20.544  24.930  1.00  0.00     0.251 C 
ATOM     28  H   UNL A   1      43.761  18.686  25.330  1.00  0.00     0.163 HD
ATOM     29  O   UNL A   1      45.403  20.208  24.274  1.00  0.00    -0.269 OA
BRANCH  27  30
ATOM     30  C   UNL A   1      44.254  21.948  25.331  1.00  0.00     0.039 A 
ATOM     31  C   UNL A   1      43.313  22.794  24.740  1.00  0.00     0.014 A 
ATOM     32  C   UNL A   1      45.024  22.372  26.401  1.00  0.00     0.014 A 
ATOM     33  C   UNL A   1      43.123  24.056  25.299  1.00  0.00     0.010 A 
ATOM     34  C   UNL A   1      44.614  23.452  27.115  1.00  0.00     0.010 A 
ATOM     35  C   UNL A   1      43.780  24.367  26.500  1.00  0.00    -0.014 A 
BRANCH  35  36
ATOM     36  C   UNL A   1      43.600  25.628  27.199  1.00  0.00     0.031 A 
ATOM     37  C   UNL A   1      44.560  26.679  26.797  1.00  0.00     0.074 A 
ATOM     38  C   UNL A   1      42.501  25.868  27.953  1.00  0.00     0.049 A 
ATOM     39  N   UNL A   1      45.530  27.162  27.497  1.00  0.00    -0.248 NA
ATOM     40  C   UNL A   1      44.551  27.142  25.399  1.00  0.00     0.031 C 
ATOM     41  C   UNL A   1      41.324  24.999  28.147  1.00  0.00     0.029 A 
ATOM     42  N   UNL A   1      42.144  26.992  28.634  1.00  0.00    -0.354 N 
ATOM     43  C   UNL A   1      46.087  28.172  26.718  1.00  0.00     0.074 A 
ATOM     44  C   UNL A   1      45.604  27.962  25.381  1.00  0.00     0.031 C 
ATOM     45  C   UNL A   1      40.304  25.709  28.673  1.00  0.00     0.029 A 
ATOM     46  C   UNL A   1      40.816  27.010  29.050  1.00  0.00     0.049 A 
ATOM     47  H   UNL A   1      42.771  27.729  28.815  1.00  0.00     0.167 HD
ATOM     48  C   UNL A   1      46.609  29.277  27.318  1.00  0.00     0.037 A 
ATOM     49  C   UNL A   1      40.180  28.022  29.685  1.00  0.00     0.037 A 
ATOM     50  C   UNL A   1      46.766  29.052  28.735  1.00  0.00     0.049 A 
ATOM     51  C   UNL A   1      41.226  28.840  30.336  1.00  0.00     0.074 A 
ATOM     52  C   UNL A   1      47.636  28.367  29.553  1.00  0.00     0.029 A 
ATOM     53  N   UNL A   1      45.619  29.275  29.450  1.00  0.00    -0.354 N 
ATOM     54  N   UNL A   1      41.994  28.387  31.290  1.00  0.00    -0.248 NA
ATOM     55  C   UNL A   1      41.697  30.051  29.674  1.00  0.00     0.031 C 
ATOM     56  C   UNL A   1      46.901  28.046  30.736  1.00  0.00     0.029 A 
ATOM     57  C   UNL A   1      45.619  28.581  30.628  1.00  0.00     0.049 A 
ATOM     58  H   UNL A   1      44.886  29.862  29.153  1.00  0.00     0.167 HD
ATOM     59  C   UNL A   1      43.214  28.994  31.065  1.00  0.00     0.074 A 
ATOM     60  C   UNL A   1      42.929  30.123  30.187  1.00  0.00     0.031 C 
ATOM     61  C   UNL A   1      44.379  28.340  31.332  1.00  0.00     0.037 A 
BRANCH  48  62
ATOM     62  C   UNL A   1      46.475  30.693  26.790  1.00  0.00     0.064 A 
ATOM     63  C   UNL A   1      47.613  31.529  26.802  1.00  0.00     0.173 A 
ATOM     64  C   UNL A   1      45.242  31.355  26.601  1.00  0.00     0.173 A 
ATOM     65  F   UNL A   1      48.836  31.013  26.991  1.00  0.00    -0.203 F 
ATOM     66  C   UNL A   1      47.510  32.921  26.713  1.00  0.00     0.198 A 
ATOM     67  C   UNL A   1      45.150  32.739  26.464  1.00  0.00     0.198 A 
ATOM     68  F   UNL A   1      44.069  30.717  26.661  1.00  0.00    -0.203 F 
ATOM     69  F   UNL A   1      48.605  33.680  26.854  1.00  0.00    -0.200 F 
ATOM     70  C   UNL A   1      46.278  33.526  26.551  1.00  0.00     0.200 A 
ATOM     71  F   UNL A   1      43.942  33.307  26.333  1.00  0.00    -0.200 F 
ATOM     72  F   UNL A   1      46.167  34.860  26.530  1.00  0.00    -0.200 F 
ENDBRANCH  48  62
BRANCH  49  73
ATOM     73  C   UNL A   1      38.784  28.480  29.509  1.00  0.00     0.064 A 
ATOM     74  C   UNL A   1      37.957  28.737  30.613  1.00  0.00     0.173 A 
ATOM     75  C   UNL A   1      38.337  28.960  28.262  1.00  0.00     0.173 A 
ATOM     76  F   UNL A   1      38.331  28.341  31.838  1.00  0.00    -0.203 F 
ATOM     77  C   UNL A   1      36.773  29.471  30.485  1.00  0.00     0.198 A 
ATOM     78  C   UNL A   1      37.156  29.693  28.136  1.00  0.00     0.198 A 
ATOM     79  F   UNL A   1      39.090  28.814  27.161  1.00  0.00    -0.203 F 
ATOM     80  F   UNL A   1      36.043  29.756  31.573  1.00  0.00    -0.200 F 
ATOM     81  C   UNL A   1      36.382  29.963  29.251  1.00  0.00     0.200 A 
ATOM     82  F   UNL A   1      36.810  30.195  26.942  1.00  0.00    -0.200 F 
ATOM     83  F   UNL A   1      35.289  30.730  29.141  1.00  0.00    -0.200 F 
ENDBRANCH  49  73
BRANCH  61  84
ATOM     84  C   UNL A   1      44.326  27.195  32.295  1.00  0.00     0.064 A 
ATOM     85  C   UNL A   1      44.158  27.328  33.682  1.00  0.00     0.173 A 
ATOM     86  C   UNL A   1      44.360  25.898  31.770  1.00  0.00     0.173 A 
ATOM     87  F   UNL A   1      44.046  28.534  34.248  1.00  0.00    -0.203 F 
ATOM     88  C   UNL A   1      44.056  26.209  34.507  1.00  0.00     0.198 A 
ATOM     89  C   UNL A   1      44.226  24.783  32.590  1.00  0.00     0.198 A 
ATOM     90  F   UNL A   1      44.478  25.714  30.445  1.00  0.00    -0.203 F 
ATOM     91  F   UNL A   1      43.904  26.362  35.832  1.00  0.00    -0.200 F 
ATOM     92  C   UNL A   1      44.082  24.938  33.960  1.00  0.00     0.200 A 
ATOM     93  F   UNL A   1      44.214  23.558  32.050  1.00  0.00    -0.200 F 
ATOM     94  F   UNL A   1      43.949  23.862  34.747  1.00  0.00    -0.200 F 
ENDBRANCH  61  84
ENDBRANCH  35  36
ENDBRANCH  27  30
ENDBRANCH  25  26
ENDBRANCH  24  25
ENDBRANCH  23  24
ENDBRANCH   1  23
TORSDOF 16
ENDMDL
MODEL 3
REMARK VINA RESULT:     -11.9      4.665     10.394
REMARK SMILES Cc1nsc(NCc2ccncc2)c1C(=O)NCCCCCCNC(=O)c1ccc(-c2c3nc(c(-c4c(F)c(F)c(F)c(F)c4F)c4ccc([nH]4)c(-c4c(F)c(F)c(F)c(F)c4F)c4nc(c(-c5c(F)c(F)c(F)c(F)c5F)c5ccc2[nH]5)C=C4)C=C3)cc1
REMARK SMILES IDX 20 1 19 2 18 3 17 4 15 5 16 6 14 8 1 9 2 10 3 11 4 12 5 13
REMARK SMILES IDX 6 14 7 16 8 17 9 18 13 19 10 20 12 21 11 22 21 23 22 24
REMARK SMILES IDX 23 25 24 26 25 27 26 29 27 30 28 31 89 32 29 33 88 34 30 35
REMARK SMILES IDX 31 36 32 37 82 38 33 39 87 40 81 41 83 42 34 43 86 44 80 45
REMARK SMILES IDX 79 46 35 48 67 49 47 50 66 51 48 52 51 53 65 54 84 55 49 56
REMARK SMILES IDX 50 57 64 59 85 60 52 61 36 62 37 63 45 64 38 65 39 66 43 67
REMARK SMILES IDX 46 68 40 69 41 70 44 71 42 72 68 73 69 74 77 75 70 76 71 77
REMARK SMILES IDX 75 78 78 79 72 80 73 81 76 82 74 83 53 84 54 85 62 86 55 87
REMARK SMILES IDX 56 88 60 89 63 90 57 91 58 92 61 93 59 94
REMARK H PARENT 17 7 6 15 24 28 83 47 51 58
REMARK Flexibility Score: inf
ROOT
ATOM      1  C   UNL A   1      33.658  31.666  27.652  1.00  0.00     0.002 C 
ENDROOT
BRANCH   1   2
ATOM      2  C   UNL A   1      34.642  30.502  27.489  1.00  0.00     0.021 C 
BRANCH   2   3
ATOM      3  C   UNL A   1      34.014  29.258  26.869  1.00  0.00     0.116 C 
BRANCH   3   4
ATOM      4  N   UNL A   1      33.839  29.394  25.455  1.00  0.00    -0.352 N 
ATOM      5  C   UNL A   1      33.111  28.772  24.484  1.00  0.00     0.256 C 
ATOM      6  O   UNL A   1      33.278  29.328  23.385  1.00  0.00    -0.269 OA
ATOM      7  H   UNL A   1      34.384  30.127  25.088  1.00  0.00     0.163 HD
BRANCH   5   8
ATOM      8  C   UNL A   1      32.215  27.594  24.611  1.00  0.00     0.097 A 
ATOM      9  C   UNL A   1      33.479  25.488  25.754  1.00  0.00     0.069 C 
ATOM     10  C   UNL A   1      32.346  26.223  25.127  1.00  0.00     0.066 A 
ATOM     11  N   UNL A   1      31.260  25.453  25.038  1.00  0.00    -0.195 NA
ATOM     12  S   UNL A   1      30.041  26.274  24.347  1.00  0.00    -0.018 S 
ATOM     13  C   UNL A   1      30.890  27.742  24.135  1.00  0.00     0.122 A 
BRANCH  13  14
ATOM     14  N   UNL A   1      30.345  28.866  23.591  1.00  0.00    -0.371 N 
ATOM     15  H   UNL A   1      30.801  29.716  23.786  1.00  0.00     0.161 HD
BRANCH  14  16
ATOM     16  C   UNL A   1      29.167  28.939  22.762  1.00  0.00     0.149 C 
BRANCH  16  17
ATOM     17  C   UNL A   1      28.839  30.383  22.483  1.00  0.00    -0.026 A 
ATOM     18  C   UNL A   1      28.301  30.765  21.250  1.00  0.00     0.025 A 
ATOM     19  C   UNL A   1      29.055  31.370  23.448  1.00  0.00     0.025 A 
ATOM     20  C   UNL A   1      28.025  32.105  21.031  1.00  0.00     0.111 A 
ATOM     21  C   UNL A   1      28.748  32.684  23.132  1.00  0.00     0.111 A 
ATOM     22  N   UNL A   1      28.244  33.076  21.944  1.00  0.00    -0.265 NA
ENDBRANCH  16  17
ENDBRANCH  14  16
ENDBRANCH  13  14
ENDBRANCH   5   8
ENDBRANCH   3   4
ENDBRANCH   2   3
ENDBRANCH   1   2
BRANCH   1  23
ATOM     23  C   UNL A   1      34.273  33.005  28.098  1.00  0.00     0.002 C 
BRANCH  23  24
ATOM     24  C   UNL A   1      33.291  34.150  28.396  1.00  0.00     0.021 C 
BRANCH  24  25
ATOM     25  C   UNL A   1      33.953  35.355  29.035  1.00  0.00     0.116 C 
BRANCH  25  26
ATOM     26  N   UNL A   1      33.376  35.685  30.344  1.00  0.00    -0.352 N 
ATOM     27  C   UNL A   1      33.504  35.012  31.551  1.00  0.00     0.251 C 
ATOM     28  H   UNL A   1      32.820  36.497  30.369  1.00  0.00     0.163 HD
ATOM     29  O   UNL A   1      32.730  35.188  32.469  1.00  0.00    -0.269 OA
BRANCH  27  30
ATOM     30  C   UNL A   1      34.634  34.079  31.689  1.00  0.00     0.039 A 
ATOM     31  C   UNL A   1      34.489  32.691  31.638  1.00  0.00     0.014 A 
ATOM     32  C   UNL A   1      35.886  34.663  31.797  1.00  0.00     0.014 A 
ATOM     33  C   UNL A   1      35.643  31.910  31.632  1.00  0.00     0.010 A 
ATOM     34  C   UNL A   1      36.981  33.928  31.474  1.00  0.00     0.010 A 
ATOM     35  C   UNL A   1      36.889  32.550  31.540  1.00  0.00    -0.014 A 
BRANCH  35  36
ATOM     36  C   UNL A   1      38.148  31.828  31.460  1.00  0.00     0.031 A 
ATOM     37  C   UNL A   1      38.774  31.567  32.774  1.00  0.00     0.074 A 
ATOM     38  C   UNL A   1      38.557  31.247  30.307  1.00  0.00     0.049 A 
ATOM     39  N   UNL A   1      39.845  32.104  33.251  1.00  0.00    -0.248 NA
ATOM     40  C   UNL A   1      38.046  30.733  33.745  1.00  0.00     0.031 C 
ATOM     41  C   UNL A   1      37.838  31.172  29.021  1.00  0.00     0.029 A 
ATOM     42  N   UNL A   1      39.669  30.501  30.059  1.00  0.00    -0.354 N 
ATOM     43  C   UNL A   1      40.064  31.478  34.475  1.00  0.00     0.074 A 
ATOM     44  C   UNL A   1      38.830  30.829  34.822  1.00  0.00     0.031 C 
ATOM     45  C   UNL A   1      38.400  30.235  28.229  1.00  0.00     0.029 A 
ATOM     46  C   UNL A   1      39.632  29.803  28.855  1.00  0.00     0.049 A 
ATOM     47  H   UNL A   1      40.433  30.457  30.678  1.00  0.00     0.167 HD
ATOM     48  C   UNL A   1      41.338  31.269  34.908  1.00  0.00     0.037 A 
ATOM     49  C   UNL A   1      40.566  28.942  28.390  1.00  0.00     0.037 A 
ATOM     50  C   UNL A   1      42.269  32.040  34.120  1.00  0.00     0.049 A 
ATOM     51  C   UNL A   1      41.834  29.279  29.072  1.00  0.00     0.074 A 
ATOM     52  C   UNL A   1      42.662  33.357  34.032  1.00  0.00     0.029 A 
ATOM     53  N   UNL A   1      42.627  31.426  32.949  1.00  0.00    -0.354 N 
ATOM     54  N   UNL A   1      42.445  30.422  28.915  1.00  0.00    -0.248 NA
ATOM     55  C   UNL A   1      42.242  28.504  30.237  1.00  0.00     0.031 C 
ATOM     56  C   UNL A   1      43.125  33.546  32.694  1.00  0.00     0.029 A 
ATOM     57  C   UNL A   1      43.046  32.332  32.015  1.00  0.00     0.049 A 
ATOM     58  H   UNL A   1      42.588  30.454  32.799  1.00  0.00     0.167 HD
ATOM     59  C   UNL A   1      42.989  30.693  30.155  1.00  0.00     0.074 A 
ATOM     60  C   UNL A   1      42.988  29.419  30.865  1.00  0.00     0.031 C 
ATOM     61  C   UNL A   1      43.078  31.973  30.614  1.00  0.00     0.037 A 
BRANCH  48  62
ATOM     62  C   UNL A   1      41.813  30.021  35.630  1.00  0.00     0.064 A 
ATOM     63  C   UNL A   1      42.800  30.155  36.630  1.00  0.00     0.173 A 
ATOM     64  C   UNL A   1      41.603  28.707  35.160  1.00  0.00     0.173 A 
ATOM     65  F   UNL A   1      43.098  31.360  37.139  1.00  0.00    -0.203 F 
ATOM     66  C   UNL A   1      43.567  29.068  37.063  1.00  0.00     0.198 A 
ATOM     67  C   UNL A   1      42.337  27.619  35.630  1.00  0.00     0.198 A 
ATOM     68  F   UNL A   1      40.773  28.430  34.149  1.00  0.00    -0.203 F 
ATOM     69  F   UNL A   1      44.576  29.265  37.922  1.00  0.00    -0.200 F 
ATOM     70  C   UNL A   1      43.340  27.802  36.557  1.00  0.00     0.200 A 
ATOM     71  F   UNL A   1      42.117  26.403  35.108  1.00  0.00    -0.200 F 
ATOM     72  F   UNL A   1      44.114  26.771  36.919  1.00  0.00    -0.200 F 
ENDBRANCH  48  62
BRANCH  49  73
ATOM     73  C   UNL A   1      40.357  27.685  27.639  1.00  0.00     0.064 A 
ATOM     74  C   UNL A   1      41.121  27.380  26.501  1.00  0.00     0.173 A 
ATOM     75  C   UNL A   1      39.614  26.626  28.199  1.00  0.00     0.173 A 
ATOM     76  F   UNL A   1      41.881  28.326  25.930  1.00  0.00    -0.203 F 
ATOM     77  C   UNL A   1      41.175  26.082  25.982  1.00  0.00     0.198 A 
ATOM     78  C   UNL A   1      39.670  25.333  27.681  1.00  0.00     0.198 A 
ATOM     79  F   UNL A   1      38.902  26.809  29.322  1.00  0.00    -0.203 F 
ATOM     80  F   UNL A   1      41.969  25.814  24.935  1.00  0.00    -0.200 F 
ATOM     81  C   UNL A   1      40.462  25.056  26.581  1.00  0.00     0.200 A 
ATOM     82  F   UNL A   1      39.005  24.342  28.293  1.00  0.00    -0.200 F 
ATOM     83  F   UNL A   1      40.573  23.799  26.130  1.00  0.00    -0.200 F 
ENDBRANCH  49  73
BRANCH  61  84
ATOM     84  C   UNL A   1      43.041  33.076  29.603  1.00  0.00     0.064 A 
ATOM     85  C   UNL A   1      41.939  33.918  29.384  1.00  0.00     0.173 A 
ATOM     86  C   UNL A   1      44.212  33.345  28.885  1.00  0.00     0.173 A 
ATOM     87  F   UNL A   1      40.810  33.769  30.083  1.00  0.00    -0.203 F 
ATOM     88  C   UNL A   1      42.002  34.965  28.466  1.00  0.00     0.198 A 
ATOM     89  C   UNL A   1      44.284  34.408  27.993  1.00  0.00     0.198 A 
ATOM     90  F   UNL A   1      45.307  32.595  29.087  1.00  0.00    -0.203 F 
ATOM     91  F   UNL A   1      40.933  35.751  28.268  1.00  0.00    -0.200 F 
ATOM     92  C   UNL A   1      43.177  35.214  27.776  1.00  0.00     0.200 A 
ATOM     93  F   UNL A   1      45.434  34.667  27.358  1.00  0.00    -0.200 F 
ATOM     94  F   UNL A   1      43.251  36.241  26.919  1.00  0.00    -0.200 F 
ENDBRANCH  61  84
ENDBRANCH  35  36
ENDBRANCH  27  30
ENDBRANCH  25  26
ENDBRANCH  24  25
ENDBRANCH  23  24
ENDBRANCH   1  23
TORSDOF 16
ENDMDL
