MODEL 1
REMARK VINA RESULT:     -14.6      0.000      0.000
REMARK SMILES Cc1coc2cc3c(cc12)[C@@H](C)[C@H](CCC(=O)N[C@@H](Cc1c[nH]c2ccccc12)C(=O)NCCCCCCNC(=O)c1ccc(-c2c4nc(c(-c5c(F)c(F)c(F)c(F)c5F)c5ccc([nH]5)c(-c5c(F)c(F)c(F)c(F)c5F)c5nc(c(-c6c(F)c(F)c(F)c(F)c6F)c6ccc2[nH]6)C=C5)C=C4)cc1)C(=O)O3
REMARK SMILES IDX 34 1 33 2 32 3 30 4 31 5 19 7 18 8 16 9 17 10 15 12 14 13
REMARK SMILES IDX 13 14 1 15 2 16 3 17 10 18 4 19 5 20 9 21 6 22 8 23 7 24
REMARK SMILES IDX 11 25 107 26 12 27 105 28 106 29 20 30 21 31 22 32 29 33
REMARK SMILES IDX 23 34 24 35 28 36 25 38 27 39 26 40 35 41 36 42 37 43 38 44
REMARK SMILES IDX 39 45 40 46 41 48 42 49 43 50 104 51 44 52 103 53 45 54
REMARK SMILES IDX 46 55 47 56 97 57 48 58 102 59 96 60 98 61 49 62 101 63
REMARK SMILES IDX 95 64 94 65 50 67 82 68 62 69 81 70 63 71 66 72 80 73 99 74
REMARK SMILES IDX 64 75 65 76 79 78 100 79 67 80 51 81 52 82 60 83 53 84 54 85
REMARK SMILES IDX 58 86 61 87 55 88 56 89 59 90 57 91 83 92 84 93 92 94 85 95
REMARK SMILES IDX 86 96 90 97 93 98 87 99 88 100 91 101 89 102 68 103 69 104
REMARK SMILES IDX 77 105 70 106 71 107 75 108 78 109 72 110 73 111 76 112
REMARK SMILES IDX 74 113
REMARK H PARENT 32 6 18 11 23 37 39 47 98 66 66 77
REMARK Flexibility Score: inf
ROOT
ATOM      1  C   UNL A   1      34.899  29.041  26.261  1.00  0.00     0.021 C 
ENDROOT
BRANCH   1   2
ATOM      2  C   UNL A   1      33.953  27.868  26.342  1.00  0.00     0.116 C 
BRANCH   2   3
ATOM      3  N   UNL A   1      32.661  28.154  26.914  1.00  0.00    -0.354 N 
ATOM      4  C   UNL A   1      31.566  27.339  26.887  1.00  0.00     0.242 C 
ATOM      5  O   UNL A   1      30.631  27.580  27.655  1.00  0.00    -0.273 OA
ATOM      6  H   UNL A   1      32.559  29.022  27.369  1.00  0.00     0.163 HD
BRANCH   4   7
ATOM      7  C   UNL A   1      31.495  26.160  25.900  1.00  0.00     0.175 C 
BRANCH   7   8
ATOM      8  N   UNL A   1      31.388  24.909  26.684  1.00  0.00    -0.344 N 
ATOM      9  C   UNL A   1      32.246  23.899  27.020  1.00  0.00     0.220 C 
ATOM     10  O   UNL A   1      31.792  22.974  27.703  1.00  0.00    -0.275 OA
ATOM     11  H   UNL A   1      30.485  24.771  27.050  1.00  0.00     0.164 HD
BRANCH   9  12
ATOM     12  C   UNL A   1      33.710  23.848  26.570  1.00  0.00     0.101 C 
BRANCH  12  13
ATOM     13  C   UNL A   1      34.095  24.317  25.134  1.00  0.00     0.026 C 
BRANCH  13  14
ATOM     14  C   UNL A   1      34.579  23.173  24.246  1.00  0.00     0.107 C 
ATOM     15  C   UNL A   1      35.510  16.138  25.488  1.00  0.00     0.048 C 
ATOM     16  C   UNL A   1      34.523  16.828  24.632  1.00  0.00    -0.005 A 
ATOM     17  C   UNL A   1      33.458  16.253  23.966  1.00  0.00     0.199 A 
ATOM     18  C   UNL A   1      34.402  18.233  24.429  1.00  0.00     0.024 A 
ATOM     19  O   UNL A   1      32.648  17.203  23.439  1.00  0.00    -0.464 OA
ATOM     20  C   UNL A   1      33.183  18.400  23.784  1.00  0.00     0.137 A 
ATOM     21  C   UNL A   1      35.154  19.376  24.790  1.00  0.00     0.020 A 
ATOM     22  C   UNL A   1      32.568  19.620  23.604  1.00  0.00     0.095 A 
ATOM     23  C   UNL A   1      34.589  20.644  24.603  1.00  0.00    -0.001 A 
ATOM     24  C   UNL A   1      33.272  20.703  24.126  1.00  0.00     0.138 A 
ATOM     25  C   UNL A   1      35.337  21.954  24.853  1.00  0.00     0.034 C 
ATOM     26  O   UNL A   1      32.568  21.876  24.222  1.00  0.00    -0.426 OA
ATOM     27  C   UNL A   1      36.739  21.878  24.187  1.00  0.00     0.014 C 
ATOM     28  C   UNL A   1      33.362  22.689  23.506  1.00  0.00     0.314 C 
ATOM     29  O   UNL A   1      33.024  23.080  22.405  1.00  0.00    -0.251 OA
ENDBRANCH  13  14
ENDBRANCH  12  13
ENDBRANCH   9  12
ENDBRANCH   7   8
BRANCH   7  30
ATOM     30  C   UNL A   1      30.574  26.433  24.645  1.00  0.00     0.072 C 
BRANCH  30  31
ATOM     31  C   UNL A   1      30.579  27.643  23.711  1.00  0.00    -0.020 A 
ATOM     32  C   UNL A   1      31.760  28.111  23.146  1.00  0.00     0.087 A 
ATOM     33  C   UNL A   1      29.523  28.460  23.106  1.00  0.00     0.003 A 
ATOM     34  N   UNL A   1      31.492  29.181  22.344  1.00  0.00    -0.361 N 
ATOM     35  C   UNL A   1      30.148  29.446  22.332  1.00  0.00     0.046 A 
ATOM     36  C   UNL A   1      28.110  28.531  23.128  1.00  0.00     0.010 A 
ATOM     37  H   UNL A   1      32.170  29.691  21.844  1.00  0.00     0.166 HD
ATOM     38  C   UNL A   1      29.456  30.493  21.692  1.00  0.00     0.026 A 
ATOM     39  C   UNL A   1      27.396  29.556  22.490  1.00  0.00     0.001 A 
ATOM     40  C   UNL A   1      28.069  30.546  21.802  1.00  0.00     0.002 A 
ENDBRANCH  30  31
ENDBRANCH   7  30
ENDBRANCH   4   7
ENDBRANCH   2   3
ENDBRANCH   1   2
BRANCH   1  41
ATOM     41  C   UNL A   1      35.542  29.383  27.601  1.00  0.00     0.002 C 
BRANCH  41  42
ATOM     42  C   UNL A   1      36.484  30.597  27.602  1.00  0.00     0.002 C 
BRANCH  42  43
ATOM     43  C   UNL A   1      35.862  31.937  28.018  1.00  0.00     0.021 C 
BRANCH  43  44
ATOM     44  C   UNL A   1      34.494  31.843  28.685  1.00  0.00     0.116 C 
BRANCH  44  45
ATOM     45  N   UNL A   1      34.523  32.176  30.090  1.00  0.00    -0.352 N 
ATOM     46  C   UNL A   1      35.395  32.006  31.120  1.00  0.00     0.251 C 
ATOM     47  H   UNL A   1      33.706  32.646  30.374  1.00  0.00     0.163 HD
ATOM     48  O   UNL A   1      35.032  32.459  32.209  1.00  0.00    -0.269 OA
BRANCH  46  49
ATOM     49  C   UNL A   1      36.696  31.292  31.045  1.00  0.00     0.039 A 
ATOM     50  C   UNL A   1      37.956  31.875  30.902  1.00  0.00     0.014 A 
ATOM     51  C   UNL A   1      36.608  29.887  31.101  1.00  0.00     0.014 A 
ATOM     52  C   UNL A   1      39.084  31.074  30.740  1.00  0.00     0.010 A 
ATOM     53  C   UNL A   1      37.729  29.085  30.952  1.00  0.00     0.010 A 
ATOM     54  C   UNL A   1      38.963  29.681  30.727  1.00  0.00    -0.014 A 
BRANCH  54  55
ATOM     55  C   UNL A   1      40.173  28.872  30.609  1.00  0.00     0.031 A 
ATOM     56  C   UNL A   1      40.918  28.686  31.885  1.00  0.00     0.074 A 
ATOM     57  C   UNL A   1      40.541  28.238  29.477  1.00  0.00     0.049 A 
ATOM     58  N   UNL A   1      42.131  29.050  32.150  1.00  0.00    -0.248 NA
ATOM     59  C   UNL A   1      40.196  28.131  33.042  1.00  0.00     0.031 C 
ATOM     60  C   UNL A   1      39.799  28.122  28.221  1.00  0.00     0.029 A 
ATOM     61  N   UNL A   1      41.647  27.471  29.244  1.00  0.00    -0.354 N 
ATOM     62  C   UNL A   1      42.389  28.625  33.451  1.00  0.00     0.074 A 
ATOM     63  C   UNL A   1      41.130  28.184  33.994  1.00  0.00     0.031 C 
ATOM     64  C   UNL A   1      40.362  27.162  27.452  1.00  0.00     0.029 A 
ATOM     65  C   UNL A   1      41.573  26.687  28.099  1.00  0.00     0.049 A 
ATOM     66  H   UNL A   1      42.431  27.473  29.839  1.00  0.00     0.167 HD
ATOM     67  C   UNL A   1      43.663  28.478  33.906  1.00  0.00     0.037 A 
ATOM     68  C   UNL A   1      42.422  25.691  27.734  1.00  0.00     0.037 A 
ATOM     69  C   UNL A   1      44.598  29.210  33.093  1.00  0.00     0.049 A 
ATOM     70  C   UNL A   1      43.692  25.902  28.470  1.00  0.00     0.074 A 
ATOM     71  C   UNL A   1      44.756  30.543  32.768  1.00  0.00     0.029 A 
ATOM     72  N   UNL A   1      45.352  28.513  32.183  1.00  0.00    -0.354 N 
ATOM     73  N   UNL A   1      44.512  26.885  28.227  1.00  0.00    -0.248 NA
ATOM     74  C   UNL A   1      43.829  25.277  29.778  1.00  0.00     0.031 C 
ATOM     75  C   UNL A   1      45.170  30.542  31.404  1.00  0.00     0.029 A 
ATOM     76  C   UNL A   1      45.303  29.212  31.005  1.00  0.00     0.049 A 
ATOM     77  H   UNL A   1      45.836  27.671  32.345  1.00  0.00     0.167 HD
ATOM     78  C   UNL A   1      44.945  27.290  29.479  1.00  0.00     0.074 A 
ATOM     79  C   UNL A   1      44.565  26.211  30.388  1.00  0.00     0.031 C 
ATOM     80  C   UNL A   1      45.306  28.584  29.709  1.00  0.00     0.037 A 
BRANCH  67  81
ATOM     81  C   UNL A   1      44.111  27.387  34.847  1.00  0.00     0.064 A 
ATOM     82  C   UNL A   1      43.924  26.040  34.477  1.00  0.00     0.173 A 
ATOM     83  C   UNL A   1      44.405  27.611  36.209  1.00  0.00     0.173 A 
ATOM     84  F   UNL A   1      43.622  25.713  33.212  1.00  0.00    -0.203 F 
ATOM     85  C   UNL A   1      43.939  25.008  35.419  1.00  0.00     0.198 A 
ATOM     86  C   UNL A   1      44.471  26.573  37.136  1.00  0.00     0.198 A 
ATOM     87  F   UNL A   1      44.520  28.843  36.718  1.00  0.00    -0.203 F 
ATOM     88  F   UNL A   1      43.620  23.761  35.046  1.00  0.00    -0.200 F 
ATOM     89  C   UNL A   1      44.204  25.277  36.749  1.00  0.00     0.200 A 
ATOM     90  F   UNL A   1      44.707  26.857  38.424  1.00  0.00    -0.200 F 
ATOM     91  F   UNL A   1      44.150  24.302  37.665  1.00  0.00    -0.200 F 
ENDBRANCH  67  81
BRANCH  68  92
ATOM     92  C   UNL A   1      42.142  24.435  26.994  1.00  0.00     0.064 A 
ATOM     93  C   UNL A   1      43.037  23.941  26.028  1.00  0.00     0.173 A 
ATOM     94  C   UNL A   1      41.136  23.545  27.417  1.00  0.00     0.173 A 
ATOM     95  F   UNL A   1      44.054  24.703  25.596  1.00  0.00    -0.203 F 
ATOM     96  C   UNL A   1      42.950  22.632  25.542  1.00  0.00     0.198 A 
ATOM     97  C   UNL A   1      41.045  22.241  26.926  1.00  0.00     0.198 A 
ATOM     98  F   UNL A   1      40.277  23.889  28.388  1.00  0.00    -0.203 F 
ATOM     99  F   UNL A   1      43.864  22.178  24.671  1.00  0.00    -0.200 F 
ATOM    100  C   UNL A   1      41.960  21.779  26.001  1.00  0.00     0.200 A 
ATOM    101  F   UNL A   1      40.104  21.416  27.405  1.00  0.00    -0.200 F 
ATOM    102  F   UNL A   1      41.915  20.505  25.585  1.00  0.00    -0.200 F 
ENDBRANCH  68  92
BRANCH  80 103
ATOM    103  C   UNL A   1      45.471  29.495  28.528  1.00  0.00     0.064 A 
ATOM    104  C   UNL A   1      44.409  30.192  27.923  1.00  0.00     0.173 A 
ATOM    105  C   UNL A   1      46.772  29.819  28.123  1.00  0.00     0.173 A 
ATOM    106  F   UNL A   1      43.145  30.009  28.323  1.00  0.00    -0.203 F 
ATOM    107  C   UNL A   1      44.646  31.151  26.940  1.00  0.00     0.198 A 
ATOM    108  C   UNL A   1      47.005  30.802  27.166  1.00  0.00     0.198 A 
ATOM    109  F   UNL A   1      47.824  29.223  28.706  1.00  0.00    -0.203 F 
ATOM    110  F   UNL A   1      43.618  31.810  26.383  1.00  0.00    -0.200 F 
ATOM    111  C   UNL A   1      45.944  31.464  26.573  1.00  0.00     0.200 A 
ATOM    112  F   UNL A   1      48.264  31.138  26.852  1.00  0.00    -0.200 F 
ATOM    113  F   UNL A   1      46.173  32.428  25.670  1.00  0.00    -0.200 F 
ENDBRANCH  80 103
ENDBRANCH  54  55
ENDBRANCH  46  49
ENDBRANCH  44  45
ENDBRANCH  43  44
ENDBRANCH  42  43
ENDBRANCH  41  42
ENDBRANCH   1  41
TORSDOF 19
ENDMDL
MODEL 2
REMARK VINA RESULT:     -14.1      1.491      2.204
REMARK SMILES Cc1coc2cc3c(cc12)[C@@H](C)[C@H](CCC(=O)N[C@@H](Cc1c[nH]c2ccccc12)C(=O)NCCCCCCNC(=O)c1ccc(-c2c4nc(c(-c5c(F)c(F)c(F)c(F)c5F)c5ccc([nH]5)c(-c5c(F)c(F)c(F)c(F)c5F)c5nc(c(-c6c(F)c(F)c(F)c(F)c6F)c6ccc2[nH]6)C=C5)C=C4)cc1)C(=O)O3
REMARK SMILES IDX 34 1 33 2 32 3 30 4 31 5 19 7 18 8 16 9 17 10 15 12 14 13
REMARK SMILES IDX 13 14 1 15 2 16 3 17 10 18 4 19 5 20 9 21 6 22 8 23 7 24
REMARK SMILES IDX 11 25 107 26 12 27 105 28 106 29 20 30 21 31 22 32 29 33
REMARK SMILES IDX 23 34 24 35 28 36 25 38 27 39 26 40 35 41 36 42 37 43 38 44
REMARK SMILES IDX 39 45 40 46 41 48 42 49 43 50 104 51 44 52 103 53 45 54
REMARK SMILES IDX 46 55 47 56 97 57 48 58 102 59 96 60 98 61 49 62 101 63
REMARK SMILES IDX 95 64 94 65 50 67 82 68 62 69 81 70 63 71 66 72 80 73 99 74
REMARK SMILES IDX 64 75 65 76 79 78 100 79 67 80 51 81 52 82 60 83 53 84 54 85
REMARK SMILES IDX 58 86 61 87 55 88 56 89 59 90 57 91 83 92 84 93 92 94 85 95
REMARK SMILES IDX 86 96 90 97 93 98 87 99 88 100 91 101 89 102 68 103 69 104
REMARK SMILES IDX 77 105 70 106 71 107 75 108 78 109 72 110 73 111 76 112
REMARK SMILES IDX 74 113
REMARK H PARENT 32 6 18 11 23 37 39 47 98 66 66 77
REMARK Flexibility Score: inf
ROOT
ATOM      1  C   UNL A   1      35.633  29.608  26.858  1.00  0.00     0.021 C 
ENDROOT
BRANCH   1   2
ATOM      2  C   UNL A   1      34.618  28.492  26.884  1.00  0.00     0.116 C 
BRANCH   2   3
ATOM      3  N   UNL A   1      33.403  28.778  27.606  1.00  0.00    -0.354 N 
ATOM      4  C   UNL A   1      32.202  28.146  27.450  1.00  0.00     0.242 C 
ATOM      5  O   UNL A   1      31.342  28.290  28.323  1.00  0.00    -0.273 OA
ATOM      6  H   UNL A   1      33.444  29.498  28.277  1.00  0.00     0.163 HD
BRANCH   4   7
ATOM      7  C   UNL A   1      31.926  27.293  26.200  1.00  0.00     0.175 C 
BRANCH   7   8
ATOM      8  N   UNL A   1      30.934  26.255  26.561  1.00  0.00    -0.344 N 
ATOM      9  C   UNL A   1      30.198  25.335  25.868  1.00  0.00     0.220 C 
ATOM     10  O   UNL A   1      29.435  24.612  26.520  1.00  0.00    -0.275 OA
ATOM     11  H   UNL A   1      30.764  26.218  27.530  1.00  0.00     0.164 HD
BRANCH   9  12
ATOM     12  C   UNL A   1      30.251  25.183  24.343  1.00  0.00     0.101 C 
BRANCH  12  13
ATOM     13  C   UNL A   1      30.647  23.813  23.716  1.00  0.00     0.026 C 
BRANCH  13  14
ATOM     14  C   UNL A   1      32.082  23.792  23.195  1.00  0.00     0.107 C 
ATOM     15  C   UNL A   1      38.450  24.358  26.517  1.00  0.00     0.048 C 
ATOM     16  C   UNL A   1      37.833  23.199  25.839  1.00  0.00    -0.005 A 
ATOM     17  C   UNL A   1      38.314  21.904  25.808  1.00  0.00     0.199 A 
ATOM     18  C   UNL A   1      36.563  23.163  25.194  1.00  0.00     0.024 A 
ATOM     19  O   UNL A   1      37.400  21.062  25.267  1.00  0.00    -0.464 OA
ATOM     20  C   UNL A   1      36.314  21.815  24.964  1.00  0.00     0.137 A 
ATOM     21  C   UNL A   1      35.573  24.115  24.854  1.00  0.00     0.020 A 
ATOM     22  C   UNL A   1      35.094  21.315  24.565  1.00  0.00     0.095 A 
ATOM     23  C   UNL A   1      34.321  23.663  24.416  1.00  0.00    -0.001 A 
ATOM     24  C   UNL A   1      34.101  22.279  24.404  1.00  0.00     0.138 A 
ATOM     25  C   UNL A   1      33.209  24.587  23.920  1.00  0.00     0.034 C 
ATOM     26  O   UNL A   1      32.821  21.797  24.292  1.00  0.00    -0.426 OA
ATOM     27  C   UNL A   1      33.803  25.609  22.911  1.00  0.00     0.014 C 
ATOM     28  C   UNL A   1      32.465  22.339  23.115  1.00  0.00     0.314 C 
ATOM     29  O   UNL A   1      32.350  21.649  22.120  1.00  0.00    -0.251 OA
ENDBRANCH  13  14
ENDBRANCH  12  13
ENDBRANCH   9  12
ENDBRANCH   7   8
BRANCH   7  30
ATOM     30  C   UNL A   1      31.797  28.135  24.869  1.00  0.00     0.072 C 
BRANCH  30  31
ATOM     31  C   UNL A   1      30.961  29.390  24.618  1.00  0.00    -0.020 A 
ATOM     32  C   UNL A   1      31.248  30.586  25.264  1.00  0.00     0.087 A 
ATOM     33  C   UNL A   1      29.880  29.716  23.683  1.00  0.00     0.003 A 
ATOM     34  N   UNL A   1      30.372  31.549  24.857  1.00  0.00    -0.361 N 
ATOM     35  C   UNL A   1      29.499  31.041  23.929  1.00  0.00     0.046 A 
ATOM     36  C   UNL A   1      29.133  29.063  22.674  1.00  0.00     0.010 A 
ATOM     37  H   UNL A   1      30.366  32.478  25.183  1.00  0.00     0.166 HD
ATOM     38  C   UNL A   1      28.406  31.671  23.303  1.00  0.00     0.026 A 
ATOM     39  C   UNL A   1      28.047  29.670  22.027  1.00  0.00     0.001 A 
ATOM     40  C   UNL A   1      27.669  30.955  22.363  1.00  0.00     0.002 A 
ENDBRANCH  30  31
ENDBRANCH   7  30
ENDBRANCH   4   7
ENDBRANCH   2   3
ENDBRANCH   1   2
BRANCH   1  41
ATOM     41  C   UNL A   1      36.342  29.803  28.194  1.00  0.00     0.002 C 
BRANCH  41  42
ATOM     42  C   UNL A   1      37.051  31.152  28.387  1.00  0.00     0.002 C 
BRANCH  42  43
ATOM     43  C   UNL A   1      36.170  32.319  28.857  1.00  0.00     0.021 C 
BRANCH  43  44
ATOM     44  C   UNL A   1      34.881  31.918  29.566  1.00  0.00     0.116 C 
BRANCH  44  45
ATOM     45  N   UNL A   1      34.932  32.124  30.995  1.00  0.00    -0.352 N 
ATOM     46  C   UNL A   1      35.818  31.857  31.993  1.00  0.00     0.251 C 
ATOM     47  H   UNL A   1      34.123  32.571  31.333  1.00  0.00     0.163 HD
ATOM     48  O   UNL A   1      35.473  32.212  33.123  1.00  0.00    -0.269 OA
BRANCH  46  49
ATOM     49  C   UNL A   1      37.113  31.145  31.835  1.00  0.00     0.039 A 
ATOM     50  C   UNL A   1      38.374  31.731  31.729  1.00  0.00     0.014 A 
ATOM     51  C   UNL A   1      37.015  29.741  31.763  1.00  0.00     0.014 A 
ATOM     52  C   UNL A   1      39.494  30.941  31.479  1.00  0.00     0.010 A 
ATOM     53  C   UNL A   1      38.128  28.949  31.526  1.00  0.00     0.010 A 
ATOM     54  C   UNL A   1      39.363  29.555  31.340  1.00  0.00    -0.014 A 
BRANCH  54  55
ATOM     55  C   UNL A   1      40.566  28.754  31.131  1.00  0.00     0.031 A 
ATOM     56  C   UNL A   1      41.366  28.509  32.364  1.00  0.00     0.074 A 
ATOM     57  C   UNL A   1      40.883  28.172  29.956  1.00  0.00     0.049 A 
ATOM     58  N   UNL A   1      42.589  28.861  32.592  1.00  0.00    -0.248 NA
ATOM     59  C   UNL A   1      40.694  27.900  33.524  1.00  0.00     0.031 C 
ATOM     60  C   UNL A   1      40.086  28.115  28.730  1.00  0.00     0.029 A 
ATOM     61  N   UNL A   1      41.976  27.418  29.640  1.00  0.00    -0.354 N 
ATOM     62  C   UNL A   1      42.903  28.376  33.859  1.00  0.00     0.074 A 
ATOM     63  C   UNL A   1      41.668  27.910  34.436  1.00  0.00     0.031 C 
ATOM     64  C   UNL A   1      40.613  27.191  27.893  1.00  0.00     0.029 A 
ATOM     65  C   UNL A   1      41.851  26.688  28.464  1.00  0.00     0.049 A 
ATOM     66  H   UNL A   1      42.785  27.392  30.200  1.00  0.00     0.167 HD
ATOM     67  C   UNL A   1      44.195  28.208  34.251  1.00  0.00     0.037 A 
ATOM     68  C   UNL A   1      42.681  25.710  28.016  1.00  0.00     0.037 A 
ATOM     69  C   UNL A   1      45.095  28.977  33.433  1.00  0.00     0.049 A 
ATOM     70  C   UNL A   1      43.982  25.887  28.705  1.00  0.00     0.074 A 
ATOM     71  C   UNL A   1      45.241  30.324  33.163  1.00  0.00     0.029 A 
ATOM     72  N   UNL A   1      45.808  28.324  32.459  1.00  0.00    -0.354 N 
ATOM     73  N   UNL A   1      44.793  26.880  28.472  1.00  0.00    -0.248 NA
ATOM     74  C   UNL A   1      44.175  25.202  29.975  1.00  0.00     0.031 C 
ATOM     75  C   UNL A   1      45.595  30.386  31.784  1.00  0.00     0.029 A 
ATOM     76  C   UNL A   1      45.709  29.076  31.318  1.00  0.00     0.049 A 
ATOM     77  H   UNL A   1      46.297  27.475  32.561  1.00  0.00     0.167 HD
ATOM     78  C   UNL A   1      45.280  27.227  29.722  1.00  0.00     0.074 A 
ATOM     79  C   UNL A   1      44.939  26.107  30.595  1.00  0.00     0.031 C 
ATOM     80  C   UNL A   1      45.654  28.509  29.995  1.00  0.00     0.037 A 
BRANCH  67  81
ATOM     81  C   UNL A   1      44.682  27.075  35.119  1.00  0.00     0.064 A 
ATOM     82  C   UNL A   1      44.347  25.750  34.774  1.00  0.00     0.173 A 
ATOM     83  C   UNL A   1      45.171  27.258  36.430  1.00  0.00     0.173 A 
ATOM     84  F   UNL A   1      43.856  25.463  33.559  1.00  0.00    -0.203 F 
ATOM     85  C   UNL A   1      44.411  24.707  35.702  1.00  0.00     0.198 A 
ATOM     86  C   UNL A   1      45.283  26.206  37.337  1.00  0.00     0.198 A 
ATOM     87  F   UNL A   1      45.445  28.472  36.924  1.00  0.00    -0.203 F 
ATOM     88  F   UNL A   1      43.952  23.492  35.371  1.00  0.00    -0.200 F 
ATOM     89  C   UNL A   1      44.871  24.938  36.985  1.00  0.00     0.200 A 
ATOM     90  F   UNL A   1      45.710  26.455  38.583  1.00  0.00    -0.200 F 
ATOM     91  F   UNL A   1      44.867  23.958  37.897  1.00  0.00    -0.200 F 
ENDBRANCH  67  81
BRANCH  68  92
ATOM     92  C   UNL A   1      42.367  24.489  27.232  1.00  0.00     0.064 A 
ATOM     93  C   UNL A   1      42.906  24.287  25.948  1.00  0.00     0.173 A 
ATOM     94  C   UNL A   1      41.764  23.368  27.833  1.00  0.00     0.173 A 
ATOM     95  F   UNL A   1      43.538  25.287  25.315  1.00  0.00    -0.203 F 
ATOM     96  C   UNL A   1      42.872  23.036  25.322  1.00  0.00     0.198 A 
ATOM     97  C   UNL A   1      41.724  22.121  27.205  1.00  0.00     0.198 A 
ATOM     98  F   UNL A   1      41.286  23.432  29.085  1.00  0.00    -0.203 F 
ATOM     99  F   UNL A   1      43.457  22.868  24.127  1.00  0.00    -0.200 F 
ATOM    100  C   UNL A   1      42.291  21.951  25.957  1.00  0.00     0.200 A 
ATOM    101  F   UNL A   1      41.189  21.072  27.846  1.00  0.00    -0.200 F 
ATOM    102  F   UNL A   1      42.315  20.737  25.388  1.00  0.00    -0.200 F 
ENDBRANCH  68  92
BRANCH  80 103
ATOM    103  C   UNL A   1      45.768  29.474  28.852  1.00  0.00     0.064 A 
ATOM    104  C   UNL A   1      44.702  30.264  28.385  1.00  0.00     0.173 A 
ATOM    105  C   UNL A   1      47.045  29.744  28.344  1.00  0.00     0.173 A 
ATOM    106  F   UNL A   1      43.470  30.132  28.891  1.00  0.00    -0.203 F 
ATOM    107  C   UNL A   1      44.909  31.261  27.434  1.00  0.00     0.198 A 
ATOM    108  C   UNL A   1      47.253  30.764  27.421  1.00  0.00     0.198 A 
ATOM    109  F   UNL A   1      48.106  29.057  28.796  1.00  0.00    -0.203 F 
ATOM    110  F   UNL A   1      43.879  32.008  27.009  1.00  0.00    -0.200 F 
ATOM    111  C   UNL A   1      46.185  31.519  26.963  1.00  0.00     0.200 A 
ATOM    112  F   UNL A   1      48.497  31.044  27.008  1.00  0.00    -0.200 F 
ATOM    113  F   UNL A   1      46.392  32.518  26.093  1.00  0.00    -0.200 F 
ENDBRANCH  80 103
ENDBRANCH  54  55
ENDBRANCH  46  49
ENDBRANCH  44  45
ENDBRANCH  43  44
ENDBRANCH  42  43
ENDBRANCH  41  42
ENDBRANCH   1  41
TORSDOF 19
ENDMDL
MODEL 3
REMARK VINA RESULT:     -13.5      1.602      6.001
REMARK SMILES Cc1coc2cc3c(cc12)[C@@H](C)[C@H](CCC(=O)N[C@@H](Cc1c[nH]c2ccccc12)C(=O)NCCCCCCNC(=O)c1ccc(-c2c4nc(c(-c5c(F)c(F)c(F)c(F)c5F)c5ccc([nH]5)c(-c5c(F)c(F)c(F)c(F)c5F)c5nc(c(-c6c(F)c(F)c(F)c(F)c6F)c6ccc2[nH]6)C=C5)C=C4)cc1)C(=O)O3
REMARK SMILES IDX 34 1 33 2 32 3 30 4 31 5 19 7 18 8 16 9 17 10 15 12 14 13
REMARK SMILES IDX 13 14 1 15 2 16 3 17 10 18 4 19 5 20 9 21 6 22 8 23 7 24
REMARK SMILES IDX 11 25 107 26 12 27 105 28 106 29 20 30 21 31 22 32 29 33
REMARK SMILES IDX 23 34 24 35 28 36 25 38 27 39 26 40 35 41 36 42 37 43 38 44
REMARK SMILES IDX 39 45 40 46 41 48 42 49 43 50 104 51 44 52 103 53 45 54
REMARK SMILES IDX 46 55 47 56 97 57 48 58 102 59 96 60 98 61 49 62 101 63
REMARK SMILES IDX 95 64 94 65 50 67 82 68 62 69 81 70 63 71 66 72 80 73 99 74
REMARK SMILES IDX 64 75 65 76 79 78 100 79 67 80 51 81 52 82 60 83 53 84 54 85
REMARK SMILES IDX 58 86 61 87 55 88 56 89 59 90 57 91 83 92 84 93 92 94 85 95
REMARK SMILES IDX 86 96 90 97 93 98 87 99 88 100 91 101 89 102 68 103 69 104
REMARK SMILES IDX 77 105 70 106 71 107 75 108 78 109 72 110 73 111 76 112
REMARK SMILES IDX 74 113
REMARK H PARENT 32 6 18 11 23 37 39 47 98 66 66 77
REMARK Flexibility Score: inf
ROOT
ATOM      1  C   UNL A   1      35.298  29.713  27.366  1.00  0.00     0.021 C 
ENDROOT
BRANCH   1   2
ATOM      2  C   UNL A   1      34.359  28.603  26.963  1.00  0.00     0.116 C 
BRANCH   2   3
ATOM      3  N   UNL A   1      33.006  28.731  27.447  1.00  0.00    -0.354 N 
ATOM      4  C   UNL A   1      31.994  27.832  27.266  1.00  0.00     0.242 C 
ATOM      5  O   UNL A   1      30.986  27.929  27.971  1.00  0.00    -0.273 OA
ATOM      6  H   UNL A   1      32.792  29.546  27.957  1.00  0.00     0.163 HD
BRANCH   4   7
ATOM      7  C   UNL A   1      32.105  26.739  26.189  1.00  0.00     0.175 C 
BRANCH   7   8
ATOM      8  N   UNL A   1      31.580  25.477  26.758  1.00  0.00    -0.344 N 
ATOM      9  C   UNL A   1      32.079  24.220  26.952  1.00  0.00     0.220 C 
ATOM     10  O   UNL A   1      31.326  23.383  27.464  1.00  0.00    -0.275 OA
ATOM     11  H   UNL A   1      30.650  25.564  27.072  1.00  0.00     0.164 HD
BRANCH   9  12
ATOM     12  C   UNL A   1      33.495  23.799  26.541  1.00  0.00     0.101 C 
BRANCH  12  13
ATOM     13  C   UNL A   1      34.092  24.304  25.194  1.00  0.00     0.026 C 
BRANCH  13  14
ATOM     14  C   UNL A   1      34.569  23.169  24.293  1.00  0.00     0.107 C 
ATOM     15  C   UNL A   1      35.561  16.133  25.483  1.00  0.00     0.048 C 
ATOM     16  C   UNL A   1      34.556  16.821  24.647  1.00  0.00    -0.005 A 
ATOM     17  C   UNL A   1      33.484  16.243  23.994  1.00  0.00     0.199 A 
ATOM     18  C   UNL A   1      34.424  18.226  24.453  1.00  0.00     0.024 A 
ATOM     19  O   UNL A   1      32.660  17.191  23.486  1.00  0.00    -0.464 OA
ATOM     20  C   UNL A   1      33.193  18.390  23.828  1.00  0.00     0.137 A 
ATOM     21  C   UNL A   1      35.175  19.372  24.807  1.00  0.00     0.020 A 
ATOM     22  C   UNL A   1      32.569  19.607  23.664  1.00  0.00     0.095 A 
ATOM     23  C   UNL A   1      34.599  20.638  24.636  1.00  0.00    -0.001 A 
ATOM     24  C   UNL A   1      33.274  20.691  24.181  1.00  0.00     0.138 A 
ATOM     25  C   UNL A   1      35.343  21.951  24.881  1.00  0.00     0.034 C 
ATOM     26  O   UNL A   1      32.565  21.860  24.294  1.00  0.00    -0.426 OA
ATOM     27  C   UNL A   1      36.735  21.887  24.192  1.00  0.00     0.014 C 
ATOM     28  C   UNL A   1      33.343  22.681  23.569  1.00  0.00     0.314 C 
ATOM     29  O   UNL A   1      32.985  23.075  22.475  1.00  0.00    -0.251 OA
ENDBRANCH  13  14
ENDBRANCH  12  13
ENDBRANCH   9  12
ENDBRANCH   7   8
BRANCH   7  30
ATOM     30  C   UNL A   1      31.700  27.227  24.741  1.00  0.00     0.072 C 
BRANCH  30  31
ATOM     31  C   UNL A   1      30.299  27.457  24.175  1.00  0.00    -0.020 A 
ATOM     32  C   UNL A   1      29.366  26.429  24.126  1.00  0.00     0.087 A 
ATOM     33  C   UNL A   1      29.574  28.647  23.721  1.00  0.00     0.003 A 
ATOM     34  N   UNL A   1      28.198  26.894  23.597  1.00  0.00    -0.361 N 
ATOM     35  C   UNL A   1      28.305  28.228  23.300  1.00  0.00     0.046 A 
ATOM     36  C   UNL A   1      29.821  30.032  23.569  1.00  0.00     0.010 A 
ATOM     37  H   UNL A   1      27.391  26.349  23.450  1.00  0.00     0.166 HD
ATOM     38  C   UNL A   1      27.364  29.078  22.686  1.00  0.00     0.026 A 
ATOM     39  C   UNL A   1      28.897  30.902  22.971  1.00  0.00     0.001 A 
ATOM     40  C   UNL A   1      27.690  30.420  22.507  1.00  0.00     0.002 A 
ENDBRANCH  30  31
ENDBRANCH   7  30
ENDBRANCH   4   7
ENDBRANCH   2   3
ENDBRANCH   1   2
BRANCH   1  41
ATOM     41  C   UNL A   1      34.571  30.985  27.793  1.00  0.00     0.002 C 
BRANCH  41  42
ATOM     42  C   UNL A   1      35.374  32.289  27.671  1.00  0.00     0.002 C 
BRANCH  42  43
ATOM     43  C   UNL A   1      34.674  33.565  28.159  1.00  0.00     0.021 C 
BRANCH  43  44
ATOM     44  C   UNL A   1      35.223  34.155  29.454  1.00  0.00     0.116 C 
BRANCH  44  45
ATOM     45  N   UNL A   1      34.705  33.508  30.637  1.00  0.00    -0.352 N 
ATOM     46  C   UNL A   1      35.197  32.676  31.594  1.00  0.00     0.251 C 
ATOM     47  H   UNL A   1      33.757  33.724  30.790  1.00  0.00     0.163 HD
ATOM     48  O   UNL A   1      34.400  32.342  32.475  1.00  0.00    -0.269 OA
BRANCH  46  49
ATOM     49  C   UNL A   1      36.574  32.116  31.633  1.00  0.00     0.039 A 
ATOM     50  C   UNL A   1      37.589  32.470  32.522  1.00  0.00     0.014 A 
ATOM     51  C   UNL A   1      36.852  31.155  30.641  1.00  0.00     0.014 A 
ATOM     52  C   UNL A   1      38.867  31.936  32.373  1.00  0.00     0.010 A 
ATOM     53  C   UNL A   1      38.120  30.612  30.496  1.00  0.00     0.010 A 
ATOM     54  C   UNL A   1      39.140  31.037  31.337  1.00  0.00    -0.014 A 
BRANCH  54  55
ATOM     55  C   UNL A   1      40.476  30.457  31.244  1.00  0.00     0.031 A 
ATOM     56  C   UNL A   1      41.442  31.258  30.440  1.00  0.00     0.074 A 
ATOM     57  C   UNL A   1      40.861  29.354  31.917  1.00  0.00     0.049 A 
ATOM     58  N   UNL A   1      42.064  30.895  29.366  1.00  0.00    -0.248 NA
ATOM     59  C   UNL A   1      41.659  32.666  30.809  1.00  0.00     0.031 C 
ATOM     60  C   UNL A   1      40.113  28.600  32.924  1.00  0.00     0.029 A 
ATOM     61  N   UNL A   1      42.069  28.716  31.900  1.00  0.00    -0.354 N 
ATOM     62  C   UNL A   1      42.880  31.967  29.010  1.00  0.00     0.074 A 
ATOM     63  C   UNL A   1      42.497  33.070  29.852  1.00  0.00     0.031 C 
ATOM     64  C   UNL A   1      40.952  27.759  33.573  1.00  0.00     0.029 A 
ATOM     65  C   UNL A   1      42.261  27.819  32.944  1.00  0.00     0.049 A 
ATOM     66  H   UNL A   1      42.747  28.879  31.205  1.00  0.00     0.167 HD
ATOM     67  C   UNL A   1      43.951  31.796  28.187  1.00  0.00     0.037 A 
ATOM     68  C   UNL A   1      43.422  27.207  33.293  1.00  0.00     0.037 A 
ATOM     69  C   UNL A   1      43.843  30.574  27.434  1.00  0.00     0.049 A 
ATOM     70  C   UNL A   1      44.315  27.249  32.110  1.00  0.00     0.074 A 
ATOM     71  C   UNL A   1      42.931  30.080  26.522  1.00  0.00     0.029 A 
ATOM     72  N   UNL A   1      44.588  29.495  27.838  1.00  0.00    -0.354 N 
ATOM     73  N   UNL A   1      44.109  26.557  31.025  1.00  0.00    -0.248 NA
ATOM     74  C   UNL A   1      45.192  28.402  31.964  1.00  0.00     0.031 C 
ATOM     75  C   UNL A   1      42.842  28.687  26.810  1.00  0.00     0.029 A 
ATOM     76  C   UNL A   1      43.753  28.408  27.829  1.00  0.00     0.049 A 
ATOM     77  H   UNL A   1      45.540  29.499  28.086  1.00  0.00     0.167 HD
ATOM     78  C   UNL A   1      44.448  27.421  29.996  1.00  0.00     0.074 A 
ATOM     79  C   UNL A   1      45.192  28.507  30.631  1.00  0.00     0.031 C 
ATOM     80  C   UNL A   1      43.846  27.327  28.776  1.00  0.00     0.037 A 
BRANCH  67  81
ATOM     81  C   UNL A   1      45.261  32.529  28.331  1.00  0.00     0.064 A 
ATOM     82  C   UNL A   1      45.852  33.112  27.192  1.00  0.00     0.173 A 
ATOM     83  C   UNL A   1      46.103  32.397  29.456  1.00  0.00     0.173 A 
ATOM     84  F   UNL A   1      45.148  33.269  26.061  1.00  0.00    -0.203 F 
ATOM     85  C   UNL A   1      47.208  33.449  27.156  1.00  0.00     0.198 A 
ATOM     86  C   UNL A   1      47.442  32.784  29.432  1.00  0.00     0.198 A 
ATOM     87  F   UNL A   1      45.704  31.782  30.575  1.00  0.00    -0.203 F 
ATOM     88  F   UNL A   1      47.758  33.872  26.009  1.00  0.00    -0.200 F 
ATOM     89  C   UNL A   1      48.003  33.277  28.274  1.00  0.00     0.200 A 
ATOM     90  F   UNL A   1      48.201  32.588  30.519  1.00  0.00    -0.200 F 
ATOM     91  F   UNL A   1      49.316  33.533  28.221  1.00  0.00    -0.200 F 
ENDBRANCH  67  81
BRANCH  68  92
ATOM     92  C   UNL A   1      43.915  26.810  34.636  1.00  0.00     0.064 A 
ATOM     93  C   UNL A   1      44.159  27.767  35.637  1.00  0.00     0.173 A 
ATOM     94  C   UNL A   1      43.887  25.467  35.058  1.00  0.00     0.173 A 
ATOM     95  F   UNL A   1      44.162  29.075  35.335  1.00  0.00    -0.203 F 
ATOM     96  C   UNL A   1      44.331  27.406  36.977  1.00  0.00     0.198 A 
ATOM     97  C   UNL A   1      44.066  25.106  36.395  1.00  0.00     0.198 A 
ATOM     98  F   UNL A   1      43.588  24.481  34.199  1.00  0.00    -0.203 F 
ATOM     99  F   UNL A   1      44.494  28.354  37.912  1.00  0.00    -0.200 F 
ATOM    100  C   UNL A   1      44.273  26.076  37.357  1.00  0.00     0.200 A 
ATOM    101  F   UNL A   1      43.971  23.818  36.753  1.00  0.00    -0.200 F 
ATOM    102  F   UNL A   1      44.371  25.732  38.650  1.00  0.00    -0.200 F 
ENDBRANCH  68  92
BRANCH  80 103
ATOM    103  C   UNL A   1      43.003  26.118  28.493  1.00  0.00     0.064 A 
ATOM    104  C   UNL A   1      41.617  26.059  28.721  1.00  0.00     0.173 A 
ATOM    105  C   UNL A   1      43.590  25.058  27.790  1.00  0.00     0.173 A 
ATOM    106  F   UNL A   1      40.968  27.076  29.300  1.00  0.00    -0.203 F 
ATOM    107  C   UNL A   1      40.861  24.974  28.283  1.00  0.00     0.198 A 
ATOM    108  C   UNL A   1      42.826  23.993  27.324  1.00  0.00     0.198 A 
ATOM    109  F   UNL A   1      44.899  25.089  27.498  1.00  0.00    -0.203 F 
ATOM    110  F   UNL A   1      39.538  24.943  28.503  1.00  0.00    -0.200 F 
ATOM    111  C   UNL A   1      41.464  23.949  27.573  1.00  0.00     0.200 A 
ATOM    112  F   UNL A   1      43.404  23.030  26.593  1.00  0.00    -0.200 F 
ATOM    113  F   UNL A   1      40.727  22.934  27.101  1.00  0.00    -0.200 F 
ENDBRANCH  80 103
ENDBRANCH  54  55
ENDBRANCH  46  49
ENDBRANCH  44  45
ENDBRANCH  43  44
ENDBRANCH  42  43
ENDBRANCH  41  42
ENDBRANCH   1  41
TORSDOF 19
ENDMDL
