MODEL 1
REMARK VINA RESULT:     -10.3      0.000      0.000
REMARK SMILES COCCOc1ccc([C@H]([NH3+])C(=O)NCCCCCCNC(=O)c2ccc(-c3c4nc(c(-c5c(F)c(F)c(F)c(F)c5F)c5ccc([nH]5)c(-c5c(F)c(F)c(F)c(F)c5F)c5nc(c(-c6c(F)c(F)c(F)c(F)c6F)c6ccc3[nH]6)C=C5)C=C4)cc2)cc1OC
REMARK SMILES IDX 16 1 15 2 14 3 12 4 13 5 10 7 9 8 6 9 7 10 88 11 8 12 87 13
REMARK SMILES IDX 5 14 4 15 3 16 2 17 1 18 89 19 90 20 11 21 17 25 18 26 19 27
REMARK SMILES IDX 20 28 21 29 22 30 23 32 24 33 25 34 86 35 26 36 85 37 27 38
REMARK SMILES IDX 28 39 29 40 79 41 30 42 84 43 78 44 80 45 31 46 83 47 77 48
REMARK SMILES IDX 76 49 32 51 64 52 44 53 63 54 45 55 48 56 62 57 81 58 46 59
REMARK SMILES IDX 47 60 61 62 82 63 49 64 33 65 34 66 42 67 35 68 36 69 40 70
REMARK SMILES IDX 43 71 37 72 38 73 41 74 39 75 65 76 66 77 74 78 67 79 68 80
REMARK SMILES IDX 72 81 75 82 69 83 70 84 73 85 71 86 50 87 51 88 59 89 52 90
REMARK SMILES IDX 53 91 57 92 60 93 54 94 55 95 58 96 56 97
REMARK H PARENT 14 6 11 22 11 23 11 24 21 31 80 50 48 61
REMARK Flexibility Score: inf
ROOT
ATOM      1  C   UNL A   1      34.956  23.993  24.528  1.00  0.00     0.021 C 
ENDROOT
BRANCH   1   2
ATOM      2  C   UNL A   1      34.111  22.759  24.843  1.00  0.00     0.116 C 
BRANCH   2   3
ATOM      3  N   UNL A   1      33.594  22.821  26.196  1.00  0.00    -0.351 N 
ATOM      4  C   UNL A   1      32.307  22.891  26.649  1.00  0.00     0.283 C 
ATOM      5  O   UNL A   1      32.143  22.963  27.872  1.00  0.00    -0.268 OA
ATOM      6  H   UNL A   1      34.282  22.812  26.901  1.00  0.00     0.163 HD
BRANCH   4   7
ATOM      7  C   UNL A   1      31.091  22.872  25.672  1.00  0.00     0.302 C 
BRANCH   7   8
ATOM      8  C   UNL A   1      30.877  24.194  24.947  1.00  0.00     0.023 A 
ATOM      9  C   UNL A   1      30.378  26.546  23.449  1.00  0.00     0.161 A 
ATOM     10  C   UNL A   1      30.127  26.524  24.818  1.00  0.00     0.051 A 
ATOM     11  C   UNL A   1      31.056  25.468  22.897  1.00  0.00     0.161 A 
ATOM     12  C   UNL A   1      30.405  25.364  25.570  1.00  0.00     0.014 A 
ATOM     13  C   UNL A   1      31.154  24.260  23.576  1.00  0.00     0.061 A 
BRANCH   9  14
ATOM     14  O   UNL A   1      30.084  27.664  22.713  1.00  0.00    -0.487 OA
BRANCH  14  15
ATOM     15  C   UNL A   1      30.042  28.882  23.507  1.00  0.00     0.258 C 
BRANCH  15  16
ATOM     16  C   UNL A   1      29.247  30.057  22.894  1.00  0.00     0.201 C 
BRANCH  16  17
ATOM     17  O   UNL A   1      28.861  29.776  21.541  1.00  0.00    -0.381 OA
ATOM     18  C   UNL A   1      28.035  30.788  20.969  1.00  0.00     0.195 C 
ENDBRANCH  16  17
ENDBRANCH  15  16
ENDBRANCH  14  15
ENDBRANCH   9  14
BRANCH  11  19
ATOM     19  O   UNL A   1      31.793  25.556  21.749  1.00  0.00    -0.493 OA
ATOM     20  C   UNL A   1      32.789  24.533  21.706  1.00  0.00     0.278 C 
ENDBRANCH  11  19
ENDBRANCH   7   8
BRANCH   7  21
ATOM     21  N   UNL A   1      29.900  22.344  26.373  1.00  0.00    -0.343 N 
ATOM     22  H   UNL A   1      29.515  21.560  25.846  1.00  0.00     0.345 HD
ATOM     23  H   UNL A   1      29.198  23.079  26.450  1.00  0.00     0.345 HD
ATOM     24  H   UNL A   1      30.167  22.029  27.306  1.00  0.00     0.345 HD
ENDBRANCH   7  21
ENDBRANCH   4   7
ENDBRANCH   2   3
ENDBRANCH   1   2
BRANCH   1  25
ATOM     25  C   UNL A   1      34.668  25.203  25.427  1.00  0.00     0.002 C 
BRANCH  25  26
ATOM     26  C   UNL A   1      33.907  26.352  24.757  1.00  0.00     0.002 C 
BRANCH  26  27
ATOM     27  C   UNL A   1      33.590  27.542  25.665  1.00  0.00     0.021 C 
BRANCH  27  28
ATOM     28  C   UNL A   1      34.028  28.896  25.118  1.00  0.00     0.116 C 
BRANCH  28  29
ATOM     29  N   UNL A   1      33.166  29.976  25.568  1.00  0.00    -0.352 N 
ATOM     30  C   UNL A   1      33.259  30.757  26.694  1.00  0.00     0.251 C 
ATOM     31  H   UNL A   1      32.403  30.177  24.979  1.00  0.00     0.163 HD
ATOM     32  O   UNL A   1      32.334  31.490  27.014  1.00  0.00    -0.269 OA
BRANCH  30  33
ATOM     33  C   UNL A   1      34.475  30.695  27.536  1.00  0.00     0.039 A 
ATOM     34  C   UNL A   1      34.741  29.523  28.247  1.00  0.00     0.014 A 
ATOM     35  C   UNL A   1      35.341  31.787  27.634  1.00  0.00     0.014 A 
ATOM     36  C   UNL A   1      35.908  29.424  29.009  1.00  0.00     0.010 A 
ATOM     37  C   UNL A   1      36.541  31.660  28.331  1.00  0.00     0.010 A 
ATOM     38  C   UNL A   1      36.835  30.478  29.029  1.00  0.00    -0.014 A 
BRANCH  38  39
ATOM     39  C   UNL A   1      38.120  30.357  29.769  1.00  0.00     0.031 A 
ATOM     40  C   UNL A   1      39.266  29.584  29.177  1.00  0.00     0.074 A 
ATOM     41  C   UNL A   1      38.229  30.892  31.001  1.00  0.00     0.049 A 
ATOM     42  N   UNL A   1      40.437  29.313  29.698  1.00  0.00    -0.248 NA
ATOM     43  C   UNL A   1      39.065  29.017  27.834  1.00  0.00     0.031 C 
ATOM     44  C   UNL A   1      37.171  31.620  31.705  1.00  0.00     0.029 A 
ATOM     45  N   UNL A   1      39.277  30.893  31.890  1.00  0.00    -0.354 N 
ATOM     46  C   UNL A   1      41.098  28.532  28.759  1.00  0.00     0.074 A 
ATOM     47  C   UNL A   1      40.187  28.335  27.653  1.00  0.00     0.031 C 
ATOM     48  C   UNL A   1      37.627  32.008  32.907  1.00  0.00     0.029 A 
ATOM     49  C   UNL A   1      38.991  31.520  33.080  1.00  0.00     0.049 A 
ATOM     50  H   UNL A   1      40.151  30.484  31.693  1.00  0.00     0.167 HD
ATOM     51  C   UNL A   1      42.359  28.040  28.809  1.00  0.00     0.037 A 
ATOM     52  C   UNL A   1      39.738  31.668  34.191  1.00  0.00     0.037 A 
ATOM     53  C   UNL A   1      43.275  28.269  29.896  1.00  0.00     0.049 A 
ATOM     54  C   UNL A   1      41.138  31.112  34.212  1.00  0.00     0.074 A 
ATOM     55  C   UNL A   1      44.601  27.887  29.997  1.00  0.00     0.029 A 
ATOM     56  N   UNL A   1      42.959  28.934  31.071  1.00  0.00    -0.354 N 
ATOM     57  N   UNL A   1      41.783  30.456  33.279  1.00  0.00    -0.248 NA
ATOM     58  C   UNL A   1      41.918  31.325  35.440  1.00  0.00     0.031 C 
ATOM     59  C   UNL A   1      45.069  28.260  31.260  1.00  0.00     0.029 A 
ATOM     60  C   UNL A   1      44.057  28.940  31.918  1.00  0.00     0.049 A 
ATOM     61  H   UNL A   1      42.087  29.343  31.273  1.00  0.00     0.167 HD
ATOM     62  C   UNL A   1      43.050  30.209  33.791  1.00  0.00     0.074 A 
ATOM     63  C   UNL A   1      43.090  30.803  35.110  1.00  0.00     0.031 C 
ATOM     64  C   UNL A   1      44.087  29.547  33.222  1.00  0.00     0.037 A 
BRANCH  51  65
ATOM     65  C   UNL A   1      42.838  27.199  27.662  1.00  0.00     0.064 A 
ATOM     66  C   UNL A   1      43.623  27.733  26.629  1.00  0.00     0.173 A 
ATOM     67  C   UNL A   1      42.583  25.818  27.645  1.00  0.00     0.173 A 
ATOM     68  F   UNL A   1      43.888  29.047  26.593  1.00  0.00    -0.203 F 
ATOM     69  C   UNL A   1      44.124  26.919  25.615  1.00  0.00     0.198 A 
ATOM     70  C   UNL A   1      43.112  25.003  26.647  1.00  0.00     0.198 A 
ATOM     71  F   UNL A   1      41.843  25.255  28.612  1.00  0.00    -0.203 F 
ATOM     72  F   UNL A   1      44.845  27.456  24.622  1.00  0.00    -0.200 F 
ATOM     73  C   UNL A   1      43.878  25.553  25.632  1.00  0.00     0.200 A 
ATOM     74  F   UNL A   1      42.886  23.682  26.676  1.00  0.00    -0.200 F 
ATOM     75  F   UNL A   1      44.381  24.769  24.670  1.00  0.00    -0.200 F 
ENDBRANCH  51  65
BRANCH  52  76
ATOM     76  C   UNL A   1      39.182  32.363  35.386  1.00  0.00     0.064 A 
ATOM     77  C   UNL A   1      39.405  33.731  35.601  1.00  0.00     0.173 A 
ATOM     78  C   UNL A   1      38.455  31.662  36.359  1.00  0.00     0.173 A 
ATOM     79  F   UNL A   1      40.110  34.443  34.709  1.00  0.00    -0.203 F 
ATOM     80  C   UNL A   1      38.962  34.359  36.762  1.00  0.00     0.198 A 
ATOM     81  C   UNL A   1      37.978  32.301  37.503  1.00  0.00     0.198 A 
ATOM     82  F   UNL A   1      38.205  30.354  36.201  1.00  0.00    -0.203 F 
ATOM     83  F   UNL A   1      39.253  35.649  36.976  1.00  0.00    -0.200 F 
ATOM     84  C   UNL A   1      38.246  33.645  37.711  1.00  0.00     0.200 A 
ATOM     85  F   UNL A   1      37.271  31.610  38.407  1.00  0.00    -0.200 F 
ATOM     86  F   UNL A   1      37.825  34.248  38.831  1.00  0.00    -0.200 F 
ENDBRANCH  52  76
BRANCH  64  87
ATOM     87  C   UNL A   1      45.370  29.469  34.001  1.00  0.00     0.064 A 
ATOM     88  C   UNL A   1      46.369  30.446  33.882  1.00  0.00     0.173 A 
ATOM     89  C   UNL A   1      45.582  28.420  34.910  1.00  0.00     0.173 A 
ATOM     90  F   UNL A   1      46.221  31.462  33.019  1.00  0.00    -0.203 F 
ATOM     91  C   UNL A   1      47.546  30.359  34.622  1.00  0.00     0.198 A 
ATOM     92  C   UNL A   1      46.743  28.357  35.674  1.00  0.00     0.198 A 
ATOM     93  F   UNL A   1      44.655  27.464  35.068  1.00  0.00    -0.203 F 
ATOM     94  F   UNL A   1      48.510  31.274  34.452  1.00  0.00    -0.200 F 
ATOM     95  C   UNL A   1      47.728  29.320  35.522  1.00  0.00     0.200 A 
ATOM     96  F   UNL A   1      46.909  27.362  36.557  1.00  0.00    -0.200 F 
ATOM     97  F   UNL A   1      48.857  29.244  36.240  1.00  0.00    -0.200 F 
ENDBRANCH  64  87
ENDBRANCH  38  39
ENDBRANCH  30  33
ENDBRANCH  28  29
ENDBRANCH  27  28
ENDBRANCH  26  27
ENDBRANCH  25  26
ENDBRANCH   1  25
TORSDOF 20
ENDMDL
MODEL 2
REMARK VINA RESULT:     -10.2      2.521      4.716
REMARK SMILES COCCOc1ccc([C@H]([NH3+])C(=O)NCCCCCCNC(=O)c2ccc(-c3c4nc(c(-c5c(F)c(F)c(F)c(F)c5F)c5ccc([nH]5)c(-c5c(F)c(F)c(F)c(F)c5F)c5nc(c(-c6c(F)c(F)c(F)c(F)c6F)c6ccc3[nH]6)C=C5)C=C4)cc2)cc1OC
REMARK SMILES IDX 16 1 15 2 14 3 12 4 13 5 10 7 9 8 6 9 7 10 88 11 8 12 87 13
REMARK SMILES IDX 5 14 4 15 3 16 2 17 1 18 89 19 90 20 11 21 17 25 18 26 19 27
REMARK SMILES IDX 20 28 21 29 22 30 23 32 24 33 25 34 86 35 26 36 85 37 27 38
REMARK SMILES IDX 28 39 29 40 79 41 30 42 84 43 78 44 80 45 31 46 83 47 77 48
REMARK SMILES IDX 76 49 32 51 64 52 44 53 63 54 45 55 48 56 62 57 81 58 46 59
REMARK SMILES IDX 47 60 61 62 82 63 49 64 33 65 34 66 42 67 35 68 36 69 40 70
REMARK SMILES IDX 43 71 37 72 38 73 41 74 39 75 65 76 66 77 74 78 67 79 68 80
REMARK SMILES IDX 72 81 75 82 69 83 70 84 73 85 71 86 50 87 51 88 59 89 52 90
REMARK SMILES IDX 53 91 57 92 60 93 54 94 55 95 58 96 56 97
REMARK H PARENT 14 6 11 22 11 23 11 24 21 31 80 50 48 61
REMARK Flexibility Score: inf
ROOT
ATOM      1  C   UNL A   1      33.403  29.205  25.815  1.00  0.00     0.021 C 
ENDROOT
BRANCH   1   2
ATOM      2  C   UNL A   1      32.622  29.420  24.519  1.00  0.00     0.116 C 
BRANCH   2   3
ATOM      3  N   UNL A   1      33.470  29.199  23.365  1.00  0.00    -0.351 N 
ATOM      4  C   UNL A   1      33.504  28.159  22.477  1.00  0.00     0.283 C 
ATOM      5  O   UNL A   1      34.358  28.208  21.586  1.00  0.00    -0.268 OA
ATOM      6  H   UNL A   1      34.127  29.912  23.192  1.00  0.00     0.163 HD
BRANCH   4   7
ATOM      7  C   UNL A   1      32.505  26.966  22.574  1.00  0.00     0.302 C 
BRANCH   7   8
ATOM      8  C   UNL A   1      33.057  25.776  23.350  1.00  0.00     0.023 A 
ATOM      9  C   UNL A   1      34.099  23.463  24.608  1.00  0.00     0.161 A 
ATOM     10  C   UNL A   1      34.612  24.718  24.921  1.00  0.00     0.051 A 
ATOM     11  C   UNL A   1      32.950  23.407  23.831  1.00  0.00     0.161 A 
ATOM     12  C   UNL A   1      34.073  25.874  24.318  1.00  0.00     0.014 A 
ATOM     13  C   UNL A   1      32.537  24.504  23.085  1.00  0.00     0.061 A 
BRANCH   9  14
ATOM     14  O   UNL A   1      34.640  22.338  25.175  1.00  0.00    -0.487 OA
BRANCH  14  15
ATOM     15  C   UNL A   1      36.020  22.511  25.596  1.00  0.00     0.258 C 
BRANCH  15  16
ATOM     16  C   UNL A   1      37.095  22.035  24.593  1.00  0.00     0.201 C 
BRANCH  16  17
ATOM     17  O   UNL A   1      38.044  21.162  25.221  1.00  0.00    -0.381 OA
ATOM     18  C   UNL A   1      37.850  19.788  24.892  1.00  0.00     0.195 C 
ENDBRANCH  16  17
ENDBRANCH  15  16
ENDBRANCH  14  15
ENDBRANCH   9  14
BRANCH  11  19
ATOM     19  O   UNL A   1      32.077  22.356  23.862  1.00  0.00    -0.493 OA
ATOM     20  C   UNL A   1      32.147  21.603  22.649  1.00  0.00     0.278 C 
ENDBRANCH  11  19
ENDBRANCH   7   8
BRANCH   7  21
ATOM     21  N   UNL A   1      31.983  26.645  21.227  1.00  0.00    -0.343 N 
ATOM     22  H   UNL A   1      31.154  26.058  21.314  1.00  0.00     0.345 HD
ATOM     23  H   UNL A   1      32.697  26.149  20.695  1.00  0.00     0.345 HD
ATOM     24  H   UNL A   1      31.739  27.510  20.743  1.00  0.00     0.345 HD
ENDBRANCH   7  21
ENDBRANCH   4   7
ENDBRANCH   2   3
ENDBRANCH   1   2
BRANCH   1  25
ATOM     25  C   UNL A   1      32.953  30.098  26.980  1.00  0.00     0.002 C 
BRANCH  25  26
ATOM     26  C   UNL A   1      31.528  30.652  26.869  1.00  0.00     0.002 C 
BRANCH  26  27
ATOM     27  C   UNL A   1      31.423  32.178  26.833  1.00  0.00     0.021 C 
BRANCH  27  28
ATOM     28  C   UNL A   1      32.704  32.914  27.212  1.00  0.00     0.116 C 
BRANCH  28  29
ATOM     29  N   UNL A   1      32.453  34.294  27.591  1.00  0.00    -0.352 N 
ATOM     30  C   UNL A   1      33.013  35.039  28.600  1.00  0.00     0.251 C 
ATOM     31  H   UNL A   1      31.782  34.764  27.044  1.00  0.00     0.163 HD
ATOM     32  O   UNL A   1      32.541  36.128  28.898  1.00  0.00    -0.269 OA
BRANCH  30  33
ATOM     33  C   UNL A   1      34.180  34.514  29.344  1.00  0.00     0.039 A 
ATOM     34  C   UNL A   1      33.962  33.845  30.550  1.00  0.00     0.014 A 
ATOM     35  C   UNL A   1      35.481  34.689  28.864  1.00  0.00     0.014 A 
ATOM     36  C   UNL A   1      35.044  33.298  31.245  1.00  0.00     0.010 A 
ATOM     37  C   UNL A   1      36.549  34.078  29.516  1.00  0.00     0.010 A 
ATOM     38  C   UNL A   1      36.342  33.378  30.715  1.00  0.00    -0.014 A 
BRANCH  38  39
ATOM     39  C   UNL A   1      37.492  32.731  31.401  1.00  0.00     0.031 A 
ATOM     40  C   UNL A   1      38.192  31.561  30.767  1.00  0.00     0.074 A 
ATOM     41  C   UNL A   1      37.864  33.160  32.624  1.00  0.00     0.049 A 
ATOM     42  N   UNL A   1      39.168  30.826  31.240  1.00  0.00    -0.248 NA
ATOM     43  C   UNL A   1      37.720  31.142  29.437  1.00  0.00     0.031 C 
ATOM     44  C   UNL A   1      37.230  34.251  33.366  1.00  0.00     0.029 A 
ATOM     45  N   UNL A   1      38.855  32.720  33.467  1.00  0.00    -0.354 N 
ATOM     46  C   UNL A   1      39.409  29.852  30.278  1.00  0.00     0.074 A 
ATOM     47  C   UNL A   1      38.453  30.060  29.214  1.00  0.00     0.031 C 
ATOM     48  C   UNL A   1      37.855  34.404  34.545  1.00  0.00     0.029 A 
ATOM     49  C   UNL A   1      38.903  33.396  34.663  1.00  0.00     0.049 A 
ATOM     50  H   UNL A   1      39.474  31.989  33.236  1.00  0.00     0.167 HD
ATOM     51  C   UNL A   1      40.357  28.884  30.278  1.00  0.00     0.037 A 
ATOM     52  C   UNL A   1      39.690  33.211  35.741  1.00  0.00     0.037 A 
ATOM     53  C   UNL A   1      41.330  28.704  31.324  1.00  0.00     0.049 A 
ATOM     54  C   UNL A   1      40.737  32.128  35.706  1.00  0.00     0.074 A 
ATOM     55  C   UNL A   1      42.384  27.808  31.371  1.00  0.00     0.029 A 
ATOM     56  N   UNL A   1      41.366  29.427  32.506  1.00  0.00    -0.354 N 
ATOM     57  N   UNL A   1      41.014  31.274  34.751  1.00  0.00    -0.248 NA
ATOM     58  C   UNL A   1      41.586  31.987  36.898  1.00  0.00     0.031 C 
ATOM     59  C   UNL A   1      43.016  27.942  32.610  1.00  0.00     0.029 A 
ATOM     60  C   UNL A   1      42.403  28.971  33.306  1.00  0.00     0.049 A 
ATOM     61  H   UNL A   1      40.748  30.156  32.742  1.00  0.00     0.167 HD
ATOM     62  C   UNL A   1      42.087  30.522  35.211  1.00  0.00     0.074 A 
ATOM     63  C   UNL A   1      42.423  31.032  36.522  1.00  0.00     0.031 C 
ATOM     64  C   UNL A   1      42.735  29.498  34.603  1.00  0.00     0.037 A 
BRANCH  51  65
ATOM     65  C   UNL A   1      40.399  27.933  29.118  1.00  0.00     0.064 A 
ATOM     66  C   UNL A   1      39.615  26.770  29.084  1.00  0.00     0.173 A 
ATOM     67  C   UNL A   1      41.168  28.239  27.984  1.00  0.00     0.173 A 
ATOM     68  F   UNL A   1      38.869  26.428  30.145  1.00  0.00    -0.203 F 
ATOM     69  C   UNL A   1      39.610  25.942  27.964  1.00  0.00     0.198 A 
ATOM     70  C   UNL A   1      41.136  27.425  26.854  1.00  0.00     0.198 A 
ATOM     71  F   UNL A   1      41.932  29.342  27.961  1.00  0.00    -0.203 F 
ATOM     72  F   UNL A   1      38.877  24.820  27.967  1.00  0.00    -0.200 F 
ATOM     73  C   UNL A   1      40.360  26.276  26.846  1.00  0.00     0.200 A 
ATOM     74  F   UNL A   1      41.849  27.760  25.770  1.00  0.00    -0.200 F 
ATOM     75  F   UNL A   1      40.334  25.491  25.761  1.00  0.00    -0.200 F 
ENDBRANCH  51  65
BRANCH  52  76
ATOM     76  C   UNL A   1      39.520  34.060  36.953  1.00  0.00     0.064 A 
ATOM     77  C   UNL A   1      40.145  35.311  37.057  1.00  0.00     0.173 A 
ATOM     78  C   UNL A   1      38.767  33.616  38.050  1.00  0.00     0.173 A 
ATOM     79  F   UNL A   1      40.891  35.774  36.043  1.00  0.00    -0.203 F 
ATOM     80  C   UNL A   1      40.058  36.064  38.226  1.00  0.00     0.198 A 
ATOM     81  C   UNL A   1      38.649  34.388  39.204  1.00  0.00     0.198 A 
ATOM     82  F   UNL A   1      38.141  32.431  38.001  1.00  0.00    -0.203 F 
ATOM     83  F   UNL A   1      40.726  37.222  38.326  1.00  0.00    -0.200 F 
ATOM     84  C   UNL A   1      39.308  35.604  39.298  1.00  0.00     0.200 A 
ATOM     85  F   UNL A   1      37.908  33.947  40.229  1.00  0.00    -0.200 F 
ATOM     86  F   UNL A   1      39.231  36.325  40.425  1.00  0.00    -0.200 F 
ENDBRANCH  52  76
BRANCH  64  87
ATOM     87  C   UNL A   1      43.903  28.890  35.327  1.00  0.00     0.064 A 
ATOM     88  C   UNL A   1      43.744  27.828  36.230  1.00  0.00     0.173 A 
ATOM     89  C   UNL A   1      45.205  29.352  35.080  1.00  0.00     0.173 A 
ATOM     90  F   UNL A   1      42.520  27.358  36.511  1.00  0.00    -0.203 F 
ATOM     91  C   UNL A   1      44.842  27.273  36.882  1.00  0.00     0.198 A 
ATOM     92  C   UNL A   1      46.303  28.769  35.705  1.00  0.00     0.198 A 
ATOM     93  F   UNL A   1      45.415  30.359  34.219  1.00  0.00    -0.203 F 
ATOM     94  F   UNL A   1      44.660  26.297  37.782  1.00  0.00    -0.200 F 
ATOM     95  C   UNL A   1      46.121  27.738  36.613  1.00  0.00     0.200 A 
ATOM     96  F   UNL A   1      47.540  29.208  35.430  1.00  0.00    -0.200 F 
ATOM     97  F   UNL A   1      47.177  27.195  37.234  1.00  0.00    -0.200 F 
ENDBRANCH  64  87
ENDBRANCH  38  39
ENDBRANCH  30  33
ENDBRANCH  28  29
ENDBRANCH  27  28
ENDBRANCH  26  27
ENDBRANCH  25  26
ENDBRANCH   1  25
TORSDOF 20
ENDMDL
MODEL 3
REMARK VINA RESULT:     -10.1      3.317      5.990
REMARK SMILES COCCOc1ccc([C@H]([NH3+])C(=O)NCCCCCCNC(=O)c2ccc(-c3c4nc(c(-c5c(F)c(F)c(F)c(F)c5F)c5ccc([nH]5)c(-c5c(F)c(F)c(F)c(F)c5F)c5nc(c(-c6c(F)c(F)c(F)c(F)c6F)c6ccc3[nH]6)C=C5)C=C4)cc2)cc1OC
REMARK SMILES IDX 16 1 15 2 14 3 12 4 13 5 10 7 9 8 6 9 7 10 88 11 8 12 87 13
REMARK SMILES IDX 5 14 4 15 3 16 2 17 1 18 89 19 90 20 11 21 17 25 18 26 19 27
REMARK SMILES IDX 20 28 21 29 22 30 23 32 24 33 25 34 86 35 26 36 85 37 27 38
REMARK SMILES IDX 28 39 29 40 79 41 30 42 84 43 78 44 80 45 31 46 83 47 77 48
REMARK SMILES IDX 76 49 32 51 64 52 44 53 63 54 45 55 48 56 62 57 81 58 46 59
REMARK SMILES IDX 47 60 61 62 82 63 49 64 33 65 34 66 42 67 35 68 36 69 40 70
REMARK SMILES IDX 43 71 37 72 38 73 41 74 39 75 65 76 66 77 74 78 67 79 68 80
REMARK SMILES IDX 72 81 75 82 69 83 70 84 73 85 71 86 50 87 51 88 59 89 52 90
REMARK SMILES IDX 53 91 57 92 60 93 54 94 55 95 58 96 56 97
REMARK H PARENT 14 6 11 22 11 23 11 24 21 31 80 50 48 61
REMARK Flexibility Score: inf
ROOT
ATOM      1  C   UNL A   1      33.408  20.937  24.211  1.00  0.00     0.021 C 
ENDROOT
BRANCH   1   2
ATOM      2  C   UNL A   1      32.118  21.002  25.029  1.00  0.00     0.116 C 
BRANCH   2   3
ATOM      3  N   UNL A   1      32.367  21.575  26.337  1.00  0.00    -0.351 N 
ATOM      4  C   UNL A   1      31.852  22.696  26.925  1.00  0.00     0.283 C 
ATOM      5  O   UNL A   1      32.261  22.977  28.056  1.00  0.00    -0.268 OA
ATOM      6  H   UNL A   1      33.011  21.076  26.890  1.00  0.00     0.163 HD
BRANCH   4   7
ATOM      7  C   UNL A   1      30.786  23.581  26.208  1.00  0.00     0.302 C 
BRANCH   7   8
ATOM      8  C   UNL A   1      31.304  24.963  25.829  1.00  0.00     0.023 A 
ATOM      9  C   UNL A   1      32.102  27.614  25.231  1.00  0.00     0.161 A 
ATOM     10  C   UNL A   1      33.035  26.693  25.699  1.00  0.00     0.051 A 
ATOM     11  C   UNL A   1      30.845  27.142  24.882  1.00  0.00     0.161 A 
ATOM     12  C   UNL A   1      32.645  25.364  25.968  1.00  0.00     0.014 A 
ATOM     13  C   UNL A   1      30.399  25.902  25.321  1.00  0.00     0.061 A 
BRANCH   9  14
ATOM     14  O   UNL A   1      32.476  28.911  24.993  1.00  0.00    -0.487 OA
BRANCH  14  15
ATOM     15  C   UNL A   1      31.837  29.868  25.881  1.00  0.00     0.258 C 
BRANCH  15  16
ATOM     16  C   UNL A   1      32.778  30.622  26.847  1.00  0.00     0.201 C 
BRANCH  16  17
ATOM     17  O   UNL A   1      34.142  30.213  26.672  1.00  0.00    -0.381 OA
ATOM     18  C   UNL A   1      34.585  29.287  27.661  1.00  0.00     0.195 C 
ENDBRANCH  16  17
ENDBRANCH  15  16
ENDBRANCH  14  15
ENDBRANCH   9  14
BRANCH  11  19
ATOM     19  O   UNL A   1      30.035  27.770  23.978  1.00  0.00    -0.493 OA
ATOM     20  C   UNL A   1      30.430  27.459  22.641  1.00  0.00     0.278 C 
ENDBRANCH  11  19
ENDBRANCH   7   8
BRANCH   7  21
ATOM     21  N   UNL A   1      29.531  23.578  26.992  1.00  0.00    -0.343 N 
ATOM     22  H   UNL A   1      29.059  22.681  26.874  1.00  0.00     0.345 HD
ATOM     23  H   UNL A   1      28.924  24.328  26.665  1.00  0.00     0.345 HD
ATOM     24  H   UNL A   1      29.747  23.721  27.979  1.00  0.00     0.345 HD
ENDBRANCH   7  21
ENDBRANCH   4   7
ENDBRANCH   2   3
ENDBRANCH   1   2
BRANCH   1  25
ATOM     25  C   UNL A   1      34.681  20.763  25.051  1.00  0.00     0.002 C 
BRANCH  25  26
ATOM     26  C   UNL A   1      35.862  21.651  24.644  1.00  0.00     0.002 C 
BRANCH  26  27
ATOM     27  C   UNL A   1      35.728  23.128  25.019  1.00  0.00     0.021 C 
BRANCH  27  28
ATOM     28  C   UNL A   1      37.042  23.819  25.364  1.00  0.00     0.116 C 
BRANCH  28  29
ATOM     29  N   UNL A   1      38.109  22.869  25.634  1.00  0.00    -0.352 N 
ATOM     30  C   UNL A   1      39.331  23.073  26.226  1.00  0.00     0.251 C 
ATOM     31  H   UNL A   1      37.928  21.944  25.351  1.00  0.00     0.163 HD
ATOM     32  O   UNL A   1      40.185  22.197  26.196  1.00  0.00    -0.269 OA
BRANCH  30  33
ATOM     33  C   UNL A   1      39.625  24.366  26.884  1.00  0.00     0.039 A 
ATOM     34  C   UNL A   1      39.207  24.560  28.202  1.00  0.00     0.014 A 
ATOM     35  C   UNL A   1      40.299  25.385  26.205  1.00  0.00     0.014 A 
ATOM     36  C   UNL A   1      39.516  25.753  28.860  1.00  0.00     0.010 A 
ATOM     37  C   UNL A   1      40.674  26.541  26.885  1.00  0.00     0.010 A 
ATOM     38  C   UNL A   1      40.284  26.739  28.219  1.00  0.00    -0.014 A 
BRANCH  38  39
ATOM     39  C   UNL A   1      40.691  27.979  28.932  1.00  0.00     0.031 A 
ATOM     40  C   UNL A   1      42.082  28.112  29.488  1.00  0.00     0.074 A 
ATOM     41  C   UNL A   1      39.786  28.958  29.132  1.00  0.00     0.049 A 
ATOM     42  N   UNL A   1      42.600  29.085  30.195  1.00  0.00    -0.248 NA
ATOM     43  C   UNL A   1      43.008  26.995  29.241  1.00  0.00     0.031 C 
ATOM     44  C   UNL A   1      38.391  28.924  28.688  1.00  0.00     0.029 A 
ATOM     45  N   UNL A   1      39.898  30.167  29.776  1.00  0.00    -0.354 N 
ATOM     46  C   UNL A   1      43.898  28.689  30.491  1.00  0.00     0.074 A 
ATOM     47  C   UNL A   1      44.079  27.370  29.926  1.00  0.00     0.031 C 
ATOM     48  C   UNL A   1      37.782  30.063  29.058  1.00  0.00     0.029 A 
ATOM     49  C   UNL A   1      38.728  30.887  29.804  1.00  0.00     0.049 A 
ATOM     50  H   UNL A   1      40.738  30.487  30.178  1.00  0.00     0.167 HD
ATOM     51  C   UNL A   1      44.857  29.374  31.159  1.00  0.00     0.037 A 
ATOM     52  C   UNL A   1      38.444  32.070  30.384  1.00  0.00     0.037 A 
ATOM     53  C   UNL A   1      44.684  30.702  31.688  1.00  0.00     0.049 A 
ATOM     54  C   UNL A   1      39.535  32.808  31.116  1.00  0.00     0.074 A 
ATOM     55  C   UNL A   1      45.623  31.511  32.302  1.00  0.00     0.029 A 
ATOM     56  N   UNL A   1      43.493  31.411  31.672  1.00  0.00    -0.354 N 
ATOM     57  N   UNL A   1      40.784  32.462  31.308  1.00  0.00    -0.248 NA
ATOM     58  C   UNL A   1      39.177  34.106  31.706  1.00  0.00     0.031 C 
ATOM     59  C   UNL A   1      44.986  32.682  32.719  1.00  0.00     0.029 A 
ATOM     60  C   UNL A   1      43.666  32.635  32.300  1.00  0.00     0.049 A 
ATOM     61  H   UNL A   1      42.650  31.094  31.274  1.00  0.00     0.167 HD
ATOM     62  C   UNL A   1      41.367  33.510  32.008  1.00  0.00     0.074 A 
ATOM     63  C   UNL A   1      40.341  34.513  32.189  1.00  0.00     0.031 C 
ATOM     64  C   UNL A   1      42.639  33.630  32.461  1.00  0.00     0.037 A 
BRANCH  51  65
ATOM     65  C   UNL A   1      46.188  28.711  31.366  1.00  0.00     0.064 A 
ATOM     66  C   UNL A   1      47.239  28.857  30.449  1.00  0.00     0.173 A 
ATOM     67  C   UNL A   1      46.442  27.994  32.547  1.00  0.00     0.173 A 
ATOM     68  F   UNL A   1      47.047  29.524  29.302  1.00  0.00    -0.203 F 
ATOM     69  C   UNL A   1      48.491  28.299  30.700  1.00  0.00     0.198 A 
ATOM     70  C   UNL A   1      47.703  27.465  32.807  1.00  0.00     0.198 A 
ATOM     71  F   UNL A   1      45.473  27.829  33.460  1.00  0.00    -0.203 F 
ATOM     72  F   UNL A   1      49.471  28.425  29.795  1.00  0.00    -0.200 F 
ATOM     73  C   UNL A   1      48.725  27.615  31.883  1.00  0.00     0.200 A 
ATOM     74  F   UNL A   1      47.931  26.819  33.959  1.00  0.00    -0.200 F 
ATOM     75  F   UNL A   1      49.937  27.100  32.132  1.00  0.00    -0.200 F 
ENDBRANCH  51  65
BRANCH  52  76
ATOM     76  C   UNL A   1      37.067  32.634  30.310  1.00  0.00     0.064 A 
ATOM     77  C   UNL A   1      36.682  33.476  29.256  1.00  0.00     0.173 A 
ATOM     78  C   UNL A   1      36.123  32.379  31.316  1.00  0.00     0.173 A 
ATOM     79  F   UNL A   1      37.553  33.766  28.277  1.00  0.00    -0.203 F 
ATOM     80  C   UNL A   1      35.425  34.075  29.234  1.00  0.00     0.198 A 
ATOM     81  C   UNL A   1      34.852  32.949  31.273  1.00  0.00     0.198 A 
ATOM     82  F   UNL A   1      36.435  31.575  32.342  1.00  0.00    -0.203 F 
ATOM     83  F   UNL A   1      35.110  34.933  28.254  1.00  0.00    -0.200 F 
ATOM     84  C   UNL A   1      34.509  33.808  30.241  1.00  0.00     0.200 A 
ATOM     85  F   UNL A   1      33.965  32.673  32.238  1.00  0.00    -0.200 F 
ATOM     86  F   UNL A   1      33.301  34.389  30.224  1.00  0.00    -0.200 F 
ENDBRANCH  52  76
BRANCH  64  87
ATOM     87  C   UNL A   1      43.008  34.910  33.158  1.00  0.00     0.064 A 
ATOM     88  C   UNL A   1      43.404  36.052  32.448  1.00  0.00     0.173 A 
ATOM     89  C   UNL A   1      42.923  35.003  34.556  1.00  0.00     0.173 A 
ATOM     90  F   UNL A   1      43.513  36.013  31.112  1.00  0.00    -0.203 F 
ATOM     91  C   UNL A   1      43.731  37.231  33.114  1.00  0.00     0.198 A 
ATOM     92  C   UNL A   1      43.215  36.193  35.215  1.00  0.00     0.198 A 
ATOM     93  F   UNL A   1      42.541  33.942  35.284  1.00  0.00    -0.203 F 
ATOM     94  F   UNL A   1      44.160  38.293  32.418  1.00  0.00    -0.200 F 
ATOM     95  C   UNL A   1      43.628  37.303  34.495  1.00  0.00     0.200 A 
ATOM     96  F   UNL A   1      43.097  36.266  36.548  1.00  0.00    -0.200 F 
ATOM     97  F   UNL A   1      43.934  38.441  35.132  1.00  0.00    -0.200 F 
ENDBRANCH  64  87
ENDBRANCH  38  39
ENDBRANCH  30  33
ENDBRANCH  28  29
ENDBRANCH  27  28
ENDBRANCH  26  27
ENDBRANCH  25  26
ENDBRANCH   1  25
TORSDOF 20
ENDMDL
