MODEL 1
REMARK VINA RESULT:     -12.5      0.000      0.000
REMARK SMILES C[C@](Nc1ccc(S(N)(=O)=O)cc1)(C(=O)NCCCCCCNC(=O)c1ccc(-c2c3nc(c(-c4c(F)c(F)c(F)c(F)c4F)c4ccc([nH]4)c(-c4c(F)c(F)c(F)c(F)c4F)c4nc(c(-c5c(F)c(F)c(F)c(F)c5F)c5ccc2[nH]5)C=C4)C=C3)cc1)C(F)(F)F
REMARK SMILES IDX 18 1 17 2 16 3 14 4 15 5 2 7 1 8 89 9 90 10 91 11 92 12 3 13
REMARK SMILES IDX 4 15 5 16 13 17 6 18 12 19 7 20 8 21 10 22 11 23 9 24 19 27
REMARK SMILES IDX 20 28 21 29 22 30 23 31 24 32 25 34 26 35 27 36 88 37 28 38
REMARK SMILES IDX 87 39 29 40 30 41 31 42 81 43 32 44 86 45 80 46 82 47 33 48
REMARK SMILES IDX 85 49 79 50 78 51 34 53 66 54 46 55 65 56 47 57 50 58 64 59
REMARK SMILES IDX 83 60 48 61 49 62 63 64 84 65 51 66 35 67 36 68 44 69 37 70
REMARK SMILES IDX 38 71 42 72 45 73 39 74 40 75 43 76 41 77 67 78 68 79 76 80
REMARK SMILES IDX 69 81 70 82 74 83 77 84 71 85 72 86 75 87 73 88 52 89 53 90
REMARK SMILES IDX 61 91 54 92 55 93 59 94 62 95 56 96 57 97 60 98 58 99
REMARK H PARENT 16 6 3 14 9 25 9 26 23 33 82 52 50 63
REMARK Flexibility Score: inf
ROOT
ATOM      1  C   UNL A   1      31.778  28.543  27.541  1.00  0.00     0.021 C 
ENDROOT
BRANCH   1   2
ATOM      2  C   UNL A   1      31.992  27.457  26.487  1.00  0.00     0.116 C 
BRANCH   2   3
ATOM      3  N   UNL A   1      31.503  26.181  26.972  1.00  0.00    -0.354 N 
ATOM      4  C   UNL A   1      31.544  24.926  26.441  1.00  0.00     0.254 C 
ATOM      5  O   UNL A   1      30.876  24.087  27.050  1.00  0.00    -0.272 OA
ATOM      6  H   UNL A   1      31.056  26.231  27.849  1.00  0.00     0.163 HD
BRANCH   4   7
ATOM      7  C   UNL A   1      32.402  24.590  25.188  1.00  0.00     0.210 C 
ATOM      8  C   UNL A   1      33.608  25.547  25.187  1.00  0.00     0.055 C 
BRANCH   7   9
ATOM      9  C   UNL A   1      32.881  23.132  25.427  1.00  0.00     0.420 C 
ATOM     10  F   UNL A   1      34.048  22.862  24.796  1.00  0.00    -0.168 F 
ATOM     11  F   UNL A   1      33.092  22.873  26.742  1.00  0.00    -0.168 F 
ATOM     12  F   UNL A   1      31.962  22.218  25.031  1.00  0.00    -0.168 F 
ENDBRANCH   7   9
BRANCH   7  13
ATOM     13  N   UNL A   1      31.552  24.778  23.960  1.00  0.00    -0.364 N 
ATOM     14  H   UNL A   1      31.500  24.004  23.354  1.00  0.00     0.161 HD
BRANCH  13  15
ATOM     15  C   UNL A   1      30.836  25.891  23.573  1.00  0.00     0.035 A 
ATOM     16  C   UNL A   1      29.492  26.000  23.971  1.00  0.00     0.027 A 
ATOM     17  C   UNL A   1      31.383  26.974  22.881  1.00  0.00     0.027 A 
ATOM     18  C   UNL A   1      28.727  27.141  23.685  1.00  0.00     0.024 A 
ATOM     19  C   UNL A   1      30.628  28.108  22.561  1.00  0.00     0.024 A 
ATOM     20  C   UNL A   1      29.301  28.187  22.968  1.00  0.00     0.082 A 
BRANCH  20  21
ATOM     21  S   UNL A   1      28.362  29.637  22.599  1.00  0.00     0.238 S 
ATOM     22  O   UNL A   1      28.704  30.663  23.560  1.00  0.00    -0.207 OA
ATOM     23  O   UNL A   1      28.373  29.869  21.177  1.00  0.00    -0.207 OA
BRANCH  21  24
ATOM     24  N   UNL A   1      26.795  29.156  22.960  1.00  0.00    -0.225 NA
ATOM     25  H   UNL A   1      26.803  28.187  23.281  1.00  0.00     0.137 HD
ATOM     26  H   UNL A   1      26.214  29.233  22.125  1.00  0.00     0.137 HD
ENDBRANCH  21  24
ENDBRANCH  20  21
ENDBRANCH  13  15
ENDBRANCH   7  13
ENDBRANCH   4   7
ENDBRANCH   2   3
ENDBRANCH   1   2
BRANCH   1  27
ATOM     27  C   UNL A   1      32.392  29.904  27.181  1.00  0.00     0.002 C 
BRANCH  27  28
ATOM     28  C   UNL A   1      31.581  30.741  26.186  1.00  0.00     0.002 C 
BRANCH  28  29
ATOM     29  C   UNL A   1      31.397  32.208  26.577  1.00  0.00     0.021 C 
BRANCH  29  30
ATOM     30  C   UNL A   1      32.573  32.814  27.333  1.00  0.00     0.116 C 
BRANCH  30  31
ATOM     31  N   UNL A   1      32.357  34.213  27.660  1.00  0.00    -0.352 N 
ATOM     32  C   UNL A   1      32.967  34.984  28.618  1.00  0.00     0.251 C 
ATOM     33  H   UNL A   1      31.676  34.674  27.118  1.00  0.00     0.163 HD
ATOM     34  O   UNL A   1      32.537  36.102  28.881  1.00  0.00    -0.269 OA
BRANCH  32  35
ATOM     35  C   UNL A   1      34.134  34.452  29.352  1.00  0.00     0.039 A 
ATOM     36  C   UNL A   1      33.930  33.837  30.589  1.00  0.00     0.014 A 
ATOM     37  C   UNL A   1      35.423  34.558  28.823  1.00  0.00     0.014 A 
ATOM     38  C   UNL A   1      35.012  33.274  31.269  1.00  0.00     0.010 A 
ATOM     39  C   UNL A   1      36.488  33.931  29.464  1.00  0.00     0.010 A 
ATOM     40  C   UNL A   1      36.294  33.286  30.695  1.00  0.00    -0.014 A 
BRANCH  40  41
ATOM     41  C   UNL A   1      37.444  32.630  31.369  1.00  0.00     0.031 A 
ATOM     42  C   UNL A   1      38.146  31.475  30.712  1.00  0.00     0.074 A 
ATOM     43  C   UNL A   1      37.814  33.036  32.598  1.00  0.00     0.049 A 
ATOM     44  N   UNL A   1      39.126  30.733  31.167  1.00  0.00    -0.248 NA
ATOM     45  C   UNL A   1      37.666  31.081  29.379  1.00  0.00     0.031 C 
ATOM     46  C   UNL A   1      37.183  34.116  33.358  1.00  0.00     0.029 A 
ATOM     47  N   UNL A   1      38.807  32.582  33.431  1.00  0.00    -0.354 N 
ATOM     48  C   UNL A   1      39.369  29.785  30.183  1.00  0.00     0.074 A 
ATOM     49  C   UNL A   1      38.398  30.004  29.134  1.00  0.00     0.031 C 
ATOM     50  C   UNL A   1      37.819  34.258  34.532  1.00  0.00     0.029 A 
ATOM     51  C   UNL A   1      38.873  33.254  34.627  1.00  0.00     0.049 A 
ATOM     52  H   UNL A   1      39.414  31.844  33.193  1.00  0.00     0.167 HD
ATOM     53  C   UNL A   1      40.332  28.832  30.146  1.00  0.00     0.037 A 
ATOM     54  C   UNL A   1      39.688  33.073  35.684  1.00  0.00     0.037 A 
ATOM     55  C   UNL A   1      41.309  28.630  31.185  1.00  0.00     0.049 A 
ATOM     56  C   UNL A   1      40.735  31.993  35.627  1.00  0.00     0.074 A 
ATOM     57  C   UNL A   1      42.359  27.731  31.218  1.00  0.00     0.029 A 
ATOM     58  N   UNL A   1      41.349  29.335  32.380  1.00  0.00    -0.354 N 
ATOM     59  N   UNL A   1      41.004  31.149  34.661  1.00  0.00    -0.248 NA
ATOM     60  C   UNL A   1      41.598  31.846  36.808  1.00  0.00     0.031 C 
ATOM     61  C   UNL A   1      43.002  27.853  32.454  1.00  0.00     0.029 A 
ATOM     62  C   UNL A   1      42.390  28.871  33.168  1.00  0.00     0.049 A 
ATOM     63  H   UNL A   1      40.729  30.058  32.630  1.00  0.00     0.167 HD
ATOM     64  C   UNL A   1      42.083  30.394  35.101  1.00  0.00     0.074 A 
ATOM     65  C   UNL A   1      42.429  30.891  36.417  1.00  0.00     0.031 C 
ATOM     66  C   UNL A   1      42.729  29.382  34.473  1.00  0.00     0.037 A 
BRANCH  53  67
ATOM     67  C   UNL A   1      40.375  27.933  28.943  1.00  0.00     0.064 A 
ATOM     68  C   UNL A   1      41.130  28.258  27.806  1.00  0.00     0.173 A 
ATOM     69  C   UNL A   1      39.678  26.716  28.938  1.00  0.00     0.173 A 
ATOM     70  F   UNL A   1      41.807  29.416  27.753  1.00  0.00    -0.203 F 
ATOM     71  C   UNL A   1      41.158  27.416  26.697  1.00  0.00     0.198 A 
ATOM     72  C   UNL A   1      39.735  25.860  27.842  1.00  0.00     0.198 A 
ATOM     73  F   UNL A   1      38.945  26.351  30.001  1.00  0.00    -0.203 F 
ATOM     74  F   UNL A   1      41.840  27.776  25.602  1.00  0.00    -0.200 F 
ATOM     75  C   UNL A   1      40.467  26.214  26.719  1.00  0.00     0.200 A 
ATOM     76  F   UNL A   1      39.078  24.691  27.870  1.00  0.00    -0.200 F 
ATOM     77  F   UNL A   1      40.499  25.402  25.654  1.00  0.00    -0.200 F 
ENDBRANCH  53  67
BRANCH  54  78
ATOM     78  C   UNL A   1      39.563  33.949  36.878  1.00  0.00     0.064 A 
ATOM     79  C   UNL A   1      38.798  33.553  37.985  1.00  0.00     0.173 A 
ATOM     80  C   UNL A   1      40.195  35.200  36.939  1.00  0.00     0.173 A 
ATOM     81  F   UNL A   1      38.159  32.373  37.968  1.00  0.00    -0.203 F 
ATOM     82  C   UNL A   1      38.649  34.383  39.093  1.00  0.00     0.198 A 
ATOM     83  C   UNL A   1      40.071  36.016  38.060  1.00  0.00     0.198 A 
ATOM     84  F   UNL A   1      40.944  35.625  35.910  1.00  0.00    -0.203 F 
ATOM     85  F   UNL A   1      37.871  34.000  40.114  1.00  0.00    -0.200 F 
ATOM     86  C   UNL A   1      39.291  35.612  39.133  1.00  0.00     0.200 A 
ATOM     87  F   UNL A   1      40.706  37.196  38.101  1.00  0.00    -0.200 F 
ATOM     88  F   UNL A   1      39.149  36.409  40.200  1.00  0.00    -0.200 F 
ENDBRANCH  54  78
BRANCH  66  89
ATOM     89  C   UNL A   1      43.903  28.768  35.180  1.00  0.00     0.064 A 
ATOM     90  C   UNL A   1      45.212  29.235  34.983  1.00  0.00     0.173 A 
ATOM     91  C   UNL A   1      43.711  27.721  36.096  1.00  0.00     0.173 A 
ATOM     92  F   UNL A   1      45.452  30.223  34.108  1.00  0.00    -0.203 F 
ATOM     93  C   UNL A   1      46.286  28.658  35.656  1.00  0.00     0.198 A 
ATOM     94  C   UNL A   1      44.783  27.170  36.791  1.00  0.00     0.198 A 
ATOM     95  F   UNL A   1      42.479  27.243  36.326  1.00  0.00    -0.203 F 
ATOM     96  F   UNL A   1      47.533  29.086  35.414  1.00  0.00    -0.200 F 
ATOM     97  C   UNL A   1      46.070  27.634  36.565  1.00  0.00     0.200 A 
ATOM     98  F   UNL A   1      44.571  26.191  37.681  1.00  0.00    -0.200 F 
ATOM     99  F   UNL A   1      47.105  27.086  37.218  1.00  0.00    -0.200 F 
ENDBRANCH  66  89
ENDBRANCH  40  41
ENDBRANCH  32  35
ENDBRANCH  30  31
ENDBRANCH  29  30
ENDBRANCH  28  29
ENDBRANCH  27  28
ENDBRANCH   1  27
TORSDOF 18
ENDMDL
MODEL 2
REMARK VINA RESULT:     -12.3      3.997      9.238
REMARK SMILES C[C@](Nc1ccc(S(N)(=O)=O)cc1)(C(=O)NCCCCCCNC(=O)c1ccc(-c2c3nc(c(-c4c(F)c(F)c(F)c(F)c4F)c4ccc([nH]4)c(-c4c(F)c(F)c(F)c(F)c4F)c4nc(c(-c5c(F)c(F)c(F)c(F)c5F)c5ccc2[nH]5)C=C4)C=C3)cc1)C(F)(F)F
REMARK SMILES IDX 18 1 17 2 16 3 14 4 15 5 2 7 1 8 89 9 90 10 91 11 92 12 3 13
REMARK SMILES IDX 4 15 5 16 13 17 6 18 12 19 7 20 8 21 10 22 11 23 9 24 19 27
REMARK SMILES IDX 20 28 21 29 22 30 23 31 24 32 25 34 26 35 27 36 88 37 28 38
REMARK SMILES IDX 87 39 29 40 30 41 31 42 81 43 32 44 86 45 80 46 82 47 33 48
REMARK SMILES IDX 85 49 79 50 78 51 34 53 66 54 46 55 65 56 47 57 50 58 64 59
REMARK SMILES IDX 83 60 48 61 49 62 63 64 84 65 51 66 35 67 36 68 44 69 37 70
REMARK SMILES IDX 38 71 42 72 45 73 39 74 40 75 43 76 41 77 67 78 68 79 76 80
REMARK SMILES IDX 69 81 70 82 74 83 77 84 71 85 72 86 75 87 73 88 52 89 53 90
REMARK SMILES IDX 61 91 54 92 55 93 59 94 62 95 56 96 57 97 60 98 58 99
REMARK H PARENT 16 6 3 14 9 25 9 26 23 33 82 52 50 63
REMARK Flexibility Score: inf
ROOT
ATOM      1  C   UNL A   1      30.261  26.117  24.790  1.00  0.00     0.021 C 
ENDROOT
BRANCH   1   2
ATOM      2  C   UNL A   1      30.847  24.817  24.240  1.00  0.00     0.116 C 
BRANCH   2   3
ATOM      3  N   UNL A   1      31.786  25.101  23.172  1.00  0.00    -0.354 N 
ATOM      4  C   UNL A   1      33.088  24.740  22.981  1.00  0.00     0.254 C 
ATOM      5  O   UNL A   1      33.644  25.301  22.034  1.00  0.00    -0.272 OA
ATOM      6  H   UNL A   1      31.415  25.659  22.450  1.00  0.00     0.163 HD
BRANCH   4   7
ATOM      7  C   UNL A   1      33.787  23.677  23.874  1.00  0.00     0.210 C 
ATOM      8  C   UNL A   1      34.995  23.138  23.086  1.00  0.00     0.055 C 
BRANCH   7   9
ATOM      9  C   UNL A   1      34.275  24.473  25.115  1.00  0.00     0.420 C 
ATOM     10  F   UNL A   1      35.491  24.062  25.547  1.00  0.00    -0.168 F 
ATOM     11  F   UNL A   1      34.392  25.800  24.856  1.00  0.00    -0.168 F 
ATOM     12  F   UNL A   1      33.405  24.391  26.152  1.00  0.00    -0.168 F 
ENDBRANCH   7   9
BRANCH   7  13
ATOM     13  N   UNL A   1      32.799  22.582  24.179  1.00  0.00    -0.364 N 
ATOM     14  H   UNL A   1      31.877  22.876  24.355  1.00  0.00     0.161 HD
BRANCH  13  15
ATOM     15  C   UNL A   1      33.018  21.222  24.242  1.00  0.00     0.035 A 
ATOM     16  C   UNL A   1      32.287  20.381  23.386  1.00  0.00     0.027 A 
ATOM     17  C   UNL A   1      33.990  20.621  25.045  1.00  0.00     0.027 A 
ATOM     18  C   UNL A   1      32.514  18.998  23.337  1.00  0.00     0.024 A 
ATOM     19  C   UNL A   1      34.212  19.239  25.032  1.00  0.00     0.024 A 
ATOM     20  C   UNL A   1      33.473  18.433  24.173  1.00  0.00     0.082 A 
BRANCH  20  21
ATOM     21  S   UNL A   1      33.784  16.694  24.128  1.00  0.00     0.238 S 
ATOM     22  O   UNL A   1      32.703  16.016  24.809  1.00  0.00    -0.207 OA
ATOM     23  O   UNL A   1      34.231  16.319  22.811  1.00  0.00    -0.207 OA
BRANCH  21  24
ATOM     24  N   UNL A   1      35.133  16.542  25.116  1.00  0.00    -0.225 NA
ATOM     25  H   UNL A   1      35.629  17.433  25.154  1.00  0.00     0.137 HD
ATOM     26  H   UNL A   1      35.752  15.824  24.739  1.00  0.00     0.137 HD
ENDBRANCH  21  24
ENDBRANCH  20  21
ENDBRANCH  13  15
ENDBRANCH   7  13
ENDBRANCH   4   7
ENDBRANCH   2   3
ENDBRANCH   1   2
BRANCH   1  27
ATOM     27  C   UNL A   1      30.864  26.567  26.129  1.00  0.00     0.002 C 
BRANCH  27  28
ATOM     28  C   UNL A   1      31.650  27.882  26.079  1.00  0.00     0.002 C 
BRANCH  28  29
ATOM     29  C   UNL A   1      32.991  27.859  26.812  1.00  0.00     0.021 C 
BRANCH  29  30
ATOM     30  C   UNL A   1      34.022  28.846  26.276  1.00  0.00     0.116 C 
BRANCH  30  31
ATOM     31  N   UNL A   1      33.849  30.179  26.827  1.00  0.00    -0.352 N 
ATOM     32  C   UNL A   1      34.623  30.845  27.745  1.00  0.00     0.251 C 
ATOM     33  H   UNL A   1      33.067  30.676  26.495  1.00  0.00     0.163 HD
ATOM     34  O   UNL A   1      34.233  31.898  28.237  1.00  0.00    -0.269 OA
BRANCH  32  35
ATOM     35  C   UNL A   1      35.921  30.274  28.160  1.00  0.00     0.039 A 
ATOM     36  C   UNL A   1      37.035  30.465  27.341  1.00  0.00     0.014 A 
ATOM     37  C   UNL A   1      36.039  29.555  29.354  1.00  0.00     0.014 A 
ATOM     38  C   UNL A   1      38.283  29.986  27.747  1.00  0.00     0.010 A 
ATOM     39  C   UNL A   1      37.295  29.145  29.793  1.00  0.00     0.010 A 
ATOM     40  C   UNL A   1      38.429  29.353  28.992  1.00  0.00    -0.014 A 
BRANCH  40  41
ATOM     41  C   UNL A   1      39.759  28.901  29.473  1.00  0.00     0.031 A 
ATOM     42  C   UNL A   1      40.537  29.741  30.447  1.00  0.00     0.074 A 
ATOM     43  C   UNL A   1      40.292  27.764  28.985  1.00  0.00     0.049 A 
ATOM     44  N   UNL A   1      41.738  29.548  30.935  1.00  0.00    -0.248 NA
ATOM     45  C   UNL A   1      39.892  30.978  30.915  1.00  0.00     0.031 C 
ATOM     46  C   UNL A   1      39.655  26.885  28.003  1.00  0.00     0.029 A 
ATOM     47  N   UNL A   1      41.496  27.156  29.242  1.00  0.00    -0.354 N 
ATOM     48  C   UNL A   1      41.992  30.640  31.753  1.00  0.00     0.074 A 
ATOM     49  C   UNL A   1      40.850  31.521  31.652  1.00  0.00     0.031 C 
ATOM     50  C   UNL A   1      40.461  25.840  27.761  1.00  0.00     0.029 A 
ATOM     51  C   UNL A   1      41.688  25.995  28.535  1.00  0.00     0.049 A 
ATOM     52  H   UNL A   1      42.159  27.519  29.874  1.00  0.00     0.167 HD
ATOM     53  C   UNL A   1      43.072  30.875  32.537  1.00  0.00     0.037 A 
ATOM     54  C   UNL A   1      42.741  25.155  28.509  1.00  0.00     0.037 A 
ATOM     55  C   UNL A   1      44.199  29.985  32.649  1.00  0.00     0.049 A 
ATOM     56  C   UNL A   1      43.937  25.450  29.373  1.00  0.00     0.074 A 
ATOM     57  C   UNL A   1      45.315  30.104  33.458  1.00  0.00     0.029 A 
ATOM     58  N   UNL A   1      44.355  28.814  31.922  1.00  0.00    -0.354 N 
ATOM     59  N   UNL A   1      44.137  26.448  30.200  1.00  0.00    -0.248 NA
ATOM     60  C   UNL A   1      45.052  24.496  29.306  1.00  0.00     0.031 C 
ATOM     61  C   UNL A   1      46.172  29.034  33.182  1.00  0.00     0.029 A 
ATOM     62  C   UNL A   1      45.563  28.215  32.244  1.00  0.00     0.049 A 
ATOM     63  H   UNL A   1      43.705  28.460  31.273  1.00  0.00     0.167 HD
ATOM     64  C   UNL A   1      45.381  26.226  30.774  1.00  0.00     0.074 A 
ATOM     65  C   UNL A   1      45.884  24.990  30.211  1.00  0.00     0.031 C 
ATOM     66  C   UNL A   1      46.047  26.979  31.683  1.00  0.00     0.037 A 
BRANCH  53  67
ATOM     67  C   UNL A   1      43.086  32.147  33.337  1.00  0.00     0.064 A 
ATOM     68  C   UNL A   1      42.534  32.215  34.626  1.00  0.00     0.173 A 
ATOM     69  C   UNL A   1      43.688  33.305  32.823  1.00  0.00     0.173 A 
ATOM     70  F   UNL A   1      41.936  31.139  35.162  1.00  0.00    -0.203 F 
ATOM     71  C   UNL A   1      42.552  33.402  35.353  1.00  0.00     0.198 A 
ATOM     72  C   UNL A   1      43.735  34.481  33.566  1.00  0.00     0.198 A 
ATOM     73  F   UNL A   1      44.238  33.296  31.599  1.00  0.00    -0.203 F 
ATOM     74  F   UNL A   1      41.968  33.457  36.558  1.00  0.00    -0.200 F 
ATOM     75  C   UNL A   1      43.160  34.532  34.827  1.00  0.00     0.200 A 
ATOM     76  F   UNL A   1      44.336  35.568  33.061  1.00  0.00    -0.200 F 
ATOM     77  F   UNL A   1      43.182  35.672  35.531  1.00  0.00    -0.200 F 
ENDBRANCH  53  67
BRANCH  54  78
ATOM     78  C   UNL A   1      42.703  23.941  27.651  1.00  0.00     0.064 A 
ATOM     79  C   UNL A   1      42.359  22.692  28.187  1.00  0.00     0.173 A 
ATOM     80  C   UNL A   1      43.018  23.999  26.285  1.00  0.00     0.173 A 
ATOM     81  F   UNL A   1      42.068  22.580  29.492  1.00  0.00    -0.203 F 
ATOM     82  C   UNL A   1      42.354  21.545  27.396  1.00  0.00     0.198 A 
ATOM     83  C   UNL A   1      42.983  22.857  25.489  1.00  0.00     0.198 A 
ATOM     84  F   UNL A   1      43.348  25.170  25.721  1.00  0.00    -0.203 F 
ATOM     85  F   UNL A   1      42.070  20.356  27.946  1.00  0.00    -0.200 F 
ATOM     86  C   UNL A   1      42.660  21.629  26.046  1.00  0.00     0.200 A 
ATOM     87  F   UNL A   1      43.264  22.946  24.181  1.00  0.00    -0.200 F 
ATOM     88  F   UNL A   1      42.653  20.526  25.286  1.00  0.00    -0.200 F 
ENDBRANCH  54  78
BRANCH  66  89
ATOM     89  C   UNL A   1      47.376  26.467  32.162  1.00  0.00     0.064 A 
ATOM     90  C   UNL A   1      47.480  25.574  33.239  1.00  0.00     0.173 A 
ATOM     91  C   UNL A   1      48.559  26.848  31.508  1.00  0.00     0.173 A 
ATOM     92  F   UNL A   1      46.382  25.190  33.907  1.00  0.00    -0.203 F 
ATOM     93  C   UNL A   1      48.721  25.104  33.662  1.00  0.00     0.198 A 
ATOM     94  C   UNL A   1      49.793  26.350  31.913  1.00  0.00     0.198 A 
ATOM     95  F   UNL A   1      48.514  27.694  30.468  1.00  0.00    -0.203 F 
ATOM     96  F   UNL A   1      48.801  24.293  34.725  1.00  0.00    -0.200 F 
ATOM     97  C   UNL A   1      49.875  25.485  32.993  1.00  0.00     0.200 A 
ATOM     98  F   UNL A   1      50.906  26.706  31.255  1.00  0.00    -0.200 F 
ATOM     99  F   UNL A   1      51.067  25.024  33.396  1.00  0.00    -0.200 F 
ENDBRANCH  66  89
ENDBRANCH  40  41
ENDBRANCH  32  35
ENDBRANCH  30  31
ENDBRANCH  29  30
ENDBRANCH  28  29
ENDBRANCH  27  28
ENDBRANCH   1  27
TORSDOF 18
ENDMDL
MODEL 3
REMARK VINA RESULT:     -12.3      0.726      7.253
REMARK SMILES C[C@](Nc1ccc(S(N)(=O)=O)cc1)(C(=O)NCCCCCCNC(=O)c1ccc(-c2c3nc(c(-c4c(F)c(F)c(F)c(F)c4F)c4ccc([nH]4)c(-c4c(F)c(F)c(F)c(F)c4F)c4nc(c(-c5c(F)c(F)c(F)c(F)c5F)c5ccc2[nH]5)C=C4)C=C3)cc1)C(F)(F)F
REMARK SMILES IDX 18 1 17 2 16 3 14 4 15 5 2 7 1 8 89 9 90 10 91 11 92 12 3 13
REMARK SMILES IDX 4 15 5 16 13 17 6 18 12 19 7 20 8 21 10 22 11 23 9 24 19 27
REMARK SMILES IDX 20 28 21 29 22 30 23 31 24 32 25 34 26 35 27 36 88 37 28 38
REMARK SMILES IDX 87 39 29 40 30 41 31 42 81 43 32 44 86 45 80 46 82 47 33 48
REMARK SMILES IDX 85 49 79 50 78 51 34 53 66 54 46 55 65 56 47 57 50 58 64 59
REMARK SMILES IDX 83 60 48 61 49 62 63 64 84 65 51 66 35 67 36 68 44 69 37 70
REMARK SMILES IDX 38 71 42 72 45 73 39 74 40 75 43 76 41 77 67 78 68 79 76 80
REMARK SMILES IDX 69 81 70 82 74 83 77 84 71 85 72 86 75 87 73 88 52 89 53 90
REMARK SMILES IDX 61 91 54 92 55 93 59 94 62 95 56 96 57 97 60 98 58 99
REMARK H PARENT 16 6 3 14 9 25 9 26 23 33 82 52 50 63
REMARK Flexibility Score: inf
ROOT
ATOM      1  C   UNL A   1      31.789  28.624  27.417  1.00  0.00     0.021 C 
ENDROOT
BRANCH   1   2
ATOM      2  C   UNL A   1      32.087  27.468  26.463  1.00  0.00     0.116 C 
BRANCH   2   3
ATOM      3  N   UNL A   1      31.350  26.284  26.860  1.00  0.00    -0.354 N 
ATOM      4  C   UNL A   1      31.139  25.089  26.238  1.00  0.00     0.254 C 
ATOM      5  O   UNL A   1      30.314  24.358  26.793  1.00  0.00    -0.272 OA
ATOM      6  H   UNL A   1      30.921  26.357  27.743  1.00  0.00     0.163 HD
BRANCH   4   7
ATOM      7  C   UNL A   1      31.914  24.681  24.953  1.00  0.00     0.210 C 
ATOM      8  C   UNL A   1      33.255  25.437  24.967  1.00  0.00     0.055 C 
BRANCH   7   9
ATOM      9  C   UNL A   1      32.161  23.157  25.118  1.00  0.00     0.420 C 
ATOM     10  F   UNL A   1      33.024  22.671  24.194  1.00  0.00    -0.168 F 
ATOM     11  F   UNL A   1      32.693  22.854  26.329  1.00  0.00    -0.168 F 
ATOM     12  F   UNL A   1      31.013  22.439  25.047  1.00  0.00    -0.168 F 
ENDBRANCH   7   9
BRANCH   7  13
ATOM     13  N   UNL A   1      31.086  25.057  23.754  1.00  0.00    -0.364 N 
ATOM     14  H   UNL A   1      31.018  24.372  23.050  1.00  0.00     0.161 HD
BRANCH  13  15
ATOM     15  C   UNL A   1      30.409  26.234  23.511  1.00  0.00     0.035 A 
ATOM     16  C   UNL A   1      31.074  27.265  22.826  1.00  0.00     0.027 A 
ATOM     17  C   UNL A   1      29.064  26.444  23.824  1.00  0.00     0.027 A 
ATOM     18  C   UNL A   1      30.425  28.457  22.472  1.00  0.00     0.024 A 
ATOM     19  C   UNL A   1      28.407  27.637  23.506  1.00  0.00     0.024 A 
ATOM     20  C   UNL A   1      29.091  28.639  22.827  1.00  0.00     0.082 A 
BRANCH  20  21
ATOM     21  S   UNL A   1      28.247  30.128  22.390  1.00  0.00     0.238 S 
ATOM     22  O   UNL A   1      28.067  30.150  20.955  1.00  0.00    -0.207 OA
ATOM     23  O   UNL A   1      27.164  30.357  23.313  1.00  0.00    -0.207 OA
BRANCH  21  24
ATOM     24  N   UNL A   1      29.389  31.308  22.740  1.00  0.00    -0.225 NA
ATOM     25  H   UNL A   1      29.936  31.511  21.903  1.00  0.00     0.137 HD
ATOM     26  H   UNL A   1      30.008  30.973  23.478  1.00  0.00     0.137 HD
ENDBRANCH  21  24
ENDBRANCH  20  21
ENDBRANCH  13  15
ENDBRANCH   7  13
ENDBRANCH   4   7
ENDBRANCH   2   3
ENDBRANCH   1   2
BRANCH   1  27
ATOM     27  C   UNL A   1      32.340  29.982  26.959  1.00  0.00     0.002 C 
BRANCH  27  28
ATOM     28  C   UNL A   1      31.379  30.820  26.109  1.00  0.00     0.002 C 
BRANCH  28  29
ATOM     29  C   UNL A   1      31.299  32.298  26.493  1.00  0.00     0.021 C 
BRANCH  29  30
ATOM     30  C   UNL A   1      32.510  32.818  27.260  1.00  0.00     0.116 C 
BRANCH  30  31
ATOM     31  N   UNL A   1      32.361  34.211  27.647  1.00  0.00    -0.352 N 
ATOM     32  C   UNL A   1      33.023  34.916  28.621  1.00  0.00     0.251 C 
ATOM     33  H   UNL A   1      31.691  34.722  27.138  1.00  0.00     0.163 HD
ATOM     34  O   UNL A   1      32.647  36.039  28.938  1.00  0.00    -0.269 OA
BRANCH  32  35
ATOM     35  C   UNL A   1      34.180  34.306  29.309  1.00  0.00     0.039 A 
ATOM     36  C   UNL A   1      33.948  33.386  30.334  1.00  0.00     0.014 A 
ATOM     37  C   UNL A   1      35.488  34.637  28.943  1.00  0.00     0.014 A 
ATOM     38  C   UNL A   1      35.028  32.754  30.953  1.00  0.00     0.010 A 
ATOM     39  C   UNL A   1      36.559  33.950  29.507  1.00  0.00     0.010 A 
ATOM     40  C   UNL A   1      36.340  33.004  30.520  1.00  0.00    -0.014 A 
BRANCH  40  41
ATOM     41  C   UNL A   1      37.496  32.288  31.117  1.00  0.00     0.031 A 
ATOM     42  C   UNL A   1      38.009  32.679  32.475  1.00  0.00     0.074 A 
ATOM     43  C   UNL A   1      38.121  31.327  30.410  1.00  0.00     0.049 A 
ATOM     44  N   UNL A   1      39.041  32.217  33.136  1.00  0.00    -0.248 NA
ATOM     45  C   UNL A   1      37.283  33.751  33.171  1.00  0.00     0.031 C 
ATOM     46  C   UNL A   1      37.746  30.888  29.065  1.00  0.00     0.029 A 
ATOM     47  N   UNL A   1      39.210  30.551  30.719  1.00  0.00    -0.354 N 
ATOM     48  C   UNL A   1      39.092  32.948  34.315  1.00  0.00     0.074 A 
ATOM     49  C   UNL A   1      38.026  33.923  34.255  1.00  0.00     0.031 C 
ATOM     50  C   UNL A   1      38.573  29.905  28.677  1.00  0.00     0.029 A 
ATOM     51  C   UNL A   1      39.562  29.673  29.724  1.00  0.00     0.049 A 
ATOM     52  H   UNL A   1      39.693  30.617  31.575  1.00  0.00     0.167 HD
ATOM     53  C   UNL A   1      39.937  32.803  35.364  1.00  0.00     0.037 A 
ATOM     54  C   UNL A   1      40.575  28.787  29.661  1.00  0.00     0.037 A 
ATOM     55  C   UNL A   1      40.985  31.817  35.427  1.00  0.00     0.049 A 
ATOM     56  C   UNL A   1      41.512  28.660  30.831  1.00  0.00     0.074 A 
ATOM     57  C   UNL A   1      41.857  31.551  36.468  1.00  0.00     0.029 A 
ATOM     58  N   UNL A   1      41.307  30.940  34.402  1.00  0.00    -0.354 N 
ATOM     59  N   UNL A   1      41.507  29.305  31.973  1.00  0.00    -0.248 NA
ATOM     60  C   UNL A   1      42.595  27.674  30.707  1.00  0.00     0.031 C 
ATOM     61  C   UNL A   1      42.742  30.550  36.053  1.00  0.00     0.029 A 
ATOM     62  C   UNL A   1      42.384  30.150  34.775  1.00  0.00     0.049 A 
ATOM     63  H   UNL A   1      40.841  30.886  33.537  1.00  0.00     0.167 HD
ATOM     64  C   UNL A   1      42.559  28.784  32.713  1.00  0.00     0.074 A 
ATOM     65  C   UNL A   1      43.173  27.757  31.897  1.00  0.00     0.031 C 
ATOM     66  C   UNL A   1      42.979  29.125  33.955  1.00  0.00     0.037 A 
BRANCH  53  67
ATOM     67  C   UNL A   1      39.762  33.733  36.531  1.00  0.00     0.064 A 
ATOM     68  C   UNL A   1      40.427  34.968  36.596  1.00  0.00     0.173 A 
ATOM     69  C   UNL A   1      38.895  33.401  37.583  1.00  0.00     0.173 A 
ATOM     70  F   UNL A   1      41.276  35.330  35.622  1.00  0.00    -0.203 F 
ATOM     71  C   UNL A   1      40.256  35.818  37.686  1.00  0.00     0.198 A 
ATOM     72  C   UNL A   1      38.701  34.269  38.654  1.00  0.00     0.198 A 
ATOM     73  F   UNL A   1      38.228  32.237  37.570  1.00  0.00    -0.203 F 
ATOM     74  F   UNL A   1      40.945  36.965  37.752  1.00  0.00    -0.200 F 
ATOM     75  C   UNL A   1      39.388  35.472  38.710  1.00  0.00     0.200 A 
ATOM     76  F   UNL A   1      37.850  33.939  39.637  1.00  0.00    -0.200 F 
ATOM     77  F   UNL A   1      39.221  36.294  39.755  1.00  0.00    -0.200 F 
ENDBRANCH  53  67
BRANCH  54  78
ATOM     78  C   UNL A   1      40.742  27.932  28.456  1.00  0.00     0.064 A 
ATOM     79  C   UNL A   1      41.506  28.370  27.364  1.00  0.00     0.173 A 
ATOM     80  C   UNL A   1      40.139  26.669  28.364  1.00  0.00     0.173 A 
ATOM     81  F   UNL A   1      42.088  29.578  27.396  1.00  0.00    -0.203 F 
ATOM     82  C   UNL A   1      41.640  27.589  26.219  1.00  0.00     0.198 A 
ATOM     83  C   UNL A   1      40.299  25.876  27.230  1.00  0.00     0.198 A 
ATOM     84  F   UNL A   1      39.402  26.200  29.382  1.00  0.00    -0.203 F 
ATOM     85  F   UNL A   1      42.334  28.054  25.171  1.00  0.00    -0.200 F 
ATOM     86  C   UNL A   1      41.041  26.339  26.154  1.00  0.00     0.200 A 
ATOM     87  F   UNL A   1      39.731  24.662  27.179  1.00  0.00    -0.200 F 
ATOM     88  F   UNL A   1      41.172  25.588  25.054  1.00  0.00    -0.200 F 
ENDBRANCH  54  78
BRANCH  66  89
ATOM     89  C   UNL A   1      44.132  28.353  34.530  1.00  0.00     0.064 A 
ATOM     90  C   UNL A   1      45.454  28.813  34.426  1.00  0.00     0.173 A 
ATOM     91  C   UNL A   1      43.907  27.155  35.226  1.00  0.00     0.173 A 
ATOM     92  F   UNL A   1      45.726  29.944  33.759  1.00  0.00    -0.203 F 
ATOM     93  C   UNL A   1      46.509  28.086  34.974  1.00  0.00     0.198 A 
ATOM     94  C   UNL A   1      44.960  26.450  35.800  1.00  0.00     0.198 A 
ATOM     95  F   UNL A   1      42.661  26.675  35.359  1.00  0.00    -0.203 F 
ATOM     96  F   UNL A   1      47.768  28.518  34.818  1.00  0.00    -0.200 F 
ATOM     97  C   UNL A   1      46.260  26.912  35.667  1.00  0.00     0.200 A 
ATOM     98  F   UNL A   1      44.716  25.323  36.484  1.00  0.00    -0.200 F 
ATOM     99  F   UNL A   1      47.277  26.219  36.201  1.00  0.00    -0.200 F 
ENDBRANCH  66  89
ENDBRANCH  40  41
ENDBRANCH  32  35
ENDBRANCH  30  31
ENDBRANCH  29  30
ENDBRANCH  28  29
ENDBRANCH  27  28
ENDBRANCH   1  27
TORSDOF 18
ENDMDL
