MODEL 1
REMARK VINA RESULT:     -12.8      0.000      0.000
REMARK SMILES Cc1c(Br)c(C)c2c(c1Br)O[C@H](C(F)(F)F)C(C(=O)NCCCCCCNC(=O)c1ccc(-c3c4nc(c(-c5c(F)c(F)c(F)c(F)c5F)c5ccc([nH]5)c(-c5c(F)c(F)c(F)c(F)c5F)c5nc(c(-c6c(F)c(F)c(F)c(F)c6F)c6ccc3[nH]6)C=C5)C=C4)cc1)=C2
REMARK SMILES IDX 24 1 23 2 22 3 21 4 20 5 18 6 19 7 17 9 1 10 2 11 3 12 9 13
REMARK SMILES IDX 4 14 5 15 8 16 10 17 6 18 7 19 11 20 93 21 12 22 13 23 14 24
REMARK SMILES IDX 15 25 16 26 25 27 26 28 27 29 28 30 29 32 30 33 31 34 92 35
REMARK SMILES IDX 32 36 91 37 33 38 34 39 35 40 85 41 36 42 90 43 84 44 86 45
REMARK SMILES IDX 37 46 89 47 83 48 82 49 38 51 70 52 50 53 69 54 51 55 54 56
REMARK SMILES IDX 68 57 87 58 52 59 53 60 67 62 88 63 55 64 39 65 40 66 48 67
REMARK SMILES IDX 41 68 42 69 46 70 49 71 43 72 44 73 47 74 45 75 71 76 72 77
REMARK SMILES IDX 80 78 73 79 74 80 78 81 81 82 75 83 76 84 79 85 77 86 56 87
REMARK SMILES IDX 57 88 65 89 58 90 59 91 63 92 66 93 60 94 61 95 64 96 62 97
REMARK H PARENT 20 8 27 31 86 50 54 61
REMARK Flexibility Score: inf
ROOT
ATOM      1  C   UNL A   1      31.556  30.488  25.696  1.00  0.00     0.002 C 
ENDROOT
BRANCH   1   2
ATOM      2  C   UNL A   1      32.872  29.698  25.708  1.00  0.00     0.002 C 
BRANCH   2   3
ATOM      3  C   UNL A   1      33.215  28.970  24.405  1.00  0.00     0.021 C 
BRANCH   3   4
ATOM      4  C   UNL A   1      33.233  27.449  24.529  1.00  0.00     0.116 C 
BRANCH   4   5
ATOM      5  N   UNL A   1      32.254  26.976  25.488  1.00  0.00    -0.352 N 
ATOM      6  C   UNL A   1      31.875  25.790  26.020  1.00  0.00     0.251 C 
ATOM      7  O   UNL A   1      30.965  25.860  26.853  1.00  0.00    -0.270 OA
ATOM      8  H   UNL A   1      31.720  27.719  25.853  1.00  0.00     0.163 HD
BRANCH   6   9
ATOM      9  C   UNL A   1      32.462  24.459  25.682  1.00  0.00     0.067 C 
ATOM     10  C   UNL A   1      36.296  19.199  24.775  1.00  0.00     0.047 C 
ATOM     11  C   UNL A   1      35.662  20.537  25.079  1.00  0.00    -0.019 A 
ATOM     12  C   UNL A   1      36.453  21.659  25.438  1.00  0.00     0.025 A 
ATOM     13  C   UNL A   1      34.273  20.721  24.957  1.00  0.00     0.064 A 
ATOM     14  Br  UNL A   1      38.363  21.459  25.491  1.00  0.00    -0.050 Br
ATOM     15  C   UNL A   1      35.869  22.919  25.734  1.00  0.00    -0.026 A 
ATOM     16  C   UNL A   1      33.684  21.964  25.242  1.00  0.00     0.142 A 
ATOM     17  Br  UNL A   1      33.127  19.305  24.358  1.00  0.00    -0.046 Br
ATOM     18  C   UNL A   1      36.692  24.121  26.146  1.00  0.00     0.046 C 
ATOM     19  C   UNL A   1      34.463  23.055  25.644  1.00  0.00     0.022 A 
ATOM     20  O   UNL A   1      32.320  22.039  25.165  1.00  0.00    -0.474 OA
ATOM     21  C   UNL A   1      33.765  24.305  25.979  1.00  0.00     0.026 C 
ATOM     22  C   UNL A   1      31.715  23.344  25.019  1.00  0.00     0.314 C 
BRANCH  22  23
ATOM     23  C   UNL A   1      31.420  23.612  23.534  1.00  0.00     0.429 C 
ATOM     24  F   UNL A   1      32.258  24.561  23.046  1.00  0.00    -0.167 F 
ATOM     25  F   UNL A   1      31.603  22.514  22.763  1.00  0.00    -0.167 F 
ATOM     26  F   UNL A   1      30.155  24.038  23.324  1.00  0.00    -0.167 F 
ENDBRANCH  22  23
ENDBRANCH   6   9
ENDBRANCH   4   5
ENDBRANCH   3   4
ENDBRANCH   2   3
ENDBRANCH   1   2
BRANCH   1  27
ATOM     27  C   UNL A   1      31.443  31.599  26.744  1.00  0.00     0.021 C 
BRANCH  27  28
ATOM     28  C   UNL A   1      32.718  32.405  26.960  1.00  0.00     0.116 C 
BRANCH  28  29
ATOM     29  N   UNL A   1      32.444  33.765  27.390  1.00  0.00    -0.352 N 
ATOM     30  C   UNL A   1      33.033  34.492  28.393  1.00  0.00     0.251 C 
ATOM     31  H   UNL A   1      31.735  34.231  26.892  1.00  0.00     0.163 HD
ATOM     32  O   UNL A   1      32.561  35.569  28.741  1.00  0.00    -0.269 OA
BRANCH  30  33
ATOM     33  C   UNL A   1      34.231  33.959  29.071  1.00  0.00     0.039 A 
ATOM     34  C   UNL A   1      34.067  32.977  30.052  1.00  0.00     0.014 A 
ATOM     35  C   UNL A   1      35.509  34.416  28.734  1.00  0.00     0.014 A 
ATOM     36  C   UNL A   1      35.191  32.413  30.654  1.00  0.00     0.010 A 
ATOM     37  C   UNL A   1      36.631  33.804  29.285  1.00  0.00     0.010 A 
ATOM     38  C   UNL A   1      36.481  32.800  30.253  1.00  0.00    -0.014 A 
BRANCH  38  39
ATOM     39  C   UNL A   1      37.677  32.153  30.846  1.00  0.00     0.031 A 
ATOM     40  C   UNL A   1      38.143  32.536  32.221  1.00  0.00     0.074 A 
ATOM     41  C   UNL A   1      38.350  31.230  30.134  1.00  0.00     0.049 A 
ATOM     42  N   UNL A   1      39.134  32.048  32.921  1.00  0.00    -0.248 NA
ATOM     43  C   UNL A   1      37.412  33.623  32.894  1.00  0.00     0.031 C 
ATOM     44  C   UNL A   1      38.024  30.818  28.767  1.00  0.00     0.029 A 
ATOM     45  N   UNL A   1      39.441  30.463  30.461  1.00  0.00    -0.354 N 
ATOM     46  C   UNL A   1      39.143  32.761  34.111  1.00  0.00     0.074 A 
ATOM     47  C   UNL A   1      38.102  33.760  34.017  1.00  0.00     0.031 C 
ATOM     48  C   UNL A   1      38.865  29.842  28.391  1.00  0.00     0.029 A 
ATOM     49  C   UNL A   1      39.804  29.577  29.477  1.00  0.00     0.049 A 
ATOM     50  H   UNL A   1      39.918  30.542  31.318  1.00  0.00     0.167 HD
ATOM     51  C   UNL A   1      39.926  32.574  35.199  1.00  0.00     0.037 A 
ATOM     52  C   UNL A   1      40.774  28.642  29.461  1.00  0.00     0.037 A 
ATOM     53  C   UNL A   1      40.943  31.563  35.297  1.00  0.00     0.049 A 
ATOM     54  C   UNL A   1      41.638  28.459  30.680  1.00  0.00     0.074 A 
ATOM     55  C   UNL A   1      41.755  31.260  36.376  1.00  0.00     0.029 A 
ATOM     56  N   UNL A   1      41.286  30.689  34.277  1.00  0.00    -0.354 N 
ATOM     57  N   UNL A   1      41.584  29.088  31.829  1.00  0.00    -0.248 NA
ATOM     58  C   UNL A   1      42.690  27.436  30.604  1.00  0.00     0.031 C 
ATOM     59  C   UNL A   1      42.616  30.228  35.996  1.00  0.00     0.029 A 
ATOM     60  C   UNL A   1      42.313  29.859  34.695  1.00  0.00     0.049 A 
ATOM     61  H   UNL A   1      40.863  30.662  33.388  1.00  0.00     0.167 HD
ATOM     62  C   UNL A   1      42.573  28.521  32.620  1.00  0.00     0.074 A 
ATOM     63  C   UNL A   1      43.209  27.492  31.824  1.00  0.00     0.031 C 
ATOM     64  C   UNL A   1      42.921  28.829  33.893  1.00  0.00     0.037 A 
BRANCH  51  65
ATOM     65  C   UNL A   1      39.695  33.461  36.386  1.00  0.00     0.064 A 
ATOM     66  C   UNL A   1      40.293  34.728  36.473  1.00  0.00     0.173 A 
ATOM     67  C   UNL A   1      38.819  33.075  37.411  1.00  0.00     0.173 A 
ATOM     68  F   UNL A   1      41.146  35.139  35.523  1.00  0.00    -0.203 F 
ATOM     69  C   UNL A   1      40.036  35.567  37.554  1.00  0.00     0.198 A 
ATOM     70  C   UNL A   1      38.544  33.928  38.476  1.00  0.00     0.198 A 
ATOM     71  F   UNL A   1      38.217  31.877  37.370  1.00  0.00    -0.203 F 
ATOM     72  F   UNL A   1      40.646  36.759  37.634  1.00  0.00    -0.200 F 
ATOM     73  C   UNL A   1      39.155  35.171  38.549  1.00  0.00     0.200 A 
ATOM     74  F   UNL A   1      37.683  33.550  39.431  1.00  0.00    -0.200 F 
ATOM     75  F   UNL A   1      38.898  35.986  39.581  1.00  0.00    -0.200 F 
ENDBRANCH  51  65
BRANCH  52  76
ATOM     76  C   UNL A   1      40.931  27.766  28.272  1.00  0.00     0.064 A 
ATOM     77  C   UNL A   1      41.743  28.156  27.198  1.00  0.00     0.173 A 
ATOM     78  C   UNL A   1      40.305  26.514  28.195  1.00  0.00     0.173 A 
ATOM     79  F   UNL A   1      42.351  29.351  27.220  1.00  0.00    -0.203 F 
ATOM     80  C   UNL A   1      41.918  27.331  26.090  1.00  0.00     0.198 A 
ATOM     81  C   UNL A   1      40.498  25.680  27.096  1.00  0.00     0.198 A 
ATOM     82  F   UNL A   1      39.522  26.092  29.199  1.00  0.00    -0.203 F 
ATOM     83  F   UNL A   1      42.679  27.740  25.065  1.00  0.00    -0.200 F 
ATOM     84  C   UNL A   1      41.300  26.090  26.042  1.00  0.00     0.200 A 
ATOM     85  F   UNL A   1      39.911  24.476  27.060  1.00  0.00    -0.200 F 
ATOM     86  F   UNL A   1      41.478  25.291  24.981  1.00  0.00    -0.200 F 
ENDBRANCH  52  76
BRANCH  64  87
ATOM     87  C   UNL A   1      44.024  28.038  34.528  1.00  0.00     0.064 A 
ATOM     88  C   UNL A   1      45.342  28.514  34.548  1.00  0.00     0.173 A 
ATOM     89  C   UNL A   1      43.738  26.853  35.223  1.00  0.00     0.173 A 
ATOM     90  F   UNL A   1      45.665  29.637  33.889  1.00  0.00    -0.203 F 
ATOM     91  C   UNL A   1      46.336  27.832  35.246  1.00  0.00     0.198 A 
ATOM     92  C   UNL A   1      44.728  26.187  35.938  1.00  0.00     0.198 A 
ATOM     93  F   UNL A   1      42.489  26.364  35.238  1.00  0.00    -0.203 F 
ATOM     94  F   UNL A   1      47.592  28.297  35.242  1.00  0.00    -0.200 F 
ATOM     95  C   UNL A   1      46.026  26.677  35.949  1.00  0.00     0.200 A 
ATOM     96  F   UNL A   1      44.424  25.081  36.630  1.00  0.00    -0.200 F 
ATOM     97  F   UNL A   1      46.978  26.039  36.642  1.00  0.00    -0.200 F 
ENDBRANCH  64  87
ENDBRANCH  38  39
ENDBRANCH  30  33
ENDBRANCH  28  29
ENDBRANCH  27  28
ENDBRANCH   1  27
TORSDOF 14
ENDMDL
MODEL 2
REMARK VINA RESULT:     -12.5      5.217     10.398
REMARK SMILES Cc1c(Br)c(C)c2c(c1Br)O[C@H](C(F)(F)F)C(C(=O)NCCCCCCNC(=O)c1ccc(-c3c4nc(c(-c5c(F)c(F)c(F)c(F)c5F)c5ccc([nH]5)c(-c5c(F)c(F)c(F)c(F)c5F)c5nc(c(-c6c(F)c(F)c(F)c(F)c6F)c6ccc3[nH]6)C=C5)C=C4)cc1)=C2
REMARK SMILES IDX 24 1 23 2 22 3 21 4 20 5 18 6 19 7 17 9 1 10 2 11 3 12 9 13
REMARK SMILES IDX 4 14 5 15 8 16 10 17 6 18 7 19 11 20 93 21 12 22 13 23 14 24
REMARK SMILES IDX 15 25 16 26 25 27 26 28 27 29 28 30 29 32 30 33 31 34 92 35
REMARK SMILES IDX 32 36 91 37 33 38 34 39 35 40 85 41 36 42 90 43 84 44 86 45
REMARK SMILES IDX 37 46 89 47 83 48 82 49 38 51 70 52 50 53 69 54 51 55 54 56
REMARK SMILES IDX 68 57 87 58 52 59 53 60 67 62 88 63 55 64 39 65 40 66 48 67
REMARK SMILES IDX 41 68 42 69 46 70 49 71 43 72 44 73 47 74 45 75 71 76 72 77
REMARK SMILES IDX 80 78 73 79 74 80 78 81 81 82 75 83 76 84 79 85 77 86 56 87
REMARK SMILES IDX 57 88 65 89 58 90 59 91 63 92 66 93 60 94 61 95 64 96 62 97
REMARK H PARENT 20 8 27 31 86 50 54 61
REMARK Flexibility Score: inf
ROOT
ATOM      1  C   UNL A   1      36.802  20.825  24.703  1.00  0.00     0.002 C 
ENDROOT
BRANCH   1   2
ATOM      2  C   UNL A   1      36.660  21.917  25.772  1.00  0.00     0.002 C 
BRANCH   2   3
ATOM      3  C   UNL A   1      35.228  22.200  26.238  1.00  0.00     0.021 C 
BRANCH   3   4
ATOM      4  C   UNL A   1      34.635  23.488  25.674  1.00  0.00     0.116 C 
BRANCH   4   5
ATOM      5  N   UNL A   1      34.443  23.408  24.239  1.00  0.00    -0.352 N 
ATOM      6  C   UNL A   1      33.807  24.121  23.280  1.00  0.00     0.251 C 
ATOM      7  O   UNL A   1      33.927  23.675  22.133  1.00  0.00    -0.270 OA
ATOM      8  H   UNL A   1      34.899  22.623  23.858  1.00  0.00     0.163 HD
BRANCH   6   9
ATOM      9  C   UNL A   1      33.006  25.362  23.506  1.00  0.00     0.067 C 
ATOM     10  C   UNL A   1      30.676  31.235  25.314  1.00  0.00     0.047 C 
ATOM     11  C   UNL A   1      31.439  29.952  25.074  1.00  0.00    -0.019 A 
ATOM     12  C   UNL A   1      32.602  29.638  25.824  1.00  0.00     0.025 A 
ATOM     13  C   UNL A   1      30.983  29.007  24.138  1.00  0.00     0.064 A 
ATOM     14  Br  UNL A   1      33.172  30.861  27.192  1.00  0.00    -0.050 Br
ATOM     15  C   UNL A   1      33.333  28.441  25.602  1.00  0.00    -0.026 A 
ATOM     16  C   UNL A   1      31.694  27.816  23.913  1.00  0.00     0.142 A 
ATOM     17  Br  UNL A   1      29.355  29.274  23.160  1.00  0.00    -0.046 Br
ATOM     18  C   UNL A   1      34.590  28.101  26.372  1.00  0.00     0.046 C 
ATOM     19  C   UNL A   1      32.868  27.533  24.620  1.00  0.00     0.022 A 
ATOM     20  O   UNL A   1      31.219  26.982  22.937  1.00  0.00    -0.474 OA
ATOM     21  C   UNL A   1      33.584  26.293  24.286  1.00  0.00     0.026 C 
ATOM     22  C   UNL A   1      31.633  25.597  22.963  1.00  0.00     0.314 C 
BRANCH  22  23
ATOM     23  C   UNL A   1      30.553  24.751  23.660  1.00  0.00     0.429 C 
ATOM     24  F   UNL A   1      30.255  23.656  22.916  1.00  0.00    -0.167 F 
ATOM     25  F   UNL A   1      30.955  24.291  24.868  1.00  0.00    -0.167 F 
ATOM     26  F   UNL A   1      29.405  25.435  23.857  1.00  0.00    -0.167 F 
ENDBRANCH  22  23
ENDBRANCH   6   9
ENDBRANCH   4   5
ENDBRANCH   3   4
ENDBRANCH   2   3
ENDBRANCH   1   2
BRANCH   1  27
ATOM     27  C   UNL A   1      37.843  19.742  24.999  1.00  0.00     0.021 C 
BRANCH  27  28
ATOM     28  C   UNL A   1      39.082  20.232  25.740  1.00  0.00     0.116 C 
BRANCH  28  29
ATOM     29  N   UNL A   1      40.111  19.210  25.827  1.00  0.00    -0.352 N 
ATOM     30  C   UNL A   1      41.450  19.351  26.087  1.00  0.00     0.251 C 
ATOM     31  H   UNL A   1      39.805  18.287  25.678  1.00  0.00     0.163 HD
ATOM     32  O   UNL A   1      42.214  18.401  25.950  1.00  0.00    -0.269 OA
BRANCH  30  33
ATOM     33  C   UNL A   1      41.975  20.663  26.512  1.00  0.00     0.039 A 
ATOM     34  C   UNL A   1      42.259  21.622  25.536  1.00  0.00     0.014 A 
ATOM     35  C   UNL A   1      42.176  20.951  27.866  1.00  0.00     0.014 A 
ATOM     36  C   UNL A   1      42.691  22.890  25.924  1.00  0.00     0.010 A 
ATOM     37  C   UNL A   1      42.540  22.236  28.254  1.00  0.00     0.010 A 
ATOM     38  C   UNL A   1      42.804  23.216  27.286  1.00  0.00    -0.014 A 
BRANCH  38  39
ATOM     39  C   UNL A   1      43.199  24.585  27.700  1.00  0.00     0.031 A 
ATOM     40  C   UNL A   1      44.646  24.985  27.711  1.00  0.00     0.074 A 
ATOM     41  C   UNL A   1      42.249  25.460  28.081  1.00  0.00     0.049 A 
ATOM     42  N   UNL A   1      45.177  26.146  27.995  1.00  0.00    -0.248 NA
ATOM     43  C   UNL A   1      45.630  23.942  27.377  1.00  0.00     0.031 C 
ATOM     44  C   UNL A   1      40.818  25.166  28.165  1.00  0.00     0.029 A 
ATOM     45  N   UNL A   1      42.341  26.776  28.460  1.00  0.00    -0.354 N 
ATOM     46  C   UNL A   1      46.549  25.975  27.869  1.00  0.00     0.074 A 
ATOM     47  C   UNL A   1      46.776  24.583  27.548  1.00  0.00     0.031 C 
ATOM     48  C   UNL A   1      40.161  26.280  28.522  1.00  0.00     0.029 A 
ATOM     49  C   UNL A   1      41.125  27.359  28.718  1.00  0.00     0.049 A 
ATOM     50  H   UNL A   1      43.197  27.256  28.540  1.00  0.00     0.167 HD
ATOM     51  C   UNL A   1      47.527  26.905  27.977  1.00  0.00     0.037 A 
ATOM     52  C   UNL A   1      40.821  28.627  29.057  1.00  0.00     0.037 A 
ATOM     53  C   UNL A   1      47.293  28.291  28.273  1.00  0.00     0.049 A 
ATOM     54  C   UNL A   1      41.927  29.640  29.179  1.00  0.00     0.074 A 
ATOM     55  C   UNL A   1      48.214  29.321  28.352  1.00  0.00     0.029 A 
ATOM     56  N   UNL A   1      46.048  28.842  28.536  1.00  0.00    -0.354 N 
ATOM     57  N   UNL A   1      43.214  29.482  28.981  1.00  0.00    -0.248 NA
ATOM     58  C   UNL A   1      41.542  31.004  29.565  1.00  0.00     0.031 C 
ATOM     59  C   UNL A   1      47.530  30.488  28.702  1.00  0.00     0.029 A 
ATOM     60  C   UNL A   1      46.179  30.196  28.798  1.00  0.00     0.049 A 
ATOM     61  H   UNL A   1      45.198  28.346  28.535  1.00  0.00     0.167 HD
ATOM     62  C   UNL A   1      43.786  30.728  29.191  1.00  0.00     0.074 A 
ATOM     63  C   UNL A   1      42.709  31.635  29.525  1.00  0.00     0.031 C 
ATOM     64  C   UNL A   1      45.091  31.085  29.113  1.00  0.00     0.037 A 
BRANCH  51  65
ATOM     65  C   UNL A   1      48.940  26.459  27.745  1.00  0.00     0.064 A 
ATOM     66  C   UNL A   1      49.465  26.353  26.447  1.00  0.00     0.173 A 
ATOM     67  C   UNL A   1      49.797  26.200  28.824  1.00  0.00     0.173 A 
ATOM     68  F   UNL A   1      48.682  26.582  25.382  1.00  0.00    -0.203 F 
ATOM     69  C   UNL A   1      50.792  25.986  26.240  1.00  0.00     0.198 A 
ATOM     70  C   UNL A   1      51.130  25.859  28.613  1.00  0.00     0.198 A 
ATOM     71  F   UNL A   1      49.346  26.294  30.084  1.00  0.00    -0.203 F 
ATOM     72  F   UNL A   1      51.261  25.857  24.991  1.00  0.00    -0.200 F 
ATOM     73  C   UNL A   1      51.625  25.748  27.322  1.00  0.00     0.200 A 
ATOM     74  F   UNL A   1      51.939  25.642  29.660  1.00  0.00    -0.200 F 
ATOM     75  F   UNL A   1      52.906  25.410  27.121  1.00  0.00    -0.200 F 
ENDBRANCH  51  65
BRANCH  52  76
ATOM     76  C   UNL A   1      39.400  29.019  29.237  1.00  0.00     0.064 A 
ATOM     77  C   UNL A   1      38.644  29.487  28.152  1.00  0.00     0.173 A 
ATOM     78  C   UNL A   1      38.759  28.906  30.479  1.00  0.00     0.173 A 
ATOM     79  F   UNL A   1      39.218  29.626  26.948  1.00  0.00    -0.203 F 
ATOM     80  C   UNL A   1      37.303  29.832  28.304  1.00  0.00     0.198 A 
ATOM     81  C   UNL A   1      37.412  29.231  30.624  1.00  0.00     0.198 A 
ATOM     82  F   UNL A   1      39.436  28.458  31.546  1.00  0.00    -0.203 F 
ATOM     83  F   UNL A   1      36.611  30.301  27.257  1.00  0.00    -0.200 F 
ATOM     84  C   UNL A   1      36.686  29.698  29.539  1.00  0.00     0.200 A 
ATOM     85  F   UNL A   1      36.815  29.086  31.816  1.00  0.00    -0.200 F 
ATOM     86  F   UNL A   1      35.393  30.019  29.682  1.00  0.00    -0.200 F 
ENDBRANCH  52  76
BRANCH  64  87
ATOM     87  C   UNL A   1      45.442  32.520  29.369  1.00  0.00     0.064 A 
ATOM     88  C   UNL A   1      45.369  33.479  28.350  1.00  0.00     0.173 A 
ATOM     89  C   UNL A   1      45.737  32.956  30.670  1.00  0.00     0.173 A 
ATOM     90  F   UNL A   1      45.101  33.107  27.090  1.00  0.00    -0.203 F 
ATOM     91  C   UNL A   1      45.577  34.828  28.625  1.00  0.00     0.198 A 
ATOM     92  C   UNL A   1      45.921  34.307  30.945  1.00  0.00     0.198 A 
ATOM     93  F   UNL A   1      45.807  32.075  31.678  1.00  0.00    -0.203 F 
ATOM     94  F   UNL A   1      45.517  35.728  27.635  1.00  0.00    -0.200 F 
ATOM     95  C   UNL A   1      45.840  35.242  29.923  1.00  0.00     0.200 A 
ATOM     96  F   UNL A   1      46.159  34.708  32.201  1.00  0.00    -0.200 F 
ATOM     97  F   UNL A   1      46.013  36.543  30.190  1.00  0.00    -0.200 F 
ENDBRANCH  64  87
ENDBRANCH  38  39
ENDBRANCH  30  33
ENDBRANCH  28  29
ENDBRANCH  27  28
ENDBRANCH   1  27
TORSDOF 14
ENDMDL
MODEL 3
REMARK VINA RESULT:     -12.4      5.339     10.810
REMARK SMILES Cc1c(Br)c(C)c2c(c1Br)O[C@H](C(F)(F)F)C(C(=O)NCCCCCCNC(=O)c1ccc(-c3c4nc(c(-c5c(F)c(F)c(F)c(F)c5F)c5ccc([nH]5)c(-c5c(F)c(F)c(F)c(F)c5F)c5nc(c(-c6c(F)c(F)c(F)c(F)c6F)c6ccc3[nH]6)C=C5)C=C4)cc1)=C2
REMARK SMILES IDX 24 1 23 2 22 3 21 4 20 5 18 6 19 7 17 9 1 10 2 11 3 12 9 13
REMARK SMILES IDX 4 14 5 15 8 16 10 17 6 18 7 19 11 20 93 21 12 22 13 23 14 24
REMARK SMILES IDX 15 25 16 26 25 27 26 28 27 29 28 30 29 32 30 33 31 34 92 35
REMARK SMILES IDX 32 36 91 37 33 38 34 39 35 40 85 41 36 42 90 43 84 44 86 45
REMARK SMILES IDX 37 46 89 47 83 48 82 49 38 51 70 52 50 53 69 54 51 55 54 56
REMARK SMILES IDX 68 57 87 58 52 59 53 60 67 62 88 63 55 64 39 65 40 66 48 67
REMARK SMILES IDX 41 68 42 69 46 70 49 71 43 72 44 73 47 74 45 75 71 76 72 77
REMARK SMILES IDX 80 78 73 79 74 80 78 81 81 82 75 83 76 84 79 85 77 86 56 87
REMARK SMILES IDX 57 88 65 89 58 90 59 91 63 92 66 93 60 94 61 95 64 96 62 97
REMARK H PARENT 20 8 27 31 86 50 54 61
REMARK Flexibility Score: inf
ROOT
ATOM      1  C   UNL A   1      37.150  19.278  25.003  1.00  0.00     0.002 C 
ENDROOT
BRANCH   1   2
ATOM      2  C   UNL A   1      36.040  20.338  24.998  1.00  0.00     0.002 C 
BRANCH   2   3
ATOM      3  C   UNL A   1      36.506  21.778  24.760  1.00  0.00     0.021 C 
BRANCH   3   4
ATOM      4  C   UNL A   1      36.633  22.609  26.034  1.00  0.00     0.116 C 
BRANCH   4   5
ATOM      5  N   UNL A   1      35.454  22.492  26.872  1.00  0.00    -0.352 N 
ATOM      6  C   UNL A   1      34.184  22.958  26.871  1.00  0.00     0.251 C 
ATOM      7  O   UNL A   1      33.487  22.573  27.816  1.00  0.00    -0.270 OA
ATOM      8  H   UNL A   1      35.624  21.916  27.653  1.00  0.00     0.163 HD
BRANCH   6   9
ATOM      9  C   UNL A   1      33.592  23.868  25.844  1.00  0.00     0.067 C 
ATOM     10  C   UNL A   1      31.201  28.916  22.383  1.00  0.00     0.047 C 
ATOM     11  C   UNL A   1      31.774  27.953  23.397  1.00  0.00    -0.019 A 
ATOM     12  C   UNL A   1      31.950  28.333  24.753  1.00  0.00     0.025 A 
ATOM     13  C   UNL A   1      32.096  26.632  23.035  1.00  0.00     0.064 A 
ATOM     14  Br  UNL A   1      31.402  30.093  25.293  1.00  0.00    -0.050 Br
ATOM     15  C   UNL A   1      32.495  27.440  25.713  1.00  0.00    -0.026 A 
ATOM     16  C   UNL A   1      32.631  25.738  23.976  1.00  0.00     0.142 A 
ATOM     17  Br  UNL A   1      31.781  25.979  21.259  1.00  0.00    -0.046 Br
ATOM     18  C   UNL A   1      32.716  27.834  27.157  1.00  0.00     0.046 C 
ATOM     19  C   UNL A   1      32.849  26.132  25.302  1.00  0.00     0.022 A 
ATOM     20  O   UNL A   1      32.981  24.494  23.525  1.00  0.00    -0.474 OA
ATOM     21  C   UNL A   1      33.466  25.156  26.211  1.00  0.00     0.026 C 
ATOM     22  C   UNL A   1      33.116  23.430  24.495  1.00  0.00     0.314 C 
BRANCH  22  23
ATOM     23  C   UNL A   1      31.814  22.613  24.548  1.00  0.00     0.429 C 
ATOM     24  F   UNL A   1      31.014  22.925  23.497  1.00  0.00    -0.167 F 
ATOM     25  F   UNL A   1      32.035  21.279  24.473  1.00  0.00    -0.167 F 
ATOM     26  F   UNL A   1      31.108  22.835  25.678  1.00  0.00    -0.167 F 
ENDBRANCH  22  23
ENDBRANCH   6   9
ENDBRANCH   4   5
ENDBRANCH   3   4
ENDBRANCH   2   3
ENDBRANCH   1   2
BRANCH   1  27
ATOM     27  C   UNL A   1      38.573  19.810  24.811  1.00  0.00     0.021 C 
BRANCH  27  28
ATOM     28  C   UNL A   1      39.433  19.799  26.069  1.00  0.00     0.116 C 
BRANCH  28  29
ATOM     29  N   UNL A   1      40.530  18.851  25.978  1.00  0.00    -0.352 N 
ATOM     30  C   UNL A   1      41.881  19.083  26.020  1.00  0.00     0.251 C 
ATOM     31  H   UNL A   1      40.267  17.909  25.869  1.00  0.00     0.163 HD
ATOM     32  O   UNL A   1      42.676  18.188  25.751  1.00  0.00    -0.269 OA
BRANCH  30  33
ATOM     33  C   UNL A   1      42.378  20.429  26.370  1.00  0.00     0.039 A 
ATOM     34  C   UNL A   1      42.880  21.245  25.354  1.00  0.00     0.014 A 
ATOM     35  C   UNL A   1      42.338  20.886  27.691  1.00  0.00     0.014 A 
ATOM     36  C   UNL A   1      43.290  22.544  25.655  1.00  0.00     0.010 A 
ATOM     37  C   UNL A   1      42.681  22.204  27.978  1.00  0.00     0.010 A 
ATOM     38  C   UNL A   1      43.165  23.042  26.963  1.00  0.00    -0.014 A 
BRANCH  38  39
ATOM     39  C   UNL A   1      43.539  24.445  27.270  1.00  0.00     0.031 A 
ATOM     40  C   UNL A   1      44.932  24.934  27.000  1.00  0.00     0.074 A 
ATOM     41  C   UNL A   1      42.621  25.271  27.808  1.00  0.00     0.049 A 
ATOM     42  N   UNL A   1      45.429  26.134  27.158  1.00  0.00    -0.248 NA
ATOM     43  C   UNL A   1      45.903  23.944  26.504  1.00  0.00     0.031 C 
ATOM     44  C   UNL A   1      41.253  24.891  28.166  1.00  0.00     0.029 A 
ATOM     45  N   UNL A   1      42.695  26.600  28.140  1.00  0.00    -0.354 N 
ATOM     46  C   UNL A   1      46.761  26.044  26.778  1.00  0.00     0.074 A 
ATOM     47  C   UNL A   1      47.016  24.660  26.444  1.00  0.00     0.031 C 
ATOM     48  C   UNL A   1      40.603  25.973  28.622  1.00  0.00     0.029 A 
ATOM     49  C   UNL A   1      41.512  27.115  28.613  1.00  0.00     0.049 A 
ATOM     50  H   UNL A   1      43.517  27.135  28.048  1.00  0.00     0.167 HD
ATOM     51  C   UNL A   1      47.678  27.035  26.683  1.00  0.00     0.037 A 
ATOM     52  C   UNL A   1      41.194  28.371  28.980  1.00  0.00     0.037 A 
ATOM     53  C   UNL A   1      47.412  28.413  26.993  1.00  0.00     0.049 A 
ATOM     54  C   UNL A   1      42.234  29.454  28.873  1.00  0.00     0.074 A 
ATOM     55  C   UNL A   1      48.261  29.500  26.879  1.00  0.00     0.029 A 
ATOM     56  N   UNL A   1      46.205  28.893  27.476  1.00  0.00    -0.354 N 
ATOM     57  N   UNL A   1      43.468  29.370  28.438  1.00  0.00    -0.248 NA
ATOM     58  C   UNL A   1      41.838  30.803  29.301  1.00  0.00     0.031 C 
ATOM     59  C   UNL A   1      47.580  30.632  27.331  1.00  0.00     0.029 A 
ATOM     60  C   UNL A   1      46.293  30.259  27.685  1.00  0.00     0.049 A 
ATOM     61  H   UNL A   1      45.405  28.345  27.646  1.00  0.00     0.167 HD
ATOM     62  C   UNL A   1      43.986  30.654  28.514  1.00  0.00     0.074 A 
ATOM     63  C   UNL A   1      42.932  31.503  29.030  1.00  0.00     0.031 C 
ATOM     64  C   UNL A   1      45.227  31.089  28.184  1.00  0.00     0.037 A 
BRANCH  51  65
ATOM     65  C   UNL A   1      49.049  26.671  26.196  1.00  0.00     0.064 A 
ATOM     66  C   UNL A   1      49.414  26.851  24.852  1.00  0.00     0.173 A 
ATOM     67  C   UNL A   1      50.026  26.202  27.085  1.00  0.00     0.173 A 
ATOM     68  F   UNL A   1      48.513  27.287  23.960  1.00  0.00    -0.203 F 
ATOM     69  C   UNL A   1      50.703  26.556  24.416  1.00  0.00     0.198 A 
ATOM     70  C   UNL A   1      51.321  25.934  26.651  1.00  0.00     0.198 A 
ATOM     71  F   UNL A   1      49.728  26.020  28.381  1.00  0.00    -0.203 F 
ATOM     72  F   UNL A   1      51.019  26.703  23.121  1.00  0.00    -0.200 F 
ATOM     73  C   UNL A   1      51.657  26.108  25.317  1.00  0.00     0.200 A 
ATOM     74  F   UNL A   1      52.246  25.513  27.524  1.00  0.00    -0.200 F 
ATOM     75  F   UNL A   1      52.902  25.839  24.897  1.00  0.00    -0.200 F 
ENDBRANCH  51  65
BRANCH  52  76
ATOM     76  C   UNL A   1      39.809  28.680  29.418  1.00  0.00     0.064 A 
ATOM     77  C   UNL A   1      38.844  29.103  28.494  1.00  0.00     0.173 A 
ATOM     78  C   UNL A   1      39.411  28.529  30.755  1.00  0.00     0.173 A 
ATOM     79  F   UNL A   1      39.181  29.275  27.207  1.00  0.00    -0.203 F 
ATOM     80  C   UNL A   1      37.535  29.370  28.889  1.00  0.00     0.198 A 
ATOM     81  C   UNL A   1      38.097  28.776  31.145  1.00  0.00     0.198 A 
ATOM     82  F   UNL A   1      40.296  28.122  31.676  1.00  0.00    -0.203 F 
ATOM     83  F   UNL A   1      36.639  29.798  27.990  1.00  0.00    -0.200 F 
ATOM     84  C   UNL A   1      37.161  29.199  30.214  1.00  0.00     0.200 A 
ATOM     85  F   UNL A   1      37.735  28.596  32.423  1.00  0.00    -0.200 F 
ATOM     86  F   UNL A   1      35.899  29.445  30.592  1.00  0.00    -0.200 F 
ENDBRANCH  52  76
BRANCH  64  87
ATOM     87  C   UNL A   1      45.523  32.550  28.344  1.00  0.00     0.064 A 
ATOM     88  C   UNL A   1      46.112  33.048  29.514  1.00  0.00     0.173 A 
ATOM     89  C   UNL A   1      45.324  33.435  27.274  1.00  0.00     0.173 A 
ATOM     90  F   UNL A   1      46.311  32.241  30.567  1.00  0.00    -0.203 F 
ATOM     91  C   UNL A   1      46.494  34.384  29.606  1.00  0.00     0.198 A 
ATOM     92  C   UNL A   1      45.729  34.763  27.361  1.00  0.00     0.198 A 
ATOM     93  F   UNL A   1      44.772  33.000  26.131  1.00  0.00    -0.203 F 
ATOM     94  F   UNL A   1      47.043  34.844  30.738  1.00  0.00    -0.200 F 
ATOM     95  C   UNL A   1      46.314  35.236  28.526  1.00  0.00     0.200 A 
ATOM     96  F   UNL A   1      45.569  35.581  26.312  1.00  0.00    -0.200 F 
ATOM     97  F   UNL A   1      46.709  36.514  28.608  1.00  0.00    -0.200 F 
ENDBRANCH  64  87
ENDBRANCH  38  39
ENDBRANCH  30  33
ENDBRANCH  28  29
ENDBRANCH  27  28
ENDBRANCH   1  27
TORSDOF 14
ENDMDL
