MODEL 1
REMARK VINA RESULT:     -12.2      0.000      0.000
REMARK SMILES C[C@H]([C@@H](C)C(=O)NCCCCCCNC(=O)c1ccc(-c2c3nc(c(-c4c(F)c(F)c(F)c(F)c4F)c4ccc([nH]4)c(-c4c(F)c(F)c(F)c(F)c4F)c4nc(c(-c5c(F)c(F)c(F)c(F)c5F)c5ccc2[nH]5)C=C4)C=C3)cc1)[S@@](=O)c1ccc2ccccc2c1
REMARK SMILES IDX 10 1 9 2 8 3 7 4 5 5 6 6 3 8 4 9 2 10 1 11 80 12 81 13 82 14
REMARK SMILES IDX 83 15 91 16 84 17 90 18 85 19 89 20 86 21 88 22 87 23 11 24
REMARK SMILES IDX 12 25 13 26 14 27 15 28 16 30 17 31 18 32 79 33 19 34 78 35
REMARK SMILES IDX 20 36 21 37 22 38 72 39 23 40 77 41 71 42 73 43 24 44 76 45
REMARK SMILES IDX 70 46 69 47 25 49 57 50 37 51 56 52 38 53 41 54 55 55 74 56
REMARK SMILES IDX 39 57 40 58 54 60 75 61 42 62 26 63 27 64 35 65 28 66 29 67
REMARK SMILES IDX 33 68 36 69 30 70 31 71 34 72 32 73 58 74 59 75 67 76 60 77
REMARK SMILES IDX 61 78 65 79 68 80 62 81 63 82 66 83 64 84 43 85 44 86 52 87
REMARK SMILES IDX 45 88 46 89 50 90 53 91 47 92 48 93 51 94 49 95
REMARK H PARENT 7 7 14 29 73 48 41 59
REMARK Flexibility Score: inf
ROOT
ATOM      1  C   UNL A   1      37.178  21.882  24.746  1.00  0.00     0.002 C 
ENDROOT
BRANCH   1   2
ATOM      2  C   UNL A   1      36.664  22.531  23.457  1.00  0.00     0.021 C 
BRANCH   2   3
ATOM      3  C   UNL A   1      35.212  23.002  23.538  1.00  0.00     0.116 C 
BRANCH   3   4
ATOM      4  N   UNL A   1      35.117  24.280  24.217  1.00  0.00    -0.356 N 
ATOM      5  C   UNL A   1      34.399  24.681  25.294  1.00  0.00     0.224 C 
ATOM      6  O   UNL A   1      34.452  25.877  25.594  1.00  0.00    -0.275 OA
ATOM      7  H   UNL A   1      35.677  24.986  23.821  1.00  0.00     0.163 HD
BRANCH   5   8
ATOM      8  C   UNL A   1      33.577  23.720  26.148  1.00  0.00     0.091 C 
ATOM      9  C   UNL A   1      34.542  22.786  26.892  1.00  0.00     0.019 C 
BRANCH   8  10
ATOM     10  C   UNL A   1      32.445  22.957  25.437  1.00  0.00     0.093 C 
ATOM     11  C   UNL A   1      32.569  21.438  25.575  1.00  0.00     0.023 C 
BRANCH  10  12
ATOM     12  S   UNL A   1      30.771  23.578  25.868  1.00  0.00     0.057 S 
ATOM     13  O   UNL A   1      30.618  23.426  27.354  1.00  0.00    -0.254 OA
BRANCH  12  14
ATOM     14  C   UNL A   1      30.926  25.336  25.543  1.00  0.00     0.040 A 
ATOM     15  C   UNL A   1      30.822  25.818  24.235  1.00  0.00     0.018 A 
ATOM     16  C   UNL A   1      31.215  26.224  26.584  1.00  0.00     0.026 A 
ATOM     17  C   UNL A   1      30.940  27.181  23.975  1.00  0.00     0.010 A 
ATOM     18  C   UNL A   1      31.384  27.596  26.330  1.00  0.00    -0.017 A 
ATOM     19  C   UNL A   1      31.216  28.081  25.011  1.00  0.00    -0.018 A 
ATOM     20  C   UNL A   1      31.735  28.498  27.348  1.00  0.00     0.009 A 
ATOM     21  C   UNL A   1      31.352  29.454  24.757  1.00  0.00     0.009 A 
ATOM     22  C   UNL A   1      31.907  29.855  27.070  1.00  0.00     0.001 A 
ATOM     23  C   UNL A   1      31.701  30.335  25.779  1.00  0.00     0.001 A 
ENDBRANCH  12  14
ENDBRANCH  10  12
ENDBRANCH   8  10
ENDBRANCH   5   8
ENDBRANCH   3   4
ENDBRANCH   2   3
ENDBRANCH   1   2
BRANCH   1  24
ATOM     24  C   UNL A   1      36.827  20.399  24.899  1.00  0.00     0.002 C 
BRANCH  24  25
ATOM     25  C   UNL A   1      38.034  19.462  24.980  1.00  0.00     0.021 C 
BRANCH  25  26
ATOM     26  C   UNL A   1      39.213  20.028  25.759  1.00  0.00     0.116 C 
BRANCH  26  27
ATOM     27  N   UNL A   1      40.278  19.052  25.915  1.00  0.00    -0.352 N 
ATOM     28  C   UNL A   1      41.620  19.259  26.086  1.00  0.00     0.251 C 
ATOM     29  H   UNL A   1      39.995  18.108  25.896  1.00  0.00     0.163 HD
ATOM     30  O   UNL A   1      42.412  18.323  25.986  1.00  0.00    -0.269 OA
BRANCH  28  31
ATOM     31  C   UNL A   1      42.119  20.618  26.377  1.00  0.00     0.039 A 
ATOM     32  C   UNL A   1      42.352  21.498  25.317  1.00  0.00     0.014 A 
ATOM     33  C   UNL A   1      42.370  21.017  27.693  1.00  0.00     0.014 A 
ATOM     34  C   UNL A   1      42.802  22.791  25.582  1.00  0.00     0.010 A 
ATOM     35  C   UNL A   1      42.733  22.331  27.959  1.00  0.00     0.010 A 
ATOM     36  C   UNL A   1      42.977  23.225  26.906  1.00  0.00    -0.014 A 
BRANCH  36  37
ATOM     37  C   UNL A   1      43.457  24.596  27.209  1.00  0.00     0.031 A 
ATOM     38  C   UNL A   1      42.507  25.613  27.776  1.00  0.00     0.074 A 
ATOM     39  C   UNL A   1      44.728  24.939  26.928  1.00  0.00     0.049 A 
ATOM     40  N   UNL A   1      42.715  26.872  28.068  1.00  0.00    -0.248 NA
ATOM     41  C   UNL A   1      41.127  25.163  28.017  1.00  0.00     0.031 C 
ATOM     42  C   UNL A   1      45.733  24.053  26.340  1.00  0.00     0.029 A 
ATOM     43  N   UNL A   1      45.391  26.129  27.097  1.00  0.00    -0.354 N 
ATOM     44  C   UNL A   1      41.491  27.365  28.504  1.00  0.00     0.074 A 
ATOM     45  C   UNL A   1      40.533  26.289  28.379  1.00  0.00     0.031 C 
ATOM     46  C   UNL A   1      46.894  24.719  26.230  1.00  0.00     0.029 A 
ATOM     47  C   UNL A   1      46.704  26.088  26.701  1.00  0.00     0.049 A 
ATOM     48  H   UNL A   1      44.963  26.936  27.467  1.00  0.00     0.167 HD
ATOM     49  C   UNL A   1      41.198  28.596  28.988  1.00  0.00     0.037 A 
ATOM     50  C   UNL A   1      47.647  27.049  26.717  1.00  0.00     0.037 A 
ATOM     51  C   UNL A   1      42.164  29.655  29.130  1.00  0.00     0.049 A 
ATOM     52  C   UNL A   1      47.296  28.413  27.248  1.00  0.00     0.074 A 
ATOM     53  C   UNL A   1      41.988  30.917  29.669  1.00  0.00     0.029 A 
ATOM     54  N   UNL A   1      43.488  29.575  28.722  1.00  0.00    -0.354 N 
ATOM     55  N   UNL A   1      46.156  28.848  27.729  1.00  0.00    -0.248 NA
ATOM     56  C   UNL A   1      48.369  29.416  27.247  1.00  0.00     0.031 C 
ATOM     57  C   UNL A   1      43.188  31.622  29.529  1.00  0.00     0.029 A 
ATOM     58  C   UNL A   1      44.133  30.776  28.970  1.00  0.00     0.049 A 
ATOM     59  H   UNL A   1      43.907  28.782  28.316  1.00  0.00     0.167 HD
ATOM     60  C   UNL A   1      46.384  30.159  28.125  1.00  0.00     0.074 A 
ATOM     61  C   UNL A   1      47.774  30.445  27.834  1.00  0.00     0.031 C 
ATOM     62  C   UNL A   1      45.522  31.043  28.686  1.00  0.00     0.037 A 
BRANCH  49  63
ATOM     63  C   UNL A   1      39.772  28.862  29.384  1.00  0.00     0.064 A 
ATOM     64  C   UNL A   1      39.305  28.625  30.686  1.00  0.00     0.173 A 
ATOM     65  C   UNL A   1      38.858  29.365  28.445  1.00  0.00     0.173 A 
ATOM     66  F   UNL A   1      40.132  28.135  31.622  1.00  0.00    -0.203 F 
ATOM     67  C   UNL A   1      37.968  28.833  31.019  1.00  0.00     0.198 A 
ATOM     68  C   UNL A   1      37.532  29.610  28.792  1.00  0.00     0.198 A 
ATOM     69  F   UNL A   1      39.249  29.619  27.188  1.00  0.00    -0.203 F 
ATOM     70  F   UNL A   1      37.532  28.529  32.250  1.00  0.00    -0.200 F 
ATOM     71  C   UNL A   1      37.086  29.330  30.074  1.00  0.00     0.200 A 
ATOM     72  F   UNL A   1      36.683  30.107  27.882  1.00  0.00    -0.200 F 
ATOM     73  F   UNL A   1      35.800  29.531  30.396  1.00  0.00    -0.200 F 
ENDBRANCH  49  63
BRANCH  50  74
ATOM     74  C   UNL A   1      49.028  26.739  26.260  1.00  0.00     0.064 A 
ATOM     75  C   UNL A   1      49.410  26.968  24.931  1.00  0.00     0.173 A 
ATOM     76  C   UNL A   1      49.991  26.218  27.135  1.00  0.00     0.173 A 
ATOM     77  F   UNL A   1      48.519  27.449  24.051  1.00  0.00    -0.203 F 
ATOM     78  C   UNL A   1      50.697  26.670  24.489  1.00  0.00     0.198 A 
ATOM     79  C   UNL A   1      51.287  25.948  26.699  1.00  0.00     0.198 A 
ATOM     80  F   UNL A   1      49.679  25.987  28.419  1.00  0.00    -0.203 F 
ATOM     81  F   UNL A   1      51.022  26.858  23.204  1.00  0.00    -0.200 F 
ATOM     82  C   UNL A   1      51.636  26.166  25.376  1.00  0.00     0.200 A 
ATOM     83  F   UNL A   1      52.197  25.476  27.563  1.00  0.00    -0.200 F 
ATOM     84  F   UNL A   1      52.877  25.886  24.953  1.00  0.00    -0.200 F 
ENDBRANCH  50  74
BRANCH  62  85
ATOM     85  C   UNL A   1      46.068  32.386  29.079  1.00  0.00     0.064 A 
ATOM     86  C   UNL A   1      46.035  33.488  28.211  1.00  0.00     0.173 A 
ATOM     87  C   UNL A   1      46.603  32.581  30.363  1.00  0.00     0.173 A 
ATOM     88  F   UNL A   1      45.548  33.354  26.967  1.00  0.00    -0.203 F 
ATOM     89  C   UNL A   1      46.547  34.723  28.601  1.00  0.00     0.198 A 
ATOM     90  C   UNL A   1      47.079  33.826  30.762  1.00  0.00     0.198 A 
ATOM     91  F   UNL A   1      46.652  31.563  31.237  1.00  0.00    -0.203 F 
ATOM     92  F   UNL A   1      46.557  35.745  27.735  1.00  0.00    -0.200 F 
ATOM     93  C   UNL A   1      47.060  34.893  29.879  1.00  0.00     0.200 A 
ATOM     94  F   UNL A   1      47.558  33.991  32.003  1.00  0.00    -0.200 F 
ATOM     95  F   UNL A   1      47.545  36.084  30.256  1.00  0.00    -0.200 F 
ENDBRANCH  62  85
ENDBRANCH  36  37
ENDBRANCH  28  31
ENDBRANCH  26  27
ENDBRANCH  25  26
ENDBRANCH  24  25
ENDBRANCH   1  24
TORSDOF 16
ENDMDL
MODEL 2
REMARK VINA RESULT:     -12.1      5.245      9.342
REMARK SMILES C[C@H]([C@@H](C)C(=O)NCCCCCCNC(=O)c1ccc(-c2c3nc(c(-c4c(F)c(F)c(F)c(F)c4F)c4ccc([nH]4)c(-c4c(F)c(F)c(F)c(F)c4F)c4nc(c(-c5c(F)c(F)c(F)c(F)c5F)c5ccc2[nH]5)C=C4)C=C3)cc1)[S@@](=O)c1ccc2ccccc2c1
REMARK SMILES IDX 10 1 9 2 8 3 7 4 5 5 6 6 3 8 4 9 2 10 1 11 80 12 81 13 82 14
REMARK SMILES IDX 83 15 91 16 84 17 90 18 85 19 89 20 86 21 88 22 87 23 11 24
REMARK SMILES IDX 12 25 13 26 14 27 15 28 16 30 17 31 18 32 79 33 19 34 78 35
REMARK SMILES IDX 20 36 21 37 22 38 72 39 23 40 77 41 71 42 73 43 24 44 76 45
REMARK SMILES IDX 70 46 69 47 25 49 57 50 37 51 56 52 38 53 41 54 55 55 74 56
REMARK SMILES IDX 39 57 40 58 54 60 75 61 42 62 26 63 27 64 35 65 28 66 29 67
REMARK SMILES IDX 33 68 36 69 30 70 31 71 34 72 32 73 58 74 59 75 67 76 60 77
REMARK SMILES IDX 61 78 65 79 68 80 62 81 63 82 66 83 64 84 43 85 44 86 52 87
REMARK SMILES IDX 45 88 46 89 50 90 53 91 47 92 48 93 51 94 49 95
REMARK H PARENT 7 7 14 29 73 48 41 59
REMARK Flexibility Score: inf
ROOT
ATOM      1  C   UNL A   1      31.847  29.813  26.953  1.00  0.00     0.002 C 
ENDROOT
BRANCH   1   2
ATOM      2  C   UNL A   1      33.343  29.799  27.281  1.00  0.00     0.021 C 
BRANCH   2   3
ATOM      3  C   UNL A   1      34.055  28.513  26.862  1.00  0.00     0.116 C 
BRANCH   3   4
ATOM      4  N   UNL A   1      33.986  28.324  25.426  1.00  0.00    -0.356 N 
ATOM      5  C   UNL A   1      33.832  27.211  24.666  1.00  0.00     0.224 C 
ATOM      6  O   UNL A   1      33.903  27.350  23.442  1.00  0.00    -0.275 OA
ATOM      7  H   UNL A   1      34.068  29.156  24.908  1.00  0.00     0.163 HD
BRANCH   5   8
ATOM      8  C   UNL A   1      33.543  25.835  25.259  1.00  0.00     0.091 C 
ATOM      9  C   UNL A   1      34.466  24.812  24.581  1.00  0.00     0.019 C 
BRANCH   8  10
ATOM     10  C   UNL A   1      32.072  25.384  25.277  1.00  0.00     0.093 C 
ATOM     11  C   UNL A   1      31.180  26.286  26.132  1.00  0.00     0.023 C 
BRANCH  10  12
ATOM     12  S   UNL A   1      31.385  25.087  23.599  1.00  0.00     0.057 S 
ATOM     13  O   UNL A   1      30.582  23.820  23.674  1.00  0.00    -0.254 OA
BRANCH  12  14
ATOM     14  C   UNL A   1      30.211  26.432  23.428  1.00  0.00     0.040 A 
ATOM     15  C   UNL A   1      28.889  26.266  23.850  1.00  0.00     0.018 A 
ATOM     16  C   UNL A   1      30.593  27.629  22.814  1.00  0.00     0.026 A 
ATOM     17  C   UNL A   1      27.972  27.306  23.722  1.00  0.00     0.010 A 
ATOM     18  C   UNL A   1      29.665  28.671  22.635  1.00  0.00    -0.017 A 
ATOM     19  C   UNL A   1      28.346  28.514  23.122  1.00  0.00    -0.018 A 
ATOM     20  C   UNL A   1      30.008  29.858  21.967  1.00  0.00     0.009 A 
ATOM     21  C   UNL A   1      27.425  29.562  22.974  1.00  0.00     0.009 A 
ATOM     22  C   UNL A   1      29.068  30.875  21.791  1.00  0.00     0.001 A 
ATOM     23  C   UNL A   1      27.783  30.733  22.308  1.00  0.00     0.001 A 
ENDBRANCH  12  14
ENDBRANCH  10  12
ENDBRANCH   8  10
ENDBRANCH   5   8
ENDBRANCH   3   4
ENDBRANCH   2   3
ENDBRANCH   1   2
BRANCH   1  24
ATOM     24  C   UNL A   1      31.417  30.908  25.972  1.00  0.00     0.002 C 
BRANCH  24  25
ATOM     25  C   UNL A   1      31.309  32.307  26.583  1.00  0.00     0.021 C 
BRANCH  25  26
ATOM     26  C   UNL A   1      32.639  32.897  27.032  1.00  0.00     0.116 C 
BRANCH  26  27
ATOM     27  N   UNL A   1      32.480  34.232  27.584  1.00  0.00    -0.352 N 
ATOM     28  C   UNL A   1      33.103  34.799  28.663  1.00  0.00     0.251 C 
ATOM     29  H   UNL A   1      31.834  34.810  27.116  1.00  0.00     0.163 HD
ATOM     30  O   UNL A   1      32.697  35.864  29.127  1.00  0.00    -0.269 OA
BRANCH  28  31
ATOM     31  C   UNL A   1      34.259  34.120  29.281  1.00  0.00     0.039 A 
ATOM     32  C   UNL A   1      34.034  33.054  30.155  1.00  0.00     0.014 A 
ATOM     33  C   UNL A   1      35.563  34.543  29.007  1.00  0.00     0.014 A 
ATOM     34  C   UNL A   1      35.119  32.390  30.726  1.00  0.00     0.010 A 
ATOM     35  C   UNL A   1      36.643  33.826  29.508  1.00  0.00     0.010 A 
ATOM     36  C   UNL A   1      36.433  32.758  30.392  1.00  0.00    -0.014 A 
BRANCH  36  37
ATOM     37  C   UNL A   1      37.601  32.066  30.991  1.00  0.00     0.031 A 
ATOM     38  C   UNL A   1      38.060  32.434  32.374  1.00  0.00     0.074 A 
ATOM     39  C   UNL A   1      38.277  31.149  30.274  1.00  0.00     0.049 A 
ATOM     40  N   UNL A   1      39.081  31.982  33.058  1.00  0.00    -0.248 NA
ATOM     41  C   UNL A   1      37.286  33.473  33.071  1.00  0.00     0.031 C 
ATOM     42  C   UNL A   1      37.952  30.735  28.909  1.00  0.00     0.029 A 
ATOM     43  N   UNL A   1      39.380  30.399  30.596  1.00  0.00    -0.354 N 
ATOM     44  C   UNL A   1      39.082  32.696  34.249  1.00  0.00     0.074 A 
ATOM     45  C   UNL A   1      38.001  33.653  34.170  1.00  0.00     0.031 C 
ATOM     46  C   UNL A   1      38.816  29.782  28.522  1.00  0.00     0.029 A 
ATOM     47  C   UNL A   1      39.777  29.546  29.596  1.00  0.00     0.049 A 
ATOM     48  H   UNL A   1      39.844  30.467  31.463  1.00  0.00     0.167 HD
ATOM     49  C   UNL A   1      39.895  32.550  35.323  1.00  0.00     0.037 A 
ATOM     50  C   UNL A   1      40.801  28.673  29.554  1.00  0.00     0.037 A 
ATOM     51  C   UNL A   1      40.955  31.579  35.403  1.00  0.00     0.049 A 
ATOM     52  C   UNL A   1      41.699  28.537  30.753  1.00  0.00     0.074 A 
ATOM     53  C   UNL A   1      41.795  31.304  36.467  1.00  0.00     0.029 A 
ATOM     54  N   UNL A   1      41.325  30.728  34.370  1.00  0.00    -0.354 N 
ATOM     55  N   UNL A   1      41.647  29.163  31.905  1.00  0.00    -0.248 NA
ATOM     56  C   UNL A   1      42.793  27.563  30.649  1.00  0.00     0.031 C 
ATOM     57  C   UNL A   1      42.714  30.332  36.057  1.00  0.00     0.029 A 
ATOM     58  C   UNL A   1      42.401  29.948  34.763  1.00  0.00     0.049 A 
ATOM     59  H   UNL A   1      40.887  30.686  33.490  1.00  0.00     0.167 HD
ATOM     60  C   UNL A   1      42.672  28.631  32.676  1.00  0.00     0.074 A 
ATOM     61  C   UNL A   1      43.325  27.627  31.862  1.00  0.00     0.031 C 
ATOM     62  C   UNL A   1      43.034  28.942  33.945  1.00  0.00     0.037 A 
BRANCH  49  63
ATOM     63  C   UNL A   1      39.674  33.475  36.488  1.00  0.00     0.064 A 
ATOM     64  C   UNL A   1      40.334  34.709  36.595  1.00  0.00     0.173 A 
ATOM     65  C   UNL A   1      38.784  33.121  37.514  1.00  0.00     0.173 A 
ATOM     66  F   UNL A   1      41.204  35.094  35.648  1.00  0.00    -0.203 F 
ATOM     67  C   UNL A   1      40.151  35.530  37.705  1.00  0.00     0.198 A 
ATOM     68  C   UNL A   1      38.573  33.962  38.604  1.00  0.00     0.198 A 
ATOM     69  F   UNL A   1      38.118  31.959  37.463  1.00  0.00    -0.203 F 
ATOM     70  F   UNL A   1      40.849  36.668  37.817  1.00  0.00    -0.200 F 
ATOM     71  C   UNL A   1      39.267  35.158  38.705  1.00  0.00     0.200 A 
ATOM     72  F   UNL A   1      37.704  33.610  39.562  1.00  0.00    -0.200 F 
ATOM     73  F   UNL A   1      39.090  35.949  39.774  1.00  0.00    -0.200 F 
ENDBRANCH  49  63
BRANCH  50  74
ATOM     74  C   UNL A   1      41.001  27.825  28.349  1.00  0.00     0.064 A 
ATOM     75  C   UNL A   1      41.826  28.254  27.301  1.00  0.00     0.173 A 
ATOM     76  C   UNL A   1      40.383  26.573  28.222  1.00  0.00     0.173 A 
ATOM     77  F   UNL A   1      42.426  29.453  27.367  1.00  0.00    -0.203 F 
ATOM     78  C   UNL A   1      42.011  27.473  26.162  1.00  0.00     0.198 A 
ATOM     79  C   UNL A   1      40.592  25.779  27.096  1.00  0.00     0.198 A 
ATOM     80  F   UNL A   1      39.589  26.113  29.200  1.00  0.00    -0.203 F 
ATOM     81  F   UNL A   1      42.769  27.927  25.156  1.00  0.00    -0.200 F 
ATOM     82  C   UNL A   1      41.398  26.233  26.064  1.00  0.00     0.200 A 
ATOM     83  F   UNL A   1      40.010  24.574  27.012  1.00  0.00    -0.200 F 
ATOM     84  F   UNL A   1      41.581  25.477  24.972  1.00  0.00    -0.200 F 
ENDBRANCH  50  74
BRANCH  62  85
ATOM     85  C   UNL A   1      44.152  28.147  34.559  1.00  0.00     0.064 A 
ATOM     86  C   UNL A   1      45.487  28.574  34.505  1.00  0.00     0.173 A 
ATOM     87  C   UNL A   1      43.874  26.953  35.243  1.00  0.00     0.173 A 
ATOM     88  F   UNL A   1      45.810  29.702  33.852  1.00  0.00    -0.203 F 
ATOM     89  C   UNL A   1      46.505  27.820  35.085  1.00  0.00     0.198 A 
ATOM     90  C   UNL A   1      44.888  26.221  35.853  1.00  0.00     0.198 A 
ATOM     91  F   UNL A   1      42.613  26.502  35.332  1.00  0.00    -0.203 F 
ATOM     92  F   UNL A   1      47.779  28.218  34.971  1.00  0.00    -0.200 F 
ATOM     93  C   UNL A   1      46.204  26.649  35.765  1.00  0.00     0.200 A 
ATOM     94  F   UNL A   1      44.592  25.099  36.524  1.00  0.00    -0.200 F 
ATOM     95  F   UNL A   1      47.183  25.928  36.328  1.00  0.00    -0.200 F 
ENDBRANCH  62  85
ENDBRANCH  36  37
ENDBRANCH  28  31
ENDBRANCH  26  27
ENDBRANCH  25  26
ENDBRANCH  24  25
ENDBRANCH   1  24
TORSDOF 16
ENDMDL
MODEL 3
REMARK VINA RESULT:     -12.1      1.414      3.710
REMARK SMILES C[C@H]([C@@H](C)C(=O)NCCCCCCNC(=O)c1ccc(-c2c3nc(c(-c4c(F)c(F)c(F)c(F)c4F)c4ccc([nH]4)c(-c4c(F)c(F)c(F)c(F)c4F)c4nc(c(-c5c(F)c(F)c(F)c(F)c5F)c5ccc2[nH]5)C=C4)C=C3)cc1)[S@@](=O)c1ccc2ccccc2c1
REMARK SMILES IDX 10 1 9 2 8 3 7 4 5 5 6 6 3 8 4 9 2 10 1 11 80 12 81 13 82 14
REMARK SMILES IDX 83 15 91 16 84 17 90 18 85 19 89 20 86 21 88 22 87 23 11 24
REMARK SMILES IDX 12 25 13 26 14 27 15 28 16 30 17 31 18 32 79 33 19 34 78 35
REMARK SMILES IDX 20 36 21 37 22 38 72 39 23 40 77 41 71 42 73 43 24 44 76 45
REMARK SMILES IDX 70 46 69 47 25 49 57 50 37 51 56 52 38 53 41 54 55 55 74 56
REMARK SMILES IDX 39 57 40 58 54 60 75 61 42 62 26 63 27 64 35 65 28 66 29 67
REMARK SMILES IDX 33 68 36 69 30 70 31 71 34 72 32 73 58 74 59 75 67 76 60 77
REMARK SMILES IDX 61 78 65 79 68 80 62 81 63 82 66 83 64 84 43 85 44 86 52 87
REMARK SMILES IDX 45 88 46 89 50 90 53 91 47 92 48 93 51 94 49 95
REMARK H PARENT 7 7 14 29 73 48 41 59
REMARK Flexibility Score: inf
ROOT
ATOM      1  C   UNL A   1      36.037  21.215  24.524  1.00  0.00     0.002 C 
ENDROOT
BRANCH   1   2
ATOM      2  C   UNL A   1      36.995  22.375  24.234  1.00  0.00     0.021 C 
BRANCH   2   3
ATOM      3  C   UNL A   1      36.946  23.491  25.278  1.00  0.00     0.116 C 
BRANCH   3   4
ATOM      4  N   UNL A   1      36.012  23.171  26.339  1.00  0.00    -0.356 N 
ATOM      5  C   UNL A   1      34.695  23.451  26.501  1.00  0.00     0.224 C 
ATOM      6  O   UNL A   1      34.175  23.121  27.571  1.00  0.00    -0.275 OA
ATOM      7  H   UNL A   1      36.407  22.656  27.079  1.00  0.00     0.163 HD
BRANCH   5   8
ATOM      8  C   UNL A   1      33.848  24.112  25.417  1.00  0.00     0.091 C 
ATOM      9  C   UNL A   1      34.023  25.633  25.526  1.00  0.00     0.019 C 
BRANCH   8  10
ATOM     10  C   UNL A   1      32.370  23.689  25.341  1.00  0.00     0.093 C 
ATOM     11  C   UNL A   1      31.403  24.851  25.579  1.00  0.00     0.023 C 
BRANCH  10  12
ATOM     12  S   UNL A   1      31.968  22.727  23.829  1.00  0.00     0.057 S 
ATOM     13  O   UNL A   1      32.979  23.109  22.787  1.00  0.00    -0.254 OA
BRANCH  12  14
ATOM     14  C   UNL A   1      32.360  21.050  24.335  1.00  0.00     0.040 A 
ATOM     15  C   UNL A   1      32.489  20.740  25.692  1.00  0.00     0.018 A 
ATOM     16  C   UNL A   1      32.604  20.062  23.376  1.00  0.00     0.026 A 
ATOM     17  C   UNL A   1      32.792  19.440  26.092  1.00  0.00     0.010 A 
ATOM     18  C   UNL A   1      32.957  18.757  23.764  1.00  0.00    -0.017 A 
ATOM     19  C   UNL A   1      33.023  18.440  25.141  1.00  0.00    -0.018 A 
ATOM     20  C   UNL A   1      33.265  17.764  22.820  1.00  0.00     0.009 A 
ATOM     21  C   UNL A   1      33.344  17.132  25.534  1.00  0.00     0.009 A 
ATOM     22  C   UNL A   1      33.624  16.478  23.228  1.00  0.00     0.001 A 
ATOM     23  C   UNL A   1      33.648  16.159  24.583  1.00  0.00     0.001 A 
ENDBRANCH  12  14
ENDBRANCH  10  12
ENDBRANCH   8  10
ENDBRANCH   5   8
ENDBRANCH   3   4
ENDBRANCH   2   3
ENDBRANCH   1   2
BRANCH   1  24
ATOM     24  C   UNL A   1      36.716  19.933  25.015  1.00  0.00     0.002 C 
BRANCH  24  25
ATOM     25  C   UNL A   1      38.216  19.853  24.726  1.00  0.00     0.021 C 
BRANCH  25  26
ATOM     26  C   UNL A   1      39.098  20.042  25.952  1.00  0.00     0.116 C 
BRANCH  26  27
ATOM     27  N   UNL A   1      40.183  19.076  25.993  1.00  0.00    -0.352 N 
ATOM     28  C   UNL A   1      41.532  19.296  26.067  1.00  0.00     0.251 C 
ATOM     29  H   UNL A   1      39.910  18.130  25.963  1.00  0.00     0.163 HD
ATOM     30  O   UNL A   1      42.325  18.374  25.874  1.00  0.00    -0.269 OA
BRANCH  28  31
ATOM     31  C   UNL A   1      42.037  20.651  26.365  1.00  0.00     0.039 A 
ATOM     32  C   UNL A   1      42.249  21.544  25.313  1.00  0.00     0.014 A 
ATOM     33  C   UNL A   1      42.313  21.034  27.682  1.00  0.00     0.014 A 
ATOM     34  C   UNL A   1      42.704  22.834  25.585  1.00  0.00     0.010 A 
ATOM     35  C   UNL A   1      42.681  22.344  27.957  1.00  0.00     0.010 A 
ATOM     36  C   UNL A   1      42.905  23.251  26.911  1.00  0.00    -0.014 A 
BRANCH  36  37
ATOM     37  C   UNL A   1      43.391  24.618  27.222  1.00  0.00     0.031 A 
ATOM     38  C   UNL A   1      42.447  25.634  27.803  1.00  0.00     0.074 A 
ATOM     39  C   UNL A   1      44.660  24.960  26.935  1.00  0.00     0.049 A 
ATOM     40  N   UNL A   1      42.661  26.890  28.104  1.00  0.00    -0.248 NA
ATOM     41  C   UNL A   1      41.068  25.185  28.050  1.00  0.00     0.031 C 
ATOM     42  C   UNL A   1      45.659  24.077  26.333  1.00  0.00     0.029 A 
ATOM     43  N   UNL A   1      45.328  26.147  27.109  1.00  0.00    -0.354 N 
ATOM     44  C   UNL A   1      41.442  27.382  28.552  1.00  0.00     0.074 A 
ATOM     45  C   UNL A   1      40.479  26.310  28.425  1.00  0.00     0.031 C 
ATOM     46  C   UNL A   1      46.821  24.740  26.220  1.00  0.00     0.029 A 
ATOM     47  C   UNL A   1      46.638  26.106  26.703  1.00  0.00     0.049 A 
ATOM     48  H   UNL A   1      44.905  26.952  27.488  1.00  0.00     0.167 HD
ATOM     49  C   UNL A   1      41.155  28.610  29.049  1.00  0.00     0.037 A 
ATOM     50  C   UNL A   1      47.584  27.064  26.721  1.00  0.00     0.037 A 
ATOM     51  C   UNL A   1      42.124  29.665  29.193  1.00  0.00     0.049 A 
ATOM     52  C   UNL A   1      47.240  28.424  27.265  1.00  0.00     0.074 A 
ATOM     53  C   UNL A   1      41.956  30.923  29.743  1.00  0.00     0.029 A 
ATOM     54  N   UNL A   1      43.446  29.584  28.775  1.00  0.00    -0.354 N 
ATOM     55  N   UNL A   1      46.105  28.859  27.757  1.00  0.00    -0.248 NA
ATOM     56  C   UNL A   1      48.316  29.424  27.266  1.00  0.00     0.031 C 
ATOM     57  C   UNL A   1      43.156  31.626  29.600  1.00  0.00     0.029 A 
ATOM     58  C   UNL A   1      44.095  30.782  29.028  1.00  0.00     0.049 A 
ATOM     59  H   UNL A   1      43.860  28.794  28.360  1.00  0.00     0.167 HD
ATOM     60  C   UNL A   1      46.339  30.166  28.163  1.00  0.00     0.074 A 
ATOM     61  C   UNL A   1      47.728  30.451  27.865  1.00  0.00     0.031 C 
ATOM     62  C   UNL A   1      45.483  31.048  28.737  1.00  0.00     0.037 A 
BRANCH  49  63
ATOM     63  C   UNL A   1      39.733  28.876  29.456  1.00  0.00     0.064 A 
ATOM     64  C   UNL A   1      39.274  28.634  30.761  1.00  0.00     0.173 A 
ATOM     65  C   UNL A   1      38.813  29.386  28.527  1.00  0.00     0.173 A 
ATOM     66  F   UNL A   1      40.107  28.138  31.688  1.00  0.00    -0.203 F 
ATOM     67  C   UNL A   1      37.941  28.843  31.105  1.00  0.00     0.198 A 
ATOM     68  C   UNL A   1      37.490  29.631  28.885  1.00  0.00     0.198 A 
ATOM     69  F   UNL A   1      39.195  29.646  27.268  1.00  0.00    -0.203 F 
ATOM     70  F   UNL A   1      37.513  28.533  32.337  1.00  0.00    -0.200 F 
ATOM     71  C   UNL A   1      37.052  29.346  30.169  1.00  0.00     0.200 A 
ATOM     72  F   UNL A   1      36.635  30.135  27.984  1.00  0.00    -0.200 F 
ATOM     73  F   UNL A   1      35.769  29.547  30.502  1.00  0.00    -0.200 F 
ENDBRANCH  49  63
BRANCH  50  74
ATOM     74  C   UNL A   1      48.961  26.754  26.252  1.00  0.00     0.064 A 
ATOM     75  C   UNL A   1      49.914  26.225  27.133  1.00  0.00     0.173 A 
ATOM     76  C   UNL A   1      49.349  26.970  24.923  1.00  0.00     0.173 A 
ATOM     77  F   UNL A   1      49.595  26.018  28.420  1.00  0.00    -0.203 F 
ATOM     78  C   UNL A   1      51.210  25.942  26.708  1.00  0.00     0.198 A 
ATOM     79  C   UNL A   1      50.638  26.658  24.491  1.00  0.00     0.198 A 
ATOM     80  F   UNL A   1      48.473  27.467  24.038  1.00  0.00    -0.203 F 
ATOM     81  F   UNL A   1      52.114  25.480  27.581  1.00  0.00    -0.200 F 
ATOM     82  C   UNL A   1      51.569  26.153  25.385  1.00  0.00     0.200 A 
ATOM     83  F   UNL A   1      50.975  26.848  23.208  1.00  0.00    -0.200 F 
ATOM     84  F   UNL A   1      52.813  25.874  24.973  1.00  0.00    -0.200 F 
ENDBRANCH  50  74
BRANCH  62  85
ATOM     85  C   UNL A   1      46.036  32.386  29.138  1.00  0.00     0.064 A 
ATOM     86  C   UNL A   1      45.999  33.495  28.279  1.00  0.00     0.173 A 
ATOM     87  C   UNL A   1      46.581  32.568  30.419  1.00  0.00     0.173 A 
ATOM     88  F   UNL A   1      45.501  33.373  27.038  1.00  0.00    -0.203 F 
ATOM     89  C   UNL A   1      46.517  34.726  28.676  1.00  0.00     0.198 A 
ATOM     90  C   UNL A   1      47.063  33.809  30.825  1.00  0.00     0.198 A 
ATOM     91  F   UNL A   1      46.634  31.543  31.283  1.00  0.00    -0.203 F 
ATOM     92  F   UNL A   1      46.523  35.756  27.819  1.00  0.00    -0.200 F 
ATOM     93  C   UNL A   1      47.041  34.884  29.951  1.00  0.00     0.200 A 
ATOM     94  F   UNL A   1      47.553  33.963  32.064  1.00  0.00    -0.200 F 
ATOM     95  F   UNL A   1      47.531  36.070  30.334  1.00  0.00    -0.200 F 
ENDBRANCH  62  85
ENDBRANCH  36  37
ENDBRANCH  28  31
ENDBRANCH  26  27
ENDBRANCH  25  26
ENDBRANCH  24  25
ENDBRANCH   1  24
TORSDOF 16
ENDMDL
