MODEL 1
REMARK VINA RESULT:     -11.7      0.000      0.000
REMARK SMILES O=C(NCCCCCCNC(=O)c1cn(C2C[NH+](CCC[C@@H]3CCCO3)C2)nn1)c1ccc(-c2c3nc(c(-c4c(F)c(F)c(F)c(F)c4F)c4ccc([nH]4)c(-c4c(F)c(F)c(F)c(F)c4F)c4nc(c(-c5c(F)c(F)c(F)c(F)c5F)c5ccc2[nH]5)C=C4)C=C3)cc1
REMARK SMILES IDX 8 1 7 2 6 3 5 4 4 5 3 6 1 7 2 8 30 10 31 11 92 12 32 13
REMARK SMILES IDX 91 14 33 15 34 16 35 17 85 18 36 19 90 20 84 21 86 22 37 23
REMARK SMILES IDX 89 24 83 25 82 26 38 28 70 29 50 30 69 31 51 32 54 33 68 34
REMARK SMILES IDX 87 35 52 36 53 37 67 39 88 40 55 41 39 42 40 43 48 44 41 45
REMARK SMILES IDX 42 46 46 47 49 48 43 49 44 50 47 51 45 52 71 53 72 54 80 55
REMARK SMILES IDX 73 56 74 57 78 58 81 59 75 60 76 61 79 62 77 63 56 64 57 65
REMARK SMILES IDX 65 66 58 67 59 68 63 69 66 70 60 71 61 72 64 73 62 74 9 75
REMARK SMILES IDX 10 76 11 77 12 79 13 80 14 81 29 82 15 83 28 84 16 85 17 86
REMARK SMILES IDX 27 87 18 88 19 90 20 91 21 92 22 93 23 94 26 95 24 96 25 97
REMARK H PARENT 3 9 86 27 54 38 10 78 18 89
REMARK Flexibility Score: inf
ROOT
ATOM      1  C   UNL A   1      32.186  28.902  25.900  1.00  0.00     0.021 C 
ENDROOT
BRANCH   1   2
ATOM      2  C   UNL A   1      33.340  28.320  26.727  1.00  0.00     0.002 C 
BRANCH   2   3
ATOM      3  C   UNL A   1      34.262  29.351  27.385  1.00  0.00     0.002 C 
BRANCH   3   4
ATOM      4  C   UNL A   1      33.703  30.777  27.471  1.00  0.00     0.021 C 
BRANCH   4   5
ATOM      5  C   UNL A   1      34.688  31.809  28.016  1.00  0.00     0.116 C 
BRANCH   5   6
ATOM      6  N   UNL A   1      34.542  32.073  29.433  1.00  0.00    -0.352 N 
ATOM      7  O   UNL A   1      34.872  32.243  31.616  1.00  0.00    -0.269 OA
ATOM      8  C   UNL A   1      35.289  31.797  30.543  1.00  0.00     0.251 C 
ATOM      9  H   UNL A   1      33.714  32.563  29.644  1.00  0.00     0.163 HD
BRANCH   8  10
ATOM     10  C   UNL A   1      36.520  30.964  30.552  1.00  0.00     0.039 A 
ATOM     11  C   UNL A   1      36.556  29.569  30.567  1.00  0.00     0.014 A 
ATOM     12  C   UNL A   1      37.738  31.667  30.514  1.00  0.00     0.014 A 
ATOM     13  C   UNL A   1      37.773  28.894  30.614  1.00  0.00     0.010 A 
ATOM     14  C   UNL A   1      38.958  30.999  30.535  1.00  0.00     0.010 A 
ATOM     15  C   UNL A   1      38.973  29.609  30.610  1.00  0.00    -0.014 A 
BRANCH  15  16
ATOM     16  C   UNL A   1      40.221  28.853  30.507  1.00  0.00     0.031 A 
ATOM     17  C   UNL A   1      40.942  28.633  31.799  1.00  0.00     0.074 A 
ATOM     18  C   UNL A   1      40.624  28.236  29.378  1.00  0.00     0.049 A 
ATOM     19  N   UNL A   1      42.175  28.895  32.095  1.00  0.00    -0.248 NA
ATOM     20  C   UNL A   1      40.158  28.106  32.930  1.00  0.00     0.031 C 
ATOM     21  C   UNL A   1      39.888  28.092  28.121  1.00  0.00     0.029 A 
ATOM     22  N   UNL A   1      41.754  27.503  29.161  1.00  0.00    -0.354 N 
ATOM     23  C   UNL A   1      42.369  28.432  33.398  1.00  0.00     0.074 A 
ATOM     24  C   UNL A   1      41.073  28.053  33.897  1.00  0.00     0.031 C 
ATOM     25  C   UNL A   1      40.486  27.146  27.362  1.00  0.00     0.029 A 
ATOM     26  C   UNL A   1      41.708  26.713  28.021  1.00  0.00     0.049 A 
ATOM     27  H   UNL A   1      42.534  27.532  29.761  1.00  0.00     0.167 HD
ATOM     28  C   UNL A   1      43.609  28.218  33.919  1.00  0.00     0.037 A 
ATOM     29  C   UNL A   1      42.572  25.726  27.681  1.00  0.00     0.037 A 
ATOM     30  C   UNL A   1      44.621  28.953  33.214  1.00  0.00     0.049 A 
ATOM     31  C   UNL A   1      43.815  25.915  28.466  1.00  0.00     0.074 A 
ATOM     32  C   UNL A   1      44.863  30.294  32.985  1.00  0.00     0.029 A 
ATOM     33  N   UNL A   1      45.427  28.283  32.330  1.00  0.00    -0.354 N 
ATOM     34  N   UNL A   1      44.657  26.893  28.285  1.00  0.00    -0.248 NA
ATOM     35  C   UNL A   1      43.922  25.225  29.742  1.00  0.00     0.031 C 
ATOM     36  C   UNL A   1      45.394  30.352  31.663  1.00  0.00     0.029 A 
ATOM     37  C   UNL A   1      45.480  29.044  31.192  1.00  0.00     0.049 A 
ATOM     38  H   UNL A   1      45.880  27.422  32.485  1.00  0.00     0.167 HD
ATOM     39  C   UNL A   1      45.093  27.218  29.559  1.00  0.00     0.074 A 
ATOM     40  C   UNL A   1      44.689  26.097  30.400  1.00  0.00     0.031 C 
ATOM     41  C   UNL A   1      45.494  28.487  29.862  1.00  0.00     0.037 A 
BRANCH  28  42
ATOM     42  C   UNL A   1      43.942  27.098  34.873  1.00  0.00     0.064 A 
ATOM     43  C   UNL A   1      44.502  27.394  36.132  1.00  0.00     0.173 A 
ATOM     44  C   UNL A   1      44.011  25.744  34.478  1.00  0.00     0.173 A 
ATOM     45  F   UNL A   1      44.519  28.653  36.595  1.00  0.00    -0.203 F 
ATOM     46  C   UNL A   1      45.140  26.417  36.903  1.00  0.00     0.198 A 
ATOM     47  C   UNL A   1      44.600  24.764  35.274  1.00  0.00     0.198 A 
ATOM     48  F   UNL A   1      43.614  25.340  33.265  1.00  0.00    -0.203 F 
ATOM     49  F   UNL A   1      45.766  26.767  38.036  1.00  0.00    -0.200 F 
ATOM     50  C   UNL A   1      45.192  25.104  36.471  1.00  0.00     0.200 A 
ATOM     51  F   UNL A   1      44.661  23.501  34.828  1.00  0.00    -0.200 F 
ATOM     52  F   UNL A   1      45.854  24.180  37.180  1.00  0.00    -0.200 F 
ENDBRANCH  28  42
BRANCH  29  53
ATOM     53  C   UNL A   1      42.291  24.465  26.955  1.00  0.00     0.064 A 
ATOM     54  C   UNL A   1      43.124  24.023  25.915  1.00  0.00     0.173 A 
ATOM     55  C   UNL A   1      41.361  23.531  27.452  1.00  0.00     0.173 A 
ATOM     56  F   UNL A   1      44.071  24.832  25.418  1.00  0.00    -0.203 F 
ATOM     57  C   UNL A   1      43.046  22.717  25.418  1.00  0.00     0.198 A 
ATOM     58  C   UNL A   1      41.277  22.233  26.949  1.00  0.00     0.198 A 
ATOM     59  F   UNL A   1      40.582  23.829  28.501  1.00  0.00    -0.203 F 
ATOM     60  F   UNL A   1      43.902  22.311  24.468  1.00  0.00    -0.200 F 
ATOM     61  C   UNL A   1      42.129  21.821  25.941  1.00  0.00     0.200 A 
ATOM     62  F   UNL A   1      40.411  21.365  27.491  1.00  0.00    -0.200 F 
ATOM     63  F   UNL A   1      42.095  20.553  25.507  1.00  0.00    -0.200 F 
ENDBRANCH  29  53
BRANCH  41  64
ATOM     64  C   UNL A   1      45.709  29.444  28.724  1.00  0.00     0.064 A 
ATOM     65  C   UNL A   1      44.683  30.200  28.132  1.00  0.00     0.173 A 
ATOM     66  C   UNL A   1      47.022  29.707  28.314  1.00  0.00     0.173 A 
ATOM     67  F   UNL A   1      43.414  30.089  28.545  1.00  0.00    -0.203 F 
ATOM     68  C   UNL A   1      44.958  31.138  27.137  1.00  0.00     0.198 A 
ATOM     69  C   UNL A   1      47.298  30.672  27.349  1.00  0.00     0.198 A 
ATOM     70  F   UNL A   1      48.049  29.059  28.887  1.00  0.00    -0.203 F 
ATOM     71  F   UNL A   1      43.959  31.836  26.578  1.00  0.00    -0.200 F 
ATOM     72  C   UNL A   1      46.266  31.378  26.752  1.00  0.00     0.200 A 
ATOM     73  F   UNL A   1      48.569  30.938  27.018  1.00  0.00    -0.200 F 
ATOM     74  F   UNL A   1      46.535  32.310  25.828  1.00  0.00    -0.200 F 
ENDBRANCH  41  64
ENDBRANCH  15  16
ENDBRANCH   8  10
ENDBRANCH   5   6
ENDBRANCH   4   5
ENDBRANCH   3   4
ENDBRANCH   2   3
ENDBRANCH   1   2
BRANCH   1  75
ATOM     75  C   UNL A   1      32.509  29.138  24.424  1.00  0.00     0.116 C 
BRANCH  75  76
ATOM     76  N   UNL A   1      31.302  29.293  23.631  1.00  0.00    -0.351 N 
ATOM     77  C   UNL A   1      30.817  28.498  22.617  1.00  0.00     0.273 C 
ATOM     78  H   UNL A   1      30.751  30.078  23.850  1.00  0.00     0.163 HD
ATOM     79  O   UNL A   1      29.915  28.931  21.907  1.00  0.00    -0.267 OA
BRANCH  77  80
ATOM     80  C   UNL A   1      31.393  27.180  22.432  1.00  0.00     0.170 A 
ATOM     81  C   UNL A   1      30.978  25.977  22.972  1.00  0.00     0.145 A 
ATOM     82  N   UNL A   1      32.494  26.958  21.645  1.00  0.00    -0.125 NA
ATOM     83  N   UNL A   1      31.937  25.092  22.575  1.00  0.00    -0.237 N 
ATOM     84  N   UNL A   1      32.824  25.680  21.750  1.00  0.00    -0.066 NA
BRANCH  83  85
ATOM     85  C   UNL A   1      32.211  23.792  23.095  1.00  0.00     0.218 C 
ATOM     86  C   UNL A   1      33.486  23.146  22.481  1.00  0.00     0.295 C 
ATOM     87  C   UNL A   1      32.996  23.697  24.417  1.00  0.00     0.295 C 
ATOM     88  N   UNL A   1      33.847  22.645  23.810  1.00  0.00    -0.331 N 
ATOM     89  H   UNL A   1      34.822  22.548  24.093  1.00  0.00     0.348 HD
BRANCH  88  90
ATOM     90  C   UNL A   1      33.419  21.258  24.066  1.00  0.00     0.262 C 
BRANCH  90  91
ATOM     91  C   UNL A   1      33.930  20.379  25.229  1.00  0.00     0.064 C 
BRANCH  91  92
ATOM     92  C   UNL A   1      33.026  19.275  25.808  1.00  0.00     0.038 C 
BRANCH  92  93
ATOM     93  C   UNL A   1      33.071  17.923  25.082  1.00  0.00     0.118 C 
ATOM     94  C   UNL A   1      34.423  17.615  24.435  1.00  0.00     0.034 C 
ATOM     95  O   UNL A   1      32.113  17.959  24.001  1.00  0.00    -0.378 OA
ATOM     96  C   UNL A   1      34.044  16.942  23.142  1.00  0.00     0.031 C 
ATOM     97  C   UNL A   1      32.796  17.700  22.769  1.00  0.00     0.160 C 
ENDBRANCH  92  93
ENDBRANCH  91  92
ENDBRANCH  90  91
ENDBRANCH  88  90
ENDBRANCH  83  85
ENDBRANCH  77  80
ENDBRANCH  75  76
ENDBRANCH   1  75
TORSDOF 18
ENDMDL
MODEL 2
REMARK VINA RESULT:     -11.6      1.470      2.317
REMARK SMILES O=C(NCCCCCCNC(=O)c1cn(C2C[NH+](CCC[C@@H]3CCCO3)C2)nn1)c1ccc(-c2c3nc(c(-c4c(F)c(F)c(F)c(F)c4F)c4ccc([nH]4)c(-c4c(F)c(F)c(F)c(F)c4F)c4nc(c(-c5c(F)c(F)c(F)c(F)c5F)c5ccc2[nH]5)C=C4)C=C3)cc1
REMARK SMILES IDX 8 1 7 2 6 3 5 4 4 5 3 6 1 7 2 8 30 10 31 11 92 12 32 13
REMARK SMILES IDX 91 14 33 15 34 16 35 17 85 18 36 19 90 20 84 21 86 22 37 23
REMARK SMILES IDX 89 24 83 25 82 26 38 28 70 29 50 30 69 31 51 32 54 33 68 34
REMARK SMILES IDX 87 35 52 36 53 37 67 39 88 40 55 41 39 42 40 43 48 44 41 45
REMARK SMILES IDX 42 46 46 47 49 48 43 49 44 50 47 51 45 52 71 53 72 54 80 55
REMARK SMILES IDX 73 56 74 57 78 58 81 59 75 60 76 61 79 62 77 63 56 64 57 65
REMARK SMILES IDX 65 66 58 67 59 68 63 69 66 70 60 71 61 72 64 73 62 74 9 75
REMARK SMILES IDX 10 76 11 77 12 79 13 80 14 81 29 82 15 83 28 84 16 85 17 86
REMARK SMILES IDX 27 87 18 88 19 90 20 91 21 92 22 93 23 94 26 95 24 96 25 97
REMARK H PARENT 3 9 86 27 54 38 10 78 18 89
REMARK Flexibility Score: inf
ROOT
ATOM      1  C   UNL A   1      30.976  29.361  24.539  1.00  0.00     0.021 C 
ENDROOT
BRANCH   1   2
ATOM      2  C   UNL A   1      31.580  28.453  25.617  1.00  0.00     0.002 C 
BRANCH   2   3
ATOM      3  C   UNL A   1      31.974  29.154  26.922  1.00  0.00     0.002 C 
BRANCH   3   4
ATOM      4  C   UNL A   1      32.427  30.612  26.776  1.00  0.00     0.021 C 
BRANCH   4   5
ATOM      5  C   UNL A   1      33.837  30.889  27.294  1.00  0.00     0.116 C 
BRANCH   5   6
ATOM      6  N   UNL A   1      33.873  31.627  28.540  1.00  0.00    -0.352 N 
ATOM      7  O   UNL A   1      34.514  32.628  30.408  1.00  0.00    -0.269 OA
ATOM      8  C   UNL A   1      34.835  31.888  29.474  1.00  0.00     0.251 C 
ATOM      9  H   UNL A   1      33.004  32.034  28.766  1.00  0.00     0.163 HD
BRANCH   8  10
ATOM     10  C   UNL A   1      36.203  31.306  29.469  1.00  0.00     0.039 A 
ATOM     11  C   UNL A   1      37.395  32.032  29.460  1.00  0.00     0.014 A 
ATOM     12  C   UNL A   1      36.273  29.901  29.506  1.00  0.00     0.014 A 
ATOM     13  C   UNL A   1      38.623  31.376  29.417  1.00  0.00     0.010 A 
ATOM     14  C   UNL A   1      37.496  29.239  29.489  1.00  0.00     0.010 A 
ATOM     15  C   UNL A   1      38.672  29.980  29.419  1.00  0.00    -0.014 A 
BRANCH  15  16
ATOM     16  C   UNL A   1      39.983  29.341  29.526  1.00  0.00     0.031 A 
ATOM     17  C   UNL A   1      40.454  29.080  30.921  1.00  0.00     0.074 A 
ATOM     18  C   UNL A   1      40.658  28.850  28.466  1.00  0.00     0.049 A 
ATOM     19  N   UNL A   1      41.575  29.419  31.477  1.00  0.00    -0.248 NA
ATOM     20  C   UNL A   1      39.519  28.402  31.836  1.00  0.00     0.031 C 
ATOM     21  C   UNL A   1      40.200  28.744  27.080  1.00  0.00     0.029 A 
ATOM     22  N   UNL A   1      41.874  28.232  28.439  1.00  0.00    -0.354 N 
ATOM     23  C   UNL A   1      41.553  28.872  32.761  1.00  0.00     0.074 A 
ATOM     24  C   UNL A   1      40.227  28.349  32.964  1.00  0.00     0.031 C 
ATOM     25  C   UNL A   1      41.024  27.914  26.402  1.00  0.00     0.029 A 
ATOM     26  C   UNL A   1      42.129  27.534  27.267  1.00  0.00     0.049 A 
ATOM     27  H   UNL A   1      42.515  28.279  29.185  1.00  0.00     0.167 HD
ATOM     28  C   UNL A   1      42.681  28.722  33.508  1.00  0.00     0.037 A 
ATOM     29  C   UNL A   1      43.134  26.651  27.050  1.00  0.00     0.037 A 
ATOM     30  C   UNL A   1      43.735  29.591  33.069  1.00  0.00     0.049 A 
ATOM     31  C   UNL A   1      44.175  26.880  28.081  1.00  0.00     0.074 A 
ATOM     32  C   UNL A   1      43.887  30.961  32.975  1.00  0.00     0.029 A 
ATOM     33  N   UNL A   1      44.760  29.062  32.328  1.00  0.00    -0.354 N 
ATOM     34  N   UNL A   1      44.938  27.935  28.133  1.00  0.00    -0.248 NA
ATOM     35  C   UNL A   1      44.096  26.103  29.308  1.00  0.00     0.031 C 
ATOM     36  C   UNL A   1      44.659  31.167  31.794  1.00  0.00     0.029 A 
ATOM     37  C   UNL A   1      44.962  29.911  31.272  1.00  0.00     0.049 A 
ATOM     38  H   UNL A   1      45.256  28.232  32.519  1.00  0.00     0.167 HD
ATOM     39  C   UNL A   1      45.082  28.195  29.487  1.00  0.00     0.074 A 
ATOM     40  C   UNL A   1      44.631  26.981  30.159  1.00  0.00     0.031 C 
ATOM     41  C   UNL A   1      45.291  29.464  29.941  1.00  0.00     0.037 A 
BRANCH  28  42
ATOM     42  C   UNL A   1      42.927  27.561  34.441  1.00  0.00     0.064 A 
ATOM     43  C   UNL A   1      43.340  26.319  33.919  1.00  0.00     0.173 A 
ATOM     44  C   UNL A   1      42.484  27.543  35.781  1.00  0.00     0.173 A 
ATOM     45  F   UNL A   1      43.752  26.214  32.647  1.00  0.00    -0.203 F 
ATOM     46  C   UNL A   1      43.252  25.140  34.665  1.00  0.00     0.198 A 
ATOM     47  C   UNL A   1      42.448  26.373  36.539  1.00  0.00     0.198 A 
ATOM     48  F   UNL A   1      41.966  28.627  36.370  1.00  0.00    -0.203 F 
ATOM     49  F   UNL A   1      43.540  23.964  34.089  1.00  0.00    -0.200 F 
ATOM     50  C   UNL A   1      42.802  25.167  35.972  1.00  0.00     0.200 A 
ATOM     51  F   UNL A   1      41.987  26.417  37.797  1.00  0.00    -0.200 F 
ATOM     52  F   UNL A   1      42.660  24.032  36.669  1.00  0.00    -0.200 F 
ENDBRANCH  28  42
BRANCH  29  53
ATOM     53  C   UNL A   1      43.124  25.432  26.208  1.00  0.00     0.064 A 
ATOM     54  C   UNL A   1      44.154  25.176  25.287  1.00  0.00     0.173 A 
ATOM     55  C   UNL A   1      42.254  24.362  26.487  1.00  0.00     0.173 A 
ATOM     56  F   UNL A   1      45.057  26.125  25.002  1.00  0.00    -0.203 F 
ATOM     57  C   UNL A   1      44.315  23.916  24.699  1.00  0.00     0.198 A 
ATOM     58  C   UNL A   1      42.409  23.109  25.892  1.00  0.00     0.198 A 
ATOM     59  F   UNL A   1      41.294  24.480  27.416  1.00  0.00    -0.203 F 
ATOM     60  F   UNL A   1      45.347  23.690  23.874  1.00  0.00    -0.200 F 
ATOM     61  C   UNL A   1      43.447  22.882  25.010  1.00  0.00     0.200 A 
ATOM     62  F   UNL A   1      41.585  22.107  26.231  1.00  0.00    -0.200 F 
ATOM     63  F   UNL A   1      43.636  21.659  24.493  1.00  0.00    -0.200 F 
ENDBRANCH  29  53
BRANCH  41  64
ATOM     64  C   UNL A   1      45.630  30.522  28.931  1.00  0.00     0.064 A 
ATOM     65  C   UNL A   1      46.936  30.789  28.484  1.00  0.00     0.173 A 
ATOM     66  C   UNL A   1      44.580  31.194  28.290  1.00  0.00     0.173 A 
ATOM     67  F   UNL A   1      47.985  30.111  28.966  1.00  0.00    -0.203 F 
ATOM     68  C   UNL A   1      47.178  31.724  27.479  1.00  0.00     0.198 A 
ATOM     69  C   UNL A   1      44.822  32.098  27.260  1.00  0.00     0.198 A 
ATOM     70  F   UNL A   1      43.308  30.935  28.633  1.00  0.00    -0.203 F 
ATOM     71  F   UNL A   1      48.435  31.971  27.080  1.00  0.00    -0.200 F 
ATOM     72  C   UNL A   1      46.121  32.372  26.863  1.00  0.00     0.200 A 
ATOM     73  F   UNL A   1      43.793  32.682  26.631  1.00  0.00    -0.200 F 
ATOM     74  F   UNL A   1      46.351  33.238  25.867  1.00  0.00    -0.200 F 
ENDBRANCH  41  64
ENDBRANCH  15  16
ENDBRANCH   8  10
ENDBRANCH   5   6
ENDBRANCH   4   5
ENDBRANCH   3   4
ENDBRANCH   2   3
ENDBRANCH   1   2
BRANCH   1  75
ATOM     75  C   UNL A   1      31.307  28.958  23.101  1.00  0.00     0.116 C 
BRANCH  75  76
ATOM     76  N   UNL A   1      32.701  29.210  22.782  1.00  0.00    -0.351 N 
ATOM     77  C   UNL A   1      33.708  28.313  22.506  1.00  0.00     0.273 C 
ATOM     78  H   UNL A   1      32.964  30.158  22.759  1.00  0.00     0.163 HD
ATOM     79  O   UNL A   1      34.869  28.711  22.504  1.00  0.00    -0.267 OA
BRANCH  77  80
ATOM     80  C   UNL A   1      33.352  26.936  22.224  1.00  0.00     0.170 A 
ATOM     81  C   UNL A   1      32.896  25.969  23.101  1.00  0.00     0.145 A 
ATOM     82  N   UNL A   1      33.431  26.394  20.967  1.00  0.00    -0.125 NA
ATOM     83  N   UNL A   1      32.838  24.838  22.340  1.00  0.00    -0.237 N 
ATOM     84  N   UNL A   1      33.126  25.109  21.053  1.00  0.00    -0.066 NA
BRANCH  83  85
ATOM     85  C   UNL A   1      32.754  23.482  22.774  1.00  0.00     0.218 C 
ATOM     86  C   UNL A   1      33.231  23.280  24.241  1.00  0.00     0.295 C 
ATOM     87  C   UNL A   1      31.401  22.984  23.317  1.00  0.00     0.295 C 
ATOM     88  N   UNL A   1      32.115  22.357  24.456  1.00  0.00    -0.331 N 
ATOM     89  H   UNL A   1      31.659  22.278  25.365  1.00  0.00     0.348 HD
BRANCH  88  90
ATOM     90  C   UNL A   1      32.467  20.937  24.278  1.00  0.00     0.262 C 
BRANCH  90  91
ATOM     91  C   UNL A   1      33.361  20.123  25.242  1.00  0.00     0.064 C 
BRANCH  91  92
ATOM     92  C   UNL A   1      34.344  19.082  24.677  1.00  0.00     0.038 C 
BRANCH  92  93
ATOM     93  C   UNL A   1      33.737  17.725  24.295  1.00  0.00     0.118 C 
ATOM     94  C   UNL A   1      32.567  17.300  25.186  1.00  0.00     0.034 C 
ATOM     95  O   UNL A   1      34.752  16.711  24.464  1.00  0.00    -0.378 OA
ATOM     96  C   UNL A   1      32.770  15.816  25.342  1.00  0.00     0.031 C 
ATOM     97  C   UNL A   1      34.275  15.726  25.387  1.00  0.00     0.160 C 
ENDBRANCH  92  93
ENDBRANCH  91  92
ENDBRANCH  90  91
ENDBRANCH  88  90
ENDBRANCH  83  85
ENDBRANCH  77  80
ENDBRANCH  75  76
ENDBRANCH   1  75
TORSDOF 18
ENDMDL
MODEL 3
REMARK VINA RESULT:     -11.5      2.482      3.815
REMARK SMILES O=C(NCCCCCCNC(=O)c1cn(C2C[NH+](CCC[C@@H]3CCCO3)C2)nn1)c1ccc(-c2c3nc(c(-c4c(F)c(F)c(F)c(F)c4F)c4ccc([nH]4)c(-c4c(F)c(F)c(F)c(F)c4F)c4nc(c(-c5c(F)c(F)c(F)c(F)c5F)c5ccc2[nH]5)C=C4)C=C3)cc1
REMARK SMILES IDX 8 1 7 2 6 3 5 4 4 5 3 6 1 7 2 8 30 10 31 11 92 12 32 13
REMARK SMILES IDX 91 14 33 15 34 16 35 17 85 18 36 19 90 20 84 21 86 22 37 23
REMARK SMILES IDX 89 24 83 25 82 26 38 28 70 29 50 30 69 31 51 32 54 33 68 34
REMARK SMILES IDX 87 35 52 36 53 37 67 39 88 40 55 41 39 42 40 43 48 44 41 45
REMARK SMILES IDX 42 46 46 47 49 48 43 49 44 50 47 51 45 52 71 53 72 54 80 55
REMARK SMILES IDX 73 56 74 57 78 58 81 59 75 60 76 61 79 62 77 63 56 64 57 65
REMARK SMILES IDX 65 66 58 67 59 68 63 69 66 70 60 71 61 72 64 73 62 74 9 75
REMARK SMILES IDX 10 76 11 77 12 79 13 80 14 81 29 82 15 83 28 84 16 85 17 86
REMARK SMILES IDX 27 87 18 88 19 90 20 91 21 92 22 93 23 94 26 95 24 96 25 97
REMARK H PARENT 3 9 86 27 54 38 10 78 18 89
REMARK Flexibility Score: inf
ROOT
ATOM      1  C   UNL A   1      30.878  26.462  24.326  1.00  0.00     0.021 C 
ENDROOT
BRANCH   1   2
ATOM      2  C   UNL A   1      30.748  26.460  25.854  1.00  0.00     0.002 C 
BRANCH   2   3
ATOM      3  C   UNL A   1      31.996  26.913  26.620  1.00  0.00     0.002 C 
BRANCH   3   4
ATOM      4  C   UNL A   1      32.286  28.419  26.577  1.00  0.00     0.021 C 
BRANCH   4   5
ATOM      5  C   UNL A   1      33.555  28.837  27.316  1.00  0.00     0.116 C 
BRANCH   5   6
ATOM      6  N   UNL A   1      33.598  30.242  27.666  1.00  0.00    -0.352 N 
ATOM      7  O   UNL A   1      34.256  32.289  28.196  1.00  0.00    -0.269 OA
ATOM      8  C   UNL A   1      34.589  31.113  28.023  1.00  0.00     0.251 C 
ATOM      9  H   UNL A   1      32.710  30.667  27.642  1.00  0.00     0.163 HD
BRANCH   8  10
ATOM     10  C   UNL A   1      36.005  30.734  28.266  1.00  0.00     0.039 A 
ATOM     11  C   UNL A   1      36.966  31.535  28.884  1.00  0.00     0.014 A 
ATOM     12  C   UNL A   1      36.374  29.440  27.854  1.00  0.00     0.014 A 
ATOM     13  C   UNL A   1      38.277  31.088  29.023  1.00  0.00     0.010 A 
ATOM     14  C   UNL A   1      37.676  28.976  28.012  1.00  0.00     0.010 A 
ATOM     15  C   UNL A   1      38.635  29.813  28.577  1.00  0.00    -0.014 A 
BRANCH  15  16
ATOM     16  C   UNL A   1      39.982  29.333  28.882  1.00  0.00     0.031 A 
ATOM     17  C   UNL A   1      40.224  28.978  30.315  1.00  0.00     0.074 A 
ATOM     18  C   UNL A   1      40.900  29.050  27.936  1.00  0.00     0.049 A 
ATOM     19  N   UNL A   1      41.165  29.389  31.105  1.00  0.00    -0.248 NA
ATOM     20  C   UNL A   1      39.243  28.093  30.968  1.00  0.00     0.031 C 
ATOM     21  C   UNL A   1      40.722  29.044  26.483  1.00  0.00     0.029 A 
ATOM     22  N   UNL A   1      42.177  28.594  28.093  1.00  0.00    -0.354 N 
ATOM     23  C   UNL A   1      40.988  28.704  32.308  1.00  0.00     0.074 A 
ATOM     24  C   UNL A   1      39.736  28.002  32.203  1.00  0.00     0.031 C 
ATOM     25  C   UNL A   1      41.765  28.402  25.910  1.00  0.00     0.029 A 
ATOM     26  C   UNL A   1      42.737  28.067  26.938  1.00  0.00     0.049 A 
ATOM     27  H   UNL A   1      42.658  28.635  28.951  1.00  0.00     0.167 HD
ATOM     28  C   UNL A   1      41.971  28.611  33.246  1.00  0.00     0.037 A 
ATOM     29  C   UNL A   1      43.880  27.344  26.846  1.00  0.00     0.037 A 
ATOM     30  C   UNL A   1      42.954  29.648  33.096  1.00  0.00     0.049 A 
ATOM     31  C   UNL A   1      44.673  27.584  28.076  1.00  0.00     0.074 A 
ATOM     32  C   UNL A   1      42.924  31.027  33.153  1.00  0.00     0.029 A 
ATOM     33  N   UNL A   1      44.161  29.334  32.527  1.00  0.00    -0.354 N 
ATOM     34  N   UNL A   1      45.255  28.713  28.367  1.00  0.00    -0.248 NA
ATOM     35  C   UNL A   1      44.483  26.671  29.192  1.00  0.00     0.031 C 
ATOM     36  C   UNL A   1      43.860  31.457  32.167  1.00  0.00     0.029 A 
ATOM     37  C   UNL A   1      44.428  30.314  31.607  1.00  0.00     0.049 A 
ATOM     38  H   UNL A   1      44.726  28.556  32.739  1.00  0.00     0.167 HD
ATOM     39  C   UNL A   1      45.113  28.835  29.740  1.00  0.00     0.074 A 
ATOM     40  C   UNL A   1      44.725  27.508  30.204  1.00  0.00     0.031 C 
ATOM     41  C   UNL A   1      45.053  30.062  30.333  1.00  0.00     0.037 A 
BRANCH  28  42
ATOM     42  C   UNL A   1      42.206  27.393  34.105  1.00  0.00     0.064 A 
ATOM     43  C   UNL A   1      41.864  27.423  35.471  1.00  0.00     0.173 A 
ATOM     44  C   UNL A   1      43.027  26.316  33.706  1.00  0.00     0.173 A 
ATOM     45  F   UNL A   1      41.113  28.419  35.966  1.00  0.00    -0.203 F 
ATOM     46  C   UNL A   1      42.361  26.482  36.377  1.00  0.00     0.198 A 
ATOM     47  C   UNL A   1      43.477  25.348  34.603  1.00  0.00     0.198 A 
ATOM     48  F   UNL A   1      43.514  26.220  32.463  1.00  0.00    -0.203 F 
ATOM     49  F   UNL A   1      42.109  26.619  37.687  1.00  0.00    -0.200 F 
ATOM     50  C   UNL A   1      43.170  25.448  35.943  1.00  0.00     0.200 A 
ATOM     51  F   UNL A   1      44.279  24.367  34.166  1.00  0.00    -0.200 F 
ATOM     52  F   UNL A   1      43.696  24.580  36.818  1.00  0.00    -0.200 F 
ENDBRANCH  28  42
BRANCH  29  53
ATOM     53  C   UNL A   1      44.197  26.236  25.916  1.00  0.00     0.064 A 
ATOM     54  C   UNL A   1      45.505  26.027  25.451  1.00  0.00     0.173 A 
ATOM     55  C   UNL A   1      43.278  25.193  25.687  1.00  0.00     0.173 A 
ATOM     56  F   UNL A   1      46.455  26.948  25.672  1.00  0.00    -0.203 F 
ATOM     57  C   UNL A   1      45.877  24.837  24.814  1.00  0.00     0.198 A 
ATOM     58  C   UNL A   1      43.646  24.012  25.043  1.00  0.00     0.198 A 
ATOM     59  F   UNL A   1      42.029  25.259  26.169  1.00  0.00    -0.203 F 
ATOM     60  F   UNL A   1      47.151  24.648  24.441  1.00  0.00    -0.200 F 
ATOM     61  C   UNL A   1      44.949  23.828  24.619  1.00  0.00     0.200 A 
ATOM     62  F   UNL A   1      42.747  23.028  24.895  1.00  0.00    -0.200 F 
ATOM     63  F   UNL A   1      45.318  22.665  24.064  1.00  0.00    -0.200 F 
ENDBRANCH  29  53
BRANCH  41  64
ATOM     64  C   UNL A   1      45.417  31.260  29.503  1.00  0.00     0.064 A 
ATOM     65  C   UNL A   1      44.514  31.936  28.664  1.00  0.00     0.173 A 
ATOM     66  C   UNL A   1      46.688  31.826  29.671  1.00  0.00     0.173 A 
ATOM     67  F   UNL A   1      43.248  31.523  28.535  1.00  0.00    -0.203 F 
ATOM     68  C   UNL A   1      44.888  33.095  27.986  1.00  0.00     0.198 A 
ATOM     69  C   UNL A   1      47.045  33.005  29.024  1.00  0.00     0.198 A 
ATOM     70  F   UNL A   1      47.571  31.258  30.508  1.00  0.00    -0.203 F 
ATOM     71  F   UNL A   1      44.012  33.714  27.179  1.00  0.00    -0.200 F 
ATOM     72  C   UNL A   1      46.150  33.633  28.172  1.00  0.00     0.200 A 
ATOM     73  F   UNL A   1      48.248  33.550  29.249  1.00  0.00    -0.200 F 
ATOM     74  F   UNL A   1      46.495  34.771  27.555  1.00  0.00    -0.200 F 
ENDBRANCH  41  64
ENDBRANCH  15  16
ENDBRANCH   8  10
ENDBRANCH   5   6
ENDBRANCH   4   5
ENDBRANCH   3   4
ENDBRANCH   2   3
ENDBRANCH   1   2
BRANCH   1  75
ATOM     75  C   UNL A   1      30.794  25.083  23.672  1.00  0.00     0.116 C 
BRANCH  75  76
ATOM     76  N   UNL A   1      31.483  25.053  22.394  1.00  0.00    -0.351 N 
ATOM     77  C   UNL A   1      32.738  24.573  22.091  1.00  0.00     0.273 C 
ATOM     78  H   UNL A   1      30.982  25.429  21.636  1.00  0.00     0.163 HD
ATOM     79  O   UNL A   1      33.235  24.863  21.007  1.00  0.00    -0.267 OA
BRANCH  77  80
ATOM     80  C   UNL A   1      33.416  23.742  23.066  1.00  0.00     0.170 A 
ATOM     81  C   UNL A   1      34.462  24.079  23.905  1.00  0.00     0.145 A 
ATOM     82  N   UNL A   1      33.075  22.432  23.285  1.00  0.00    -0.125 NA
ATOM     83  N   UNL A   1      34.787  22.902  24.513  1.00  0.00    -0.237 N 
ATOM     84  N   UNL A   1      33.928  21.926  24.163  1.00  0.00    -0.066 NA
BRANCH  83  85
ATOM     85  C   UNL A   1      35.980  22.571  25.221  1.00  0.00     0.218 C 
ATOM     86  C   UNL A   1      37.089  21.978  24.306  1.00  0.00     0.295 C 
ATOM     87  C   UNL A   1      37.006  23.693  25.464  1.00  0.00     0.295 C 
ATOM     88  N   UNL A   1      38.084  22.770  25.032  1.00  0.00    -0.331 N 
ATOM     89  H   UNL A   1      38.915  23.135  24.566  1.00  0.00     0.348 HD
BRANCH  88  90
ATOM     90  C   UNL A   1      38.761  22.037  26.116  1.00  0.00     0.262 C 
BRANCH  90  91
ATOM     91  C   UNL A   1      40.227  22.263  26.552  1.00  0.00     0.064 C 
BRANCH  91  92
ATOM     92  C   UNL A   1      40.939  21.208  27.418  1.00  0.00     0.038 C 
BRANCH  92  93
ATOM     93  C   UNL A   1      41.234  19.868  26.731  1.00  0.00     0.118 C 
ATOM     94  C   UNL A   1      42.108  18.926  27.564  1.00  0.00     0.034 C 
ATOM     95  O   UNL A   1      41.979  20.133  25.522  1.00  0.00    -0.378 OA
ATOM     96  C   UNL A   1      43.003  18.283  26.538  1.00  0.00     0.031 C 
ATOM     97  C   UNL A   1      43.223  19.426  25.580  1.00  0.00     0.160 C 
ENDBRANCH  92  93
ENDBRANCH  91  92
ENDBRANCH  90  91
ENDBRANCH  88  90
ENDBRANCH  83  85
ENDBRANCH  77  80
ENDBRANCH  75  76
ENDBRANCH   1  75
TORSDOF 18
ENDMDL
