MODEL 1
REMARK VINA RESULT:     -14.2      0.000      0.000
REMARK SMILES Cc1cccc(O[C@H](C)C(=O)NNC(=O)[C@H]2[C@@H]3CC[C@@H](C3)[C@@H]2C(=O)NCCCCCCNC(=O)c2ccc(-c3c4nc(c(-c5c(F)c(F)c(F)c(F)c5F)c5ccc([nH]5)c(-c5c(F)c(F)c(F)c(F)c5F)c5nc(c(-c6c(F)c(F)c(F)c(F)c6F)c6ccc3[nH]6)C=C5)C=C4)cc2)c1
REMARK SMILES IDX 27 1 26 2 25 3 23 4 24 5 22 7 16 8 17 9 18 10 21 11 20 12
REMARK SMILES IDX 19 13 14 14 13 15 15 17 12 18 10 19 11 20 8 22 9 23 7 24
REMARK SMILES IDX 6 25 1 26 2 27 3 28 98 29 4 30 5 31 28 32 29 33 30 34 31 35
REMARK SMILES IDX 32 36 33 37 34 39 35 40 36 41 97 42 37 43 96 44 38 45 39 46
REMARK SMILES IDX 40 47 90 48 41 49 95 50 89 51 91 52 42 53 94 54 88 55 87 56
REMARK SMILES IDX 43 58 75 59 55 60 74 61 56 62 59 63 73 64 92 65 57 66 58 67
REMARK SMILES IDX 72 69 93 70 60 71 44 72 45 73 53 74 46 75 47 76 51 77 54 78
REMARK SMILES IDX 48 79 49 80 52 81 50 82 76 83 77 84 85 85 78 86 79 87 83 88
REMARK SMILES IDX 86 89 80 90 81 91 84 92 82 93 61 94 62 95 70 96 63 97 64 98
REMARK SMILES IDX 68 99 71 100 65 101 66 102 69 103 67 104
REMARK H PARENT 25 6 13 16 12 21 32 38 91 57 59 68
REMARK Flexibility Score: inf
ROOT
ATOM      1  C   UNL A   1      35.548  22.837  23.599  1.00  0.00     0.021 C 
ENDROOT
BRANCH   1   2
ATOM      2  C   UNL A   1      34.990  24.086  24.282  1.00  0.00     0.116 C 
BRANCH   2   3
ATOM      3  N   UNL A   1      34.335  24.980  23.347  1.00  0.00    -0.356 N 
ATOM      4  C   UNL A   1      33.356  25.905  23.578  1.00  0.00     0.224 C 
ATOM      5  O   UNL A   1      32.933  26.573  22.639  1.00  0.00    -0.275 OA
ATOM      6  H   UNL A   1      34.641  24.913  22.413  1.00  0.00     0.163 HD
BRANCH   4   7
ATOM      7  C   UNL A   1      32.852  26.055  25.003  1.00  0.00     0.094 C 
ATOM      8  C   UNL A   1      31.330  26.159  25.151  1.00  0.00     0.096 C 
ATOM      9  C   UNL A   1      31.141  27.423  26.026  1.00  0.00     0.002 C 
ATOM     10  C   UNL A   1      31.391  28.654  25.129  1.00  0.00     0.005 C 
ATOM     11  C   UNL A   1      32.397  27.465  26.894  1.00  0.00     0.009 C 
ATOM     12  C   UNL A   1      33.345  27.354  25.696  1.00  0.00     0.002 C 
ATOM     13  C   UNL A   1      32.913  28.604  24.899  1.00  0.00     0.005 C 
BRANCH   8  14
ATOM     14  C   UNL A   1      30.581  24.926  25.653  1.00  0.00     0.242 C 
ATOM     15  N   UNL A   1      30.532  23.707  25.038  1.00  0.00    -0.267 N 
ATOM     16  H   UNL A   1      29.940  23.047  25.465  1.00  0.00     0.191 HD
ATOM     17  O   UNL A   1      29.981  25.009  26.735  1.00  0.00    -0.273 OA
BRANCH  15  18
ATOM     18  N   UNL A   1      31.185  23.265  23.914  1.00  0.00    -0.264 N 
ATOM     19  C   UNL A   1      31.855  22.098  23.721  1.00  0.00     0.279 C 
ATOM     20  O   UNL A   1      32.124  21.843  22.536  1.00  0.00    -0.269 OA
ATOM     21  H   UNL A   1      31.163  23.876  23.142  1.00  0.00     0.191 HD
BRANCH  19  22
ATOM     22  C   UNL A   1      32.395  21.156  24.837  1.00  0.00     0.260 C 
ATOM     23  C   UNL A   1      32.700  21.947  26.115  1.00  0.00     0.064 C 
BRANCH  22  24
ATOM     24  O   UNL A   1      32.073  19.795  25.021  1.00  0.00    -0.481 OA
BRANCH  24  25
ATOM     25  C   UNL A   1      32.917  18.749  24.863  1.00  0.00     0.120 A 
ATOM     26  C   UNL A   1      32.489  15.029  25.604  1.00  0.00     0.044 C 
ATOM     27  C   UNL A   1      33.098  16.337  25.196  1.00  0.00    -0.047 A 
ATOM     28  C   UNL A   1      34.443  16.398  24.829  1.00  0.00     0.003 A 
ATOM     29  C   UNL A   1      32.345  17.516  25.202  1.00  0.00     0.049 A 
ATOM     30  C   UNL A   1      35.008  17.613  24.446  1.00  0.00     0.004 A 
ATOM     31  C   UNL A   1      34.243  18.782  24.445  1.00  0.00     0.046 A 
ENDBRANCH  24  25
ENDBRANCH  22  24
ENDBRANCH  19  22
ENDBRANCH  15  18
ENDBRANCH   8  14
ENDBRANCH   4   7
ENDBRANCH   2   3
ENDBRANCH   1   2
BRANCH   1  32
ATOM     32  C   UNL A   1      37.016  22.517  23.915  1.00  0.00     0.002 C 
BRANCH  32  33
ATOM     33  C   UNL A   1      37.274  21.248  24.743  1.00  0.00     0.002 C 
BRANCH  33  34
ATOM     34  C   UNL A   1      38.486  21.289  25.678  1.00  0.00     0.021 C 
BRANCH  34  35
ATOM     35  C   UNL A   1      38.913  22.692  26.087  1.00  0.00     0.116 C 
BRANCH  35  36
ATOM     36  N   UNL A   1      40.334  22.818  26.340  1.00  0.00    -0.352 N 
ATOM     37  C   UNL A   1      41.070  23.953  26.682  1.00  0.00     0.251 C 
ATOM     38  H   UNL A   1      40.853  21.986  26.258  1.00  0.00     0.163 HD
ATOM     39  O   UNL A   1      42.276  23.885  26.827  1.00  0.00    -0.269 OA
BRANCH  37  40
ATOM     40  C   UNL A   1      40.342  25.201  26.995  1.00  0.00     0.039 A 
ATOM     41  C   UNL A   1      40.707  26.359  26.298  1.00  0.00     0.014 A 
ATOM     42  C   UNL A   1      39.483  25.279  28.087  1.00  0.00     0.014 A 
ATOM     43  C   UNL A   1      40.420  27.607  26.848  1.00  0.00     0.010 A 
ATOM     44  C   UNL A   1      39.285  26.507  28.689  1.00  0.00     0.010 A 
ATOM     45  C   UNL A   1      39.818  27.660  28.105  1.00  0.00    -0.014 A 
BRANCH  45  46
ATOM     46  C   UNL A   1      39.841  28.854  28.944  1.00  0.00     0.031 A 
ATOM     47  C   UNL A   1      38.814  29.906  28.802  1.00  0.00     0.074 A 
ATOM     48  C   UNL A   1      40.753  28.929  29.940  1.00  0.00     0.049 A 
ATOM     49  N   UNL A   1      38.964  31.125  29.202  1.00  0.00    -0.248 NA
ATOM     50  C   UNL A   1      37.531  29.669  28.156  1.00  0.00     0.031 C 
ATOM     51  C   UNL A   1      40.757  29.857  31.067  1.00  0.00     0.029 A 
ATOM     52  N   UNL A   1      41.995  28.275  30.022  1.00  0.00    -0.354 N 
ATOM     53  C   UNL A   1      37.737  31.747  29.128  1.00  0.00     0.074 A 
ATOM     54  C   UNL A   1      36.895  30.817  28.412  1.00  0.00     0.031 C 
ATOM     55  C   UNL A   1      42.007  29.947  31.549  1.00  0.00     0.029 A 
ATOM     56  C   UNL A   1      42.866  29.194  30.653  1.00  0.00     0.049 A 
ATOM     57  H   UNL A   1      42.214  27.367  29.708  1.00  0.00     0.167 HD
ATOM     58  C   UNL A   1      37.541  32.918  29.804  1.00  0.00     0.037 A 
ATOM     59  C   UNL A   1      43.955  29.702  30.009  1.00  0.00     0.037 A 
ATOM     60  C   UNL A   1      38.774  33.370  30.446  1.00  0.00     0.049 A 
ATOM     61  C   UNL A   1      43.957  31.208  29.889  1.00  0.00     0.074 A 
ATOM     62  C   UNL A   1      39.250  33.258  31.742  1.00  0.00     0.029 A 
ATOM     63  N   UNL A   1      39.853  33.768  29.665  1.00  0.00    -0.354 N 
ATOM     64  N   UNL A   1      42.892  31.946  30.027  1.00  0.00    -0.248 NA
ATOM     65  C   UNL A   1      45.144  31.995  29.564  1.00  0.00     0.031 C 
ATOM     66  C   UNL A   1      40.635  33.549  31.732  1.00  0.00     0.029 A 
ATOM     67  C   UNL A   1      40.998  33.854  30.432  1.00  0.00     0.049 A 
ATOM     68  H   UNL A   1      39.807  33.962  28.700  1.00  0.00     0.167 HD
ATOM     69  C   UNL A   1      43.213  33.258  29.800  1.00  0.00     0.074 A 
ATOM     70  C   UNL A   1      44.639  33.241  29.534  1.00  0.00     0.031 C 
ATOM     71  C   UNL A   1      42.268  34.243  29.841  1.00  0.00     0.037 A 
BRANCH  58  72
ATOM     72  C   UNL A   1      36.174  33.481  30.143  1.00  0.00     0.064 A 
ATOM     73  C   UNL A   1      35.357  34.058  29.144  1.00  0.00     0.173 A 
ATOM     74  C   UNL A   1      35.636  33.542  31.441  1.00  0.00     0.173 A 
ATOM     75  F   UNL A   1      35.662  33.960  27.844  1.00  0.00    -0.203 F 
ATOM     76  C   UNL A   1      34.187  34.762  29.441  1.00  0.00     0.198 A 
ATOM     77  C   UNL A   1      34.495  34.294  31.747  1.00  0.00     0.198 A 
ATOM     78  F   UNL A   1      36.161  32.827  32.445  1.00  0.00    -0.203 F 
ATOM     79  F   UNL A   1      33.466  35.302  28.448  1.00  0.00    -0.200 F 
ATOM     80  C   UNL A   1      33.780  34.919  30.748  1.00  0.00     0.200 A 
ATOM     81  F   UNL A   1      34.096  34.405  33.023  1.00  0.00    -0.200 F 
ATOM     82  F   UNL A   1      32.689  35.640  31.040  1.00  0.00    -0.200 F 
ENDBRANCH  58  72
BRANCH  59  83
ATOM     83  C   UNL A   1      44.546  28.767  29.020  1.00  0.00     0.064 A 
ATOM     84  C   UNL A   1      45.315  27.690  29.498  1.00  0.00     0.173 A 
ATOM     85  C   UNL A   1      44.066  28.689  27.707  1.00  0.00     0.173 A 
ATOM     86  F   UNL A   1      45.794  27.715  30.752  1.00  0.00    -0.203 F 
ATOM     87  C   UNL A   1      45.500  26.537  28.737  1.00  0.00     0.198 A 
ATOM     88  C   UNL A   1      44.262  27.536  26.944  1.00  0.00     0.198 A 
ATOM     89  F   UNL A   1      43.307  29.673  27.203  1.00  0.00    -0.203 F 
ATOM     90  F   UNL A   1      46.146  25.487  29.262  1.00  0.00    -0.200 F 
ATOM     91  C   UNL A   1      44.948  26.451  27.470  1.00  0.00     0.200 A 
ATOM     92  F   UNL A   1      43.703  27.439  25.728  1.00  0.00    -0.200 F 
ATOM     93  F   UNL A   1      45.043  25.310  26.773  1.00  0.00    -0.200 F 
ENDBRANCH  59  83
BRANCH  71  94
ATOM     94  C   UNL A   1      42.459  35.678  29.419  1.00  0.00     0.064 A 
ATOM     95  C   UNL A   1      43.221  36.611  30.141  1.00  0.00     0.173 A 
ATOM     96  C   UNL A   1      41.988  36.117  28.157  1.00  0.00     0.173 A 
ATOM     97  F   UNL A   1      43.812  36.281  31.296  1.00  0.00    -0.203 F 
ATOM     98  C   UNL A   1      43.450  37.904  29.661  1.00  0.00     0.198 A 
ATOM     99  C   UNL A   1      42.266  37.388  27.658  1.00  0.00     0.198 A 
ATOM    100  F   UNL A   1      41.266  35.314  27.361  1.00  0.00    -0.203 F 
ATOM    101  F   UNL A   1      44.154  38.770  30.402  1.00  0.00    -0.200 F 
ATOM    102  C   UNL A   1      42.985  38.288  28.416  1.00  0.00     0.200 A 
ATOM    103  F   UNL A   1      41.850  37.727  26.429  1.00  0.00    -0.200 F 
ATOM    104  F   UNL A   1      43.249  39.511  27.941  1.00  0.00    -0.200 F 
ENDBRANCH  71  94
ENDBRANCH  45  46
ENDBRANCH  37  40
ENDBRANCH  35  36
ENDBRANCH  34  35
ENDBRANCH  33  34
ENDBRANCH  32  33
ENDBRANCH   1  32
TORSDOF 18
ENDMDL
MODEL 2
REMARK VINA RESULT:     -14.1      3.708     10.581
REMARK SMILES Cc1cccc(O[C@H](C)C(=O)NNC(=O)[C@H]2[C@@H]3CC[C@@H](C3)[C@@H]2C(=O)NCCCCCCNC(=O)c2ccc(-c3c4nc(c(-c5c(F)c(F)c(F)c(F)c5F)c5ccc([nH]5)c(-c5c(F)c(F)c(F)c(F)c5F)c5nc(c(-c6c(F)c(F)c(F)c(F)c6F)c6ccc3[nH]6)C=C5)C=C4)cc2)c1
REMARK SMILES IDX 27 1 26 2 25 3 23 4 24 5 22 7 16 8 17 9 18 10 21 11 20 12
REMARK SMILES IDX 19 13 14 14 13 15 15 17 12 18 10 19 11 20 8 22 9 23 7 24
REMARK SMILES IDX 6 25 1 26 2 27 3 28 98 29 4 30 5 31 28 32 29 33 30 34 31 35
REMARK SMILES IDX 32 36 33 37 34 39 35 40 36 41 97 42 37 43 96 44 38 45 39 46
REMARK SMILES IDX 40 47 90 48 41 49 95 50 89 51 91 52 42 53 94 54 88 55 87 56
REMARK SMILES IDX 43 58 75 59 55 60 74 61 56 62 59 63 73 64 92 65 57 66 58 67
REMARK SMILES IDX 72 69 93 70 60 71 44 72 45 73 53 74 46 75 47 76 51 77 54 78
REMARK SMILES IDX 48 79 49 80 52 81 50 82 76 83 77 84 85 85 78 86 79 87 83 88
REMARK SMILES IDX 86 89 80 90 81 91 84 92 82 93 61 94 62 95 70 96 63 97 64 98
REMARK SMILES IDX 68 99 71 100 65 101 66 102 69 103 67 104
REMARK H PARENT 25 6 13 16 12 21 32 38 91 57 59 68
REMARK Flexibility Score: inf
ROOT
ATOM      1  C   UNL A   1      31.157  27.420  26.850  1.00  0.00     0.021 C 
ENDROOT
BRANCH   1   2
ATOM      2  C   UNL A   1      32.076  26.270  26.438  1.00  0.00     0.116 C 
BRANCH   2   3
ATOM      3  N   UNL A   1      31.484  24.971  26.696  1.00  0.00    -0.356 N 
ATOM      4  C   UNL A   1      31.846  23.746  26.212  1.00  0.00     0.224 C 
ATOM      5  O   UNL A   1      31.209  22.756  26.560  1.00  0.00    -0.275 OA
ATOM      6  H   UNL A   1      30.713  24.973  27.308  1.00  0.00     0.163 HD
BRANCH   4   7
ATOM      7  C   UNL A   1      33.035  23.685  25.269  1.00  0.00     0.094 C 
ATOM      8  C   UNL A   1      32.796  22.918  23.964  1.00  0.00     0.096 C 
ATOM      9  C   UNL A   1      33.988  21.931  23.906  1.00  0.00     0.002 C 
ATOM     10  C   UNL A   1      33.708  20.799  24.918  1.00  0.00     0.005 C 
ATOM     11  C   UNL A   1      35.114  22.665  24.631  1.00  0.00     0.009 C 
ATOM     12  C   UNL A   1      34.261  22.947  25.871  1.00  0.00     0.002 C 
ATOM     13  C   UNL A   1      33.894  21.503  26.275  1.00  0.00     0.005 C 
BRANCH   8  14
ATOM     14  C   UNL A   1      32.590  23.734  22.689  1.00  0.00     0.242 C 
ATOM     15  N   UNL A   1      31.580  24.625  22.457  1.00  0.00    -0.267 N 
ATOM     16  H   UNL A   1      31.560  25.006  21.551  1.00  0.00     0.191 HD
ATOM     17  O   UNL A   1      33.425  23.616  21.780  1.00  0.00    -0.273 OA
BRANCH  15  18
ATOM     18  N   UNL A   1      30.589  25.065  23.298  1.00  0.00    -0.264 N 
ATOM     19  C   UNL A   1      30.068  26.316  23.420  1.00  0.00     0.279 C 
ATOM     20  O   UNL A   1      29.011  26.376  24.069  1.00  0.00    -0.269 OA
ATOM     21  H   UNL A   1      30.203  24.383  23.894  1.00  0.00     0.191 HD
BRANCH  19  22
ATOM     22  C   UNL A   1      30.732  27.636  22.932  1.00  0.00     0.260 C 
ATOM     23  C   UNL A   1      32.257  27.484  22.860  1.00  0.00     0.064 C 
BRANCH  22  24
ATOM     24  O   UNL A   1      30.169  28.590  22.059  1.00  0.00    -0.481 OA
BRANCH  24  25
ATOM     25  C   UNL A   1      29.570  29.748  22.423  1.00  0.00     0.120 A 
ATOM     26  C   UNL A   1      27.792  32.426  20.365  1.00  0.00     0.044 C 
ATOM     27  C   UNL A   1      28.391  31.687  21.524  1.00  0.00    -0.047 A 
ATOM     28  C   UNL A   1      28.401  32.268  22.794  1.00  0.00     0.003 A 
ATOM     29  C   UNL A   1      28.971  30.426  21.354  1.00  0.00     0.049 A 
ATOM     30  C   UNL A   1      28.954  31.581  23.872  1.00  0.00     0.004 A 
ATOM     31  C   UNL A   1      29.520  30.316  23.692  1.00  0.00     0.046 A 
ENDBRANCH  24  25
ENDBRANCH  22  24
ENDBRANCH  19  22
ENDBRANCH  15  18
ENDBRANCH   8  14
ENDBRANCH   4   7
ENDBRANCH   2   3
ENDBRANCH   1   2
BRANCH   1  32
ATOM     32  C   UNL A   1      31.860  28.625  27.491  1.00  0.00     0.002 C 
BRANCH  32  33
ATOM     33  C   UNL A   1      31.860  29.928  26.677  1.00  0.00     0.002 C 
BRANCH  33  34
ATOM     34  C   UNL A   1      32.897  30.978  27.086  1.00  0.00     0.021 C 
BRANCH  34  35
ATOM     35  C   UNL A   1      34.155  30.401  27.720  1.00  0.00     0.116 C 
BRANCH  35  36
ATOM     36  N   UNL A   1      34.886  31.350  28.534  1.00  0.00    -0.352 N 
ATOM     37  C   UNL A   1      36.090  31.180  29.218  1.00  0.00     0.251 C 
ATOM     38  H   UNL A   1      34.473  32.240  28.618  1.00  0.00     0.163 HD
ATOM     39  O   UNL A   1      36.550  32.084  29.890  1.00  0.00    -0.269 OA
BRANCH  37  40
ATOM     40  C   UNL A   1      36.857  29.935  29.002  1.00  0.00     0.039 A 
ATOM     41  C   UNL A   1      37.068  29.102  30.108  1.00  0.00     0.014 A 
ATOM     42  C   UNL A   1      37.530  29.702  27.807  1.00  0.00     0.014 A 
ATOM     43  C   UNL A   1      38.134  28.205  30.092  1.00  0.00     0.010 A 
ATOM     44  C   UNL A   1      38.648  28.891  27.822  1.00  0.00     0.010 A 
ATOM     45  C   UNL A   1      38.988  28.200  28.990  1.00  0.00    -0.014 A 
BRANCH  45  46
ATOM     46  C   UNL A   1      40.329  27.626  29.029  1.00  0.00     0.031 A 
ATOM     47  C   UNL A   1      40.567  26.218  28.652  1.00  0.00     0.074 A 
ATOM     48  C   UNL A   1      41.375  28.437  29.306  1.00  0.00     0.049 A 
ATOM     49  N   UNL A   1      41.601  25.533  29.013  1.00  0.00    -0.248 NA
ATOM     50  C   UNL A   1      39.623  25.449  27.851  1.00  0.00     0.031 C 
ATOM     51  C   UNL A   1      42.792  28.156  29.096  1.00  0.00     0.029 A 
ATOM     52  N   UNL A   1      41.362  29.645  30.027  1.00  0.00    -0.354 N 
ATOM     53  C   UNL A   1      41.606  24.362  28.288  1.00  0.00     0.074 A 
ATOM     54  C   UNL A   1      40.321  24.331  27.629  1.00  0.00     0.031 C 
ATOM     55  C   UNL A   1      43.515  28.956  29.896  1.00  0.00     0.029 A 
ATOM     56  C   UNL A   1      42.578  29.669  30.747  1.00  0.00     0.049 A 
ATOM     57  H   UNL A   1      40.655  30.331  30.029  1.00  0.00     0.167 HD
ATOM     58  C   UNL A   1      42.754  23.623  28.223  1.00  0.00     0.037 A 
ATOM     59  C   UNL A   1      42.602  29.656  32.110  1.00  0.00     0.037 A 
ATOM     60  C   UNL A   1      43.803  24.202  29.062  1.00  0.00     0.049 A 
ATOM     61  C   UNL A   1      43.348  28.486  32.706  1.00  0.00     0.074 A 
ATOM     62  C   UNL A   1      44.883  25.022  28.777  1.00  0.00     0.029 A 
ATOM     63  N   UNL A   1      43.652  24.216  30.444  1.00  0.00    -0.354 N 
ATOM     64  N   UNL A   1      43.624  27.395  32.050  1.00  0.00    -0.248 NA
ATOM     65  C   UNL A   1      43.804  28.435  34.093  1.00  0.00     0.031 C 
ATOM     66  C   UNL A   1      45.357  25.567  29.994  1.00  0.00     0.029 A 
ATOM     67  C   UNL A   1      44.575  25.066  31.020  1.00  0.00     0.049 A 
ATOM     68  H   UNL A   1      42.982  23.694  30.941  1.00  0.00     0.167 HD
ATOM     69  C   UNL A   1      44.251  26.507  32.885  1.00  0.00     0.074 A 
ATOM     70  C   UNL A   1      44.359  27.212  34.148  1.00  0.00     0.031 C 
ATOM     71  C   UNL A   1      44.617  25.261  32.460  1.00  0.00     0.037 A 
BRANCH  58  72
ATOM     72  C   UNL A   1      43.023  22.569  27.167  1.00  0.00     0.064 A 
ATOM     73  C   UNL A   1      42.299  21.355  27.151  1.00  0.00     0.173 A 
ATOM     74  C   UNL A   1      44.021  22.664  26.181  1.00  0.00     0.173 A 
ATOM     75  F   UNL A   1      41.230  21.163  27.933  1.00  0.00    -0.203 F 
ATOM     76  C   UNL A   1      42.647  20.281  26.327  1.00  0.00     0.198 A 
ATOM     77  C   UNL A   1      44.407  21.572  25.394  1.00  0.00     0.198 A 
ATOM     78  F   UNL A   1      44.615  23.831  25.904  1.00  0.00    -0.203 F 
ATOM     79  F   UNL A   1      41.931  19.148  26.373  1.00  0.00    -0.200 F 
ATOM     80  C   UNL A   1      43.730  20.374  25.480  1.00  0.00     0.200 A 
ATOM     81  F   UNL A   1      45.443  21.694  24.551  1.00  0.00    -0.200 F 
ATOM     82  F   UNL A   1      44.099  19.327  24.729  1.00  0.00    -0.200 F 
ENDBRANCH  58  72
BRANCH  59  83
ATOM     83  C   UNL A   1      41.428  30.322  32.726  1.00  0.00     0.064 A 
ATOM     84  C   UNL A   1      41.377  31.729  32.714  1.00  0.00     0.173 A 
ATOM     85  C   UNL A   1      40.232  29.632  32.960  1.00  0.00     0.173 A 
ATOM     86  F   UNL A   1      42.496  32.436  32.489  1.00  0.00    -0.203 F 
ATOM     87  C   UNL A   1      40.167  32.411  32.818  1.00  0.00     0.198 A 
ATOM     88  C   UNL A   1      39.022  30.321  33.074  1.00  0.00     0.198 A 
ATOM     89  F   UNL A   1      40.212  28.291  32.960  1.00  0.00    -0.203 F 
ATOM     90  F   UNL A   1      40.140  33.745  32.695  1.00  0.00    -0.200 F 
ATOM     91  C   UNL A   1      38.986  31.704  32.970  1.00  0.00     0.200 A 
ATOM     92  F   UNL A   1      37.875  29.636  33.191  1.00  0.00    -0.200 F 
ATOM     93  F   UNL A   1      37.813  32.351  32.975  1.00  0.00    -0.200 F 
ENDBRANCH  59  83
BRANCH  71  94
ATOM     94  C   UNL A   1      45.126  24.139  33.328  1.00  0.00     0.064 A 
ATOM     95  C   UNL A   1      44.374  22.999  33.655  1.00  0.00     0.173 A 
ATOM     96  C   UNL A   1      46.483  24.116  33.736  1.00  0.00     0.173 A 
ATOM     97  F   UNL A   1      43.113  22.854  33.231  1.00  0.00    -0.203 F 
ATOM     98  C   UNL A   1      44.923  21.939  34.383  1.00  0.00     0.198 A 
ATOM     99  C   UNL A   1      47.040  23.032  34.413  1.00  0.00     0.198 A 
ATOM    100  F   UNL A   1      47.313  25.134  33.467  1.00  0.00    -0.203 F 
ATOM    101  F   UNL A   1      44.154  20.888  34.701  1.00  0.00    -0.200 F 
ATOM    102  C   UNL A   1      46.256  21.949  34.749  1.00  0.00     0.200 A 
ATOM    103  F   UNL A   1      48.346  23.036  34.718  1.00  0.00    -0.200 F 
ATOM    104  F   UNL A   1      46.787  20.909  35.404  1.00  0.00    -0.200 F 
ENDBRANCH  71  94
ENDBRANCH  45  46
ENDBRANCH  37  40
ENDBRANCH  35  36
ENDBRANCH  34  35
ENDBRANCH  33  34
ENDBRANCH  32  33
ENDBRANCH   1  32
TORSDOF 18
ENDMDL
MODEL 3
REMARK VINA RESULT:     -13.7      3.742      9.659
REMARK SMILES Cc1cccc(O[C@H](C)C(=O)NNC(=O)[C@H]2[C@@H]3CC[C@@H](C3)[C@@H]2C(=O)NCCCCCCNC(=O)c2ccc(-c3c4nc(c(-c5c(F)c(F)c(F)c(F)c5F)c5ccc([nH]5)c(-c5c(F)c(F)c(F)c(F)c5F)c5nc(c(-c6c(F)c(F)c(F)c(F)c6F)c6ccc3[nH]6)C=C5)C=C4)cc2)c1
REMARK SMILES IDX 27 1 26 2 25 3 23 4 24 5 22 7 16 8 17 9 18 10 21 11 20 12
REMARK SMILES IDX 19 13 14 14 13 15 15 17 12 18 10 19 11 20 8 22 9 23 7 24
REMARK SMILES IDX 6 25 1 26 2 27 3 28 98 29 4 30 5 31 28 32 29 33 30 34 31 35
REMARK SMILES IDX 32 36 33 37 34 39 35 40 36 41 97 42 37 43 96 44 38 45 39 46
REMARK SMILES IDX 40 47 90 48 41 49 95 50 89 51 91 52 42 53 94 54 88 55 87 56
REMARK SMILES IDX 43 58 75 59 55 60 74 61 56 62 59 63 73 64 92 65 57 66 58 67
REMARK SMILES IDX 72 69 93 70 60 71 44 72 45 73 53 74 46 75 47 76 51 77 54 78
REMARK SMILES IDX 48 79 49 80 52 81 50 82 76 83 77 84 85 85 78 86 79 87 83 88
REMARK SMILES IDX 86 89 80 90 81 91 84 92 82 93 61 94 62 95 70 96 63 97 64 98
REMARK SMILES IDX 68 99 71 100 65 101 66 102 69 103 67 104
REMARK H PARENT 25 6 13 16 12 21 32 38 91 57 59 68
REMARK Flexibility Score: inf
ROOT
ATOM      1  C   UNL A   1      30.942  27.099  26.749  1.00  0.00     0.021 C 
ENDROOT
BRANCH   1   2
ATOM      2  C   UNL A   1      31.502  25.680  26.657  1.00  0.00     0.116 C 
BRANCH   2   3
ATOM      3  N   UNL A   1      32.927  25.666  26.383  1.00  0.00    -0.356 N 
ATOM      4  C   UNL A   1      33.574  25.594  25.181  1.00  0.00     0.224 C 
ATOM      5  O   UNL A   1      34.801  25.600  25.164  1.00  0.00    -0.275 OA
ATOM      6  H   UNL A   1      33.509  25.718  27.174  1.00  0.00     0.163 HD
BRANCH   4   7
ATOM      7  C   UNL A   1      32.721  25.521  23.926  1.00  0.00     0.094 C 
ATOM      8  C   UNL A   1      33.467  25.107  22.653  1.00  0.00     0.096 C 
ATOM      9  C   UNL A   1      33.074  26.206  21.635  1.00  0.00     0.002 C 
ATOM     10  C   UNL A   1      33.870  27.480  21.990  1.00  0.00     0.005 C 
ATOM     11  C   UNL A   1      31.675  26.634  22.073  1.00  0.00     0.009 C 
ATOM     12  C   UNL A   1      32.101  26.885  23.522  1.00  0.00     0.002 C 
ATOM     13  C   UNL A   1      33.200  27.946  23.295  1.00  0.00     0.005 C 
BRANCH   8  14
ATOM     14  C   UNL A   1      33.270  23.679  22.147  1.00  0.00     0.242 C 
ATOM     15  N   UNL A   1      33.022  22.579  22.919  1.00  0.00    -0.267 N 
ATOM     16  H   UNL A   1      32.996  21.724  22.432  1.00  0.00     0.191 HD
ATOM     17  O   UNL A   1      33.303  23.484  20.924  1.00  0.00    -0.273 OA
BRANCH  15  18
ATOM     18  N   UNL A   1      32.805  22.486  24.271  1.00  0.00    -0.264 N 
ATOM     19  C   UNL A   1      33.599  21.933  25.226  1.00  0.00     0.279 C 
ATOM     20  O   UNL A   1      33.282  22.217  26.393  1.00  0.00    -0.269 OA
ATOM     21  H   UNL A   1      31.958  22.873  24.593  1.00  0.00     0.191 HD
BRANCH  19  22
ATOM     22  C   UNL A   1      34.754  20.918  24.982  1.00  0.00     0.260 C 
ATOM     23  C   UNL A   1      34.196  19.522  24.679  1.00  0.00     0.064 C 
BRANCH  22  24
ATOM     24  O   UNL A   1      36.024  21.201  24.439  1.00  0.00    -0.481 OA
BRANCH  24  25
ATOM     25  C   UNL A   1      37.016  21.891  25.050  1.00  0.00     0.120 A 
ATOM     26  C   UNL A   1      40.383  20.763  26.450  1.00  0.00     0.044 C 
ATOM     27  C   UNL A   1      39.212  21.624  26.082  1.00  0.00    -0.047 A 
ATOM     28  C   UNL A   1      39.174  22.961  26.483  1.00  0.00     0.003 A 
ATOM     29  C   UNL A   1      38.132  21.104  25.361  1.00  0.00     0.049 A 
ATOM     30  C   UNL A   1      38.088  23.763  26.139  1.00  0.00     0.004 A 
ATOM     31  C   UNL A   1      37.020  23.236  25.408  1.00  0.00     0.046 A 
ENDBRANCH  24  25
ENDBRANCH  22  24
ENDBRANCH  19  22
ENDBRANCH  15  18
ENDBRANCH   8  14
ENDBRANCH   4   7
ENDBRANCH   2   3
ENDBRANCH   1   2
BRANCH   1  32
ATOM     32  C   UNL A   1      31.958  28.183  27.136  1.00  0.00     0.002 C 
BRANCH  32  33
ATOM     33  C   UNL A   1      31.776  29.557  26.474  1.00  0.00     0.002 C 
BRANCH  33  34
ATOM     34  C   UNL A   1      32.923  30.554  26.665  1.00  0.00     0.021 C 
BRANCH  34  35
ATOM     35  C   UNL A   1      34.027  30.067  27.593  1.00  0.00     0.116 C 
BRANCH  35  36
ATOM     36  N   UNL A   1      34.548  31.097  28.470  1.00  0.00    -0.352 N 
ATOM     37  C   UNL A   1      35.749  31.124  29.179  1.00  0.00     0.251 C 
ATOM     38  H   UNL A   1      33.972  31.887  28.581  1.00  0.00     0.163 HD
ATOM     39  O   UNL A   1      36.017  32.065  29.902  1.00  0.00    -0.269 OA
BRANCH  37  40
ATOM     40  C   UNL A   1      36.743  30.059  28.928  1.00  0.00     0.039 A 
ATOM     41  C   UNL A   1      36.938  29.102  29.932  1.00  0.00     0.014 A 
ATOM     42  C   UNL A   1      37.609  30.123  27.841  1.00  0.00     0.014 A 
ATOM     43  C   UNL A   1      38.134  28.390  29.974  1.00  0.00     0.010 A 
ATOM     44  C   UNL A   1      38.837  29.497  27.932  1.00  0.00     0.010 A 
ATOM     45  C   UNL A   1      39.124  28.689  29.037  1.00  0.00    -0.014 A 
BRANCH  45  46
ATOM     46  C   UNL A   1      40.524  28.324  29.221  1.00  0.00     0.031 A 
ATOM     47  C   UNL A   1      41.078  27.095  28.617  1.00  0.00     0.074 A 
ATOM     48  C   UNL A   1      41.343  29.192  29.858  1.00  0.00     0.049 A 
ATOM     49  N   UNL A   1      42.150  26.504  29.027  1.00  0.00    -0.248 NA
ATOM     50  C   UNL A   1      40.433  26.406  27.507  1.00  0.00     0.031 C 
ATOM     51  C   UNL A   1      42.803  29.179  29.877  1.00  0.00     0.029 A 
ATOM     52  N   UNL A   1      40.990  30.181  30.793  1.00  0.00    -0.354 N 
ATOM     53  C   UNL A   1      42.490  25.550  28.093  1.00  0.00     0.074 A 
ATOM     54  C   UNL A   1      41.354  25.486  27.202  1.00  0.00     0.031 C 
ATOM     55  C   UNL A   1      43.227  29.866  30.950  1.00  0.00     0.029 A 
ATOM     56  C   UNL A   1      42.051  30.213  31.727  1.00  0.00     0.049 A 
ATOM     57  H   UNL A   1      40.177  30.736  30.797  1.00  0.00     0.167 HD
ATOM     58  C   UNL A   1      43.751  25.023  28.105  1.00  0.00     0.037 A 
ATOM     59  C   UNL A   1      41.860  29.884  33.037  1.00  0.00     0.037 A 
ATOM     60  C   UNL A   1      44.526  25.536  29.234  1.00  0.00     0.049 A 
ATOM     61  C   UNL A   1      42.707  28.729  33.516  1.00  0.00     0.074 A 
ATOM     62  C   UNL A   1      45.465  26.549  29.341  1.00  0.00     0.029 A 
ATOM     63  N   UNL A   1      44.158  25.202  30.532  1.00  0.00    -0.354 N 
ATOM     64  N   UNL A   1      43.283  27.875  32.718  1.00  0.00    -0.248 NA
ATOM     65  C   UNL A   1      42.938  28.421  34.925  1.00  0.00     0.031 C 
ATOM     66  C   UNL A   1      45.630  26.856  30.713  1.00  0.00     0.029 A 
ATOM     67  C   UNL A   1      44.803  26.019  31.441  1.00  0.00     0.049 A 
ATOM     68  H   UNL A   1      43.527  24.486  30.771  1.00  0.00     0.167 HD
ATOM     69  C   UNL A   1      43.924  26.918  33.459  1.00  0.00     0.074 A 
ATOM     70  C   UNL A   1      43.696  27.314  34.836  1.00  0.00     0.031 C 
ATOM     71  C   UNL A   1      44.578  25.874  32.869  1.00  0.00     0.037 A 
BRANCH  58  72
ATOM     72  C   UNL A   1      44.376  24.298  26.929  1.00  0.00     0.064 A 
ATOM     73  C   UNL A   1      44.097  22.934  26.686  1.00  0.00     0.173 A 
ATOM     74  C   UNL A   1      45.305  24.869  26.043  1.00  0.00     0.173 A 
ATOM     75  F   UNL A   1      43.137  22.282  27.352  1.00  0.00    -0.203 F 
ATOM     76  C   UNL A   1      44.799  22.178  25.741  1.00  0.00     0.198 A 
ATOM     77  C   UNL A   1      46.048  24.103  25.136  1.00  0.00     0.198 A 
ATOM     78  F   UNL A   1      45.483  26.195  25.982  1.00  0.00    -0.203 F 
ATOM     79  F   UNL A   1      44.499  20.883  25.571  1.00  0.00    -0.200 F 
ATOM     80  C   UNL A   1      45.807  22.753  24.997  1.00  0.00     0.200 A 
ATOM     81  F   UNL A   1      47.001  24.689  24.396  1.00  0.00    -0.200 F 
ATOM     82  F   UNL A   1      46.517  22.018  24.131  1.00  0.00    -0.200 F 
ENDBRANCH  58  72
BRANCH  59  83
ATOM     83  C   UNL A   1      40.499  30.207  33.534  1.00  0.00     0.064 A 
ATOM     84  C   UNL A   1      40.208  31.546  33.854  1.00  0.00     0.173 A 
ATOM     85  C   UNL A   1      39.420  29.339  33.333  1.00  0.00     0.173 A 
ATOM     86  F   UNL A   1      41.208  32.420  34.052  1.00  0.00    -0.203 F 
ATOM     87  C   UNL A   1      38.898  32.021  33.863  1.00  0.00     0.198 A 
ATOM     88  C   UNL A   1      38.108  29.816  33.352  1.00  0.00     0.198 A 
ATOM     89  F   UNL A   1      39.633  28.057  33.001  1.00  0.00    -0.203 F 
ATOM     90  F   UNL A   1      38.661  33.324  34.067  1.00  0.00    -0.200 F 
ATOM     91  C   UNL A   1      37.850  31.160  33.584  1.00  0.00     0.200 A 
ATOM     92  F   UNL A   1      37.094  28.991  33.053  1.00  0.00    -0.200 F 
ATOM     93  F   UNL A   1      36.599  31.632  33.498  1.00  0.00    -0.200 F 
ENDBRANCH  59  83
BRANCH  71  94
ATOM     94  C   UNL A   1      45.144  24.666  33.572  1.00  0.00     0.064 A 
ATOM     95  C   UNL A   1      44.421  23.485  33.802  1.00  0.00     0.173 A 
ATOM     96  C   UNL A   1      46.521  24.617  33.903  1.00  0.00     0.173 A 
ATOM     97  F   UNL A   1      43.140  23.371  33.431  1.00  0.00    -0.203 F 
ATOM     98  C   UNL A   1      45.017  22.356  34.372  1.00  0.00     0.198 A 
ATOM     99  C   UNL A   1      47.123  23.470  34.418  1.00  0.00     0.198 A 
ATOM    100  F   UNL A   1      47.326  25.672  33.712  1.00  0.00    -0.203 F 
ATOM    101  F   UNL A   1      44.277  21.264  34.604  1.00  0.00    -0.200 F 
ATOM    102  C   UNL A   1      46.368  22.343  34.666  1.00  0.00     0.200 A 
ATOM    103  F   UNL A   1      48.444  23.459  34.653  1.00  0.00    -0.200 F 
ATOM    104  F   UNL A   1      46.944  21.242  35.166  1.00  0.00    -0.200 F 
ENDBRANCH  71  94
ENDBRANCH  45  46
ENDBRANCH  37  40
ENDBRANCH  35  36
ENDBRANCH  34  35
ENDBRANCH  33  34
ENDBRANCH  32  33
ENDBRANCH   1  32
TORSDOF 18
ENDMDL
