MODEL 1
REMARK VINA RESULT:     -11.6      0.000      0.000
REMARK SMILES Cc1cc(C(=O)N[C@@H](C)C(=O)NCCCCCCNC(=O)c2ccc(-c3c4nc(c(-c5c(F)c(F)c(F)c(F)c5F)c5ccc([nH]5)c(-c5c(F)c(F)c(F)c(F)c5F)c5nc(c(-c6c(F)c(F)c(F)c(F)c6F)c6ccc3[nH]6)C=C5)C=C4)cc2)cc(C)c1OC(F)F
REMARK SMILES IDX 14 1 13 2 12 3 10 4 11 5 8 7 9 8 7 9 5 10 6 11 4 13 1 14
REMARK SMILES IDX 2 15 3 16 88 17 86 18 85 19 87 20 89 21 90 22 91 23 92 24
REMARK SMILES IDX 15 25 16 26 17 27 18 28 19 29 20 30 21 32 22 33 23 34 84 35
REMARK SMILES IDX 24 36 83 37 25 38 26 39 27 40 77 41 28 42 82 43 76 44 78 45
REMARK SMILES IDX 29 46 81 47 75 48 74 49 30 51 62 52 42 53 61 54 43 55 46 56
REMARK SMILES IDX 60 57 79 58 44 59 45 60 59 62 80 63 47 64 31 65 32 66 40 67
REMARK SMILES IDX 33 68 34 69 38 70 41 71 35 72 36 73 39 74 37 75 63 76 64 77
REMARK SMILES IDX 72 78 65 79 66 80 70 81 73 82 67 83 68 84 71 85 69 86 48 87
REMARK SMILES IDX 49 88 57 89 50 90 51 91 55 92 58 93 52 94 53 95 56 96 54 97
REMARK H PARENT 12 6 7 12 19 31 78 50 46 61
REMARK Flexibility Score: inf
ROOT
ATOM      1  C   UNL A   1      30.178  25.890  25.754  1.00  0.00     0.021 C 
ENDROOT
BRANCH   1   2
ATOM      2  C   UNL A   1      30.275  25.645  24.252  1.00  0.00     0.116 C 
BRANCH   2   3
ATOM      3  N   UNL A   1      29.894  26.799  23.463  1.00  0.00    -0.354 N 
ATOM      4  C   UNL A   1      30.654  27.646  22.707  1.00  0.00     0.242 C 
ATOM      5  O   UNL A   1      30.063  28.475  22.007  1.00  0.00    -0.273 OA
ATOM      6  H   UNL A   1      28.932  27.007  23.473  1.00  0.00     0.163 HD
BRANCH   4   7
ATOM      7  C   UNL A   1      32.196  27.575  22.707  1.00  0.00     0.168 C 
ATOM      8  C   UNL A   1      32.852  28.950  22.755  1.00  0.00     0.041 C 
BRANCH   7   9
ATOM      9  N   UNL A   1      32.634  26.751  21.580  1.00  0.00    -0.341 N 
ATOM     10  C   UNL A   1      32.974  25.425  21.473  1.00  0.00     0.251 C 
ATOM     11  O   UNL A   1      33.137  24.980  20.336  1.00  0.00    -0.269 OA
ATOM     12  H   UNL A   1      32.699  27.245  20.730  1.00  0.00     0.164 HD
BRANCH  10  13
ATOM     13  C   UNL A   1      33.266  24.552  22.643  1.00  0.00     0.040 A 
ATOM     14  C   UNL A   1      32.432  20.936  23.352  1.00  0.00     0.048 C 
ATOM     15  C   UNL A   1      33.080  22.273  23.586  1.00  0.00    -0.008 A 
ATOM     16  C   UNL A   1      32.753  23.250  22.612  1.00  0.00     0.021 A 
ATOM     17  C   UNL A   1      34.021  22.613  24.572  1.00  0.00     0.131 A 
ATOM     18  C   UNL A   1      34.465  23.956  24.662  1.00  0.00    -0.008 A 
ATOM     19  C   UNL A   1      34.030  24.921  23.736  1.00  0.00     0.021 A 
ATOM     20  C   UNL A   1      35.495  24.403  25.672  1.00  0.00     0.048 C 
BRANCH  17  21
ATOM     21  O   UNL A   1      34.687  21.786  25.429  1.00  0.00    -0.434 OA
BRANCH  21  22
ATOM     22  C   UNL A   1      35.735  20.937  25.013  1.00  0.00     0.542 C 
ATOM     23  F   UNL A   1      35.264  19.726  24.638  1.00  0.00    -0.167 F 
ATOM     24  F   UNL A   1      36.392  21.507  23.977  1.00  0.00    -0.167 F 
ENDBRANCH  21  22
ENDBRANCH  17  21
ENDBRANCH  10  13
ENDBRANCH   7   9
ENDBRANCH   4   7
ENDBRANCH   2   3
ENDBRANCH   1   2
BRANCH   1  25
ATOM     25  C   UNL A   1      31.007  27.063  26.284  1.00  0.00     0.002 C 
BRANCH  25  26
ATOM     26  C   UNL A   1      32.527  26.905  26.184  1.00  0.00     0.002 C 
BRANCH  26  27
ATOM     27  C   UNL A   1      33.363  27.902  26.992  1.00  0.00     0.021 C 
BRANCH  27  28
ATOM     28  C   UNL A   1      34.124  28.943  26.176  1.00  0.00     0.116 C 
BRANCH  28  29
ATOM     29  N   UNL A   1      33.965  30.288  26.693  1.00  0.00    -0.352 N 
ATOM     30  C   UNL A   1      34.694  30.964  27.637  1.00  0.00     0.251 C 
ATOM     31  H   UNL A   1      33.214  30.795  26.307  1.00  0.00     0.163 HD
ATOM     32  O   UNL A   1      34.303  32.056  28.037  1.00  0.00    -0.269 OA
BRANCH  30  33
ATOM     33  C   UNL A   1      35.937  30.386  28.202  1.00  0.00     0.039 A 
ATOM     34  C   UNL A   1      37.128  30.565  27.492  1.00  0.00     0.014 A 
ATOM     35  C   UNL A   1      35.941  29.635  29.382  1.00  0.00     0.014 A 
ATOM     36  C   UNL A   1      38.322  30.034  27.984  1.00  0.00     0.010 A 
ATOM     37  C   UNL A   1      37.144  29.158  29.906  1.00  0.00     0.010 A 
ATOM     38  C   UNL A   1      38.346  29.347  29.208  1.00  0.00    -0.014 A 
BRANCH  38  39
ATOM     39  C   UNL A   1      39.631  28.838  29.755  1.00  0.00     0.031 A 
ATOM     40  C   UNL A   1      40.277  29.495  30.944  1.00  0.00     0.074 A 
ATOM     41  C   UNL A   1      40.228  27.786  29.160  1.00  0.00     0.049 A 
ATOM     42  N   UNL A   1      41.369  29.155  31.583  1.00  0.00    -0.248 NA
ATOM     43  C   UNL A   1      39.628  30.704  31.473  1.00  0.00     0.031 C 
ATOM     44  C   UNL A   1      39.738  27.103  27.962  1.00  0.00     0.029 A 
ATOM     45  N   UNL A   1      41.373  27.102  29.487  1.00  0.00    -0.354 N 
ATOM     46  C   UNL A   1      41.542  30.110  32.576  1.00  0.00     0.074 A 
ATOM     47  C   UNL A   1      40.471  31.070  32.429  1.00  0.00     0.031 C 
ATOM     48  C   UNL A   1      40.557  26.078  27.673  1.00  0.00     0.029 A 
ATOM     49  C   UNL A   1      41.639  26.045  28.651  1.00  0.00     0.049 A 
ATOM     50  H   UNL A   1      41.949  27.347  30.247  1.00  0.00     0.167 HD
ATOM     51  C   UNL A   1      42.498  30.169  33.535  1.00  0.00     0.037 A 
ATOM     52  C   UNL A   1      42.639  25.143  28.678  1.00  0.00     0.037 A 
ATOM     53  C   UNL A   1      43.540  29.190  33.705  1.00  0.00     0.049 A 
ATOM     54  C   UNL A   1      43.662  25.213  29.779  1.00  0.00     0.074 A 
ATOM     55  C   UNL A   1      44.495  29.111  34.705  1.00  0.00     0.029 A 
ATOM     56  N   UNL A   1      43.766  28.121  32.852  1.00  0.00    -0.354 N 
ATOM     57  N   UNL A   1      43.751  26.059  30.776  1.00  0.00    -0.248 NA
ATOM     58  C   UNL A   1      44.717  24.188  29.766  1.00  0.00     0.031 C 
ATOM     59  C   UNL A   1      45.327  28.019  34.432  1.00  0.00     0.029 A 
ATOM     60  C   UNL A   1      44.862  27.392  33.288  1.00  0.00     0.049 A 
ATOM     61  H   UNL A   1      43.229  27.909  32.055  1.00  0.00     0.167 HD
ATOM     62  C   UNL A   1      44.851  25.655  31.521  1.00  0.00     0.074 A 
ATOM     63  C   UNL A   1      45.382  24.473  30.875  1.00  0.00     0.031 C 
ATOM     64  C   UNL A   1      45.377  26.216  32.637  1.00  0.00     0.037 A 
BRANCH  51  65
ATOM     65  C   UNL A   1      42.464  31.325  34.492  1.00  0.00     0.064 A 
ATOM     66  C   UNL A   1      41.725  31.271  35.683  1.00  0.00     0.173 A 
ATOM     67  C   UNL A   1      43.237  32.470  34.248  1.00  0.00     0.173 A 
ATOM     68  F   UNL A   1      40.963  30.203  35.957  1.00  0.00    -0.203 F 
ATOM     69  C   UNL A   1      41.750  32.330  36.588  1.00  0.00     0.198 A 
ATOM     70  C   UNL A   1      43.280  33.515  35.167  1.00  0.00     0.198 A 
ATOM     71  F   UNL A   1      43.967  32.568  33.126  1.00  0.00    -0.203 F 
ATOM     72  F   UNL A   1      41.012  32.270  37.705  1.00  0.00    -0.200 F 
ATOM     73  C   UNL A   1      42.534  33.446  36.334  1.00  0.00     0.200 A 
ATOM     74  F   UNL A   1      44.048  34.586  34.928  1.00  0.00    -0.200 F 
ATOM     75  F   UNL A   1      42.569  34.455  37.215  1.00  0.00    -0.200 F 
ENDBRANCH  51  65
BRANCH  52  76
ATOM     76  C   UNL A   1      42.706  24.069  27.653  1.00  0.00     0.064 A 
ATOM     77  C   UNL A   1      42.202  22.788  27.918  1.00  0.00     0.173 A 
ATOM     78  C   UNL A   1      43.305  24.288  26.404  1.00  0.00     0.173 A 
ATOM     79  F   UNL A   1      41.639  22.524  29.107  1.00  0.00    -0.203 F 
ATOM     80  C   UNL A   1      42.321  21.759  26.987  1.00  0.00     0.198 A 
ATOM     81  C   UNL A   1      43.396  23.267  25.461  1.00  0.00     0.198 A 
ATOM     82  F   UNL A   1      43.799  25.497  26.099  1.00  0.00    -0.203 F 
ATOM     83  F   UNL A   1      41.881  20.530  27.290  1.00  0.00    -0.200 F 
ATOM     84  C   UNL A   1      42.915  22.000  25.757  1.00  0.00     0.200 A 
ATOM     85  F   UNL A   1      43.960  23.507  24.270  1.00  0.00    -0.200 F 
ATOM     86  F   UNL A   1      43.034  21.011  24.863  1.00  0.00    -0.200 F 
ENDBRANCH  52  76
BRANCH  64  87
ATOM     87  C   UNL A   1      46.573  25.539  33.240  1.00  0.00     0.064 A 
ATOM     88  C   UNL A   1      46.436  24.520  34.194  1.00  0.00     0.173 A 
ATOM     89  C   UNL A   1      47.871  25.910  32.854  1.00  0.00     0.173 A 
ATOM     90  F   UNL A   1      45.217  24.142  34.607  1.00  0.00    -0.203 F 
ATOM     91  C   UNL A   1      47.555  23.921  34.767  1.00  0.00     0.198 A 
ATOM     92  C   UNL A   1      48.986  25.287  33.407  1.00  0.00     0.198 A 
ATOM     93  F   UNL A   1      48.056  26.874  31.941  1.00  0.00    -0.203 F 
ATOM     94  F   UNL A   1      47.400  22.992  35.720  1.00  0.00    -0.200 F 
ATOM     95  C   UNL A   1      48.828  24.302  34.370  1.00  0.00     0.200 A 
ATOM     96  F   UNL A   1      50.216  25.647  33.014  1.00  0.00    -0.200 F 
ATOM     97  F   UNL A   1      49.904  23.727  34.925  1.00  0.00    -0.200 F 
ENDBRANCH  64  87
ENDBRANCH  38  39
ENDBRANCH  30  33
ENDBRANCH  28  29
ENDBRANCH  27  28
ENDBRANCH  26  27
ENDBRANCH  25  26
ENDBRANCH   1  25
TORSDOF 17
ENDMDL
MODEL 2
REMARK VINA RESULT:     -11.6      2.032      2.794
REMARK SMILES Cc1cc(C(=O)N[C@@H](C)C(=O)NCCCCCCNC(=O)c2ccc(-c3c4nc(c(-c5c(F)c(F)c(F)c(F)c5F)c5ccc([nH]5)c(-c5c(F)c(F)c(F)c(F)c5F)c5nc(c(-c6c(F)c(F)c(F)c(F)c6F)c6ccc3[nH]6)C=C5)C=C4)cc2)cc(C)c1OC(F)F
REMARK SMILES IDX 14 1 13 2 12 3 10 4 11 5 8 7 9 8 7 9 5 10 6 11 4 13 1 14
REMARK SMILES IDX 2 15 3 16 88 17 86 18 85 19 87 20 89 21 90 22 91 23 92 24
REMARK SMILES IDX 15 25 16 26 17 27 18 28 19 29 20 30 21 32 22 33 23 34 84 35
REMARK SMILES IDX 24 36 83 37 25 38 26 39 27 40 77 41 28 42 82 43 76 44 78 45
REMARK SMILES IDX 29 46 81 47 75 48 74 49 30 51 62 52 42 53 61 54 43 55 46 56
REMARK SMILES IDX 60 57 79 58 44 59 45 60 59 62 80 63 47 64 31 65 32 66 40 67
REMARK SMILES IDX 33 68 34 69 38 70 41 71 35 72 36 73 39 74 37 75 63 76 64 77
REMARK SMILES IDX 72 78 65 79 66 80 70 81 73 82 67 83 68 84 71 85 69 86 48 87
REMARK SMILES IDX 49 88 57 89 50 90 51 91 55 92 58 93 52 94 53 95 56 96 54 97
REMARK H PARENT 12 6 7 12 19 31 78 50 46 61
REMARK Flexibility Score: inf
ROOT
ATOM      1  C   UNL A   1      30.989  25.703  26.033  1.00  0.00     0.021 C 
ENDROOT
BRANCH   1   2
ATOM      2  C   UNL A   1      30.778  25.353  24.564  1.00  0.00     0.116 C 
BRANCH   2   3
ATOM      3  N   UNL A   1      30.191  26.437  23.801  1.00  0.00    -0.354 N 
ATOM      4  C   UNL A   1      30.764  27.322  22.933  1.00  0.00     0.242 C 
ATOM      5  O   UNL A   1      30.012  28.065  22.294  1.00  0.00    -0.273 OA
ATOM      6  H   UNL A   1      29.222  26.554  23.930  1.00  0.00     0.163 HD
BRANCH   4   7
ATOM      7  C   UNL A   1      32.293  27.396  22.737  1.00  0.00     0.168 C 
ATOM      8  C   UNL A   1      32.837  28.815  22.849  1.00  0.00     0.041 C 
BRANCH   7   9
ATOM      9  N   UNL A   1      32.645  26.725  21.484  1.00  0.00    -0.341 N 
ATOM     10  C   UNL A   1      32.950  25.422  21.180  1.00  0.00     0.251 C 
ATOM     11  O   UNL A   1      33.035  25.132  19.986  1.00  0.00    -0.269 OA
ATOM     12  H   UNL A   1      32.668  27.329  20.706  1.00  0.00     0.164 HD
BRANCH  10  13
ATOM     13  C   UNL A   1      33.295  24.396  22.202  1.00  0.00     0.040 A 
ATOM     14  C   UNL A   1      35.253  24.614  25.425  1.00  0.00     0.048 C 
ATOM     15  C   UNL A   1      34.380  23.971  24.384  1.00  0.00    -0.008 A 
ATOM     16  C   UNL A   1      34.101  24.804  23.270  1.00  0.00     0.021 A 
ATOM     17  C   UNL A   1      33.750  22.716  24.443  1.00  0.00     0.131 A 
ATOM     18  C   UNL A   1      33.013  22.264  23.319  1.00  0.00    -0.008 A 
ATOM     19  C   UNL A   1      32.853  23.084  22.188  1.00  0.00     0.021 A 
ATOM     20  C   UNL A   1      32.282  20.943  23.307  1.00  0.00     0.048 C 
BRANCH  17  21
ATOM     21  O   UNL A   1      33.643  21.872  25.509  1.00  0.00    -0.434 OA
BRANCH  21  22
ATOM     22  C   UNL A   1      32.812  22.141  26.619  1.00  0.00     0.542 C 
ATOM     23  F   UNL A   1      33.085  23.353  27.152  1.00  0.00    -0.167 F 
ATOM     24  F   UNL A   1      31.516  22.100  26.231  1.00  0.00    -0.167 F 
ENDBRANCH  21  22
ENDBRANCH  17  21
ENDBRANCH  10  13
ENDBRANCH   7   9
ENDBRANCH   4   7
ENDBRANCH   2   3
ENDBRANCH   1   2
BRANCH   1  25
ATOM     25  C   UNL A   1      32.199  26.592  26.331  1.00  0.00     0.002 C 
BRANCH  25  26
ATOM     26  C   UNL A   1      31.925  27.825  27.197  1.00  0.00     0.002 C 
BRANCH  26  27
ATOM     27  C   UNL A   1      31.573  29.112  26.445  1.00  0.00     0.021 C 
BRANCH  27  28
ATOM     28  C   UNL A   1      32.758  29.973  26.014  1.00  0.00     0.116 C 
BRANCH  28  29
ATOM     29  N   UNL A   1      32.590  31.371  26.360  1.00  0.00    -0.352 N 
ATOM     30  C   UNL A   1      33.291  32.154  27.242  1.00  0.00     0.251 C 
ATOM     31  H   UNL A   1      31.857  31.831  25.890  1.00  0.00     0.163 HD
ATOM     32  O   UNL A   1      32.894  33.288  27.492  1.00  0.00    -0.269 OA
BRANCH  30  33
ATOM     33  C   UNL A   1      34.509  31.644  27.916  1.00  0.00     0.039 A 
ATOM     34  C   UNL A   1      35.580  32.526  28.093  1.00  0.00     0.014 A 
ATOM     35  C   UNL A   1      34.632  30.314  28.327  1.00  0.00     0.014 A 
ATOM     36  C   UNL A   1      36.749  32.088  28.719  1.00  0.00     0.010 A 
ATOM     37  C   UNL A   1      35.775  29.893  29.009  1.00  0.00     0.010 A 
ATOM     38  C   UNL A   1      36.849  30.775  29.205  1.00  0.00    -0.014 A 
BRANCH  38  39
ATOM     39  C   UNL A   1      38.073  30.334  29.925  1.00  0.00     0.031 A 
ATOM     40  C   UNL A   1      38.334  30.771  31.340  1.00  0.00     0.074 A 
ATOM     41  C   UNL A   1      38.964  29.549  29.288  1.00  0.00     0.049 A 
ATOM     42  N   UNL A   1      39.322  30.444  32.137  1.00  0.00    -0.248 NA
ATOM     43  C   UNL A   1      37.376  31.715  31.936  1.00  0.00     0.031 C 
ATOM     44  C   UNL A   1      38.860  29.112  27.895  1.00  0.00     0.029 A 
ATOM     45  N   UNL A   1      40.130  28.975  29.729  1.00  0.00    -0.354 N 
ATOM     46  C   UNL A   1      39.111  31.149  33.314  1.00  0.00     0.074 A 
ATOM     47  C   UNL A   1      37.927  31.956  33.117  1.00  0.00     0.031 C 
ATOM     48  C   UNL A   1      39.898  28.311  27.606  1.00  0.00     0.029 A 
ATOM     49  C   UNL A   1      40.752  28.196  28.783  1.00  0.00     0.049 A 
ATOM     50  H   UNL A   1      40.487  29.108  30.637  1.00  0.00     0.167 HD
ATOM     51  C   UNL A   1      39.829  31.109  34.463  1.00  0.00     0.037 A 
ATOM     52  C   UNL A   1      41.879  27.464  28.862  1.00  0.00     0.037 A 
ATOM     53  C   UNL A   1      40.983  30.274  34.672  1.00  0.00     0.049 A 
ATOM     54  C   UNL A   1      42.631  27.410  30.163  1.00  0.00     0.074 A 
ATOM     55  C   UNL A   1      41.718  30.092  35.831  1.00  0.00     0.029 A 
ATOM     56  N   UNL A   1      41.572  29.482  33.698  1.00  0.00    -0.354 N 
ATOM     57  N   UNL A   1      42.359  27.997  31.303  1.00  0.00    -0.248 NA
ATOM     58  C   UNL A   1      43.842  26.577  30.192  1.00  0.00     0.031 C 
ATOM     59  C   UNL A   1      42.779  29.225  35.547  1.00  0.00     0.029 A 
ATOM     60  C   UNL A   1      42.678  28.832  34.223  1.00  0.00     0.049 A 
ATOM     61  H   UNL A   1      41.253  29.395  32.771  1.00  0.00     0.167 HD
ATOM     62  C   UNL A   1      43.346  27.584  32.189  1.00  0.00     0.074 A 
ATOM     63  C   UNL A   1      44.209  26.678  31.461  1.00  0.00     0.031 C 
ATOM     64  C   UNL A   1      43.524  27.930  33.487  1.00  0.00     0.037 A 
BRANCH  51  65
ATOM     65  C   UNL A   1      39.387  31.986  35.599  1.00  0.00     0.064 A 
ATOM     66  C   UNL A   1      38.491  31.528  36.575  1.00  0.00     0.173 A 
ATOM     67  C   UNL A   1      39.924  33.273  35.750  1.00  0.00     0.173 A 
ATOM     68  F   UNL A   1      37.945  30.307  36.471  1.00  0.00    -0.203 F 
ATOM     69  C   UNL A   1      38.137  32.333  37.655  1.00  0.00     0.198 A 
ATOM     70  C   UNL A   1      39.587  34.066  36.844  1.00  0.00     0.198 A 
ATOM     71  F   UNL A   1      40.790  33.756  34.847  1.00  0.00    -0.203 F 
ATOM     72  F   UNL A   1      37.255  31.887  38.560  1.00  0.00    -0.200 F 
ATOM     73  C   UNL A   1      38.691  33.597  37.794  1.00  0.00     0.200 A 
ATOM     74  F   UNL A   1      40.133  35.282  36.985  1.00  0.00    -0.200 F 
ATOM     75  F   UNL A   1      38.360  34.364  38.842  1.00  0.00    -0.200 F 
ENDBRANCH  51  65
BRANCH  52  76
ATOM     76  C   UNL A   1      42.350  26.686  27.686  1.00  0.00     0.064 A 
ATOM     77  C   UNL A   1      41.896  25.380  27.457  1.00  0.00     0.173 A 
ATOM     78  C   UNL A   1      43.287  27.217  26.788  1.00  0.00     0.173 A 
ATOM     79  F   UNL A   1      41.015  24.821  28.301  1.00  0.00    -0.203 F 
ATOM     80  C   UNL A   1      42.383  24.623  26.394  1.00  0.00     0.198 A 
ATOM     81  C   UNL A   1      43.751  26.471  25.707  1.00  0.00     0.198 A 
ATOM     82  F   UNL A   1      43.749  28.464  26.959  1.00  0.00    -0.203 F 
ATOM     83  F   UNL A   1      41.974  23.357  26.233  1.00  0.00    -0.200 F 
ATOM     84  C   UNL A   1      43.308  25.170  25.518  1.00  0.00     0.200 A 
ATOM     85  F   UNL A   1      44.636  27.007  24.856  1.00  0.00    -0.200 F 
ATOM     86  F   UNL A   1      43.781  24.441  24.499  1.00  0.00    -0.200 F 
ENDBRANCH  52  76
BRANCH  64  87
ATOM     87  C   UNL A   1      44.683  27.302  34.205  1.00  0.00     0.064 A 
ATOM     88  C   UNL A   1      44.560  26.069  34.860  1.00  0.00     0.173 A 
ATOM     89  C   UNL A   1      45.934  27.939  34.232  1.00  0.00     0.173 A 
ATOM     90  F   UNL A   1      43.381  25.428  34.877  1.00  0.00    -0.203 F 
ATOM     91  C   UNL A   1      45.636  25.512  35.548  1.00  0.00     0.198 A 
ATOM     92  C   UNL A   1      47.015  27.365  34.894  1.00  0.00     0.198 A 
ATOM     93  F   UNL A   1      46.107  29.118  33.615  1.00  0.00    -0.203 F 
ATOM     94  F   UNL A   1      45.477  24.363  36.217  1.00  0.00    -0.200 F 
ATOM     95  C   UNL A   1      46.863  26.158  35.560  1.00  0.00     0.200 A 
ATOM     96  F   UNL A   1      48.204  27.984  34.895  1.00  0.00    -0.200 F 
ATOM     97  F   UNL A   1      47.896  25.623  36.225  1.00  0.00    -0.200 F 
ENDBRANCH  64  87
ENDBRANCH  38  39
ENDBRANCH  30  33
ENDBRANCH  28  29
ENDBRANCH  27  28
ENDBRANCH  26  27
ENDBRANCH  25  26
ENDBRANCH   1  25
TORSDOF 17
ENDMDL
MODEL 3
REMARK VINA RESULT:     -11.4      2.687      4.235
REMARK SMILES Cc1cc(C(=O)N[C@@H](C)C(=O)NCCCCCCNC(=O)c2ccc(-c3c4nc(c(-c5c(F)c(F)c(F)c(F)c5F)c5ccc([nH]5)c(-c5c(F)c(F)c(F)c(F)c5F)c5nc(c(-c6c(F)c(F)c(F)c(F)c6F)c6ccc3[nH]6)C=C5)C=C4)cc2)cc(C)c1OC(F)F
REMARK SMILES IDX 14 1 13 2 12 3 10 4 11 5 8 7 9 8 7 9 5 10 6 11 4 13 1 14
REMARK SMILES IDX 2 15 3 16 88 17 86 18 85 19 87 20 89 21 90 22 91 23 92 24
REMARK SMILES IDX 15 25 16 26 17 27 18 28 19 29 20 30 21 32 22 33 23 34 84 35
REMARK SMILES IDX 24 36 83 37 25 38 26 39 27 40 77 41 28 42 82 43 76 44 78 45
REMARK SMILES IDX 29 46 81 47 75 48 74 49 30 51 62 52 42 53 61 54 43 55 46 56
REMARK SMILES IDX 60 57 79 58 44 59 45 60 59 62 80 63 47 64 31 65 32 66 40 67
REMARK SMILES IDX 33 68 34 69 38 70 41 71 35 72 36 73 39 74 37 75 63 76 64 77
REMARK SMILES IDX 72 78 65 79 66 80 70 81 73 82 67 83 68 84 71 85 69 86 48 87
REMARK SMILES IDX 49 88 57 89 50 90 51 91 55 92 58 93 52 94 53 95 56 96 54 97
REMARK H PARENT 12 6 7 12 19 31 78 50 46 61
REMARK Flexibility Score: inf
ROOT
ATOM      1  C   UNL A   1      31.803  28.593  27.238  1.00  0.00     0.021 C 
ENDROOT
BRANCH   1   2
ATOM      2  C   UNL A   1      31.908  27.437  26.249  1.00  0.00     0.116 C 
BRANCH   2   3
ATOM      3  N   UNL A   1      31.123  27.644  25.048  1.00  0.00    -0.354 N 
ATOM      4  C   UNL A   1      31.503  27.681  23.736  1.00  0.00     0.242 C 
ATOM      5  O   UNL A   1      30.610  27.728  22.884  1.00  0.00    -0.273 OA
ATOM      6  H   UNL A   1      30.161  27.782  25.203  1.00  0.00     0.163 HD
BRANCH   4   7
ATOM      7  C   UNL A   1      32.988  27.652  23.317  1.00  0.00     0.168 C 
ATOM      8  C   UNL A   1      33.648  29.024  23.379  1.00  0.00     0.041 C 
BRANCH   7   9
ATOM      9  N   UNL A   1      33.102  27.000  22.012  1.00  0.00    -0.341 N 
ATOM     10  C   UNL A   1      33.046  25.685  21.621  1.00  0.00     0.251 C 
ATOM     11  O   UNL A   1      33.003  25.464  20.409  1.00  0.00    -0.269 OA
ATOM     12  H   UNL A   1      33.247  27.629  21.268  1.00  0.00     0.164 HD
BRANCH  10  13
ATOM     13  C   UNL A   1      33.156  24.539  22.563  1.00  0.00     0.040 A 
ATOM     14  C   UNL A   1      36.129  22.529  23.744  1.00  0.00     0.048 C 
ATOM     15  C   UNL A   1      34.695  22.982  23.714  1.00  0.00    -0.008 A 
ATOM     16  C   UNL A   1      34.425  23.975  22.740  1.00  0.00     0.021 A 
ATOM     17  C   UNL A   1      33.658  22.613  24.586  1.00  0.00     0.131 A 
ATOM     18  C   UNL A   1      32.351  23.109  24.347  1.00  0.00    -0.008 A 
ATOM     19  C   UNL A   1      32.107  24.013  23.297  1.00  0.00     0.021 A 
ATOM     20  C   UNL A   1      31.184  22.787  25.248  1.00  0.00     0.048 C 
BRANCH  17  21
ATOM     21  O   UNL A   1      33.739  21.903  25.748  1.00  0.00    -0.434 OA
BRANCH  21  22
ATOM     22  C   UNL A   1      34.354  22.410  26.914  1.00  0.00     0.542 C 
ATOM     23  F   UNL A   1      34.300  23.760  26.948  1.00  0.00    -0.167 F 
ATOM     24  F   UNL A   1      33.735  21.905  28.005  1.00  0.00    -0.167 F 
ENDBRANCH  21  22
ENDBRANCH  17  21
ENDBRANCH  10  13
ENDBRANCH   7   9
ENDBRANCH   4   7
ENDBRANCH   2   3
ENDBRANCH   1   2
BRANCH   1  25
ATOM     25  C   UNL A   1      32.341  29.937  26.739  1.00  0.00     0.002 C 
BRANCH  25  26
ATOM     26  C   UNL A   1      31.335  30.829  26.007  1.00  0.00     0.002 C 
BRANCH  26  27
ATOM     27  C   UNL A   1      31.226  32.272  26.505  1.00  0.00     0.021 C 
BRANCH  27  28
ATOM     28  C   UNL A   1      32.516  32.888  27.041  1.00  0.00     0.116 C 
BRANCH  28  29
ATOM     29  N   UNL A   1      32.315  34.208  27.606  1.00  0.00    -0.352 N 
ATOM     30  C   UNL A   1      32.986  34.848  28.616  1.00  0.00     0.251 C 
ATOM     31  H   UNL A   1      31.581  34.726  27.202  1.00  0.00     0.163 HD
ATOM     32  O   UNL A   1      32.562  35.919  29.040  1.00  0.00    -0.269 OA
BRANCH  30  33
ATOM     33  C   UNL A   1      34.202  34.256  29.222  1.00  0.00     0.039 A 
ATOM     34  C   UNL A   1      34.039  33.353  30.278  1.00  0.00     0.014 A 
ATOM     35  C   UNL A   1      35.490  34.608  28.806  1.00  0.00     0.014 A 
ATOM     36  C   UNL A   1      35.157  32.774  30.882  1.00  0.00     0.010 A 
ATOM     37  C   UNL A   1      36.604  33.981  29.367  1.00  0.00     0.010 A 
ATOM     38  C   UNL A   1      36.449  33.063  30.417  1.00  0.00    -0.014 A 
BRANCH  38  39
ATOM     39  C   UNL A   1      37.630  32.396  31.025  1.00  0.00     0.031 A 
ATOM     40  C   UNL A   1      38.113  32.783  32.395  1.00  0.00     0.074 A 
ATOM     41  C   UNL A   1      38.281  31.446  30.325  1.00  0.00     0.049 A 
ATOM     42  N   UNL A   1      39.094  32.274  33.100  1.00  0.00    -0.248 NA
ATOM     43  C   UNL A   1      37.424  33.903  33.056  1.00  0.00     0.031 C 
ATOM     44  C   UNL A   1      37.952  31.027  28.962  1.00  0.00     0.029 A 
ATOM     45  N   UNL A   1      39.350  30.656  30.666  1.00  0.00    -0.354 N 
ATOM     46  C   UNL A   1      39.145  33.015  34.273  1.00  0.00     0.074 A 
ATOM     47  C   UNL A   1      38.128  34.039  34.170  1.00  0.00     0.031 C 
ATOM     48  C   UNL A   1      38.779  30.035  28.595  1.00  0.00     0.029 A 
ATOM     49  C   UNL A   1      39.709  29.762  29.686  1.00  0.00     0.049 A 
ATOM     50  H   UNL A   1      39.816  30.723  31.531  1.00  0.00     0.167 HD
ATOM     51  C   UNL A   1      39.954  32.844  35.346  1.00  0.00     0.037 A 
ATOM     52  C   UNL A   1      40.673  28.822  29.674  1.00  0.00     0.037 A 
ATOM     53  C   UNL A   1      40.937  31.799  35.465  1.00  0.00     0.049 A 
ATOM     54  C   UNL A   1      41.528  28.631  30.897  1.00  0.00     0.074 A 
ATOM     55  C   UNL A   1      41.736  31.484  36.550  1.00  0.00     0.029 A 
ATOM     56  N   UNL A   1      41.259  30.899  34.459  1.00  0.00    -0.354 N 
ATOM     57  N   UNL A   1      41.493  29.269  32.041  1.00  0.00    -0.248 NA
ATOM     58  C   UNL A   1      42.550  27.576  30.829  1.00  0.00     0.031 C 
ATOM     59  C   UNL A   1      42.573  30.422  36.188  1.00  0.00     0.029 A 
ATOM     60  C   UNL A   1      42.263  30.047  34.892  1.00  0.00     0.049 A 
ATOM     61  H   UNL A   1      40.836  30.869  33.571  1.00  0.00     0.167 HD
ATOM     62  C   UNL A   1      42.464  28.677  32.837  1.00  0.00     0.074 A 
ATOM     63  C   UNL A   1      43.055  27.612  32.053  1.00  0.00     0.031 C 
ATOM     64  C   UNL A   1      42.838  28.990  34.101  1.00  0.00     0.037 A 
BRANCH  51  65
ATOM     65  C   UNL A   1      39.810  33.798  36.495  1.00  0.00     0.064 A 
ATOM     66  C   UNL A   1      38.965  33.521  37.580  1.00  0.00     0.173 A 
ATOM     67  C   UNL A   1      40.580  34.969  36.545  1.00  0.00     0.173 A 
ATOM     68  F   UNL A   1      38.202  32.419  37.577  1.00  0.00    -0.203 F 
ATOM     69  C   UNL A   1      38.887  34.390  38.666  1.00  0.00     0.198 A 
ATOM     70  C   UNL A   1      40.519  35.823  37.643  1.00  0.00     0.198 A 
ATOM     71  F   UNL A   1      41.409  35.278  35.535  1.00  0.00    -0.203 F 
ATOM     72  F   UNL A   1      38.050  34.121  39.678  1.00  0.00    -0.200 F 
ATOM     73  C   UNL A   1      39.669  35.535  38.701  1.00  0.00     0.200 A 
ATOM     74  F   UNL A   1      41.285  36.921  37.682  1.00  0.00    -0.200 F 
ATOM     75  F   UNL A   1      39.604  36.360  39.754  1.00  0.00    -0.200 F 
ENDBRANCH  51  65
BRANCH  52  76
ATOM     76  C   UNL A   1      40.861  27.958  28.479  1.00  0.00     0.064 A 
ATOM     77  C   UNL A   1      41.666  28.373  27.409  1.00  0.00     0.173 A 
ATOM     78  C   UNL A   1      40.215  26.718  28.366  1.00  0.00     0.173 A 
ATOM     79  F   UNL A   1      42.288  29.561  27.462  1.00  0.00    -0.203 F 
ATOM     80  C   UNL A   1      41.793  27.597  26.260  1.00  0.00     0.198 A 
ATOM     81  C   UNL A   1      40.367  25.929  27.229  1.00  0.00     0.198 A 
ATOM     82  F   UNL A   1      39.437  26.273  29.364  1.00  0.00    -0.203 F 
ATOM     83  F   UNL A   1      42.523  28.045  25.229  1.00  0.00    -0.200 F 
ATOM     84  C   UNL A   1      41.147  26.374  26.171  1.00  0.00     0.200 A 
ATOM     85  F   UNL A   1      39.750  24.742  27.153  1.00  0.00    -0.200 F 
ATOM     86  F   UNL A   1      41.264  25.630  25.064  1.00  0.00    -0.200 F 
ENDBRANCH  52  76
BRANCH  64  87
ATOM     87  C   UNL A   1      43.918  28.152  34.719  1.00  0.00     0.064 A 
ATOM     88  C   UNL A   1      45.266  28.535  34.665  1.00  0.00     0.173 A 
ATOM     89  C   UNL A   1      43.601  26.954  35.380  1.00  0.00     0.173 A 
ATOM     90  F   UNL A   1      45.622  29.663  34.031  1.00  0.00    -0.203 F 
ATOM     91  C   UNL A   1      46.262  27.733  35.217  1.00  0.00     0.198 A 
ATOM     92  C   UNL A   1      44.596  26.171  35.957  1.00  0.00     0.198 A 
ATOM     93  F   UNL A   1      42.326  26.546  35.466  1.00  0.00    -0.203 F 
ATOM     94  F   UNL A   1      47.548  28.089  35.099  1.00  0.00    -0.200 F 
ATOM     95  C   UNL A   1      45.926  26.554  35.865  1.00  0.00     0.200 A 
ATOM     96  F   UNL A   1      44.269  25.038  36.594  1.00  0.00    -0.200 F 
ATOM     97  F   UNL A   1      46.885  25.781  36.393  1.00  0.00    -0.200 F 
ENDBRANCH  64  87
ENDBRANCH  38  39
ENDBRANCH  30  33
ENDBRANCH  28  29
ENDBRANCH  27  28
ENDBRANCH  26  27
ENDBRANCH  25  26
ENDBRANCH   1  25
TORSDOF 17
ENDMDL
