MODEL 1
REMARK VINA RESULT:     -12.1      0.000      0.000
REMARK SMILES O=C(Cc1csc(N2C(=O)C[C@H](Nc3cccc(F)c3)C2=O)n1)NCCCCCCNC(=O)c1ccc(-c2c3nc(c(-c4c(F)c(F)c(F)c(F)c4F)c4ccc([nH]4)c(-c4c(F)c(F)c(F)c(F)c4F)c4nc(c(-c5c(F)c(F)c(F)c(F)c5F)c5ccc2[nH]5)C=C4)C=C3)cc1
REMARK SMILES IDX 26 1 25 2 24 3 1 4 2 5 3 7 4 8 5 9 23 10 6 11 7 12 8 13 9 14
REMARK SMILES IDX 21 15 10 16 11 17 12 18 22 19 13 20 14 22 15 23 20 24 16 25
REMARK SMILES IDX 18 26 17 27 19 28 27 29 28 30 29 31 30 32 31 33 32 34 33 36
REMARK SMILES IDX 34 37 35 38 96 39 36 40 95 41 37 42 38 43 39 44 89 45 40 46
REMARK SMILES IDX 94 47 88 48 90 49 41 50 93 51 87 52 86 53 42 55 74 56 54 57
REMARK SMILES IDX 73 58 55 59 58 60 72 61 91 62 56 63 57 64 71 66 92 67 59 68
REMARK SMILES IDX 43 69 44 70 52 71 45 72 46 73 50 74 53 75 47 76 48 77 51 78
REMARK SMILES IDX 49 79 75 80 76 81 84 82 77 83 78 84 82 85 85 86 79 87 80 88
REMARK SMILES IDX 83 89 81 90 60 91 61 92 69 93 62 94 63 95 67 96 70 97 64 98
REMARK SMILES IDX 65 99 68 100 66 101
REMARK H PARENT 24 6 13 21 31 35 90 54 58 65
REMARK Flexibility Score: inf
ROOT
ATOM      1  C   UNL A   1      36.635  23.629  24.961  1.00  0.00     0.021 C 
ENDROOT
BRANCH   1   2
ATOM      2  C   UNL A   1      35.282  23.497  25.663  1.00  0.00     0.116 C 
BRANCH   2   3
ATOM      3  N   UNL A   1      34.248  24.239  24.979  1.00  0.00    -0.356 N 
ATOM      4  O   UNL A   1      33.331  22.462  23.858  1.00  0.00    -0.275 OA
ATOM      5  C   UNL A   1      33.355  23.667  24.102  1.00  0.00     0.226 C 
ATOM      6  H   UNL A   1      34.178  25.205  25.149  1.00  0.00     0.163 HD
BRANCH   5   7
ATOM      7  C   UNL A   1      32.487  24.651  23.337  1.00  0.00     0.157 C 
BRANCH   7   8
ATOM      8  C   UNL A   1      32.879  26.090  23.468  1.00  0.00     0.063 A 
ATOM      9  C   UNL A   1      33.463  26.851  22.474  1.00  0.00     0.093 A 
ATOM     10  N   UNL A   1      32.722  26.766  24.671  1.00  0.00    -0.224 NA
ATOM     11  S   UNL A   1      33.653  28.464  23.002  1.00  0.00    -0.104 S 
ATOM     12  C   UNL A   1      32.991  28.048  24.530  1.00  0.00     0.199 A 
BRANCH  12  13
ATOM     13  N   UNL A   1      32.843  29.012  25.505  1.00  0.00    -0.223 N 
ATOM     14  C   UNL A   1      31.794  29.892  25.473  1.00  0.00     0.238 C 
ATOM     15  C   UNL A   1      33.726  29.249  26.528  1.00  0.00     0.258 C 
ATOM     16  O   UNL A   1      30.868  29.971  24.682  1.00  0.00    -0.274 OA
ATOM     17  C   UNL A   1      31.871  30.769  26.687  1.00  0.00     0.136 C 
ATOM     18  C   UNL A   1      33.221  30.452  27.308  1.00  0.00     0.179 C 
ATOM     19  O   UNL A   1      34.777  28.675  26.788  1.00  0.00    -0.272 OA
BRANCH  18  20
ATOM     20  N   UNL A   1      34.112  31.611  27.191  1.00  0.00    -0.373 N 
ATOM     21  H   UNL A   1      34.706  31.702  26.411  1.00  0.00     0.161 HD
BRANCH  20  22
ATOM     22  C   UNL A   1      34.114  32.577  28.187  1.00  0.00     0.038 A 
ATOM     23  C   UNL A   1      34.690  32.349  29.444  1.00  0.00     0.026 A 
ATOM     24  C   UNL A   1      33.440  33.785  27.977  1.00  0.00     0.065 A 
ATOM     25  C   UNL A   1      34.618  33.312  30.458  1.00  0.00     0.005 A 
ATOM     26  C   UNL A   1      33.355  34.730  28.997  1.00  0.00     0.125 A 
ATOM     27  C   UNL A   1      33.941  34.506  30.235  1.00  0.00     0.039 A 
ATOM     28  F   UNL A   1      32.680  35.868  28.783  1.00  0.00    -0.207 F 
ENDBRANCH  20  22
ENDBRANCH  18  20
ENDBRANCH  12  13
ENDBRANCH   7   8
ENDBRANCH   5   7
ENDBRANCH   2   3
ENDBRANCH   1   2
BRANCH   1  29
ATOM     29  C   UNL A   1      37.096  22.376  24.205  1.00  0.00     0.002 C 
BRANCH  29  30
ATOM     30  C   UNL A   1      36.680  21.037  24.820  1.00  0.00     0.002 C 
BRANCH  30  31
ATOM     31  C   UNL A   1      37.791  19.993  24.947  1.00  0.00     0.021 C 
BRANCH  31  32
ATOM     32  C   UNL A   1      38.947  20.370  25.870  1.00  0.00     0.116 C 
BRANCH  32  33
ATOM     33  N   UNL A   1      39.985  19.355  25.922  1.00  0.00    -0.352 N 
ATOM     34  C   UNL A   1      41.339  19.483  26.111  1.00  0.00     0.251 C 
ATOM     35  H   UNL A   1      39.668  18.430  25.804  1.00  0.00     0.163 HD
ATOM     36  O   UNL A   1      42.067  18.500  25.992  1.00  0.00    -0.269 OA
BRANCH  34  37
ATOM     37  C   UNL A   1      41.942  20.800  26.425  1.00  0.00     0.039 A 
ATOM     38  C   UNL A   1      42.181  21.688  25.373  1.00  0.00     0.014 A 
ATOM     39  C   UNL A   1      42.296  21.156  27.730  1.00  0.00     0.014 A 
ATOM     40  C   UNL A   1      42.712  22.953  25.633  1.00  0.00     0.010 A 
ATOM     41  C   UNL A   1      42.769  22.442  27.997  1.00  0.00     0.010 A 
ATOM     42  C   UNL A   1      42.977  23.354  26.953  1.00  0.00    -0.014 A 
BRANCH  42  43
ATOM     43  C   UNL A   1      43.436  24.737  27.243  1.00  0.00     0.031 A 
ATOM     44  C   UNL A   1      42.506  25.749  27.847  1.00  0.00     0.074 A 
ATOM     45  C   UNL A   1      44.696  25.091  26.927  1.00  0.00     0.049 A 
ATOM     46  N   UNL A   1      42.742  26.996  28.173  1.00  0.00    -0.248 NA
ATOM     47  C   UNL A   1      41.125  25.313  28.102  1.00  0.00     0.031 C 
ATOM     48  C   UNL A   1      45.680  24.217  26.286  1.00  0.00     0.029 A 
ATOM     49  N   UNL A   1      45.366  26.276  27.101  1.00  0.00    -0.354 N 
ATOM     50  C   UNL A   1      41.544  27.492  28.667  1.00  0.00     0.074 A 
ATOM     51  C   UNL A   1      40.567  26.429  28.550  1.00  0.00     0.031 C 
ATOM     52  C   UNL A   1      46.838  24.883  26.156  1.00  0.00     0.029 A 
ATOM     53  C   UNL A   1      46.671  26.237  26.676  1.00  0.00     0.049 A 
ATOM     54  H   UNL A   1      44.951  27.078  27.493  1.00  0.00     0.167 HD
ATOM     55  C   UNL A   1      41.287  28.714  29.192  1.00  0.00     0.037 A 
ATOM     56  C   UNL A   1      47.630  27.182  26.708  1.00  0.00     0.037 A 
ATOM     57  C   UNL A   1      42.261  29.766  29.325  1.00  0.00     0.049 A 
ATOM     58  C   UNL A   1      47.323  28.528  27.296  1.00  0.00     0.074 A 
ATOM     59  C   UNL A   1      42.109  31.016  29.900  1.00  0.00     0.029 A 
ATOM     60  N   UNL A   1      43.570  29.694  28.871  1.00  0.00    -0.354 N 
ATOM     61  N   UNL A   1      46.203  28.965  27.817  1.00  0.00    -0.248 NA
ATOM     62  C   UNL A   1      48.414  29.513  27.305  1.00  0.00     0.031 C 
ATOM     63  C   UNL A   1      43.312  31.715  29.757  1.00  0.00     0.029 A 
ATOM     64  C   UNL A   1      44.229  30.884  29.132  1.00  0.00     0.049 A 
ATOM     65  H   UNL A   1      43.972  28.911  28.428  1.00  0.00     0.167 HD
ATOM     66  C   UNL A   1      46.452  30.269  28.221  1.00  0.00     0.074 A 
ATOM     67  C   UNL A   1      47.838  30.546  27.907  1.00  0.00     0.031 C 
ATOM     68  C   UNL A   1      45.604  31.156  28.797  1.00  0.00     0.037 A 
BRANCH  55  69
ATOM     69  C   UNL A   1      39.892  28.980  29.680  1.00  0.00     0.064 A 
ATOM     70  C   UNL A   1      39.536  28.709  31.010  1.00  0.00     0.173 A 
ATOM     71  C   UNL A   1      38.893  29.455  28.817  1.00  0.00     0.173 A 
ATOM     72  F   UNL A   1      40.451  28.247  31.875  1.00  0.00    -0.203 F 
ATOM     73  C   UNL A   1      38.231  28.905  31.456  1.00  0.00     0.198 A 
ATOM     74  C   UNL A   1      37.597  29.675  29.273  1.00  0.00     0.198 A 
ATOM     75  F   UNL A   1      39.185  29.737  27.538  1.00  0.00    -0.203 F 
ATOM     76  F   UNL A   1      37.908  28.620  32.725  1.00  0.00    -0.200 F 
ATOM     77  C   UNL A   1      37.265  29.392  30.589  1.00  0.00     0.200 A 
ATOM     78  F   UNL A   1      36.670  30.169  28.440  1.00  0.00    -0.200 F 
ATOM     79  F   UNL A   1      36.013  29.596  31.024  1.00  0.00    -0.200 F 
ENDBRANCH  55  69
BRANCH  56  80
ATOM     80  C   UNL A   1      48.988  26.854  26.206  1.00  0.00     0.064 A 
ATOM     81  C   UNL A   1      49.349  27.085  24.871  1.00  0.00     0.173 A 
ATOM     82  C   UNL A   1      49.934  26.253  27.046  1.00  0.00     0.173 A 
ATOM     83  F   UNL A   1      48.474  27.652  24.028  1.00  0.00    -0.203 F 
ATOM     84  C   UNL A   1      50.599  26.704  24.390  1.00  0.00     0.198 A 
ATOM     85  C   UNL A   1      51.192  25.893  26.569  1.00  0.00     0.198 A 
ATOM     86  F   UNL A   1      49.638  26.031  28.336  1.00  0.00    -0.203 F 
ATOM     87  F   UNL A   1      50.908  26.903  23.100  1.00  0.00    -0.200 F 
ATOM     88  C   UNL A   1      51.521  26.110  25.240  1.00  0.00     0.200 A 
ATOM     89  F   UNL A   1      52.086  25.336  27.398  1.00  0.00    -0.200 F 
ATOM     90  F   UNL A   1      52.724  25.746  24.777  1.00  0.00    -0.200 F 
ENDBRANCH  56  80
BRANCH  68  91
ATOM     91  C   UNL A   1      46.147  32.518  29.118  1.00  0.00     0.064 A 
ATOM     92  C   UNL A   1      46.077  33.555  28.177  1.00  0.00     0.173 A 
ATOM     93  C   UNL A   1      46.781  32.780  30.342  1.00  0.00     0.173 A 
ATOM     94  F   UNL A   1      45.486  33.355  26.990  1.00  0.00    -0.203 F 
ATOM     95  C   UNL A   1      46.632  34.805  28.447  1.00  0.00     0.198 A 
ATOM     96  C   UNL A   1      47.312  34.037  30.618  1.00  0.00     0.198 A 
ATOM     97  F   UNL A   1      46.860  31.823  31.279  1.00  0.00    -0.203 F 
ATOM     98  F   UNL A   1      46.576  35.775  27.525  1.00  0.00    -0.200 F 
ATOM     99  C   UNL A   1      47.243  35.045  29.668  1.00  0.00     0.200 A 
ATOM    100  F   UNL A   1      47.880  34.275  31.807  1.00  0.00    -0.200 F 
ATOM    101  F   UNL A   1      47.762  36.253  29.933  1.00  0.00    -0.200 F 
ENDBRANCH  68  91
ENDBRANCH  42  43
ENDBRANCH  34  37
ENDBRANCH  32  33
ENDBRANCH  31  32
ENDBRANCH  30  31
ENDBRANCH  29  30
ENDBRANCH   1  29
TORSDOF 17
ENDMDL
MODEL 2
REMARK VINA RESULT:     -12.0      2.195      7.724
REMARK SMILES O=C(Cc1csc(N2C(=O)C[C@H](Nc3cccc(F)c3)C2=O)n1)NCCCCCCNC(=O)c1ccc(-c2c3nc(c(-c4c(F)c(F)c(F)c(F)c4F)c4ccc([nH]4)c(-c4c(F)c(F)c(F)c(F)c4F)c4nc(c(-c5c(F)c(F)c(F)c(F)c5F)c5ccc2[nH]5)C=C4)C=C3)cc1
REMARK SMILES IDX 26 1 25 2 24 3 1 4 2 5 3 7 4 8 5 9 23 10 6 11 7 12 8 13 9 14
REMARK SMILES IDX 21 15 10 16 11 17 12 18 22 19 13 20 14 22 15 23 20 24 16 25
REMARK SMILES IDX 18 26 17 27 19 28 27 29 28 30 29 31 30 32 31 33 32 34 33 36
REMARK SMILES IDX 34 37 35 38 96 39 36 40 95 41 37 42 38 43 39 44 89 45 40 46
REMARK SMILES IDX 94 47 88 48 90 49 41 50 93 51 87 52 86 53 42 55 74 56 54 57
REMARK SMILES IDX 73 58 55 59 58 60 72 61 91 62 56 63 57 64 71 66 92 67 59 68
REMARK SMILES IDX 43 69 44 70 52 71 45 72 46 73 50 74 53 75 47 76 48 77 51 78
REMARK SMILES IDX 49 79 75 80 76 81 84 82 77 83 78 84 82 85 85 86 79 87 80 88
REMARK SMILES IDX 83 89 81 90 60 91 61 92 69 93 62 94 63 95 67 96 70 97 64 98
REMARK SMILES IDX 65 99 68 100 66 101
REMARK H PARENT 24 6 13 21 31 35 90 54 58 65
REMARK Flexibility Score: inf
ROOT
ATOM      1  C   UNL A   1      36.765  23.251  24.917  1.00  0.00     0.021 C 
ENDROOT
BRANCH   1   2
ATOM      2  C   UNL A   1      36.336  23.068  26.374  1.00  0.00     0.116 C 
BRANCH   2   3
ATOM      3  N   UNL A   1      34.940  23.387  26.565  1.00  0.00    -0.356 N 
ATOM      4  O   UNL A   1      34.384  21.495  27.734  1.00  0.00    -0.275 OA
ATOM      5  C   UNL A   1      34.053  22.560  27.217  1.00  0.00     0.226 C 
ATOM      6  H   UNL A   1      34.604  24.241  26.211  1.00  0.00     0.163 HD
BRANCH   5   7
ATOM      7  C   UNL A   1      32.597  22.985  27.129  1.00  0.00     0.157 C 
BRANCH   7   8
ATOM      8  C   UNL A   1      32.123  23.374  25.763  1.00  0.00     0.063 A 
ATOM      9  C   UNL A   1      31.718  22.493  24.779  1.00  0.00     0.093 A 
ATOM     10  N   UNL A   1      32.112  24.704  25.364  1.00  0.00    -0.224 NA
ATOM     11  S   UNL A   1      31.158  23.353  23.414  1.00  0.00    -0.104 S 
ATOM     12  C   UNL A   1      31.528  24.839  24.191  1.00  0.00     0.199 A 
BRANCH  12  13
ATOM     13  N   UNL A   1      31.269  26.034  23.555  1.00  0.00    -0.223 N 
ATOM     14  C   UNL A   1      32.288  26.807  23.064  1.00  0.00     0.238 C 
ATOM     15  C   UNL A   1      30.030  26.607  23.413  1.00  0.00     0.258 C 
ATOM     16  O   UNL A   1      33.491  26.601  23.065  1.00  0.00    -0.274 OA
ATOM     17  C   UNL A   1      31.692  28.002  22.380  1.00  0.00     0.136 C 
ATOM     18  C   UNL A   1      30.217  27.955  22.735  1.00  0.00     0.179 C 
ATOM     19  O   UNL A   1      28.941  26.193  23.793  1.00  0.00    -0.272 OA
BRANCH  18  20
ATOM     20  N   UNL A   1      29.875  29.078  23.615  1.00  0.00    -0.373 N 
ATOM     21  H   UNL A   1      30.017  29.006  24.587  1.00  0.00     0.161 HD
BRANCH  20  22
ATOM     22  C   UNL A   1      29.349  30.240  23.069  1.00  0.00     0.038 A 
ATOM     23  C   UNL A   1      29.290  31.441  23.789  1.00  0.00     0.026 A 
ATOM     24  C   UNL A   1      28.770  30.203  21.796  1.00  0.00     0.065 A 
ATOM     25  C   UNL A   1      28.692  32.583  23.244  1.00  0.00     0.005 A 
ATOM     26  C   UNL A   1      28.158  31.337  21.268  1.00  0.00     0.125 A 
ATOM     27  C   UNL A   1      28.116  32.528  21.978  1.00  0.00     0.039 A 
ATOM     28  F   UNL A   1      27.585  31.271  20.059  1.00  0.00    -0.207 F 
ENDBRANCH  20  22
ENDBRANCH  18  20
ENDBRANCH  12  13
ENDBRANCH   7   8
ENDBRANCH   5   7
ENDBRANCH   2   3
ENDBRANCH   1   2
BRANCH   1  29
ATOM     29  C   UNL A   1      36.809  21.960  24.089  1.00  0.00     0.002 C 
BRANCH  29  30
ATOM     30  C   UNL A   1      36.634  20.658  24.877  1.00  0.00     0.002 C 
BRANCH  30  31
ATOM     31  C   UNL A   1      37.846  19.725  24.893  1.00  0.00     0.021 C 
BRANCH  31  32
ATOM     32  C   UNL A   1      39.032  20.200  25.729  1.00  0.00     0.116 C 
BRANCH  32  33
ATOM     33  N   UNL A   1      40.091  19.210  25.825  1.00  0.00    -0.352 N 
ATOM     34  C   UNL A   1      41.430  19.369  26.086  1.00  0.00     0.251 C 
ATOM     35  H   UNL A   1      39.804  18.280  25.681  1.00  0.00     0.163 HD
ATOM     36  O   UNL A   1      42.187  18.406  25.994  1.00  0.00    -0.269 OA
BRANCH  34  37
ATOM     37  C   UNL A   1      41.982  20.696  26.445  1.00  0.00     0.039 A 
ATOM     38  C   UNL A   1      42.328  21.572  25.412  1.00  0.00     0.014 A 
ATOM     39  C   UNL A   1      42.187  21.075  27.775  1.00  0.00     0.014 A 
ATOM     40  C   UNL A   1      42.816  22.847  25.711  1.00  0.00     0.010 A 
ATOM     41  C   UNL A   1      42.616  22.369  28.074  1.00  0.00     0.010 A 
ATOM     42  C   UNL A   1      42.930  23.269  27.046  1.00  0.00    -0.014 A 
BRANCH  42  43
ATOM     43  C   UNL A   1      43.341  24.660  27.364  1.00  0.00     0.031 A 
ATOM     44  C   UNL A   1      44.744  25.129  27.111  1.00  0.00     0.074 A 
ATOM     45  C   UNL A   1      42.445  25.499  27.919  1.00  0.00     0.049 A 
ATOM     46  N   UNL A   1      45.271  26.310  27.322  1.00  0.00    -0.248 NA
ATOM     47  C   UNL A   1      45.686  24.139  26.569  1.00  0.00     0.031 C 
ATOM     48  C   UNL A   1      41.066  25.149  28.265  1.00  0.00     0.029 A 
ATOM     49  N   UNL A   1      42.558  26.816  28.288  1.00  0.00    -0.354 N 
ATOM     50  C   UNL A   1      46.601  26.205  26.941  1.00  0.00     0.074 A 
ATOM     51  C   UNL A   1      46.817  24.831  26.537  1.00  0.00     0.031 C 
ATOM     52  C   UNL A   1      40.450  26.235  28.759  1.00  0.00     0.029 A 
ATOM     53  C   UNL A   1      41.396  27.346  28.793  1.00  0.00     0.049 A 
ATOM     54  H   UNL A   1      43.391  27.332  28.200  1.00  0.00     0.167 HD
ATOM     55  C   UNL A   1      47.550  27.171  26.910  1.00  0.00     0.037 A 
ATOM     56  C   UNL A   1      41.119  28.590  29.228  1.00  0.00     0.037 A 
ATOM     57  C   UNL A   1      47.333  28.541  27.296  1.00  0.00     0.049 A 
ATOM     58  C   UNL A   1      42.186  29.645  29.182  1.00  0.00     0.074 A 
ATOM     59  C   UNL A   1      48.217  29.605  27.240  1.00  0.00     0.029 A 
ATOM     60  N   UNL A   1      46.146  29.037  27.816  1.00  0.00    -0.354 N 
ATOM     61  N   UNL A   1      43.423  29.549  28.763  1.00  0.00    -0.248 NA
ATOM     62  C   UNL A   1      41.818  30.983  29.667  1.00  0.00     0.031 C 
ATOM     63  C   UNL A   1      47.580  30.734  27.764  1.00  0.00     0.029 A 
ATOM     64  C   UNL A   1      46.283  30.385  28.106  1.00  0.00     0.049 A 
ATOM     65  H   UNL A   1      45.327  28.509  27.957  1.00  0.00     0.167 HD
ATOM     66  C   UNL A   1      43.981  30.809  28.925  1.00  0.00     0.074 A 
ATOM     67  C   UNL A   1      42.939  31.661  29.460  1.00  0.00     0.031 C 
ATOM     68  C   UNL A   1      45.245  31.220  28.657  1.00  0.00     0.037 A 
BRANCH  55  69
ATOM     69  C   UNL A   1      48.918  26.784  26.426  1.00  0.00     0.064 A 
ATOM     70  C   UNL A   1      49.886  26.309  27.323  1.00  0.00     0.173 A 
ATOM     71  C   UNL A   1      49.286  26.929  25.080  1.00  0.00     0.173 A 
ATOM     72  F   UNL A   1      49.588  26.157  28.622  1.00  0.00    -0.203 F 
ATOM     73  C   UNL A   1      51.172  25.996  26.890  1.00  0.00     0.198 A 
ATOM     74  C   UNL A   1      50.564  26.591  24.646  1.00  0.00     0.198 A 
ATOM     75  F   UNL A   1      48.393  27.372  24.181  1.00  0.00    -0.203 F 
ATOM     76  F   UNL A   1      52.088  25.564  27.768  1.00  0.00    -0.200 F 
ATOM     77  C   UNL A   1      51.508  26.132  25.551  1.00  0.00     0.200 A 
ATOM     78  F   UNL A   1      50.879  26.701  23.347  1.00  0.00    -0.200 F 
ATOM     79  F   UNL A   1      52.741  25.815  25.132  1.00  0.00    -0.200 F 
ENDBRANCH  55  69
BRANCH  56  80
ATOM     80  C   UNL A   1      39.746  28.905  29.697  1.00  0.00     0.064 A 
ATOM     81  C   UNL A   1      39.355  28.670  31.023  1.00  0.00     0.173 A 
ATOM     82  C   UNL A   1      38.784  29.402  28.809  1.00  0.00     0.173 A 
ATOM     83  F   UNL A   1      40.240  28.190  31.909  1.00  0.00    -0.203 F 
ATOM     84  C   UNL A   1      38.044  28.897  31.435  1.00  0.00     0.198 A 
ATOM     85  C   UNL A   1      37.479  29.649  29.228  1.00  0.00     0.198 A 
ATOM     86  F   UNL A   1      39.120  29.660  27.536  1.00  0.00    -0.203 F 
ATOM     87  F   UNL A   1      37.685  28.629  32.699  1.00  0.00    -0.200 F 
ATOM     88  C   UNL A   1      37.107  29.388  30.538  1.00  0.00     0.200 A 
ATOM     89  F   UNL A   1      36.582  30.141  28.362  1.00  0.00    -0.200 F 
ATOM     90  F   UNL A   1      35.847  29.609  30.935  1.00  0.00    -0.200 F 
ENDBRANCH  56  80
BRANCH  68  91
ATOM     91  C   UNL A   1      45.579  32.654  28.947  1.00  0.00     0.064 A 
ATOM     92  C   UNL A   1      45.413  33.639  27.963  1.00  0.00     0.173 A 
ATOM     93  C   UNL A   1      46.110  33.042  30.186  1.00  0.00     0.173 A 
ATOM     94  F   UNL A   1      44.913  33.319  26.761  1.00  0.00    -0.203 F 
ATOM     95  C   UNL A   1      45.776  34.962  28.208  1.00  0.00     0.198 A 
ATOM     96  C   UNL A   1      46.448  34.370  30.435  1.00  0.00     0.198 A 
ATOM     97  F   UNL A   1      46.273  32.138  31.164  1.00  0.00    -0.203 F 
ATOM     98  F   UNL A   1      45.632  35.883  27.245  1.00  0.00    -0.200 F 
ATOM     99  C   UNL A   1      46.288  35.326  29.444  1.00  0.00     0.200 A 
ATOM    100  F   UNL A   1      46.919  34.724  31.638  1.00  0.00    -0.200 F 
ATOM    101  F   UNL A   1      46.622  36.602  29.683  1.00  0.00    -0.200 F 
ENDBRANCH  68  91
ENDBRANCH  42  43
ENDBRANCH  34  37
ENDBRANCH  32  33
ENDBRANCH  31  32
ENDBRANCH  30  31
ENDBRANCH  29  30
ENDBRANCH   1  29
TORSDOF 17
ENDMDL
MODEL 3
REMARK VINA RESULT:     -12.0      5.641     11.133
REMARK SMILES O=C(Cc1csc(N2C(=O)C[C@H](Nc3cccc(F)c3)C2=O)n1)NCCCCCCNC(=O)c1ccc(-c2c3nc(c(-c4c(F)c(F)c(F)c(F)c4F)c4ccc([nH]4)c(-c4c(F)c(F)c(F)c(F)c4F)c4nc(c(-c5c(F)c(F)c(F)c(F)c5F)c5ccc2[nH]5)C=C4)C=C3)cc1
REMARK SMILES IDX 26 1 25 2 24 3 1 4 2 5 3 7 4 8 5 9 23 10 6 11 7 12 8 13 9 14
REMARK SMILES IDX 21 15 10 16 11 17 12 18 22 19 13 20 14 22 15 23 20 24 16 25
REMARK SMILES IDX 18 26 17 27 19 28 27 29 28 30 29 31 30 32 31 33 32 34 33 36
REMARK SMILES IDX 34 37 35 38 96 39 36 40 95 41 37 42 38 43 39 44 89 45 40 46
REMARK SMILES IDX 94 47 88 48 90 49 41 50 93 51 87 52 86 53 42 55 74 56 54 57
REMARK SMILES IDX 73 58 55 59 58 60 72 61 91 62 56 63 57 64 71 66 92 67 59 68
REMARK SMILES IDX 43 69 44 70 52 71 45 72 46 73 50 74 53 75 47 76 48 77 51 78
REMARK SMILES IDX 49 79 75 80 76 81 84 82 77 83 78 84 82 85 85 86 79 87 80 88
REMARK SMILES IDX 83 89 81 90 60 91 61 92 69 93 62 94 63 95 67 96 70 97 64 98
REMARK SMILES IDX 65 99 68 100 66 101
REMARK H PARENT 24 6 13 21 31 35 90 54 58 65
REMARK Flexibility Score: inf
ROOT
ATOM      1  C   UNL A   1      35.492  31.440  27.993  1.00  0.00     0.021 C 
ENDROOT
BRANCH   1   2
ATOM      2  C   UNL A   1      34.879  30.147  27.452  1.00  0.00     0.116 C 
BRANCH   2   3
ATOM      3  N   UNL A   1      33.781  30.409  26.551  1.00  0.00    -0.356 N 
ATOM      4  O   UNL A   1      32.233  29.095  27.614  1.00  0.00    -0.275 OA
ATOM      5  C   UNL A   1      32.534  29.842  26.686  1.00  0.00     0.226 C 
ATOM      6  H   UNL A   1      33.932  31.026  25.800  1.00  0.00     0.163 HD
BRANCH   5   7
ATOM      7  C   UNL A   1      31.589  30.086  25.522  1.00  0.00     0.157 C 
BRANCH   7   8
ATOM      8  C   UNL A   1      31.391  28.923  24.600  1.00  0.00     0.063 A 
ATOM      9  C   UNL A   1      30.521  28.896  23.528  1.00  0.00     0.093 A 
ATOM     10  N   UNL A   1      32.061  27.725  24.809  1.00  0.00    -0.224 NA
ATOM     11  S   UNL A   1      30.678  27.421  22.680  1.00  0.00    -0.104 S 
ATOM     12  C   UNL A   1      31.857  26.890  23.810  1.00  0.00     0.199 A 
BRANCH  12  13
ATOM     13  N   UNL A   1      32.450  25.655  23.660  1.00  0.00    -0.223 N 
ATOM     14  C   UNL A   1      33.446  25.458  22.741  1.00  0.00     0.238 C 
ATOM     15  C   UNL A   1      32.082  24.511  24.322  1.00  0.00     0.258 C 
ATOM     16  O   UNL A   1      33.969  26.253  21.977  1.00  0.00    -0.274 OA
ATOM     17  C   UNL A   1      33.928  24.042  22.857  1.00  0.00     0.136 C 
ATOM     18  C   UNL A   1      32.936  23.371  23.790  1.00  0.00     0.179 C 
ATOM     19  O   UNL A   1      31.197  24.353  25.155  1.00  0.00    -0.272 OA
BRANCH  18  20
ATOM     20  N   UNL A   1      32.148  22.376  23.055  1.00  0.00    -0.373 N 
ATOM     21  H   UNL A   1      31.498  22.665  22.373  1.00  0.00     0.161 HD
BRANCH  20  22
ATOM     22  C   UNL A   1      32.323  21.026  23.328  1.00  0.00     0.038 A 
ATOM     23  C   UNL A   1      32.151  20.041  22.347  1.00  0.00     0.026 A 
ATOM     24  C   UNL A   1      32.586  20.617  24.639  1.00  0.00     0.065 A 
ATOM     25  C   UNL A   1      32.264  18.681  22.661  1.00  0.00     0.005 A 
ATOM     26  C   UNL A   1      32.676  19.263  24.949  1.00  0.00     0.125 A 
ATOM     27  C   UNL A   1      32.521  18.290  23.972  1.00  0.00     0.039 A 
ATOM     28  F   UNL A   1      32.900  18.892  26.217  1.00  0.00    -0.207 F 
ENDBRANCH  20  22
ENDBRANCH  18  20
ENDBRANCH  12  13
ENDBRANCH   7   8
ENDBRANCH   5   7
ENDBRANCH   2   3
ENDBRANCH   1   2
BRANCH   1  29
ATOM     29  C   UNL A   1      34.576  32.251  28.919  1.00  0.00     0.002 C 
BRANCH  29  30
ATOM     30  C   UNL A   1      34.727  33.773  28.838  1.00  0.00     0.002 C 
BRANCH  30  31
ATOM     31  C   UNL A   1      33.420  34.565  28.760  1.00  0.00     0.021 C 
BRANCH  31  32
ATOM     32  C   UNL A   1      33.436  35.930  29.445  1.00  0.00     0.116 C 
BRANCH  32  33
ATOM     33  N   UNL A   1      32.507  36.015  30.559  1.00  0.00    -0.352 N 
ATOM     34  C   UNL A   1      32.615  35.533  31.840  1.00  0.00     0.251 C 
ATOM     35  H   UNL A   1      31.669  36.494  30.365  1.00  0.00     0.163 HD
ATOM     36  O   UNL A   1      31.652  35.601  32.600  1.00  0.00    -0.269 OA
BRANCH  34  37
ATOM     37  C   UNL A   1      33.869  34.901  32.312  1.00  0.00     0.039 A 
ATOM     38  C   UNL A   1      33.824  33.568  32.730  1.00  0.00     0.014 A 
ATOM     39  C   UNL A   1      35.074  35.608  32.372  1.00  0.00     0.014 A 
ATOM     40  C   UNL A   1      34.993  32.926  33.145  1.00  0.00     0.010 A 
ATOM     41  C   UNL A   1      36.252  34.949  32.728  1.00  0.00     0.010 A 
ATOM     42  C   UNL A   1      36.224  33.601  33.113  1.00  0.00    -0.014 A 
BRANCH  42  43
ATOM     43  C   UNL A   1      37.484  32.888  33.446  1.00  0.00     0.031 A 
ATOM     44  C   UNL A   1      38.213  33.165  34.728  1.00  0.00     0.074 A 
ATOM     45  C   UNL A   1      37.992  32.006  32.564  1.00  0.00     0.049 A 
ATOM     46  N   UNL A   1      39.320  32.629  35.181  1.00  0.00    -0.248 NA
ATOM     47  C   UNL A   1      37.638  34.191  35.610  1.00  0.00     0.031 C 
ATOM     48  C   UNL A   1      37.408  31.689  31.260  1.00  0.00     0.029 A 
ATOM     49  N   UNL A   1      39.111  31.214  32.631  1.00  0.00    -0.354 N 
ATOM     50  C   UNL A   1      39.573  33.252  36.395  1.00  0.00     0.074 A 
ATOM     51  C   UNL A   1      38.535  34.244  36.586  1.00  0.00     0.031 C 
ATOM     52  C   UNL A   1      38.152  30.742  30.666  1.00  0.00     0.029 A 
ATOM     53  C   UNL A   1      39.278  30.407  31.532  1.00  0.00     0.049 A 
ATOM     54  H   UNL A   1      39.734  31.223  33.393  1.00  0.00     0.167 HD
ATOM     55  C   UNL A   1      40.567  33.003  37.282  1.00  0.00     0.037 A 
ATOM     56  C   UNL A   1      40.228  29.493  31.255  1.00  0.00     0.037 A 
ATOM     57  C   UNL A   1      41.589  32.005  37.102  1.00  0.00     0.049 A 
ATOM     58  C   UNL A   1      41.318  29.233  32.254  1.00  0.00     0.074 A 
ATOM     59  C   UNL A   1      42.601  31.639  37.973  1.00  0.00     0.029 A 
ATOM     60  N   UNL A   1      41.734  31.216  35.970  1.00  0.00    -0.354 N 
ATOM     61  N   UNL A   1      41.512  29.785  33.426  1.00  0.00    -0.248 NA
ATOM     62  C   UNL A   1      42.321  28.220  31.893  1.00  0.00     0.031 C 
ATOM     63  C   UNL A   1      43.383  30.659  37.352  1.00  0.00     0.029 A 
ATOM     64  C   UNL A   1      42.832  30.382  36.111  1.00  0.00     0.049 A 
ATOM     65  H   UNL A   1      41.144  31.245  35.183  1.00  0.00     0.167 HD
ATOM     66  C   UNL A   1      42.650  29.186  33.947  1.00  0.00     0.074 A 
ATOM     67  C   UNL A   1      43.092  28.209  32.972  1.00  0.00     0.031 C 
ATOM     68  C   UNL A   1      43.274  29.428  35.126  1.00  0.00     0.037 A 
BRANCH  55  69
ATOM     69  C   UNL A   1      40.590  33.817  38.543  1.00  0.00     0.064 A 
ATOM     70  C   UNL A   1      39.779  33.470  39.634  1.00  0.00     0.173 A 
ATOM     71  C   UNL A   1      41.380  34.972  38.654  1.00  0.00     0.173 A 
ATOM     72  F   UNL A   1      39.000  32.380  39.578  1.00  0.00    -0.203 F 
ATOM     73  C   UNL A   1      39.758  34.250  40.788  1.00  0.00     0.198 A 
ATOM     74  C   UNL A   1      41.376  35.734  39.818  1.00  0.00     0.198 A 
ATOM     75  F   UNL A   1      42.179  35.342  37.641  1.00  0.00    -0.203 F 
ATOM     76  F   UNL A   1      38.960  33.911  41.809  1.00  0.00    -0.200 F 
ATOM     77  C   UNL A   1      40.560  35.377  40.881  1.00  0.00     0.200 A 
ATOM     78  F   UNL A   1      42.170  36.810  39.915  1.00  0.00    -0.200 F 
ATOM     79  F   UNL A   1      40.551  36.118  41.998  1.00  0.00    -0.200 F 
ENDBRANCH  55  69
BRANCH  56  80
ATOM     80  C   UNL A   1      40.146  28.725  29.988  1.00  0.00     0.064 A 
ATOM     81  C   UNL A   1      39.488  27.489  29.924  1.00  0.00     0.173 A 
ATOM     82  C   UNL A   1      40.773  29.194  28.826  1.00  0.00     0.173 A 
ATOM     83  F   UNL A   1      38.879  26.996  31.011  1.00  0.00    -0.203 F 
ATOM     84  C   UNL A   1      39.483  26.739  28.750  1.00  0.00     0.198 A 
ATOM     85  C   UNL A   1      40.748  28.454  27.647  1.00  0.00     0.198 A 
ATOM     86  F   UNL A   1      41.398  30.382  28.837  1.00  0.00    -0.203 F 
ATOM     87  F   UNL A   1      38.878  25.543  28.724  1.00  0.00    -0.200 F 
ATOM     88  C   UNL A   1      40.111  27.223  27.611  1.00  0.00     0.200 A 
ATOM     89  F   UNL A   1      41.340  28.934  26.544  1.00  0.00    -0.200 F 
ATOM     90  F   UNL A   1      40.102  26.503  26.482  1.00  0.00    -0.200 F 
ENDBRANCH  56  80
BRANCH  68  91
ATOM     91  C   UNL A   1      44.510  28.631  35.427  1.00  0.00     0.064 A 
ATOM     92  C   UNL A   1      44.422  27.405  36.103  1.00  0.00     0.173 A 
ATOM     93  C   UNL A   1      45.784  29.108  35.089  1.00  0.00     0.173 A 
ATOM     94  F   UNL A   1      43.227  26.907  36.452  1.00  0.00    -0.203 F 
ATOM     95  C   UNL A   1      45.570  26.690  36.437  1.00  0.00     0.198 A 
ATOM     96  C   UNL A   1      46.928  28.378  35.403  1.00  0.00     0.198 A 
ATOM     97  F   UNL A   1      45.918  30.269  34.430  1.00  0.00    -0.203 F 
ATOM     98  F   UNL A   1      45.466  25.532  37.104  1.00  0.00    -0.200 F 
ATOM     99  C   UNL A   1      46.820  27.174  36.082  1.00  0.00     0.200 A 
ATOM    100  F   UNL A   1      48.133  28.835  35.037  1.00  0.00    -0.200 F 
ATOM    101  F   UNL A   1      47.923  26.476  36.391  1.00  0.00    -0.200 F 
ENDBRANCH  68  91
ENDBRANCH  42  43
ENDBRANCH  34  37
ENDBRANCH  32  33
ENDBRANCH  31  32
ENDBRANCH  30  31
ENDBRANCH  29  30
ENDBRANCH   1  29
TORSDOF 17
ENDMDL
