MODEL 1
REMARK VINA RESULT:     -11.8      0.000      0.000
REMARK SMILES COc1ccc([C@H](C)[N@H+]2CC[C@H](C(=O)NCCCCCCNC(=O)c3ccc(-c4c5nc(c(-c6c(F)c(F)c(F)c(F)c6F)c6ccc([nH]6)c(-c6c(F)c(F)c(F)c(F)c6F)c6nc(c(-c7c(F)c(F)c(F)c(F)c7F)c7ccc4[nH]7)C=C6)C=C5)cc3)[C@@H]2C)cc1
REMARK SMILES IDX 18 1 17 2 16 3 15 4 13 5 14 6 12 8 9 9 10 10 88 11 11 13
REMARK SMILES IDX 89 14 7 15 8 16 6 17 3 18 4 19 91 20 5 21 90 22 2 23 1 24
REMARK SMILES IDX 19 25 20 26 21 27 22 28 23 29 24 31 25 32 26 33 87 34 27 35
REMARK SMILES IDX 86 36 28 37 29 38 30 39 80 40 31 41 85 42 79 43 81 44 32 45
REMARK SMILES IDX 84 46 78 47 77 48 33 50 65 51 45 52 64 53 46 54 49 55 63 56
REMARK SMILES IDX 82 57 47 58 48 59 62 61 83 62 50 63 34 64 35 65 43 66 36 67
REMARK SMILES IDX 37 68 41 69 44 70 38 71 39 72 42 73 40 74 66 75 67 76 75 77
REMARK SMILES IDX 68 78 69 79 73 80 76 81 70 82 71 83 74 84 72 85 51 86 52 87
REMARK SMILES IDX 60 88 53 89 54 90 58 91 61 92 55 93 56 94 59 95 57 96
REMARK H PARENT 15 7 9 12 22 30 81 49 49 60
REMARK Flexibility Score: inf
ROOT
ATOM      1  C   UNL A   1      31.621  30.009  25.468  1.00  0.00     0.002 C 
ENDROOT
BRANCH   1   2
ATOM      2  C   UNL A   1      32.965  29.490  24.956  1.00  0.00     0.021 C 
BRANCH   2   3
ATOM      3  C   UNL A   1      32.976  29.178  23.462  1.00  0.00     0.116 C 
BRANCH   3   4
ATOM      4  N   UNL A   1      31.646  29.078  22.906  1.00  0.00    -0.356 N 
ATOM      5  C   UNL A   1      30.948  28.067  22.337  1.00  0.00     0.229 C 
ATOM      6  O   UNL A   1      29.802  28.356  21.965  1.00  0.00    -0.275 OA
ATOM      7  H   UNL A   1      31.142  29.923  22.949  1.00  0.00     0.163 HD
BRANCH   5   8
ATOM      8  C   UNL A   1      31.432  26.626  22.157  1.00  0.00     0.142 C 
ATOM      9  N   UNL A   1      32.873  25.339  23.615  1.00  0.00    -0.326 N 
ATOM     10  C   UNL A   1      33.698  25.958  22.583  1.00  0.00     0.264 C 
ATOM     11  C   UNL A   1      31.470  25.745  23.425  1.00  0.00     0.194 C 
ATOM     12  H   UNL A   1      33.128  25.697  24.536  1.00  0.00     0.348 HD
ATOM     13  C   UNL A   1      32.753  26.354  21.467  1.00  0.00     0.081 C 
ATOM     14  C   UNL A   1      30.926  26.394  24.697  1.00  0.00     0.076 C 
BRANCH   9  15
ATOM     15  C   UNL A   1      33.159  23.903  23.820  1.00  0.00     0.212 C 
ATOM     16  C   UNL A   1      32.786  23.038  22.600  1.00  0.00     0.081 C 
BRANCH  15  17
ATOM     17  C   UNL A   1      34.630  23.763  24.263  1.00  0.00     0.009 A 
ATOM     18  C   UNL A   1      37.197  23.035  25.192  1.00  0.00     0.118 A 
ATOM     19  C   UNL A   1      36.782  22.664  23.915  1.00  0.00     0.047 A 
ATOM     20  C   UNL A   1      36.370  23.836  25.975  1.00  0.00     0.047 A 
ATOM     21  C   UNL A   1      35.510  23.020  23.456  1.00  0.00     0.013 A 
ATOM     22  C   UNL A   1      35.099  24.202  25.512  1.00  0.00     0.013 A 
BRANCH  18  23
ATOM     23  O   UNL A   1      38.437  22.598  25.574  1.00  0.00    -0.497 OA
ATOM     24  C   UNL A   1      38.589  21.181  25.587  1.00  0.00     0.278 C 
ENDBRANCH  18  23
ENDBRANCH  15  17
ENDBRANCH   9  15
ENDBRANCH   5   8
ENDBRANCH   3   4
ENDBRANCH   2   3
ENDBRANCH   1   2
BRANCH   1  25
ATOM     25  C   UNL A   1      31.663  30.665  26.854  1.00  0.00     0.002 C 
BRANCH  25  26
ATOM     26  C   UNL A   1      31.491  32.187  26.869  1.00  0.00     0.021 C 
BRANCH  26  27
ATOM     27  C   UNL A   1      32.779  32.973  27.092  1.00  0.00     0.116 C 
BRANCH  27  28
ATOM     28  N   UNL A   1      32.516  34.303  27.617  1.00  0.00    -0.352 N 
ATOM     29  C   UNL A   1      33.044  34.930  28.715  1.00  0.00     0.251 C 
ATOM     30  H   UNL A   1      31.862  34.833  27.106  1.00  0.00     0.163 HD
ATOM     31  O   UNL A   1      32.538  35.962  29.139  1.00  0.00    -0.269 OA
BRANCH  29  32
ATOM     32  C   UNL A   1      34.224  34.355  29.393  1.00  0.00     0.039 A 
ATOM     33  C   UNL A   1      34.031  33.589  30.546  1.00  0.00     0.014 A 
ATOM     34  C   UNL A   1      35.513  34.596  28.912  1.00  0.00     0.014 A 
ATOM     35  C   UNL A   1      35.133  33.026  31.191  1.00  0.00     0.010 A 
ATOM     36  C   UNL A   1      36.604  33.974  29.514  1.00  0.00     0.010 A 
ATOM     37  C   UNL A   1      36.423  33.192  30.665  1.00  0.00    -0.014 A 
BRANCH  37  38
ATOM     38  C   UNL A   1      37.601  32.561  31.311  1.00  0.00     0.031 A 
ATOM     39  C   UNL A   1      38.275  31.383  30.664  1.00  0.00     0.074 A 
ATOM     40  C   UNL A   1      38.021  33.012  32.508  1.00  0.00     0.049 A 
ATOM     41  N   UNL A   1      39.271  30.656  31.102  1.00  0.00    -0.248 NA
ATOM     42  C   UNL A   1      37.741  30.948  29.365  1.00  0.00     0.031 C 
ATOM     43  C   UNL A   1      37.419  34.118  33.252  1.00  0.00     0.029 A 
ATOM     44  N   UNL A   1      39.048  32.590  33.313  1.00  0.00    -0.354 N 
ATOM     45  C   UNL A   1      39.473  29.674  30.142  1.00  0.00     0.074 A 
ATOM     46  C   UNL A   1      38.462  29.861  29.126  1.00  0.00     0.031 C 
ATOM     47  C   UNL A   1      38.100  34.301  34.394  1.00  0.00     0.029 A 
ATOM     48  C   UNL A   1      39.160  33.302  34.482  1.00  0.00     0.049 A 
ATOM     49  H   UNL A   1      39.649  31.846  33.076  1.00  0.00     0.167 HD
ATOM     50  C   UNL A   1      40.431  28.717  30.101  1.00  0.00     0.037 A 
ATOM     51  C   UNL A   1      40.017  33.159  35.511  1.00  0.00     0.037 A 
ATOM     52  C   UNL A   1      41.449  28.550  31.106  1.00  0.00     0.049 A 
ATOM     53  C   UNL A   1      41.066  32.081  35.444  1.00  0.00     0.074 A 
ATOM     54  C   UNL A   1      42.499  27.650  31.131  1.00  0.00     0.029 A 
ATOM     55  N   UNL A   1      41.539  29.302  32.269  1.00  0.00    -0.354 N 
ATOM     56  N   UNL A   1      41.289  31.200  34.500  1.00  0.00    -0.248 NA
ATOM     57  C   UNL A   1      41.984  31.982  36.586  1.00  0.00     0.031 C 
ATOM     58  C   UNL A   1      43.195  27.821  32.332  1.00  0.00     0.029 A 
ATOM     59  C   UNL A   1      42.613  28.867  33.030  1.00  0.00     0.049 A 
ATOM     60  H   UNL A   1      40.931  30.035  32.518  1.00  0.00     0.167 HD
ATOM     61  C   UNL A   1      42.390  30.464  34.916  1.00  0.00     0.074 A 
ATOM     62  C   UNL A   1      42.797  31.012  36.194  1.00  0.00     0.031 C 
ATOM     63  C   UNL A   1      43.008  29.428  34.298  1.00  0.00     0.037 A 
BRANCH  50  64
ATOM     64  C   UNL A   1      40.425  27.776  28.931  1.00  0.00     0.064 A 
ATOM     65  C   UNL A   1      39.662  26.598  28.936  1.00  0.00     0.173 A 
ATOM     66  C   UNL A   1      41.163  28.071  27.775  1.00  0.00     0.173 A 
ATOM     67  F   UNL A   1      38.948  26.261  30.021  1.00  0.00    -0.203 F 
ATOM     68  C   UNL A   1      39.663  25.737  27.842  1.00  0.00     0.198 A 
ATOM     69  C   UNL A   1      41.135  27.225  26.668  1.00  0.00     0.198 A 
ATOM     70  F   UNL A   1      41.905  29.188  27.712  1.00  0.00    -0.203 F 
ATOM     71  F   UNL A   1      38.968  24.592  27.892  1.00  0.00    -0.200 F 
ATOM     72  C   UNL A   1      40.392  26.055  26.707  1.00  0.00     0.200 A 
ATOM     73  F   UNL A   1      41.829  27.541  25.567  1.00  0.00    -0.200 F 
ATOM     74  F   UNL A   1      40.385  25.229  25.651  1.00  0.00    -0.200 F 
ENDBRANCH  50  64
BRANCH  51  75
ATOM     75  C   UNL A   1      39.933  34.072  36.680  1.00  0.00     0.064 A 
ATOM     76  C   UNL A   1      40.680  35.258  36.722  1.00  0.00     0.173 A 
ATOM     77  C   UNL A   1      39.110  33.781  37.777  1.00  0.00     0.173 A 
ATOM     78  F   UNL A   1      41.496  35.571  35.704  1.00  0.00    -0.203 F 
ATOM     79  C   UNL A   1      40.626  36.104  37.827  1.00  0.00     0.198 A 
ATOM     80  C   UNL A   1      39.034  34.643  38.869  1.00  0.00     0.198 A 
ATOM     81  F   UNL A   1      38.371  32.662  37.785  1.00  0.00    -0.203 F 
ATOM     82  F   UNL A   1      41.389  37.206  37.861  1.00  0.00    -0.200 F 
ATOM     83  C   UNL A   1      39.799  35.800  38.897  1.00  0.00     0.200 A 
ATOM     84  F   UNL A   1      38.222  34.352  39.894  1.00  0.00    -0.200 F 
ATOM     85  F   UNL A   1      39.745  36.616  39.959  1.00  0.00    -0.200 F 
ENDBRANCH  51  75
BRANCH  63  86
ATOM     86  C   UNL A   1      44.213  28.842  34.975  1.00  0.00     0.064 A 
ATOM     87  C   UNL A   1      44.107  27.762  35.863  1.00  0.00     0.173 A 
ATOM     88  C   UNL A   1      45.495  29.342  34.698  1.00  0.00     0.173 A 
ATOM     89  F   UNL A   1      42.903  27.258  36.172  1.00  0.00    -0.203 F 
ATOM     90  C   UNL A   1      45.237  27.222  36.471  1.00  0.00     0.198 A 
ATOM     91  C   UNL A   1      46.626  28.779  35.282  1.00  0.00     0.198 A 
ATOM     92  F   UNL A   1      45.652  30.370  33.849  1.00  0.00    -0.203 F 
ATOM     93  F   UNL A   1      45.108  26.225  37.356  1.00  0.00    -0.200 F 
ATOM     94  C   UNL A   1      46.496  27.725  36.174  1.00  0.00     0.200 A 
ATOM     95  F   UNL A   1      47.841  29.256  34.981  1.00  0.00    -0.200 F 
ATOM     96  F   UNL A   1      47.583  27.198  36.753  1.00  0.00    -0.200 F 
ENDBRANCH  63  86
ENDBRANCH  37  38
ENDBRANCH  29  32
ENDBRANCH  27  28
ENDBRANCH  26  27
ENDBRANCH  25  26
ENDBRANCH   1  25
TORSDOF 16
ENDMDL
MODEL 2
REMARK VINA RESULT:     -11.6      2.064      3.137
REMARK SMILES COc1ccc([C@H](C)[N@H+]2CC[C@H](C(=O)NCCCCCCNC(=O)c3ccc(-c4c5nc(c(-c6c(F)c(F)c(F)c(F)c6F)c6ccc([nH]6)c(-c6c(F)c(F)c(F)c(F)c6F)c6nc(c(-c7c(F)c(F)c(F)c(F)c7F)c7ccc4[nH]7)C=C6)C=C5)cc3)[C@@H]2C)cc1
REMARK SMILES IDX 18 1 17 2 16 3 15 4 13 5 14 6 12 8 9 9 10 10 88 11 11 13
REMARK SMILES IDX 89 14 7 15 8 16 6 17 3 18 4 19 91 20 5 21 90 22 2 23 1 24
REMARK SMILES IDX 19 25 20 26 21 27 22 28 23 29 24 31 25 32 26 33 87 34 27 35
REMARK SMILES IDX 86 36 28 37 29 38 30 39 80 40 31 41 85 42 79 43 81 44 32 45
REMARK SMILES IDX 84 46 78 47 77 48 33 50 65 51 45 52 64 53 46 54 49 55 63 56
REMARK SMILES IDX 82 57 47 58 48 59 62 61 83 62 50 63 34 64 35 65 43 66 36 67
REMARK SMILES IDX 37 68 41 69 44 70 38 71 39 72 42 73 40 74 66 75 67 76 75 77
REMARK SMILES IDX 68 78 69 79 73 80 76 81 70 82 71 83 74 84 72 85 51 86 52 87
REMARK SMILES IDX 60 88 53 89 54 90 58 91 61 92 55 93 56 94 59 95 57 96
REMARK H PARENT 15 7 9 12 22 30 81 49 49 60
REMARK Flexibility Score: inf
ROOT
ATOM      1  C   UNL A   1      31.794  29.794  25.624  1.00  0.00     0.002 C 
ENDROOT
BRANCH   1   2
ATOM      2  C   UNL A   1      32.100  28.301  25.746  1.00  0.00     0.021 C 
BRANCH   2   3
ATOM      3  C   UNL A   1      31.215  27.417  24.873  1.00  0.00     0.116 C 
BRANCH   3   4
ATOM      4  N   UNL A   1      30.568  26.366  25.623  1.00  0.00    -0.356 N 
ATOM      5  C   UNL A   1      30.943  25.117  25.989  1.00  0.00     0.229 C 
ATOM      6  O   UNL A   1      30.106  24.483  26.646  1.00  0.00    -0.275 OA
ATOM      7  H   UNL A   1      29.666  26.608  25.933  1.00  0.00     0.163 HD
BRANCH   5   8
ATOM      8  C   UNL A   1      32.294  24.459  25.699  1.00  0.00     0.142 C 
ATOM      9  N   UNL A   1      32.726  22.207  24.926  1.00  0.00    -0.326 N 
ATOM     10  C   UNL A   1      32.817  22.218  26.382  1.00  0.00     0.264 C 
ATOM     11  C   UNL A   1      32.370  23.555  24.450  1.00  0.00     0.194 C 
ATOM     12  H   UNL A   1      31.958  21.609  24.621  1.00  0.00     0.348 HD
ATOM     13  C   UNL A   1      32.996  23.668  26.784  1.00  0.00     0.081 C 
ATOM     14  C   UNL A   1      31.106  23.501  23.594  1.00  0.00     0.076 C 
BRANCH   9  15
ATOM     15  C   UNL A   1      33.854  21.513  24.268  1.00  0.00     0.212 C 
ATOM     16  C   UNL A   1      35.229  22.023  24.742  1.00  0.00     0.081 C 
BRANCH  15  17
ATOM     17  C   UNL A   1      33.653  19.994  24.442  1.00  0.00     0.009 A 
ATOM     18  C   UNL A   1      33.479  17.177  24.299  1.00  0.00     0.118 A 
ATOM     19  C   UNL A   1      34.694  17.791  24.597  1.00  0.00     0.047 A 
ATOM     20  C   UNL A   1      32.336  17.958  24.153  1.00  0.00     0.047 A 
ATOM     21  C   UNL A   1      34.783  19.185  24.663  1.00  0.00     0.013 A 
ATOM     22  C   UNL A   1      32.421  19.354  24.230  1.00  0.00     0.013 A 
BRANCH  18  23
ATOM     23  O   UNL A   1      33.500  15.812  24.205  1.00  0.00    -0.497 OA
ATOM     24  C   UNL A   1      32.926  15.131  25.317  1.00  0.00     0.278 C 
ENDBRANCH  18  23
ENDBRANCH  15  17
ENDBRANCH   9  15
ENDBRANCH   5   8
ENDBRANCH   3   4
ENDBRANCH   2   3
ENDBRANCH   1   2
BRANCH   1  25
ATOM     25  C   UNL A   1      31.694  30.548  26.956  1.00  0.00     0.002 C 
BRANCH  25  26
ATOM     26  C   UNL A   1      31.491  32.063  26.843  1.00  0.00     0.021 C 
BRANCH  26  27
ATOM     27  C   UNL A   1      32.763  32.890  26.990  1.00  0.00     0.116 C 
BRANCH  27  28
ATOM     28  N   UNL A   1      32.488  34.216  27.516  1.00  0.00    -0.352 N 
ATOM     29  C   UNL A   1      32.997  34.842  28.624  1.00  0.00     0.251 C 
ATOM     30  H   UNL A   1      31.838  34.745  26.998  1.00  0.00     0.163 HD
ATOM     31  O   UNL A   1      32.480  35.871  29.043  1.00  0.00    -0.269 OA
BRANCH  29  32
ATOM     32  C   UNL A   1      34.170  34.271  29.316  1.00  0.00     0.039 A 
ATOM     33  C   UNL A   1      33.960  33.398  30.387  1.00  0.00     0.014 A 
ATOM     34  C   UNL A   1      35.467  34.618  28.931  1.00  0.00     0.014 A 
ATOM     35  C   UNL A   1      35.056  32.836  31.043  1.00  0.00     0.010 A 
ATOM     36  C   UNL A   1      36.557  34.002  29.539  1.00  0.00     0.010 A 
ATOM     37  C   UNL A   1      36.361  33.113  30.607  1.00  0.00    -0.014 A 
BRANCH  37  38
ATOM     38  C   UNL A   1      37.536  32.488  31.263  1.00  0.00     0.031 A 
ATOM     39  C   UNL A   1      38.267  31.362  30.587  1.00  0.00     0.074 A 
ATOM     40  C   UNL A   1      37.904  32.897  32.492  1.00  0.00     0.049 A 
ATOM     41  N   UNL A   1      39.271  30.644  31.025  1.00  0.00    -0.248 NA
ATOM     42  C   UNL A   1      37.788  30.970  29.253  1.00  0.00     0.031 C 
ATOM     43  C   UNL A   1      37.245  33.949  33.265  1.00  0.00     0.029 A 
ATOM     44  N   UNL A   1      38.918  32.468  33.311  1.00  0.00    -0.354 N 
ATOM     45  C   UNL A   1      39.533  29.713  30.030  1.00  0.00     0.074 A 
ATOM     46  C   UNL A   1      38.549  29.917  28.990  1.00  0.00     0.031 C 
ATOM     47  C   UNL A   1      37.883  34.100  34.436  1.00  0.00     0.029 A 
ATOM     48  C   UNL A   1      38.970  33.129  34.514  1.00  0.00     0.049 A 
ATOM     49  H   UNL A   1      39.548  31.754  33.061  1.00  0.00     0.167 HD
ATOM     50  C   UNL A   1      40.521  28.788  29.977  1.00  0.00     0.037 A 
ATOM     51  C   UNL A   1      39.798  32.965  35.563  1.00  0.00     0.037 A 
ATOM     52  C   UNL A   1      41.511  28.605  31.007  1.00  0.00     0.049 A 
ATOM     53  C   UNL A   1      40.881  31.923  35.483  1.00  0.00     0.074 A 
ATOM     54  C   UNL A   1      42.587  27.736  31.026  1.00  0.00     0.029 A 
ATOM     55  N   UNL A   1      41.541  29.306  32.205  1.00  0.00    -0.354 N 
ATOM     56  N   UNL A   1      41.162  31.093  34.508  1.00  0.00    -0.248 NA
ATOM     57  C   UNL A   1      41.766  31.799  36.649  1.00  0.00     0.031 C 
ATOM     58  C   UNL A   1      43.238  27.873  32.256  1.00  0.00     0.029 A 
ATOM     59  C   UNL A   1      42.603  28.868  32.981  1.00  0.00     0.049 A 
ATOM     60  H   UNL A   1      40.903  30.008  32.466  1.00  0.00     0.167 HD
ATOM     61  C   UNL A   1      42.271  30.371  34.928  1.00  0.00     0.074 A 
ATOM     62  C   UNL A   1      42.620  30.871  36.242  1.00  0.00     0.031 C 
ATOM     63  C   UNL A   1      42.940  29.383  34.285  1.00  0.00     0.037 A 
BRANCH  50  64
ATOM     64  C   UNL A   1      40.581  27.901  28.767  1.00  0.00     0.064 A 
ATOM     65  C   UNL A   1      41.367  28.228  27.652  1.00  0.00     0.173 A 
ATOM     66  C   UNL A   1      39.872  26.691  28.735  1.00  0.00     0.173 A 
ATOM     67  F   UNL A   1      42.055  29.379  27.625  1.00  0.00    -0.203 F 
ATOM     68  C   UNL A   1      41.417  27.393  26.539  1.00  0.00     0.198 A 
ATOM     69  C   UNL A   1      39.950  25.841  27.633  1.00  0.00     0.198 A 
ATOM     70  F   UNL A   1      39.109  26.325  29.777  1.00  0.00    -0.203 F 
ATOM     71  F   UNL A   1      42.133  27.753  25.464  1.00  0.00    -0.200 F 
ATOM     72  C   UNL A   1      40.716  26.198  26.534  1.00  0.00     0.200 A 
ATOM     73  F   UNL A   1      39.282  24.680  27.636  1.00  0.00    -0.200 F 
ATOM     74  F   UNL A   1      40.770  25.391  25.464  1.00  0.00    -0.200 F 
ENDBRANCH  50  64
BRANCH  51  75
ATOM     75  C   UNL A   1      39.649  33.821  36.768  1.00  0.00     0.064 A 
ATOM     76  C   UNL A   1      38.869  33.404  37.856  1.00  0.00     0.173 A 
ATOM     77  C   UNL A   1      40.276  35.073  36.858  1.00  0.00     0.173 A 
ATOM     78  F   UNL A   1      38.234  32.224  37.810  1.00  0.00    -0.203 F 
ATOM     79  C   UNL A   1      38.704  34.215  38.977  1.00  0.00     0.198 A 
ATOM     80  C   UNL A   1      40.134  35.869  37.991  1.00  0.00     0.198 A 
ATOM     81  F   UNL A   1      41.037  35.516  35.847  1.00  0.00    -0.203 F 
ATOM     82  F   UNL A   1      37.913  33.811  39.981  1.00  0.00    -0.200 F 
ATOM     83  C   UNL A   1      39.341  35.444  39.047  1.00  0.00     0.200 A 
ATOM     84  F   UNL A   1      40.764  37.051  38.060  1.00  0.00    -0.200 F 
ATOM     85  F   UNL A   1      39.184  36.223  40.125  1.00  0.00    -0.200 F 
ENDBRANCH  51  75
BRANCH  63  86
ATOM     86  C   UNL A   1      44.140  28.802  34.975  1.00  0.00     0.064 A 
ATOM     87  C   UNL A   1      45.418  29.362  34.827  1.00  0.00     0.173 A 
ATOM     88  C   UNL A   1      44.002  27.697  35.828  1.00  0.00     0.173 A 
ATOM     89  F   UNL A   1      45.606  30.410  34.011  1.00  0.00    -0.203 F 
ATOM     90  C   UNL A   1      46.517  28.818  35.486  1.00  0.00     0.198 A 
ATOM     91  C   UNL A   1      45.097  27.176  36.511  1.00  0.00     0.198 A 
ATOM     92  F   UNL A   1      42.800  27.129  36.010  1.00  0.00    -0.203 F 
ATOM     93  F   UNL A   1      47.737  29.337  35.290  1.00  0.00    -0.200 F 
ATOM     94  C   UNL A   1      46.355  27.732  36.333  1.00  0.00     0.200 A 
ATOM     95  F   UNL A   1      44.935  26.137  37.341  1.00  0.00    -0.200 F 
ATOM     96  F   UNL A   1      47.413  27.216  36.974  1.00  0.00    -0.200 F 
ENDBRANCH  63  86
ENDBRANCH  37  38
ENDBRANCH  29  32
ENDBRANCH  27  28
ENDBRANCH  26  27
ENDBRANCH  25  26
ENDBRANCH   1  25
TORSDOF 16
ENDMDL
MODEL 3
REMARK VINA RESULT:     -11.6      0.338      1.608
REMARK SMILES COc1ccc([C@H](C)[N@H+]2CC[C@H](C(=O)NCCCCCCNC(=O)c3ccc(-c4c5nc(c(-c6c(F)c(F)c(F)c(F)c6F)c6ccc([nH]6)c(-c6c(F)c(F)c(F)c(F)c6F)c6nc(c(-c7c(F)c(F)c(F)c(F)c7F)c7ccc4[nH]7)C=C6)C=C5)cc3)[C@@H]2C)cc1
REMARK SMILES IDX 18 1 17 2 16 3 15 4 13 5 14 6 12 8 9 9 10 10 88 11 11 13
REMARK SMILES IDX 89 14 7 15 8 16 6 17 3 18 4 19 91 20 5 21 90 22 2 23 1 24
REMARK SMILES IDX 19 25 20 26 21 27 22 28 23 29 24 31 25 32 26 33 87 34 27 35
REMARK SMILES IDX 86 36 28 37 29 38 30 39 80 40 31 41 85 42 79 43 81 44 32 45
REMARK SMILES IDX 84 46 78 47 77 48 33 50 65 51 45 52 64 53 46 54 49 55 63 56
REMARK SMILES IDX 82 57 47 58 48 59 62 61 83 62 50 63 34 64 35 65 43 66 36 67
REMARK SMILES IDX 37 68 41 69 44 70 38 71 39 72 42 73 40 74 66 75 67 76 75 77
REMARK SMILES IDX 68 78 69 79 73 80 76 81 70 82 71 83 74 84 72 85 51 86 52 87
REMARK SMILES IDX 60 88 53 89 54 90 58 91 61 92 55 93 56 94 59 95 57 96
REMARK H PARENT 15 7 9 12 22 30 81 49 49 60
REMARK Flexibility Score: inf
ROOT
ATOM      1  C   UNL A   1      31.669  30.067  25.490  1.00  0.00     0.002 C 
ENDROOT
BRANCH   1   2
ATOM      2  C   UNL A   1      32.979  29.423  25.039  1.00  0.00     0.021 C 
BRANCH   2   3
ATOM      3  C   UNL A   1      33.093  29.251  23.528  1.00  0.00     0.116 C 
BRANCH   3   4
ATOM      4  N   UNL A   1      31.805  29.188  22.877  1.00  0.00    -0.356 N 
ATOM      5  C   UNL A   1      31.100  28.186  22.301  1.00  0.00     0.229 C 
ATOM      6  O   UNL A   1      30.001  28.512  21.832  1.00  0.00    -0.275 OA
ATOM      7  H   UNL A   1      31.343  30.057  22.845  1.00  0.00     0.163 HD
BRANCH   5   8
ATOM      8  C   UNL A   1      31.521  26.717  22.222  1.00  0.00     0.142 C 
ATOM      9  N   UNL A   1      32.645  25.389  23.905  1.00  0.00    -0.326 N 
ATOM     10  C   UNL A   1      33.652  25.936  23.003  1.00  0.00     0.264 C 
ATOM     11  C   UNL A   1      31.313  25.867  23.494  1.00  0.00     0.194 C 
ATOM     12  H   UNL A   1      32.775  25.755  24.849  1.00  0.00     0.348 HD
ATOM     13  C   UNL A   1      32.914  26.356  21.748  1.00  0.00     0.081 C 
ATOM     14  C   UNL A   1      30.619  26.575  24.656  1.00  0.00     0.076 C 
BRANCH   9  15
ATOM     15  C   UNL A   1      32.812  23.946  24.175  1.00  0.00     0.212 C 
ATOM     16  C   UNL A   1      32.259  23.057  23.043  1.00  0.00     0.081 C 
BRANCH  15  17
ATOM     17  C   UNL A   1      34.296  23.687  24.509  1.00  0.00     0.009 A 
ATOM     18  C   UNL A   1      36.862  22.743  25.220  1.00  0.00     0.118 A 
ATOM     19  C   UNL A   1      36.343  22.476  23.955  1.00  0.00     0.047 A 
ATOM     20  C   UNL A   1      36.142  23.546  26.100  1.00  0.00     0.047 A 
ATOM     21  C   UNL A   1      35.070  22.939  23.603  1.00  0.00     0.013 A 
ATOM     22  C   UNL A   1      34.872  24.019  25.746  1.00  0.00     0.013 A 
BRANCH  18  23
ATOM     23  O   UNL A   1      38.092  22.206  25.491  1.00  0.00    -0.497 OA
ATOM     24  C   UNL A   1      38.230  20.831  25.144  1.00  0.00     0.278 C 
ENDBRANCH  18  23
ENDBRANCH  15  17
ENDBRANCH   9  15
ENDBRANCH   5   8
ENDBRANCH   3   4
ENDBRANCH   2   3
ENDBRANCH   1   2
BRANCH   1  25
ATOM     25  C   UNL A   1      31.710  30.726  26.875  1.00  0.00     0.002 C 
BRANCH  25  26
ATOM     26  C   UNL A   1      31.528  32.248  26.888  1.00  0.00     0.021 C 
BRANCH  26  27
ATOM     27  C   UNL A   1      32.811  33.042  27.111  1.00  0.00     0.116 C 
BRANCH  27  28
ATOM     28  N   UNL A   1      32.540  34.366  27.646  1.00  0.00    -0.352 N 
ATOM     29  C   UNL A   1      33.043  34.977  28.765  1.00  0.00     0.251 C 
ATOM     30  H   UNL A   1      31.900  34.904  27.126  1.00  0.00     0.163 HD
ATOM     31  O   UNL A   1      32.530  36.006  29.189  1.00  0.00    -0.269 OA
BRANCH  29  32
ATOM     32  C   UNL A   1      34.204  34.390  29.464  1.00  0.00     0.039 A 
ATOM     33  C   UNL A   1      33.988  33.672  30.643  1.00  0.00     0.014 A 
ATOM     34  C   UNL A   1      35.501  34.573  28.976  1.00  0.00     0.014 A 
ATOM     35  C   UNL A   1      35.071  33.097  31.308  1.00  0.00     0.010 A 
ATOM     36  C   UNL A   1      36.571  33.939  29.600  1.00  0.00     0.010 A 
ATOM     37  C   UNL A   1      36.366  33.204  30.778  1.00  0.00    -0.014 A 
BRANCH  37  38
ATOM     38  C   UNL A   1      37.523  32.559  31.447  1.00  0.00     0.031 A 
ATOM     39  C   UNL A   1      38.222  31.400  30.794  1.00  0.00     0.074 A 
ATOM     40  C   UNL A   1      37.902  32.981  32.668  1.00  0.00     0.049 A 
ATOM     41  N   UNL A   1      39.205  30.663  31.247  1.00  0.00    -0.248 NA
ATOM     42  C   UNL A   1      37.733  30.996  29.467  1.00  0.00     0.031 C 
ATOM     43  C   UNL A   1      37.272  34.067  33.420  1.00  0.00     0.029 A 
ATOM     44  N   UNL A   1      38.903  32.541  33.497  1.00  0.00    -0.354 N 
ATOM     45  C   UNL A   1      39.442  29.706  30.270  1.00  0.00     0.074 A 
ATOM     46  C   UNL A   1      38.465  29.917  29.225  1.00  0.00     0.031 C 
ATOM     47  C   UNL A   1      37.914  34.222  34.588  1.00  0.00     0.029 A 
ATOM     48  C   UNL A   1      38.974  33.223  34.686  1.00  0.00     0.049 A 
ATOM     49  H   UNL A   1      39.513  31.804  33.261  1.00  0.00     0.167 HD
ATOM     50  C   UNL A   1      40.403  28.753  30.237  1.00  0.00     0.037 A 
ATOM     51  C   UNL A   1      39.796  33.057  35.739  1.00  0.00     0.037 A 
ATOM     52  C   UNL A   1      41.387  28.562  31.271  1.00  0.00     0.049 A 
ATOM     53  C   UNL A   1      40.850  31.983  35.681  1.00  0.00     0.074 A 
ATOM     54  C   UNL A   1      42.439  27.664  31.308  1.00  0.00     0.029 A 
ATOM     55  N   UNL A   1      41.437  29.285  32.455  1.00  0.00    -0.354 N 
ATOM     56  N   UNL A   1      41.107  31.127  34.722  1.00  0.00    -0.248 NA
ATOM     57  C   UNL A   1      41.730  31.857  36.850  1.00  0.00     0.031 C 
ATOM     58  C   UNL A   1      43.093  27.807  32.536  1.00  0.00     0.029 A 
ATOM     59  C   UNL A   1      42.486  28.833  33.240  1.00  0.00     0.049 A 
ATOM     60  H   UNL A   1      40.818  30.010  32.701  1.00  0.00     0.167 HD
ATOM     61  C   UNL A   1      42.195  30.383  35.157  1.00  0.00     0.074 A 
ATOM     62  C   UNL A   1      42.558  30.899  36.461  1.00  0.00     0.031 C 
ATOM     63  C   UNL A   1      42.836  29.364  34.534  1.00  0.00     0.037 A 
BRANCH  50  64
ATOM     64  C   UNL A   1      40.439  27.841  29.044  1.00  0.00     0.064 A 
ATOM     65  C   UNL A   1      39.666  26.671  28.987  1.00  0.00     0.173 A 
ATOM     66  C   UNL A   1      41.229  28.158  27.929  1.00  0.00     0.173 A 
ATOM     67  F   UNL A   1      38.903  26.314  30.031  1.00  0.00    -0.203 F 
ATOM     68  C   UNL A   1      39.706  25.838  27.872  1.00  0.00     0.198 A 
ATOM     69  C   UNL A   1      41.241  27.340  26.801  1.00  0.00     0.198 A 
ATOM     70  F   UNL A   1      41.983  29.268  27.926  1.00  0.00    -0.203 F 
ATOM     71  F   UNL A   1      38.999  24.699  27.863  1.00  0.00    -0.200 F 
ATOM     72  C   UNL A   1      40.486  26.177  26.778  1.00  0.00     0.200 A 
ATOM     73  F   UNL A   1      41.985  27.676  25.739  1.00  0.00    -0.200 F 
ATOM     74  F   UNL A   1      40.518  25.377  25.701  1.00  0.00    -0.200 F 
ENDBRANCH  50  64
BRANCH  51  75
ATOM     75  C   UNL A   1      39.670  33.941  36.927  1.00  0.00     0.064 A 
ATOM     76  C   UNL A   1      38.915  33.547  38.040  1.00  0.00     0.173 A 
ATOM     77  C   UNL A   1      40.297  35.194  36.974  1.00  0.00     0.173 A 
ATOM     78  F   UNL A   1      38.280  32.365  38.035  1.00  0.00    -0.203 F 
ATOM     79  C   UNL A   1      38.771  34.384  39.145  1.00  0.00     0.198 A 
ATOM     80  C   UNL A   1      40.177  36.017  38.092  1.00  0.00     0.198 A 
ATOM     81  F   UNL A   1      41.036  35.616  35.938  1.00  0.00    -0.203 F 
ATOM     82  F   UNL A   1      38.002  34.002  40.175  1.00  0.00    -0.200 F 
ATOM     83  C   UNL A   1      39.407  35.615  39.173  1.00  0.00     0.200 A 
ATOM     84  F   UNL A   1      40.806  37.200  38.121  1.00  0.00    -0.200 F 
ATOM     85  F   UNL A   1      39.271  36.418  40.237  1.00  0.00    -0.200 F 
ENDBRANCH  51  75
BRANCH  63  86
ATOM     86  C   UNL A   1      44.020  28.763  35.236  1.00  0.00     0.064 A 
ATOM     87  C   UNL A   1      45.322  29.238  35.023  1.00  0.00     0.173 A 
ATOM     88  C   UNL A   1      43.842  27.727  36.165  1.00  0.00     0.173 A 
ATOM     89  F   UNL A   1      45.547  30.217  34.135  1.00  0.00    -0.203 F 
ATOM     90  C   UNL A   1      46.406  28.679  35.695  1.00  0.00     0.198 A 
ATOM     91  C   UNL A   1      44.923  27.192  36.859  1.00  0.00     0.198 A 
ATOM     92  F   UNL A   1      42.615  27.242  36.411  1.00  0.00    -0.203 F 
ATOM     93  F   UNL A   1      47.647  29.113  35.439  1.00  0.00    -0.200 F 
ATOM     94  C   UNL A   1      46.206  27.662  36.618  1.00  0.00     0.200 A 
ATOM     95  F   UNL A   1      44.726  26.222  37.761  1.00  0.00    -0.200 F 
ATOM     96  F   UNL A   1      47.249  27.132  37.269  1.00  0.00    -0.200 F 
ENDBRANCH  63  86
ENDBRANCH  37  38
ENDBRANCH  29  32
ENDBRANCH  27  28
ENDBRANCH  26  27
ENDBRANCH  25  26
ENDBRANCH   1  25
TORSDOF 16
ENDMDL
