MODEL 1
REMARK VINA RESULT:     -12.1      0.000      0.000
REMARK SMILES C[C@@H]1[NH2+]CC[C@@H]1C(=O)Nc1ccccc1CC(=O)NCCCCCCNC(=O)c1ccc(-c2c3nc(c(-c4c(F)c(F)c(F)c(F)c4F)c4ccc([nH]4)c(-c4c(F)c(F)c(F)c(F)c4F)c4nc(c(-c5c(F)c(F)c(F)c(F)c5F)c5ccc2[nH]5)C=C4)C=C3)cc1
REMARK SMILES IDX 22 1 21 2 20 3 19 4 17 5 18 6 16 8 15 9 10 10 11 11 12 12
REMARK SMILES IDX 14 13 13 14 9 15 7 16 8 17 6 19 1 20 2 21 3 22 4 23 5 26
REMARK SMILES IDX 23 27 24 28 25 29 26 30 27 31 28 33 29 34 30 35 91 36 31 37
REMARK SMILES IDX 90 38 32 39 33 40 34 41 84 42 35 43 89 44 83 45 85 46 36 47
REMARK SMILES IDX 88 48 82 49 81 50 37 52 69 53 49 54 68 55 50 56 53 57 67 58
REMARK SMILES IDX 86 59 51 60 52 61 66 63 87 64 54 65 38 66 39 67 47 68 40 69
REMARK SMILES IDX 41 70 45 71 48 72 42 73 43 74 46 75 44 76 70 77 71 78 79 79
REMARK SMILES IDX 72 80 73 81 77 82 80 83 74 84 75 85 78 86 76 87 55 88 56 89
REMARK SMILES IDX 64 90 57 91 58 92 62 93 65 94 59 95 60 96 63 97 61 98
REMARK H PARENT 19 7 9 18 3 24 3 25 26 32 85 51 53 62
REMARK Flexibility Score: inf
ROOT
ATOM      1  C   UNL A   1      32.976  30.165  26.496  1.00  0.00     0.002 C 
ENDROOT
BRANCH   1   2
ATOM      2  C   UNL A   1      32.939  28.785  27.161  1.00  0.00     0.021 C 
BRANCH   2   3
ATOM      3  C   UNL A   1      31.515  28.272  27.359  1.00  0.00     0.116 C 
BRANCH   3   4
ATOM      4  N   UNL A   1      31.484  26.842  27.158  1.00  0.00    -0.356 N 
ATOM      5  C   UNL A   1      30.756  26.178  26.216  1.00  0.00     0.224 C 
ATOM      6  O   UNL A   1      30.436  25.009  26.429  1.00  0.00    -0.275 OA
ATOM      7  H   UNL A   1      32.041  26.295  27.758  1.00  0.00     0.163 HD
BRANCH   5   8
ATOM      8  C   UNL A   1      30.477  26.850  24.889  1.00  0.00     0.137 C 
BRANCH   8   9
ATOM      9  C   UNL A   1      31.649  27.165  23.988  1.00  0.00    -0.015 A 
ATOM     10  C   UNL A   1      32.696  26.278  23.665  1.00  0.00     0.044 A 
ATOM     11  C   UNL A   1      33.765  26.739  22.867  1.00  0.00     0.026 A 
ATOM     12  C   UNL A   1      33.774  28.020  22.323  1.00  0.00     0.002 A 
ATOM     13  C   UNL A   1      31.675  28.458  23.414  1.00  0.00     0.006 A 
ATOM     14  C   UNL A   1      32.717  28.876  22.585  1.00  0.00     0.000 A 
BRANCH  10  15
ATOM     15  N   UNL A   1      32.858  24.933  24.068  1.00  0.00    -0.325 N 
ATOM     16  C   UNL A   1      33.962  24.171  24.298  1.00  0.00     0.233 C 
ATOM     17  O   UNL A   1      34.154  23.240  23.504  1.00  0.00    -0.274 OA
ATOM     18  H   UNL A   1      32.009  24.455  24.207  1.00  0.00     0.169 HD
BRANCH  16  19
ATOM     19  C   UNL A   1      34.594  24.139  25.703  1.00  0.00     0.142 C 
ATOM     20  C   UNL A   1      37.180  23.645  25.210  1.00  0.00     0.076 C 
ATOM     21  C   UNL A   1      35.947  23.521  26.085  1.00  0.00     0.192 C 
ATOM     22  N   UNL A   1      35.693  22.150  26.565  1.00  0.00    -0.343 N 
ATOM     23  C   UNL A   1      34.245  21.946  26.587  1.00  0.00     0.261 C 
ATOM     24  H   UNL A   1      36.074  22.035  27.505  1.00  0.00     0.346 HD
ATOM     25  H   UNL A   1      36.141  21.469  25.952  1.00  0.00     0.346 HD
ATOM     26  C   UNL A   1      33.669  23.347  26.646  1.00  0.00     0.081 C 
ENDBRANCH  16  19
ENDBRANCH  10  15
ENDBRANCH   8   9
ENDBRANCH   5   8
ENDBRANCH   3   4
ENDBRANCH   2   3
ENDBRANCH   1   2
BRANCH   1  27
ATOM     27  C   UNL A   1      31.590  30.740  26.195  1.00  0.00     0.002 C 
BRANCH  27  28
ATOM     28  C   UNL A   1      31.403  32.186  26.657  1.00  0.00     0.021 C 
BRANCH  28  29
ATOM     29  C   UNL A   1      32.660  32.807  27.257  1.00  0.00     0.116 C 
BRANCH  29  30
ATOM     30  N   UNL A   1      32.455  34.206  27.595  1.00  0.00    -0.352 N 
ATOM     31  C   UNL A   1      33.011  34.941  28.610  1.00  0.00     0.251 C 
ATOM     32  H   UNL A   1      31.829  34.695  27.013  1.00  0.00     0.163 HD
ATOM     33  O   UNL A   1      32.563  36.036  28.910  1.00  0.00    -0.269 OA
BRANCH  31  34
ATOM     34  C   UNL A   1      34.161  34.381  29.345  1.00  0.00     0.039 A 
ATOM     35  C   UNL A   1      33.928  33.694  30.537  1.00  0.00     0.014 A 
ATOM     36  C   UNL A   1      35.460  34.540  28.853  1.00  0.00     0.014 A 
ATOM     37  C   UNL A   1      35.003  33.124  31.218  1.00  0.00     0.010 A 
ATOM     38  C   UNL A   1      36.520  33.911  29.494  1.00  0.00     0.010 A 
ATOM     39  C   UNL A   1      36.301  33.208  30.687  1.00  0.00    -0.014 A 
BRANCH  39  40
ATOM     40  C   UNL A   1      37.440  32.552  31.371  1.00  0.00     0.031 A 
ATOM     41  C   UNL A   1      38.144  31.393  30.729  1.00  0.00     0.074 A 
ATOM     42  C   UNL A   1      37.792  32.967  32.601  1.00  0.00     0.049 A 
ATOM     43  N   UNL A   1      39.151  30.687  31.177  1.00  0.00    -0.248 NA
ATOM     44  C   UNL A   1      37.628  30.946  29.427  1.00  0.00     0.031 C 
ATOM     45  C   UNL A   1      37.125  34.029  33.356  1.00  0.00     0.029 A 
ATOM     46  N   UNL A   1      38.790  32.537  33.438  1.00  0.00    -0.354 N 
ATOM     47  C   UNL A   1      39.377  29.707  30.222  1.00  0.00     0.074 A 
ATOM     48  C   UNL A   1      38.369  29.872  29.198  1.00  0.00     0.031 C 
ATOM     49  C   UNL A   1      37.744  34.181  34.537  1.00  0.00     0.029 A 
ATOM     50  C   UNL A   1      38.832  33.213  34.631  1.00  0.00     0.049 A 
ATOM     51  H   UNL A   1      39.414  31.812  33.205  1.00  0.00     0.167 HD
ATOM     52  C   UNL A   1      40.354  28.769  30.192  1.00  0.00     0.037 A 
ATOM     53  C   UNL A   1      39.660  33.069  35.682  1.00  0.00     0.037 A 
ATOM     54  C   UNL A   1      41.368  28.629  31.205  1.00  0.00     0.049 A 
ATOM     55  C   UNL A   1      40.761  32.050  35.611  1.00  0.00     0.074 A 
ATOM     56  C   UNL A   1      42.459  27.780  31.225  1.00  0.00     0.029 A 
ATOM     57  N   UNL A   1      41.405  29.354  32.388  1.00  0.00    -0.354 N 
ATOM     58  N   UNL A   1      41.036  31.196  34.654  1.00  0.00    -0.248 NA
ATOM     59  C   UNL A   1      41.677  31.986  36.756  1.00  0.00     0.031 C 
ATOM     60  C   UNL A   1      43.127  27.955  32.442  1.00  0.00     0.029 A 
ATOM     61  C   UNL A   1      42.482  28.949  33.160  1.00  0.00     0.049 A 
ATOM     62  H   UNL A   1      40.761  30.055  32.641  1.00  0.00     0.167 HD
ATOM     63  C   UNL A   1      42.159  30.498  35.075  1.00  0.00     0.074 A 
ATOM     64  C   UNL A   1      42.530  31.049  36.364  1.00  0.00     0.031 C 
ATOM     65  C   UNL A   1      42.822  29.492  34.452  1.00  0.00     0.037 A 
BRANCH  52  66
ATOM     66  C   UNL A   1      40.363  27.820  29.028  1.00  0.00     0.064 A 
ATOM     67  C   UNL A   1      41.116  28.075  27.870  1.00  0.00     0.173 A 
ATOM     68  C   UNL A   1      39.610  26.637  29.069  1.00  0.00     0.173 A 
ATOM     69  F   UNL A   1      41.845  29.197  27.773  1.00  0.00    -0.203 F 
ATOM     70  C   UNL A   1      41.081  27.204  26.783  1.00  0.00     0.198 A 
ATOM     71  C   UNL A   1      39.603  25.753  27.994  1.00  0.00     0.198 A 
ATOM     72  F   UNL A   1      38.875  26.341  30.152  1.00  0.00    -0.203 F 
ATOM     73  F   UNL A   1      41.757  27.503  25.666  1.00  0.00    -0.200 F 
ATOM     74  C   UNL A   1      40.328  26.043  26.848  1.00  0.00     0.200 A 
ATOM     75  F   UNL A   1      38.883  24.623  28.062  1.00  0.00    -0.200 F 
ATOM     76  F   UNL A   1      40.292  25.207  25.801  1.00  0.00    -0.200 F 
ENDBRANCH  52  66
BRANCH  53  77
ATOM     77  C   UNL A   1      39.484  33.942  36.869  1.00  0.00     0.064 A 
ATOM     78  C   UNL A   1      38.771  33.500  37.991  1.00  0.00     0.173 A 
ATOM     79  C   UNL A   1      40.066  35.216  36.924  1.00  0.00     0.173 A 
ATOM     80  F   UNL A   1      38.184  32.293  37.977  1.00  0.00    -0.203 F 
ATOM     81  C   UNL A   1      38.642  34.302  39.122  1.00  0.00     0.198 A 
ATOM     82  C   UNL A   1      39.957  36.008  38.065  1.00  0.00     0.198 A 
ATOM     83  F   UNL A   1      40.767  35.681  35.878  1.00  0.00    -0.203 F 
ATOM     84  F   UNL A   1      37.933  33.866  40.173  1.00  0.00    -0.200 F 
ATOM     85  C   UNL A   1      39.242  35.552  39.162  1.00  0.00     0.200 A 
ATOM     86  F   UNL A   1      40.553  37.208  38.105  1.00  0.00    -0.200 F 
ATOM     87  F   UNL A   1      39.131  36.316  40.257  1.00  0.00    -0.200 F 
ENDBRANCH  53  77
BRANCH  65  88
ATOM     88  C   UNL A   1      44.013  28.920  35.164  1.00  0.00     0.064 A 
ATOM     89  C   UNL A   1      45.301  29.440  34.970  1.00  0.00     0.173 A 
ATOM     90  C   UNL A   1      43.862  27.857  36.067  1.00  0.00     0.173 A 
ATOM     91  F   UNL A   1      45.500  30.446  34.106  1.00  0.00    -0.203 F 
ATOM     92  C   UNL A   1      46.399  28.897  35.633  1.00  0.00     0.198 A 
ATOM     93  C   UNL A   1      44.958  27.337  36.750  1.00  0.00     0.198 A 
ATOM     94  F   UNL A   1      42.651  27.328  36.293  1.00  0.00    -0.203 F 
ATOM     95  F   UNL A   1      47.627  29.377  35.391  1.00  0.00    -0.200 F 
ATOM     96  C   UNL A   1      46.226  27.851  36.526  1.00  0.00     0.200 A 
ATOM     97  F   UNL A   1      44.787  26.334  37.623  1.00  0.00    -0.200 F 
ATOM     98  F   UNL A   1      47.284  27.332  37.164  1.00  0.00    -0.200 F 
ENDBRANCH  65  88
ENDBRANCH  39  40
ENDBRANCH  31  34
ENDBRANCH  29  30
ENDBRANCH  28  29
ENDBRANCH  27  28
ENDBRANCH   1  27
TORSDOF 16
ENDMDL
MODEL 2
REMARK VINA RESULT:     -11.9      5.477     10.976
REMARK SMILES C[C@@H]1[NH2+]CC[C@@H]1C(=O)Nc1ccccc1CC(=O)NCCCCCCNC(=O)c1ccc(-c2c3nc(c(-c4c(F)c(F)c(F)c(F)c4F)c4ccc([nH]4)c(-c4c(F)c(F)c(F)c(F)c4F)c4nc(c(-c5c(F)c(F)c(F)c(F)c5F)c5ccc2[nH]5)C=C4)C=C3)cc1
REMARK SMILES IDX 22 1 21 2 20 3 19 4 17 5 18 6 16 8 15 9 10 10 11 11 12 12
REMARK SMILES IDX 14 13 13 14 9 15 7 16 8 17 6 19 1 20 2 21 3 22 4 23 5 26
REMARK SMILES IDX 23 27 24 28 25 29 26 30 27 31 28 33 29 34 30 35 91 36 31 37
REMARK SMILES IDX 90 38 32 39 33 40 34 41 84 42 35 43 89 44 83 45 85 46 36 47
REMARK SMILES IDX 88 48 82 49 81 50 37 52 69 53 49 54 68 55 50 56 53 57 67 58
REMARK SMILES IDX 86 59 51 60 52 61 66 63 87 64 54 65 38 66 39 67 47 68 40 69
REMARK SMILES IDX 41 70 45 71 48 72 42 73 43 74 46 75 44 76 70 77 71 78 79 79
REMARK SMILES IDX 72 80 73 81 77 82 80 83 74 84 75 85 78 86 76 87 55 88 56 89
REMARK SMILES IDX 64 90 57 91 58 92 62 93 65 94 59 95 60 96 63 97 61 98
REMARK H PARENT 19 7 9 18 3 24 3 25 26 32 85 51 53 62
REMARK Flexibility Score: inf
ROOT
ATOM      1  C   UNL A   1      37.088  21.994  24.825  1.00  0.00     0.002 C 
ENDROOT
BRANCH   1   2
ATOM      2  C   UNL A   1      36.659  22.524  23.454  1.00  0.00     0.021 C 
BRANCH   2   3
ATOM      3  C   UNL A   1      35.695  23.703  23.561  1.00  0.00     0.116 C 
BRANCH   3   4
ATOM      4  N   UNL A   1      34.781  23.481  24.658  1.00  0.00    -0.356 N 
ATOM      5  C   UNL A   1      34.300  24.432  25.508  1.00  0.00     0.224 C 
ATOM      6  O   UNL A   1      33.942  24.093  26.636  1.00  0.00    -0.275 OA
ATOM      7  H   UNL A   1      34.477  22.556  24.805  1.00  0.00     0.163 HD
BRANCH   5   8
ATOM      8  C   UNL A   1      34.099  25.843  25.000  1.00  0.00     0.137 C 
BRANCH   8   9
ATOM      9  C   UNL A   1      33.425  26.840  25.914  1.00  0.00    -0.015 A 
ATOM     10  C   UNL A   1      32.130  26.711  26.456  1.00  0.00     0.044 A 
ATOM     11  C   UNL A   1      31.604  27.763  27.237  1.00  0.00     0.026 A 
ATOM     12  C   UNL A   1      32.359  28.888  27.555  1.00  0.00     0.002 A 
ATOM     13  C   UNL A   1      34.177  27.987  26.261  1.00  0.00     0.006 A 
ATOM     14  C   UNL A   1      33.655  28.992  27.079  1.00  0.00     0.000 A 
BRANCH  10  15
ATOM     15  N   UNL A   1      31.220  25.641  26.300  1.00  0.00    -0.325 N 
ATOM     16  C   UNL A   1      29.925  25.592  25.885  1.00  0.00     0.233 C 
ATOM     17  O   UNL A   1      29.091  25.275  26.744  1.00  0.00    -0.274 OA
ATOM     18  H   UNL A   1      31.594  24.763  26.537  1.00  0.00     0.169 HD
BRANCH  16  19
ATOM     19  C   UNL A   1      29.604  25.420  24.387  1.00  0.00     0.142 C 
ATOM     20  C   UNL A   1      31.258  23.459  23.618  1.00  0.00     0.076 C 
ATOM     21  C   UNL A   1      30.486  24.734  23.334  1.00  0.00     0.192 C 
ATOM     22  N   UNL A   1      31.287  25.779  22.670  1.00  0.00    -0.343 N 
ATOM     23  C   UNL A   1      30.858  27.073  23.200  1.00  0.00     0.261 C 
ATOM     24  H   UNL A   1      31.131  25.748  21.663  1.00  0.00     0.346 HD
ATOM     25  H   UNL A   1      32.281  25.632  22.846  1.00  0.00     0.346 HD
ATOM     26  C   UNL A   1      29.467  26.814  23.745  1.00  0.00     0.081 C 
ENDBRANCH  16  19
ENDBRANCH  10  15
ENDBRANCH   8   9
ENDBRANCH   5   8
ENDBRANCH   3   4
ENDBRANCH   2   3
ENDBRANCH   1   2
BRANCH   1  27
ATOM     27  C   UNL A   1      36.807  20.503  25.025  1.00  0.00     0.002 C 
BRANCH  27  28
ATOM     28  C   UNL A   1      38.052  19.619  24.938  1.00  0.00     0.021 C 
BRANCH  28  29
ATOM     29  C   UNL A   1      39.224  20.125  25.771  1.00  0.00     0.116 C 
BRANCH  29  30
ATOM     30  N   UNL A   1      40.237  19.096  25.947  1.00  0.00    -0.352 N 
ATOM     31  C   UNL A   1      41.593  19.235  26.100  1.00  0.00     0.251 C 
ATOM     32  H   UNL A   1      39.903  18.170  25.957  1.00  0.00     0.163 HD
ATOM     33  O   UNL A   1      42.337  18.273  25.999  1.00  0.00    -0.269 OA
BRANCH  31  34
ATOM     34  C   UNL A   1      42.143  20.575  26.383  1.00  0.00     0.039 A 
ATOM     35  C   UNL A   1      42.541  21.378  25.313  1.00  0.00     0.014 A 
ATOM     36  C   UNL A   1      42.262  21.026  27.700  1.00  0.00     0.014 A 
ATOM     37  C   UNL A   1      43.022  22.662  25.566  1.00  0.00     0.010 A 
ATOM     38  C   UNL A   1      42.674  22.330  27.945  1.00  0.00     0.010 A 
ATOM     39  C   UNL A   1      43.068  23.154  26.881  1.00  0.00    -0.014 A 
BRANCH  39  40
ATOM     40  C   UNL A   1      43.518  24.538  27.153  1.00  0.00     0.031 A 
ATOM     41  C   UNL A   1      42.539  25.578  27.615  1.00  0.00     0.074 A 
ATOM     42  C   UNL A   1      44.802  24.867  26.919  1.00  0.00     0.049 A 
ATOM     43  N   UNL A   1      42.744  26.840  27.893  1.00  0.00    -0.248 NA
ATOM     44  C   UNL A   1      41.139  25.151  27.750  1.00  0.00     0.031 C 
ATOM     45  C   UNL A   1      45.822  23.960  26.391  1.00  0.00     0.029 A 
ATOM     46  N   UNL A   1      45.463  26.057  27.084  1.00  0.00    -0.354 N 
ATOM     47  C   UNL A   1      41.500  27.359  28.221  1.00  0.00     0.074 A 
ATOM     48  C   UNL A   1      40.538  26.292  28.051  1.00  0.00     0.031 C 
ATOM     49  C   UNL A   1      46.986  24.621  26.293  1.00  0.00     0.029 A 
ATOM     50  C   UNL A   1      46.786  26.001  26.727  1.00  0.00     0.049 A 
ATOM     51  H   UNL A   1      45.030  26.873  27.424  1.00  0.00     0.167 HD
ATOM     52  C   UNL A   1      41.193  28.608  28.646  1.00  0.00     0.037 A 
ATOM     53  C   UNL A   1      47.735  26.955  26.750  1.00  0.00     0.037 A 
ATOM     54  C   UNL A   1      42.163  29.656  28.834  1.00  0.00     0.049 A 
ATOM     55  C   UNL A   1      47.383  28.322  27.264  1.00  0.00     0.074 A 
ATOM     56  C   UNL A   1      41.977  30.924  29.353  1.00  0.00     0.029 A 
ATOM     57  N   UNL A   1      43.506  29.556  28.495  1.00  0.00    -0.354 N 
ATOM     58  N   UNL A   1      46.223  28.777  27.674  1.00  0.00    -0.248 NA
ATOM     59  C   UNL A   1      48.472  29.303  27.334  1.00  0.00     0.031 C 
ATOM     60  C   UNL A   1      43.195  31.609  29.281  1.00  0.00     0.029 A 
ATOM     61  C   UNL A   1      44.153  30.752  28.764  1.00  0.00     0.049 A 
ATOM     62  H   UNL A   1      43.936  28.754  28.120  1.00  0.00     0.167 HD
ATOM     63  C   UNL A   1      46.442  30.092  28.059  1.00  0.00     0.074 A 
ATOM     64  C   UNL A   1      47.854  30.352  27.857  1.00  0.00     0.031 C 
ATOM     65  C   UNL A   1      45.555  31.001  28.534  1.00  0.00     0.037 A 
BRANCH  52  66
ATOM     66  C   UNL A   1      39.749  28.905  28.929  1.00  0.00     0.064 A 
ATOM     67  C   UNL A   1      39.196  28.745  30.210  1.00  0.00     0.173 A 
ATOM     68  C   UNL A   1      38.902  29.358  27.905  1.00  0.00     0.173 A 
ATOM     69  F   UNL A   1      39.958  28.303  31.222  1.00  0.00    -0.203 F 
ATOM     70  C   UNL A   1      37.845  28.985  30.445  1.00  0.00     0.198 A 
ATOM     71  C   UNL A   1      37.559  29.629  28.152  1.00  0.00     0.198 A 
ATOM     72  F   UNL A   1      39.378  29.533  26.663  1.00  0.00    -0.203 F 
ATOM     73  F   UNL A   1      37.329  28.763  31.661  1.00  0.00    -0.200 F 
ATOM     74  C   UNL A   1      37.029  29.431  29.417  1.00  0.00     0.200 A 
ATOM     75  F   UNL A   1      36.773  30.071  27.159  1.00  0.00    -0.200 F 
ATOM     76  F   UNL A   1      35.728  29.660  29.644  1.00  0.00    -0.200 F 
ENDBRANCH  52  66
BRANCH  53  77
ATOM     77  C   UNL A   1      49.110  26.624  26.300  1.00  0.00     0.064 A 
ATOM     78  C   UNL A   1      49.521  26.884  24.987  1.00  0.00     0.173 A 
ATOM     79  C   UNL A   1      50.053  26.087  27.188  1.00  0.00     0.173 A 
ATOM     80  F   UNL A   1      48.648  27.384  24.099  1.00  0.00    -0.203 F 
ATOM     81  C   UNL A   1      50.824  26.613  24.575  1.00  0.00     0.198 A 
ATOM     82  C   UNL A   1      51.362  25.839  26.782  1.00  0.00     0.198 A 
ATOM     83  F   UNL A   1      49.709  25.829  28.459  1.00  0.00    -0.203 F 
ATOM     84  F   UNL A   1      51.186  26.847  23.306  1.00  0.00    -0.200 F 
ATOM     85  C   UNL A   1      51.746  26.100  25.475  1.00  0.00     0.200 A 
ATOM     86  F   UNL A   1      52.254  25.359  27.659  1.00  0.00    -0.200 F 
ATOM     87  F   UNL A   1      53.004  25.855  25.082  1.00  0.00    -0.200 F 
ENDBRANCH  53  77
BRANCH  65  88
ATOM     88  C   UNL A   1      46.090  32.365  28.862  1.00  0.00     0.064 A 
ATOM     89  C   UNL A   1      46.607  32.663  30.132  1.00  0.00     0.173 A 
ATOM     90  C   UNL A   1      46.107  33.377  27.891  1.00  0.00     0.173 A 
ATOM     91  F   UNL A   1      46.598  31.734  31.099  1.00  0.00    -0.203 F 
ATOM     92  C   UNL A   1      47.095  33.933  30.425  1.00  0.00     0.198 A 
ATOM     93  C   UNL A   1      46.624  34.637  28.179  1.00  0.00     0.198 A 
ATOM     94  F   UNL A   1      45.631  33.142  26.660  1.00  0.00    -0.203 F 
ATOM     95  F   UNL A   1      47.535  34.209  31.661  1.00  0.00    -0.200 F 
ATOM     96  C   UNL A   1      47.109  34.917  29.448  1.00  0.00     0.200 A 
ATOM     97  F   UNL A   1      46.649  35.583  27.230  1.00  0.00    -0.200 F 
ATOM     98  F   UNL A   1      47.582  36.138  29.732  1.00  0.00    -0.200 F 
ENDBRANCH  65  88
ENDBRANCH  39  40
ENDBRANCH  31  34
ENDBRANCH  29  30
ENDBRANCH  28  29
ENDBRANCH  27  28
ENDBRANCH   1  27
TORSDOF 16
ENDMDL
MODEL 3
REMARK VINA RESULT:     -11.7      1.698      7.663
REMARK SMILES C[C@@H]1[NH2+]CC[C@@H]1C(=O)Nc1ccccc1CC(=O)NCCCCCCNC(=O)c1ccc(-c2c3nc(c(-c4c(F)c(F)c(F)c(F)c4F)c4ccc([nH]4)c(-c4c(F)c(F)c(F)c(F)c4F)c4nc(c(-c5c(F)c(F)c(F)c(F)c5F)c5ccc2[nH]5)C=C4)C=C3)cc1
REMARK SMILES IDX 22 1 21 2 20 3 19 4 17 5 18 6 16 8 15 9 10 10 11 11 12 12
REMARK SMILES IDX 14 13 13 14 9 15 7 16 8 17 6 19 1 20 2 21 3 22 4 23 5 26
REMARK SMILES IDX 23 27 24 28 25 29 26 30 27 31 28 33 29 34 30 35 91 36 31 37
REMARK SMILES IDX 90 38 32 39 33 40 34 41 84 42 35 43 89 44 83 45 85 46 36 47
REMARK SMILES IDX 88 48 82 49 81 50 37 52 69 53 49 54 68 55 50 56 53 57 67 58
REMARK SMILES IDX 86 59 51 60 52 61 66 63 87 64 54 65 38 66 39 67 47 68 40 69
REMARK SMILES IDX 41 70 45 71 48 72 42 73 43 74 46 75 44 76 70 77 71 78 79 79
REMARK SMILES IDX 72 80 73 81 77 82 80 83 74 84 75 85 78 86 76 87 55 88 56 89
REMARK SMILES IDX 64 90 57 91 58 92 62 93 65 94 59 95 60 96 63 97 61 98
REMARK H PARENT 19 7 9 18 3 24 3 25 26 32 85 51 53 62
REMARK Flexibility Score: inf
ROOT
ATOM      1  C   UNL A   1      34.443  32.499  29.202  1.00  0.00     0.002 C 
ENDROOT
BRANCH   1   2
ATOM      2  C   UNL A   1      34.899  31.629  28.027  1.00  0.00     0.021 C 
BRANCH   2   3
ATOM      3  C   UNL A   1      33.726  31.014  27.268  1.00  0.00     0.116 C 
BRANCH   3   4
ATOM      4  N   UNL A   1      34.184  29.866  26.520  1.00  0.00    -0.356 N 
ATOM      5  C   UNL A   1      33.645  28.615  26.559  1.00  0.00     0.224 C 
ATOM      6  O   UNL A   1      34.361  27.652  26.283  1.00  0.00    -0.275 OA
ATOM      7  H   UNL A   1      34.957  30.000  25.926  1.00  0.00     0.163 HD
BRANCH   5   8
ATOM      8  C   UNL A   1      32.162  28.456  26.811  1.00  0.00     0.137 C 
BRANCH   8   9
ATOM      9  C   UNL A   1      31.338  27.716  25.782  1.00  0.00    -0.015 A 
ATOM     10  C   UNL A   1      30.975  26.356  25.847  1.00  0.00     0.044 A 
ATOM     11  C   UNL A   1      30.263  25.783  24.771  1.00  0.00     0.026 A 
ATOM     12  C   UNL A   1      29.838  26.543  23.686  1.00  0.00     0.002 A 
ATOM     13  C   UNL A   1      30.885  28.471  24.675  1.00  0.00     0.006 A 
ATOM     14  C   UNL A   1      30.137  27.895  23.646  1.00  0.00     0.000 A 
BRANCH  10  15
ATOM     15  N   UNL A   1      31.260  25.423  26.870  1.00  0.00    -0.325 N 
ATOM     16  C   UNL A   1      31.590  24.103  26.841  1.00  0.00     0.233 C 
ATOM     17  O   UNL A   1      30.749  23.323  27.306  1.00  0.00    -0.274 OA
ATOM     18  H   UNL A   1      31.208  25.800  27.777  1.00  0.00     0.169 HD
BRANCH  16  19
ATOM     19  C   UNL A   1      33.070  23.684  26.742  1.00  0.00     0.142 C 
ATOM     20  C   UNL A   1      33.846  24.696  24.386  1.00  0.00     0.076 C 
ATOM     21  C   UNL A   1      33.924  23.634  25.467  1.00  0.00     0.192 C 
ATOM     22  N   UNL A   1      33.876  22.254  24.949  1.00  0.00    -0.343 N 
ATOM     23  C   UNL A   1      33.117  21.446  25.904  1.00  0.00     0.261 C 
ATOM     24  H   UNL A   1      34.822  21.884  24.856  1.00  0.00     0.346 HD
ATOM     25  H   UNL A   1      33.431  22.233  24.030  1.00  0.00     0.346 HD
ATOM     26  C   UNL A   1      33.204  22.221  27.203  1.00  0.00     0.081 C 
ENDBRANCH  16  19
ENDBRANCH  10  15
ENDBRANCH   8   9
ENDBRANCH   5   8
ENDBRANCH   3   4
ENDBRANCH   2   3
ENDBRANCH   1   2
BRANCH   1  27
ATOM     27  C   UNL A   1      34.662  33.998  28.981  1.00  0.00     0.002 C 
BRANCH  27  28
ATOM     28  C   UNL A   1      33.371  34.818  28.952  1.00  0.00     0.021 C 
BRANCH  28  29
ATOM     29  C   UNL A   1      33.461  36.133  29.717  1.00  0.00     0.116 C 
BRANCH  29  30
ATOM     30  N   UNL A   1      32.494  36.185  30.803  1.00  0.00    -0.352 N 
ATOM     31  C   UNL A   1      32.512  35.531  32.008  1.00  0.00     0.251 C 
ATOM     32  H   UNL A   1      31.719  36.771  30.651  1.00  0.00     0.163 HD
ATOM     33  O   UNL A   1      31.518  35.491  32.714  1.00  0.00    -0.269 OA
BRANCH  31  34
ATOM     34  C   UNL A   1      33.757  34.866  32.438  1.00  0.00     0.039 A 
ATOM     35  C   UNL A   1      33.692  33.550  32.899  1.00  0.00     0.014 A 
ATOM     36  C   UNL A   1      34.977  35.545  32.383  1.00  0.00     0.014 A 
ATOM     37  C   UNL A   1      34.868  32.898  33.268  1.00  0.00     0.010 A 
ATOM     38  C   UNL A   1      36.155  34.871  32.682  1.00  0.00     0.010 A 
ATOM     39  C   UNL A   1      36.107  33.546  33.137  1.00  0.00    -0.014 A 
BRANCH  39  40
ATOM     40  C   UNL A   1      37.367  32.839  33.467  1.00  0.00     0.031 A 
ATOM     41  C   UNL A   1      38.113  33.166  34.727  1.00  0.00     0.074 A 
ATOM     42  C   UNL A   1      37.866  31.947  32.592  1.00  0.00     0.049 A 
ATOM     43  N   UNL A   1      39.233  32.662  35.179  1.00  0.00    -0.248 NA
ATOM     44  C   UNL A   1      37.543  34.223  35.576  1.00  0.00     0.031 C 
ATOM     45  C   UNL A   1      37.269  31.611  31.298  1.00  0.00     0.029 A 
ATOM     46  N   UNL A   1      38.994  31.171  32.653  1.00  0.00    -0.354 N 
ATOM     47  C   UNL A   1      39.508  33.349  36.352  1.00  0.00     0.074 A 
ATOM     48  C   UNL A   1      38.470  34.345  36.514  1.00  0.00     0.031 C 
ATOM     49  C   UNL A   1      38.027  30.681  30.695  1.00  0.00     0.029 A 
ATOM     50  C   UNL A   1      39.172  30.377  31.548  1.00  0.00     0.049 A 
ATOM     51  H   UNL A   1      39.617  31.182  33.416  1.00  0.00     0.167 HD
ATOM     52  C   UNL A   1      40.523  33.151  37.227  1.00  0.00     0.037 A 
ATOM     53  C   UNL A   1      40.150  29.499  31.257  1.00  0.00     0.037 A 
ATOM     54  C   UNL A   1      41.538  32.142  37.068  1.00  0.00     0.049 A 
ATOM     55  C   UNL A   1      41.244  29.265  32.259  1.00  0.00     0.074 A 
ATOM     56  C   UNL A   1      42.552  31.790  37.940  1.00  0.00     0.029 A 
ATOM     57  N   UNL A   1      41.671  31.328  35.951  1.00  0.00    -0.354 N 
ATOM     58  N   UNL A   1      41.439  29.845  33.419  1.00  0.00    -0.248 NA
ATOM     59  C   UNL A   1      42.243  28.245  31.920  1.00  0.00     0.031 C 
ATOM     60  C   UNL A   1      43.329  30.799  37.329  1.00  0.00     0.029 A 
ATOM     61  C   UNL A   1      42.770  30.497  36.098  1.00  0.00     0.049 A 
ATOM     62  H   UNL A   1      41.072  31.338  35.170  1.00  0.00     0.167 HD
ATOM     63  C   UNL A   1      42.576  29.256  33.954  1.00  0.00     0.074 A 
ATOM     64  C   UNL A   1      43.011  28.254  33.001  1.00  0.00     0.031 C 
ATOM     65  C   UNL A   1      43.204  29.522  35.127  1.00  0.00     0.037 A 
BRANCH  52  66
ATOM     66  C   UNL A   1      40.585  34.051  38.427  1.00  0.00     0.064 A 
ATOM     67  C   UNL A   1      41.317  35.250  38.418  1.00  0.00     0.173 A 
ATOM     68  C   UNL A   1      39.901  33.714  39.605  1.00  0.00     0.173 A 
ATOM     69  F   UNL A   1      41.999  35.615  37.321  1.00  0.00    -0.203 F 
ATOM     70  C   UNL A   1      41.397  36.053  39.553  1.00  0.00     0.198 A 
ATOM     71  C   UNL A   1      39.957  34.535  40.728  1.00  0.00     0.198 A 
ATOM     72  F   UNL A   1      39.183  32.583  39.669  1.00  0.00    -0.203 F 
ATOM     73  F   UNL A   1      42.154  37.157  39.538  1.00  0.00    -0.200 F 
ATOM     74  C   UNL A   1      40.714  35.696  40.705  1.00  0.00     0.200 A 
ATOM     75  F   UNL A   1      39.286  34.195  41.838  1.00  0.00    -0.200 F 
ATOM     76  F   UNL A   1      40.793  36.468  41.798  1.00  0.00    -0.200 F 
ENDBRANCH  52  66
BRANCH  53  77
ATOM     77  C   UNL A   1      40.103  28.761  29.970  1.00  0.00     0.064 A 
ATOM     78  C   UNL A   1      40.710  29.278  28.819  1.00  0.00     0.173 A 
ATOM     79  C   UNL A   1      39.492  27.502  29.879  1.00  0.00     0.173 A 
ATOM     80  F   UNL A   1      41.294  30.486  28.857  1.00  0.00    -0.203 F 
ATOM     81  C   UNL A   1      40.705  28.567  27.622  1.00  0.00     0.198 A 
ATOM     82  C   UNL A   1      39.507  26.781  28.687  1.00  0.00     0.198 A 
ATOM     83  F   UNL A   1      38.905  26.960  30.957  1.00  0.00    -0.203 F 
ATOM     84  F   UNL A   1      41.271  29.095  26.528  1.00  0.00    -0.200 F 
ATOM     85  C   UNL A   1      40.111  27.315  27.558  1.00  0.00     0.200 A 
ATOM     86  F   UNL A   1      38.948  25.565  28.635  1.00  0.00    -0.200 F 
ATOM     87  F   UNL A   1      40.120  26.624  26.410  1.00  0.00    -0.200 F 
ENDBRANCH  53  77
BRANCH  65  88
ATOM     88  C   UNL A   1      44.432  28.719  35.437  1.00  0.00     0.064 A 
ATOM     89  C   UNL A   1      44.357  27.505  36.137  1.00  0.00     0.173 A 
ATOM     90  C   UNL A   1      45.696  29.153  35.011  1.00  0.00     0.173 A 
ATOM     91  F   UNL A   1      43.174  27.054  36.580  1.00  0.00    -0.203 F 
ATOM     92  C   UNL A   1      45.505  26.772  36.424  1.00  0.00     0.198 A 
ATOM     93  C   UNL A   1      46.839  28.402  35.273  1.00  0.00     0.198 A 
ATOM     94  F   UNL A   1      45.823  30.304  34.332  1.00  0.00    -0.203 F 
ATOM     95  F   UNL A   1      45.413  25.642  37.140  1.00  0.00    -0.200 F 
ATOM     96  C   UNL A   1      46.743  27.217  35.987  1.00  0.00     0.200 A 
ATOM     97  F   UNL A   1      48.033  28.827  34.838  1.00  0.00    -0.200 F 
ATOM     98  F   UNL A   1      47.847  26.507  36.261  1.00  0.00    -0.200 F 
ENDBRANCH  65  88
ENDBRANCH  39  40
ENDBRANCH  31  34
ENDBRANCH  29  30
ENDBRANCH  28  29
ENDBRANCH  27  28
ENDBRANCH   1  27
TORSDOF 16
ENDMDL
