MODEL 1
REMARK VINA RESULT:     -12.5      0.000      0.000
REMARK SMILES Cc1c(Cl)cc2c(c1C)O[C@@H](C(F)(F)F)C(C(=O)NCCCCCCNC(=O)c1ccc(-c3c4nc(c(-c5c(F)c(F)c(F)c(F)c5F)c5ccc([nH]5)c(-c5c(F)c(F)c(F)c(F)c5F)c5nc(c(-c6c(F)c(F)c(F)c(F)c6F)c6ccc3[nH]6)C=C5)C=C4)cc1)=C2
REMARK SMILES IDX 23 1 22 2 21 3 20 4 19 5 17 6 18 7 16 9 1 10 2 11 3 12 8 13
REMARK SMILES IDX 4 14 5 15 7 16 9 17 6 18 10 19 92 20 11 21 12 22 13 23 14 24
REMARK SMILES IDX 15 25 24 26 25 27 26 28 27 29 28 31 29 32 30 33 91 34 31 35
REMARK SMILES IDX 90 36 32 37 33 38 34 39 84 40 35 41 89 42 83 43 85 44 36 45
REMARK SMILES IDX 88 46 82 47 81 48 37 50 69 51 49 52 68 53 50 54 53 55 67 56
REMARK SMILES IDX 86 57 51 58 52 59 66 61 87 62 54 63 38 64 39 65 47 66 40 67
REMARK SMILES IDX 41 68 45 69 48 70 42 71 43 72 46 73 44 74 70 75 71 76 79 77
REMARK SMILES IDX 72 78 73 79 77 80 80 81 74 82 75 83 78 84 76 85 55 86 56 87
REMARK SMILES IDX 64 88 57 89 58 90 62 91 65 92 59 93 60 94 63 95 61 96
REMARK H PARENT 19 8 26 30 85 49 53 60
REMARK Flexibility Score: inf
ROOT
ATOM      1  C   UNL A   1      32.375  28.440  22.929  1.00  0.00     0.002 C 
ENDROOT
BRANCH   1   2
ATOM      2  C   UNL A   1      30.942  28.788  23.349  1.00  0.00     0.002 C 
BRANCH   2   3
ATOM      3  C   UNL A   1      29.871  27.796  22.892  1.00  0.00     0.021 C 
BRANCH   3   4
ATOM      4  C   UNL A   1      29.705  26.591  23.816  1.00  0.00     0.116 C 
BRANCH   4   5
ATOM      5  N   UNL A   1      30.218  26.860  25.148  1.00  0.00    -0.352 N 
ATOM      6  C   UNL A   1      31.146  26.338  25.984  1.00  0.00     0.251 C 
ATOM      7  O   UNL A   1      31.270  26.931  27.060  1.00  0.00    -0.270 OA
ATOM      8  H   UNL A   1      29.766  27.633  25.555  1.00  0.00     0.163 HD
BRANCH   6   9
ATOM      9  C   UNL A   1      31.997  25.142  25.700  1.00  0.00     0.067 C 
ATOM     10  C   UNL A   1      36.832  20.805  24.915  1.00  0.00     0.046 C 
ATOM     11  C   UNL A   1      35.934  21.993  25.147  1.00  0.00    -0.026 A 
ATOM     12  C   UNL A   1      36.427  23.207  25.667  1.00  0.00     0.045 A 
ATOM     13  C   UNL A   1      34.552  21.894  24.858  1.00  0.00    -0.004 A 
ATOM     14  Cl  UNL A   1      38.094  23.434  26.072  1.00  0.00    -0.084 Cl
ATOM     15  C   UNL A   1      35.580  24.299  25.888  1.00  0.00     0.032 A 
ATOM     16  C   UNL A   1      33.719  23.006  25.089  1.00  0.00     0.131 A 
ATOM     17  C   UNL A   1      33.911  20.634  24.328  1.00  0.00     0.049 C 
ATOM     18  C   UNL A   1      34.220  24.203  25.601  1.00  0.00     0.019 A 
ATOM     19  O   UNL A   1      32.404  22.871  24.742  1.00  0.00    -0.475 OA
ATOM     20  C   UNL A   1      33.325  25.333  25.808  1.00  0.00     0.025 C 
ATOM     21  C   UNL A   1      31.462  23.781  25.362  1.00  0.00     0.314 C 
BRANCH  21  22
ATOM     22  C   UNL A   1      30.775  23.078  26.546  1.00  0.00     0.429 C 
ATOM     23  F   UNL A   1      31.579  22.968  27.628  1.00  0.00    -0.167 F 
ATOM     24  F   UNL A   1      29.652  23.709  26.956  1.00  0.00    -0.167 F 
ATOM     25  F   UNL A   1      30.404  21.819  26.192  1.00  0.00    -0.167 F 
ENDBRANCH  21  22
ENDBRANCH   6   9
ENDBRANCH   4   5
ENDBRANCH   3   4
ENDBRANCH   2   3
ENDBRANCH   1   2
BRANCH   1  26
ATOM     26  C   UNL A   1      33.480  29.156  23.711  1.00  0.00     0.021 C 
BRANCH  26  27
ATOM     27  C   UNL A   1      33.283  29.165  25.224  1.00  0.00     0.116 C 
BRANCH  27  28
ATOM     28  N   UNL A   1      32.730  30.426  25.688  1.00  0.00    -0.352 N 
ATOM     29  C   UNL A   1      33.069  31.173  26.784  1.00  0.00     0.251 C 
ATOM     30  H   UNL A   1      32.005  30.797  25.134  1.00  0.00     0.163 HD
ATOM     31  O   UNL A   1      32.343  32.094  27.157  1.00  0.00    -0.269 OA
BRANCH  29  32
ATOM     32  C   UNL A   1      34.308  30.873  27.527  1.00  0.00     0.039 A 
ATOM     33  C   UNL A   1      35.262  31.881  27.691  1.00  0.00     0.014 A 
ATOM     34  C   UNL A   1      34.541  29.590  28.033  1.00  0.00     0.014 A 
ATOM     35  C   UNL A   1      36.431  31.615  28.404  1.00  0.00     0.010 A 
ATOM     36  C   UNL A   1      35.679  29.344  28.795  1.00  0.00     0.010 A 
ATOM     37  C   UNL A   1      36.637  30.351  28.981  1.00  0.00    -0.014 A 
BRANCH  37  38
ATOM     38  C   UNL A   1      37.860  30.053  29.763  1.00  0.00     0.031 A 
ATOM     39  C   UNL A   1      38.901  29.128  29.201  1.00  0.00     0.074 A 
ATOM     40  C   UNL A   1      38.007  30.574  30.995  1.00  0.00     0.049 A 
ATOM     41  N   UNL A   1      39.993  28.672  29.761  1.00  0.00    -0.248 NA
ATOM     42  C   UNL A   1      38.674  28.632  27.834  1.00  0.00     0.031 C 
ATOM     43  C   UNL A   1      37.053  31.470  31.652  1.00  0.00     0.029 A 
ATOM     44  N   UNL A   1      39.008  30.417  31.920  1.00  0.00    -0.354 N 
ATOM     45  C   UNL A   1      40.577  27.836  28.819  1.00  0.00     0.074 A 
ATOM     46  C   UNL A   1      39.695  27.803  27.674  1.00  0.00     0.031 C 
ATOM     47  C   UNL A   1      37.527  31.802  32.864  1.00  0.00     0.029 A 
ATOM     48  C   UNL A   1      38.795  31.110  33.086  1.00  0.00     0.049 A 
ATOM     49  H   UNL A   1      39.805  29.860  31.762  1.00  0.00     0.167 HD
ATOM     50  C   UNL A   1      41.756  27.175  28.898  1.00  0.00     0.037 A 
ATOM     51  C   UNL A   1      39.534  31.174  34.209  1.00  0.00     0.037 A 
ATOM     52  C   UNL A   1      42.637  27.223  30.034  1.00  0.00     0.049 A 
ATOM     53  C   UNL A   1      40.823  30.401  34.284  1.00  0.00     0.074 A 
ATOM     54  C   UNL A   1      43.865  26.610  30.200  1.00  0.00     0.029 A 
ATOM     55  N   UNL A   1      42.381  27.931  31.201  1.00  0.00    -0.354 N 
ATOM     56  N   UNL A   1      41.381  29.635  33.378  1.00  0.00    -0.248 NA
ATOM     57  C   UNL A   1      41.585  30.501  35.535  1.00  0.00     0.031 C 
ATOM     58  C   UNL A   1      44.336  26.912  31.481  1.00  0.00     0.029 A 
ATOM     59  C   UNL A   1      43.424  27.755  32.096  1.00  0.00     0.049 A 
ATOM     60  H   UNL A   1      41.580  28.477  31.367  1.00  0.00     0.167 HD
ATOM     61  C   UNL A   1      42.568  29.183  33.937  1.00  0.00     0.074 A 
ATOM     62  C   UNL A   1      42.657  29.773  35.257  1.00  0.00     0.031 C 
ATOM     63  C   UNL A   1      43.499  28.355  33.405  1.00  0.00     0.037 A 
BRANCH  50  64
ATOM     64  C   UNL A   1      42.170  26.348  27.716  1.00  0.00     0.064 A 
ATOM     65  C   UNL A   1      43.111  26.820  26.786  1.00  0.00     0.173 A 
ATOM     66  C   UNL A   1      41.670  25.049  27.540  1.00  0.00     0.173 A 
ATOM     67  F   UNL A   1      43.609  28.060  26.902  1.00  0.00    -0.203 F 
ATOM     68  C   UNL A   1      43.521  26.029  25.717  1.00  0.00     0.198 A 
ATOM     69  C   UNL A   1      42.105  24.249  26.486  1.00  0.00     0.198 A 
ATOM     70  F   UNL A   1      40.773  24.547  28.402  1.00  0.00    -0.203 F 
ATOM     71  F   UNL A   1      44.391  26.515  24.821  1.00  0.00    -0.200 F 
ATOM     72  C   UNL A   1      43.025  24.741  25.573  1.00  0.00     0.200 A 
ATOM     73  F   UNL A   1      41.636  23.002  26.356  1.00  0.00    -0.200 F 
ATOM     74  F   UNL A   1      43.433  23.975  24.552  1.00  0.00    -0.200 F 
ENDBRANCH  50  64
BRANCH  51  75
ATOM     75  C   UNL A   1      39.088  32.029  35.339  1.00  0.00     0.064 A 
ATOM     76  C   UNL A   1      38.347  31.487  36.398  1.00  0.00     0.173 A 
ATOM     77  C   UNL A   1      39.409  33.393  35.398  1.00  0.00     0.173 A 
ATOM     78  F   UNL A   1      37.999  30.192  36.376  1.00  0.00    -0.203 F 
ATOM     79  C   UNL A   1      37.935  32.278  37.467  1.00  0.00     0.198 A 
ATOM     80  C   UNL A   1      39.019  34.178  36.481  1.00  0.00     0.198 A 
ATOM     81  F   UNL A   1      40.119  33.960  34.412  1.00  0.00    -0.203 F 
ATOM     82  F   UNL A   1      37.199  31.741  38.450  1.00  0.00    -0.200 F 
ATOM     83  C   UNL A   1      38.277  33.621  37.513  1.00  0.00     0.200 A 
ATOM     84  F   UNL A   1      39.365  35.471  36.529  1.00  0.00    -0.200 F 
ATOM     85  F   UNL A   1      37.892  34.379  38.548  1.00  0.00    -0.200 F 
ENDBRANCH  51  75
BRANCH  63  86
ATOM     86  C   UNL A   1      44.711  28.051  34.237  1.00  0.00     0.064 A 
ATOM     87  C   UNL A   1      44.757  26.937  35.087  1.00  0.00     0.173 A 
ATOM     88  C   UNL A   1      45.861  28.848  34.133  1.00  0.00     0.173 A 
ATOM     89  F   UNL A   1      43.679  26.151  35.230  1.00  0.00    -0.203 F 
ATOM     90  C   UNL A   1      45.906  26.642  35.817  1.00  0.00     0.198 A 
ATOM     91  C   UNL A   1      47.017  28.533  34.841  1.00  0.00     0.198 A 
ATOM     92  F   UNL A   1      45.870  29.920  33.326  1.00  0.00    -0.203 F 
ATOM     93  F   UNL A   1      45.914  25.595  36.654  1.00  0.00    -0.200 F 
ATOM     94  C   UNL A   1      47.036  27.435  35.687  1.00  0.00     0.200 A 
ATOM     95  F   UNL A   1      48.113  29.291  34.703  1.00  0.00    -0.200 F 
ATOM     96  F   UNL A   1      48.145  27.141  36.381  1.00  0.00    -0.200 F 
ENDBRANCH  63  86
ENDBRANCH  37  38
ENDBRANCH  29  32
ENDBRANCH  27  28
ENDBRANCH  26  27
ENDBRANCH   1  26
TORSDOF 14
ENDMDL
MODEL 2
REMARK VINA RESULT:     -12.5      2.049      3.405
REMARK SMILES Cc1c(Cl)cc2c(c1C)O[C@@H](C(F)(F)F)C(C(=O)NCCCCCCNC(=O)c1ccc(-c3c4nc(c(-c5c(F)c(F)c(F)c(F)c5F)c5ccc([nH]5)c(-c5c(F)c(F)c(F)c(F)c5F)c5nc(c(-c6c(F)c(F)c(F)c(F)c6F)c6ccc3[nH]6)C=C5)C=C4)cc1)=C2
REMARK SMILES IDX 23 1 22 2 21 3 20 4 19 5 17 6 18 7 16 9 1 10 2 11 3 12 8 13
REMARK SMILES IDX 4 14 5 15 7 16 9 17 6 18 10 19 92 20 11 21 12 22 13 23 14 24
REMARK SMILES IDX 15 25 24 26 25 27 26 28 27 29 28 31 29 32 30 33 91 34 31 35
REMARK SMILES IDX 90 36 32 37 33 38 34 39 84 40 35 41 89 42 83 43 85 44 36 45
REMARK SMILES IDX 88 46 82 47 81 48 37 50 69 51 49 52 68 53 50 54 53 55 67 56
REMARK SMILES IDX 86 57 51 58 52 59 66 61 87 62 54 63 38 64 39 65 47 66 40 67
REMARK SMILES IDX 41 68 45 69 48 70 42 71 43 72 46 73 44 74 70 75 71 76 79 77
REMARK SMILES IDX 72 78 73 79 77 80 80 81 74 82 75 83 78 84 76 85 55 86 56 87
REMARK SMILES IDX 64 88 57 89 58 90 62 91 65 92 59 93 60 94 63 95 61 96
REMARK H PARENT 19 8 26 30 85 49 53 60
REMARK Flexibility Score: inf
ROOT
ATOM      1  C   UNL A   1      31.664  30.644  26.839  1.00  0.00     0.002 C 
ENDROOT
BRANCH   1   2
ATOM      2  C   UNL A   1      31.719  30.008  25.445  1.00  0.00     0.002 C 
BRANCH   2   3
ATOM      3  C   UNL A   1      32.942  29.129  25.177  1.00  0.00     0.021 C 
BRANCH   3   4
ATOM      4  C   UNL A   1      33.306  29.003  23.699  1.00  0.00     0.116 C 
BRANCH   4   5
ATOM      5  N   UNL A   1      32.168  28.586  22.899  1.00  0.00    -0.352 N 
ATOM      6  C   UNL A   1      31.501  27.438  22.635  1.00  0.00     0.251 C 
ATOM      7  O   UNL A   1      30.531  27.561  21.880  1.00  0.00    -0.270 OA
ATOM      8  H   UNL A   1      31.773  29.346  22.416  1.00  0.00     0.163 HD
BRANCH   6   9
ATOM      9  C   UNL A   1      31.846  26.088  23.176  1.00  0.00     0.067 C 
ATOM     10  C   UNL A   1      34.714  20.496  24.998  1.00  0.00     0.046 C 
ATOM     11  C   UNL A   1      34.303  21.833  24.437  1.00  0.00    -0.026 A 
ATOM     12  C   UNL A   1      35.228  22.693  23.810  1.00  0.00     0.045 A 
ATOM     13  C   UNL A   1      32.958  22.260  24.555  1.00  0.00    -0.004 A 
ATOM     14  Cl  UNL A   1      36.899  22.281  23.627  1.00  0.00    -0.084 Cl
ATOM     15  C   UNL A   1      34.835  23.937  23.303  1.00  0.00     0.032 A 
ATOM     16  C   UNL A   1      32.588  23.517  24.037  1.00  0.00     0.131 A 
ATOM     17  C   UNL A   1      31.891  21.437  25.235  1.00  0.00     0.049 C 
ATOM     18  C   UNL A   1      33.512  24.355  23.416  1.00  0.00     0.019 A 
ATOM     19  O   UNL A   1      31.265  23.853  24.132  1.00  0.00    -0.475 OA
ATOM     20  C   UNL A   1      33.080  25.639  22.880  1.00  0.00     0.025 C 
ATOM     21  C   UNL A   1      30.936  25.262  24.038  1.00  0.00     0.314 C 
BRANCH  21  22
ATOM     22  C   UNL A   1      30.739  25.835  25.452  1.00  0.00     0.429 C 
ATOM     23  F   UNL A   1      31.895  25.925  26.147  1.00  0.00    -0.167 F 
ATOM     24  F   UNL A   1      30.189  27.070  25.448  1.00  0.00    -0.167 F 
ATOM     25  F   UNL A   1      29.900  25.041  26.167  1.00  0.00    -0.167 F 
ENDBRANCH  21  22
ENDBRANCH   6   9
ENDBRANCH   4   5
ENDBRANCH   3   4
ENDBRANCH   2   3
ENDBRANCH   1   2
BRANCH   1  26
ATOM     26  C   UNL A   1      31.486  32.165  26.860  1.00  0.00     0.021 C 
BRANCH  26  27
ATOM     27  C   UNL A   1      32.777  32.953  27.065  1.00  0.00     0.116 C 
BRANCH  27  28
ATOM     28  N   UNL A   1      32.518  34.284  27.588  1.00  0.00    -0.352 N 
ATOM     29  C   UNL A   1      33.038  34.898  28.696  1.00  0.00     0.251 C 
ATOM     30  H   UNL A   1      31.876  34.822  27.070  1.00  0.00     0.163 HD
ATOM     31  O   UNL A   1      32.535  35.937  29.122  1.00  0.00    -0.269 OA
BRANCH  29  32
ATOM     32  C   UNL A   1      34.202  34.312  29.387  1.00  0.00     0.039 A 
ATOM     33  C   UNL A   1      33.989  33.505  30.508  1.00  0.00     0.014 A 
ATOM     34  C   UNL A   1      35.502  34.584  28.949  1.00  0.00     0.014 A 
ATOM     35  C   UNL A   1      35.079  32.931  31.163  1.00  0.00     0.010 A 
ATOM     36  C   UNL A   1      36.583  33.963  29.565  1.00  0.00     0.010 A 
ATOM     37  C   UNL A   1      36.383  33.138  30.681  1.00  0.00    -0.014 A 
BRANCH  37  38
ATOM     38  C   UNL A   1      37.555  32.519  31.345  1.00  0.00     0.031 A 
ATOM     39  C   UNL A   1      38.297  31.405  30.666  1.00  0.00     0.074 A 
ATOM     40  C   UNL A   1      37.915  32.926  32.576  1.00  0.00     0.049 A 
ATOM     41  N   UNL A   1      39.288  30.675  31.114  1.00  0.00    -0.248 NA
ATOM     42  C   UNL A   1      37.854  31.048  29.309  1.00  0.00     0.031 C 
ATOM     43  C   UNL A   1      37.258  33.986  33.341  1.00  0.00     0.029 A 
ATOM     44  N   UNL A   1      38.917  32.489  33.405  1.00  0.00    -0.354 N 
ATOM     45  C   UNL A   1      39.580  29.774  30.100  1.00  0.00     0.074 A 
ATOM     46  C   UNL A   1      38.631  30.010  29.034  1.00  0.00     0.031 C 
ATOM     47  C   UNL A   1      37.889  34.134  34.518  1.00  0.00     0.029 A 
ATOM     48  C   UNL A   1      38.966  33.151  34.607  1.00  0.00     0.049 A 
ATOM     49  H   UNL A   1      39.543  31.768  33.162  1.00  0.00     0.167 HD
ATOM     50  C   UNL A   1      40.568  28.850  30.054  1.00  0.00     0.037 A 
ATOM     51  C   UNL A   1      39.783  32.980  35.664  1.00  0.00     0.037 A 
ATOM     52  C   UNL A   1      41.519  28.629  31.112  1.00  0.00     0.049 A 
ATOM     53  C   UNL A   1      40.850  31.921  35.602  1.00  0.00     0.074 A 
ATOM     54  C   UNL A   1      42.573  27.736  31.151  1.00  0.00     0.029 A 
ATOM     55  N   UNL A   1      41.531  29.316  32.318  1.00  0.00    -0.354 N 
ATOM     56  N   UNL A   1      41.137  31.094  34.627  1.00  0.00    -0.248 NA
ATOM     57  C   UNL A   1      41.707  31.774  36.786  1.00  0.00     0.031 C 
ATOM     58  C   UNL A   1      43.199  27.851  32.396  1.00  0.00     0.029 A 
ATOM     59  C   UNL A   1      42.566  28.852  33.114  1.00  0.00     0.049 A 
ATOM     60  H   UNL A   1      40.899  30.026  32.570  1.00  0.00     0.167 HD
ATOM     61  C   UNL A   1      42.220  30.345  35.066  1.00  0.00     0.074 A 
ATOM     62  C   UNL A   1      42.548  30.828  36.392  1.00  0.00     0.031 C 
ATOM     63  C   UNL A   1      42.882  29.349  34.430  1.00  0.00     0.037 A 
BRANCH  50  64
ATOM     64  C   UNL A   1      40.681  28.011  28.815  1.00  0.00     0.064 A 
ATOM     65  C   UNL A   1      39.965  26.812  28.675  1.00  0.00     0.173 A 
ATOM     66  C   UNL A   1      41.463  28.437  27.731  1.00  0.00     0.173 A 
ATOM     67  F   UNL A   1      39.213  26.354  29.688  1.00  0.00    -0.203 F 
ATOM     68  C   UNL A   1      40.043  26.063  27.505  1.00  0.00     0.198 A 
ATOM     69  C   UNL A   1      41.515  27.700  26.550  1.00  0.00     0.198 A 
ATOM     70  F   UNL A   1      42.164  29.579  27.810  1.00  0.00    -0.203 F 
ATOM     71  F   UNL A   1      39.380  24.902  27.409  1.00  0.00    -0.200 F 
ATOM     72  C   UNL A   1      40.810  26.512  26.440  1.00  0.00     0.200 A 
ATOM     73  F   UNL A   1      42.246  28.142  25.519  1.00  0.00    -0.200 F 
ATOM     74  F   UNL A   1      40.871  25.797  25.308  1.00  0.00    -0.200 F 
ENDBRANCH  50  64
BRANCH  51  75
ATOM     75  C   UNL A   1      39.642  33.857  36.855  1.00  0.00     0.064 A 
ATOM     76  C   UNL A   1      40.282  35.102  36.907  1.00  0.00     0.173 A 
ATOM     77  C   UNL A   1      38.851  33.483  37.951  1.00  0.00     0.173 A 
ATOM     78  F   UNL A   1      41.066  35.494  35.891  1.00  0.00    -0.203 F 
ATOM     79  C   UNL A   1      40.146  35.936  38.014  1.00  0.00     0.198 A 
ATOM     80  C   UNL A   1      38.693  34.329  39.046  1.00  0.00     0.198 A 
ATOM     81  F   UNL A   1      38.214  32.303  37.949  1.00  0.00    -0.203 F 
ATOM     82  F   UNL A   1      40.796  37.107  38.051  1.00  0.00    -0.200 F 
ATOM     83  C   UNL A   1      39.345  35.554  39.080  1.00  0.00     0.200 A 
ATOM     84  F   UNL A   1      37.907  33.963  40.067  1.00  0.00    -0.200 F 
ATOM     85  F   UNL A   1      39.204  36.361  40.139  1.00  0.00    -0.200 F 
ENDBRANCH  51  75
BRANCH  63  86
ATOM     86  C   UNL A   1      44.045  28.724  35.143  1.00  0.00     0.064 A 
ATOM     87  C   UNL A   1      45.343  29.242  35.024  1.00  0.00     0.173 A 
ATOM     88  C   UNL A   1      43.848  27.634  36.004  1.00  0.00     0.173 A 
ATOM     89  F   UNL A   1      45.586  30.275  34.204  1.00  0.00    -0.203 F 
ATOM     90  C   UNL A   1      46.404  28.679  35.729  1.00  0.00     0.198 A 
ATOM     91  C   UNL A   1      44.905  27.093  36.730  1.00  0.00     0.198 A 
ATOM     92  F   UNL A   1      42.623  27.107  36.159  1.00  0.00    -0.203 F 
ATOM     93  F   UNL A   1      47.643  29.164  35.570  1.00  0.00    -0.200 F 
ATOM     94  C   UNL A   1      46.183  27.612  36.587  1.00  0.00     0.200 A 
ATOM     95  F   UNL A   1      44.687  26.072  37.569  1.00  0.00    -0.200 F 
ATOM     96  F   UNL A   1      47.203  27.080  37.274  1.00  0.00    -0.200 F 
ENDBRANCH  63  86
ENDBRANCH  37  38
ENDBRANCH  29  32
ENDBRANCH  27  28
ENDBRANCH  26  27
ENDBRANCH   1  26
TORSDOF 14
ENDMDL
MODEL 3
REMARK VINA RESULT:     -12.5      1.271      2.443
REMARK SMILES Cc1c(Cl)cc2c(c1C)O[C@@H](C(F)(F)F)C(C(=O)NCCCCCCNC(=O)c1ccc(-c3c4nc(c(-c5c(F)c(F)c(F)c(F)c5F)c5ccc([nH]5)c(-c5c(F)c(F)c(F)c(F)c5F)c5nc(c(-c6c(F)c(F)c(F)c(F)c6F)c6ccc3[nH]6)C=C5)C=C4)cc1)=C2
REMARK SMILES IDX 23 1 22 2 21 3 20 4 19 5 17 6 18 7 16 9 1 10 2 11 3 12 8 13
REMARK SMILES IDX 4 14 5 15 7 16 9 17 6 18 10 19 92 20 11 21 12 22 13 23 14 24
REMARK SMILES IDX 15 25 24 26 25 27 26 28 27 29 28 31 29 32 30 33 91 34 31 35
REMARK SMILES IDX 90 36 32 37 33 38 34 39 84 40 35 41 89 42 83 43 85 44 36 45
REMARK SMILES IDX 88 46 82 47 81 48 37 50 69 51 49 52 68 53 50 54 53 55 67 56
REMARK SMILES IDX 86 57 51 58 52 59 66 61 87 62 54 63 38 64 39 65 47 66 40 67
REMARK SMILES IDX 41 68 45 69 48 70 42 71 43 72 46 73 44 74 70 75 71 76 79 77
REMARK SMILES IDX 72 78 73 79 77 80 80 81 74 82 75 83 78 84 76 85 55 86 56 87
REMARK SMILES IDX 64 88 57 89 58 90 62 91 65 92 59 93 60 94 63 95 61 96
REMARK H PARENT 19 8 26 30 85 49 53 60
REMARK Flexibility Score: inf
ROOT
ATOM      1  C   UNL A   1      32.691  26.853  26.232  1.00  0.00     0.002 C 
ENDROOT
BRANCH   1   2
ATOM      2  C   UNL A   1      31.392  26.038  26.236  1.00  0.00     0.002 C 
BRANCH   2   3
ATOM      3  C   UNL A   1      31.494  24.653  26.878  1.00  0.00     0.021 C 
BRANCH   3   4
ATOM      4  C   UNL A   1      30.886  23.532  26.038  1.00  0.00     0.116 C 
BRANCH   4   5
ATOM      5  N   UNL A   1      31.182  23.697  24.626  1.00  0.00    -0.352 N 
ATOM      6  C   UNL A   1      32.215  23.447  23.787  1.00  0.00     0.251 C 
ATOM      7  O   UNL A   1      32.009  23.739  22.605  1.00  0.00    -0.270 OA
ATOM      8  H   UNL A   1      30.425  24.102  24.147  1.00  0.00     0.163 HD
BRANCH   6   9
ATOM      9  C   UNL A   1      33.533  22.862  24.181  1.00  0.00     0.067 C 
ATOM     10  C   UNL A   1      39.592  21.698  26.358  1.00  0.00     0.046 C 
ATOM     11  C   UNL A   1      38.263  22.245  25.906  1.00  0.00    -0.026 A 
ATOM     12  C   UNL A   1      37.898  23.589  26.128  1.00  0.00     0.045 A 
ATOM     13  C   UNL A   1      37.336  21.392  25.259  1.00  0.00    -0.004 A 
ATOM     14  Cl  UNL A   1      38.944  24.715  26.924  1.00  0.00    -0.084 Cl
ATOM     15  C   UNL A   1      36.655  24.081  25.713  1.00  0.00     0.032 A 
ATOM     16  C   UNL A   1      36.092  21.911  24.852  1.00  0.00     0.131 A 
ATOM     17  C   UNL A   1      37.608  19.930  24.999  1.00  0.00     0.049 C 
ATOM     18  C   UNL A   1      35.745  23.243  25.073  1.00  0.00     0.019 A 
ATOM     19  O   UNL A   1      35.259  21.055  24.185  1.00  0.00    -0.475 OA
ATOM     20  C   UNL A   1      34.453  23.741  24.619  1.00  0.00     0.025 C 
ATOM     21  C   UNL A   1      33.850  21.395  24.158  1.00  0.00     0.314 C 
BRANCH  21  22
ATOM     22  C   UNL A   1      33.110  20.587  25.238  1.00  0.00     0.429 C 
ATOM     23  F   UNL A   1      31.787  20.463  24.984  1.00  0.00    -0.167 F 
ATOM     24  F   UNL A   1      33.597  19.335  25.387  1.00  0.00    -0.167 F 
ATOM     25  F   UNL A   1      33.232  21.195  26.446  1.00  0.00    -0.167 F 
ENDBRANCH  21  22
ENDBRANCH   6   9
ENDBRANCH   4   5
ENDBRANCH   3   4
ENDBRANCH   2   3
ENDBRANCH   1   2
BRANCH   1  26
ATOM     26  C   UNL A   1      32.900  27.749  25.008  1.00  0.00     0.021 C 
BRANCH  26  27
ATOM     27  C   UNL A   1      33.890  28.890  25.217  1.00  0.00     0.116 C 
BRANCH  27  28
ATOM     28  N   UNL A   1      33.233  30.092  25.701  1.00  0.00    -0.352 N 
ATOM     29  C   UNL A   1      33.482  30.824  26.831  1.00  0.00     0.251 C 
ATOM     30  H   UNL A   1      32.503  30.430  25.133  1.00  0.00     0.163 HD
ATOM     31  O   UNL A   1      32.680  31.678  27.207  1.00  0.00    -0.269 OA
BRANCH  29  32
ATOM     32  C   UNL A   1      34.714  30.587  27.608  1.00  0.00     0.039 A 
ATOM     33  C   UNL A   1      35.660  31.610  27.709  1.00  0.00     0.014 A 
ATOM     34  C   UNL A   1      34.950  29.346  28.208  1.00  0.00     0.014 A 
ATOM     35  C   UNL A   1      36.823  31.405  28.451  1.00  0.00     0.010 A 
ATOM     36  C   UNL A   1      36.080  29.163  28.998  1.00  0.00     0.010 A 
ATOM     37  C   UNL A   1      37.030  30.188  29.120  1.00  0.00    -0.014 A 
BRANCH  37  38
ATOM     38  C   UNL A   1      38.246  29.955  29.936  1.00  0.00     0.031 A 
ATOM     39  C   UNL A   1      39.355  29.100  29.397  1.00  0.00     0.074 A 
ATOM     40  C   UNL A   1      38.325  30.471  31.176  1.00  0.00     0.049 A 
ATOM     41  N   UNL A   1      40.457  28.704  29.984  1.00  0.00    -0.248 NA
ATOM     42  C   UNL A   1      39.198  28.605  28.020  1.00  0.00     0.031 C 
ATOM     43  C   UNL A   1      37.301  31.302  31.812  1.00  0.00     0.029 A 
ATOM     44  N   UNL A   1      39.307  30.365  32.128  1.00  0.00    -0.354 N 
ATOM     45  C   UNL A   1      41.116  27.914  29.053  1.00  0.00     0.074 A 
ATOM     46  C   UNL A   1      40.271  27.840  27.882  1.00  0.00     0.031 C 
ATOM     47  C   UNL A   1      37.720  31.649  33.040  1.00  0.00     0.029 A 
ATOM     48  C   UNL A   1      39.020  31.033  33.293  1.00  0.00     0.049 A 
ATOM     49  H   UNL A   1      40.140  29.858  31.989  1.00  0.00     0.167 HD
ATOM     50  C   UNL A   1      42.330  27.324  29.160  1.00  0.00     0.037 A 
ATOM     51  C   UNL A   1      39.721  31.129  34.438  1.00  0.00     0.037 A 
ATOM     52  C   UNL A   1      43.174  27.413  30.322  1.00  0.00     0.049 A 
ATOM     53  C   UNL A   1      41.051  30.433  34.543  1.00  0.00     0.074 A 
ATOM     54  C   UNL A   1      44.432  26.873  30.518  1.00  0.00     0.029 A 
ATOM     55  N   UNL A   1      42.843  28.093  31.487  1.00  0.00    -0.354 N 
ATOM     56  N   UNL A   1      41.680  29.712  33.647  1.00  0.00    -0.248 NA
ATOM     57  C   UNL A   1      41.770  30.567  35.818  1.00  0.00     0.031 C 
ATOM     58  C   UNL A   1      44.847  27.190  31.815  1.00  0.00     0.029 A 
ATOM     59  C   UNL A   1      43.868  27.970  32.411  1.00  0.00     0.049 A 
ATOM     60  H   UNL A   1      42.006  28.588  31.633  1.00  0.00     0.167 HD
ATOM     61  C   UNL A   1      42.876  29.326  34.237  1.00  0.00     0.074 A 
ATOM     62  C   UNL A   1      42.891  29.907  35.564  1.00  0.00     0.031 C 
ATOM     63  C   UNL A   1      43.870  28.560  33.726  1.00  0.00     0.037 A 
BRANCH  50  64
ATOM     64  C   UNL A   1      42.827  26.535  27.984  1.00  0.00     0.064 A 
ATOM     65  C   UNL A   1      42.483  25.186  27.809  1.00  0.00     0.173 A 
ATOM     66  C   UNL A   1      43.605  27.148  26.989  1.00  0.00     0.173 A 
ATOM     67  F   UNL A   1      41.753  24.551  28.738  1.00  0.00    -0.203 F 
ATOM     68  C   UNL A   1      42.914  24.475  26.693  1.00  0.00     0.198 A 
ATOM     69  C   UNL A   1      44.009  26.442  25.858  1.00  0.00     0.198 A 
ATOM     70  F   UNL A   1      43.958  28.437  27.104  1.00  0.00    -0.203 F 
ATOM     71  F   UNL A   1      42.604  23.177  26.566  1.00  0.00    -0.200 F 
ATOM     72  C   UNL A   1      43.667  25.106  25.714  1.00  0.00     0.200 A 
ATOM     73  F   UNL A   1      44.726  27.055  24.908  1.00  0.00    -0.200 F 
ATOM     74  F   UNL A   1      44.068  24.424  24.631  1.00  0.00    -0.200 F 
ENDBRANCH  50  64
BRANCH  51  75
ATOM     75  C   UNL A   1      39.192  31.944  35.561  1.00  0.00     0.064 A 
ATOM     76  C   UNL A   1      38.369  31.368  36.538  1.00  0.00     0.173 A 
ATOM     77  C   UNL A   1      39.514  33.303  35.697  1.00  0.00     0.173 A 
ATOM     78  F   UNL A   1      38.018  30.077  36.440  1.00  0.00    -0.203 F 
ATOM     79  C   UNL A   1      37.878  32.122  37.602  1.00  0.00     0.198 A 
ATOM     80  C   UNL A   1      39.044  34.049  36.775  1.00  0.00     0.198 A 
ATOM     81  F   UNL A   1      40.301  33.901  34.791  1.00  0.00    -0.203 F 
ATOM     82  F   UNL A   1      37.066  31.554  38.503  1.00  0.00    -0.200 F 
ATOM     83  C   UNL A   1      38.222  33.459  37.725  1.00  0.00     0.200 A 
ATOM     84  F   UNL A   1      39.392  35.337  36.899  1.00  0.00    -0.200 F 
ATOM     85  F   UNL A   1      37.761  34.181  38.755  1.00  0.00    -0.200 F 
ENDBRANCH  51  75
BRANCH  63  86
ATOM     86  C   UNL A   1      45.074  28.321  34.590  1.00  0.00     0.064 A 
ATOM     87  C   UNL A   1      46.165  29.200  34.587  1.00  0.00     0.173 A 
ATOM     88  C   UNL A   1      45.107  27.233  35.475  1.00  0.00     0.173 A 
ATOM     89  F   UNL A   1      46.187  30.248  33.749  1.00  0.00    -0.203 F 
ATOM     90  C   UNL A   1      47.255  28.989  35.428  1.00  0.00     0.198 A 
ATOM     91  C   UNL A   1      46.184  27.043  36.336  1.00  0.00     0.198 A 
ATOM     92  F   UNL A   1      44.083  26.367  35.522  1.00  0.00    -0.203 F 
ATOM     93  F   UNL A   1      48.305  29.821  35.381  1.00  0.00    -0.200 F 
ATOM     94  C   UNL A   1      47.259  27.917  36.307  1.00  0.00     0.200 A 
ATOM     95  F   UNL A   1      46.180  26.014  37.195  1.00  0.00    -0.200 F 
ATOM     96  F   UNL A   1      48.303  27.724  37.125  1.00  0.00    -0.200 F 
ENDBRANCH  63  86
ENDBRANCH  37  38
ENDBRANCH  29  32
ENDBRANCH  27  28
ENDBRANCH  26  27
ENDBRANCH   1  26
TORSDOF 14
ENDMDL
