MODEL 1
REMARK VINA RESULT:     -11.7      0.000      0.000
REMARK SMILES O=C(CCCNC(=O)[C@@H]1CCCN(S(=O)(=O)c2ccc(F)cc2)C1)NCCCCCCNC(=O)c1ccc(-c2c3nc(c(-c4c(F)c(F)c(F)c(F)c4F)c4ccc([nH]4)c(-c4c(F)c(F)c(F)c(F)c4F)c4nc(c(-c5c(F)c(F)c(F)c(F)c5F)c5ccc2[nH]5)C=C4)C=C3)cc1
REMARK SMILES IDX 26 1 25 2 1 3 2 4 3 6 4 7 5 8 6 9 7 10 8 12 9 13 10 14 24 15
REMARK SMILES IDX 11 16 13 17 12 18 14 19 15 20 16 21 17 22 18 23 23 24 19 25
REMARK SMILES IDX 22 26 20 27 21 28 27 29 28 30 29 31 30 32 31 33 32 34 33 35
REMARK SMILES IDX 34 37 35 38 36 39 97 40 37 41 96 42 38 43 39 44 40 45 90 46
REMARK SMILES IDX 41 47 95 48 89 49 91 50 42 51 94 52 88 53 87 54 43 56 75 57
REMARK SMILES IDX 55 58 74 59 56 60 59 61 73 62 92 63 57 64 58 65 72 67 93 68
REMARK SMILES IDX 60 69 44 70 45 71 53 72 46 73 47 74 51 75 54 76 48 77 49 78
REMARK SMILES IDX 52 79 50 80 76 81 77 82 85 83 78 84 79 85 83 86 86 87 80 88
REMARK SMILES IDX 81 89 84 90 82 91 61 92 62 93 70 94 63 95 64 96 68 97 71 98
REMARK SMILES IDX 65 99 66 100 69 101 67 102
REMARK H PARENT 25 5 6 11 32 36 91 55 59 66
REMARK Flexibility Score: inf
ROOT
ATOM      1  C   UNL A   1      35.258  30.867  27.850  1.00  0.00     0.116 C 
ENDROOT
BRANCH   1   2
ATOM      2  N   UNL A   1      34.155  30.774  26.923  1.00  0.00    -0.356 N 
ATOM      3  O   UNL A   1      33.622  28.587  27.377  1.00  0.00    -0.275 OA
ATOM      4  C   UNL A   1      33.390  29.641  26.799  1.00  0.00     0.220 C 
ATOM      5  H   UNL A   1      33.943  31.552  26.357  1.00  0.00     0.163 HD
BRANCH   4   6
ATOM      6  C   UNL A   1      32.154  29.854  25.953  1.00  0.00     0.102 C 
BRANCH   6   7
ATOM      7  C   UNL A   1      32.376  29.312  24.542  1.00  0.00     0.031 C 
BRANCH   7   8
ATOM      8  C   UNL A   1      31.114  28.812  23.829  1.00  0.00     0.116 C 
BRANCH   8   9
ATOM      9  N   UNL A   1      31.401  27.769  22.858  1.00  0.00    -0.356 N 
ATOM     10  C   UNL A   1      31.137  26.445  22.753  1.00  0.00     0.224 C 
ATOM     11  H   UNL A   1      31.912  28.108  22.089  1.00  0.00     0.163 HD
ATOM     12  O   UNL A   1      31.502  25.951  21.676  1.00  0.00    -0.275 OA
BRANCH  10  13
ATOM     13  C   UNL A   1      30.355  25.584  23.758  1.00  0.00     0.093 C 
ATOM     14  C   UNL A   1      30.428  25.854  25.253  1.00  0.00     0.016 C 
ATOM     15  C   UNL A   1      30.728  24.098  23.549  1.00  0.00     0.116 C 
ATOM     16  C   UNL A   1      31.845  25.639  25.750  1.00  0.00     0.018 C 
ATOM     17  N   UNL A   1      32.091  23.765  24.110  1.00  0.00    -0.197 NA
ATOM     18  C   UNL A   1      32.271  24.198  25.528  1.00  0.00     0.102 C 
BRANCH  17  19
ATOM     19  S   UNL A   1      32.471  22.090  23.854  1.00  0.00     0.243 S 
ATOM     20  O   UNL A   1      31.826  21.330  24.909  1.00  0.00    -0.207 OA
ATOM     21  O   UNL A   1      32.229  21.778  22.466  1.00  0.00    -0.207 OA
BRANCH  19  22
ATOM     22  C   UNL A   1      34.230  22.000  24.127  1.00  0.00     0.082 A 
ATOM     23  C   UNL A   1      35.087  22.898  23.478  1.00  0.00     0.025 A 
ATOM     24  C   UNL A   1      34.738  21.087  25.060  1.00  0.00     0.025 A 
ATOM     25  C   UNL A   1      36.462  22.824  23.697  1.00  0.00     0.040 A 
ATOM     26  C   UNL A   1      36.112  21.041  25.301  1.00  0.00     0.040 A 
ATOM     27  C   UNL A   1      36.962  21.896  24.607  1.00  0.00     0.123 A 
ATOM     28  F   UNL A   1      38.282  21.836  24.824  1.00  0.00    -0.207 F 
ENDBRANCH  19  22
ENDBRANCH  17  19
ENDBRANCH  10  13
ENDBRANCH   8   9
ENDBRANCH   7   8
ENDBRANCH   6   7
ENDBRANCH   4   6
ENDBRANCH   1   2
BRANCH   1  29
ATOM     29  C   UNL A   1      35.714  32.313  28.023  1.00  0.00     0.021 C 
BRANCH  29  30
ATOM     30  C   UNL A   1      34.848  33.151  28.977  1.00  0.00     0.002 C 
BRANCH  30  31
ATOM     31  C   UNL A   1      34.503  34.562  28.490  1.00  0.00     0.002 C 
BRANCH  31  32
ATOM     32  C   UNL A   1      33.167  35.115  28.986  1.00  0.00     0.021 C 
BRANCH  32  33
ATOM     33  C   UNL A   1      33.261  36.407  29.791  1.00  0.00     0.116 C 
BRANCH  33  34
ATOM     34  N   UNL A   1      32.376  36.421  30.943  1.00  0.00    -0.352 N 
ATOM     35  C   UNL A   1      32.502  35.747  32.134  1.00  0.00     0.251 C 
ATOM     36  H   UNL A   1      31.578  36.992  30.860  1.00  0.00     0.163 HD
ATOM     37  O   UNL A   1      31.589  35.760  32.953  1.00  0.00    -0.269 OA
BRANCH  35  38
ATOM     38  C   UNL A   1      33.734  34.977  32.417  1.00  0.00     0.039 A 
ATOM     39  C   UNL A   1      34.973  35.603  32.251  1.00  0.00     0.014 A 
ATOM     40  C   UNL A   1      33.674  33.645  32.835  1.00  0.00     0.014 A 
ATOM     41  C   UNL A   1      36.147  34.910  32.552  1.00  0.00     0.010 A 
ATOM     42  C   UNL A   1      34.840  32.978  33.203  1.00  0.00     0.010 A 
ATOM     43  C   UNL A   1      36.090  33.600  33.058  1.00  0.00    -0.014 A 
BRANCH  43  44
ATOM     44  C   UNL A   1      37.326  32.854  33.409  1.00  0.00     0.031 A 
ATOM     45  C   UNL A   1      38.036  33.148  34.704  1.00  0.00     0.074 A 
ATOM     46  C   UNL A   1      37.833  31.946  32.552  1.00  0.00     0.049 A 
ATOM     47  N   UNL A   1      39.168  32.667  35.155  1.00  0.00    -0.248 NA
ATOM     48  C   UNL A   1      37.403  34.128  35.603  1.00  0.00     0.031 C 
ATOM     49  C   UNL A   1      37.253  31.589  31.258  1.00  0.00     0.029 A 
ATOM     50  N   UNL A   1      38.955  31.159  32.641  1.00  0.00    -0.354 N 
ATOM     51  C   UNL A   1      39.383  33.289  36.377  1.00  0.00     0.074 A 
ATOM     52  C   UNL A   1      38.296  34.222  36.578  1.00  0.00     0.031 C 
ATOM     53  C   UNL A   1      38.005  30.634  30.686  1.00  0.00     0.029 A 
ATOM     54  C   UNL A   1      39.142  30.340  31.553  1.00  0.00     0.049 A 
ATOM     55  H   UNL A   1      39.568  31.179  33.411  1.00  0.00     0.167 HD
ATOM     56  C   UNL A   1      40.382  33.080  37.265  1.00  0.00     0.037 A 
ATOM     57  C   UNL A   1      40.122  29.455  31.284  1.00  0.00     0.037 A 
ATOM     58  C   UNL A   1      41.442  32.125  37.083  1.00  0.00     0.049 A 
ATOM     59  C   UNL A   1      41.229  29.255  32.287  1.00  0.00     0.074 A 
ATOM     60  C   UNL A   1      42.486  31.825  37.942  1.00  0.00     0.029 A 
ATOM     61  N   UNL A   1      41.586  31.305  35.975  1.00  0.00    -0.354 N 
ATOM     62  N   UNL A   1      41.403  29.829  33.452  1.00  0.00    -0.248 NA
ATOM     63  C   UNL A   1      42.273  28.280  31.939  1.00  0.00     0.031 C 
ATOM     64  C   UNL A   1      43.281  30.849  37.338  1.00  0.00     0.029 A 
ATOM     65  C   UNL A   1      42.704  30.503  36.128  1.00  0.00     0.049 A 
ATOM     66  H   UNL A   1      40.983  31.296  35.196  1.00  0.00     0.167 HD
ATOM     67  C   UNL A   1      42.546  29.255  33.994  1.00  0.00     0.074 A 
ATOM     68  C   UNL A   1      43.023  28.284  33.033  1.00  0.00     0.031 C 
ATOM     69  C   UNL A   1      43.144  29.512  35.181  1.00  0.00     0.037 A 
BRANCH  56  70
ATOM     70  C   UNL A   1      40.374  33.871  38.539  1.00  0.00     0.064 A 
ATOM     71  C   UNL A   1      41.175  35.016  38.675  1.00  0.00     0.173 A 
ATOM     72  C   UNL A   1      39.658  33.432  39.663  1.00  0.00     0.173 A 
ATOM     73  F   UNL A   1      41.883  35.473  37.631  1.00  0.00    -0.203 F 
ATOM     74  C   UNL A   1      41.280  35.674  39.896  1.00  0.00     0.198 A 
ATOM     75  C   UNL A   1      39.745  34.110  40.876  1.00  0.00     0.198 A 
ATOM     76  F   UNL A   1      38.869  32.350  39.579  1.00  0.00    -0.203 F 
ATOM     77  F   UNL A   1      42.086  36.739  40.015  1.00  0.00    -0.200 F 
ATOM     78  C   UNL A   1      40.566  35.220  40.995  1.00  0.00     0.200 A 
ATOM     79  F   UNL A   1      39.039  33.682  41.931  1.00  0.00    -0.200 F 
ATOM     80  F   UNL A   1      40.672  35.853  42.172  1.00  0.00    -0.200 F 
ENDBRANCH  56  70
BRANCH  57  81
ATOM     81  C   UNL A   1      40.089  28.660  30.028  1.00  0.00     0.064 A 
ATOM     82  C   UNL A   1      40.695  29.121  28.850  1.00  0.00     0.173 A 
ATOM     83  C   UNL A   1      39.460  27.407  29.988  1.00  0.00     0.173 A 
ATOM     84  F   UNL A   1      41.307  30.314  28.832  1.00  0.00    -0.203 F 
ATOM     85  C   UNL A   1      40.668  28.362  27.681  1.00  0.00     0.198 A 
ATOM     86  C   UNL A   1      39.461  26.635  28.828  1.00  0.00     0.198 A 
ATOM     87  F   UNL A   1      38.885  26.912  31.094  1.00  0.00    -0.203 F 
ATOM     88  F   UNL A   1      41.236  28.836  26.563  1.00  0.00    -0.200 F 
ATOM     89  C   UNL A   1      40.059  27.115  27.674  1.00  0.00     0.200 A 
ATOM     90  F   UNL A   1      38.898  25.419  28.834  1.00  0.00    -0.200 F 
ATOM     91  F   UNL A   1      40.059  26.375  26.557  1.00  0.00    -0.200 F 
ENDBRANCH  57  81
BRANCH  69  92
ATOM     92  C   UNL A   1      44.346  28.694  35.553  1.00  0.00     0.064 A 
ATOM     93  C   UNL A   1      44.196  27.537  36.334  1.00  0.00     0.173 A 
ATOM     94  C   UNL A   1      45.645  29.099  35.220  1.00  0.00     0.173 A 
ATOM     95  F   UNL A   1      42.972  27.116  36.690  1.00  0.00    -0.203 F 
ATOM     96  C   UNL A   1      45.303  26.824  36.779  1.00  0.00     0.198 A 
ATOM     97  C   UNL A   1      46.751  28.366  35.641  1.00  0.00     0.198 A 
ATOM     98  F   UNL A   1      45.840  30.192  34.467  1.00  0.00    -0.203 F 
ATOM     99  F   UNL A   1      45.137  25.744  37.556  1.00  0.00    -0.200 F 
ATOM    100  C   UNL A   1      46.580  27.237  36.430  1.00  0.00     0.200 A 
ATOM    101  F   UNL A   1      47.983  28.751  35.285  1.00  0.00    -0.200 F 
ATOM    102  F   UNL A   1      47.648  26.544  36.852  1.00  0.00    -0.200 F 
ENDBRANCH  69  92
ENDBRANCH  43  44
ENDBRANCH  35  38
ENDBRANCH  33  34
ENDBRANCH  32  33
ENDBRANCH  31  32
ENDBRANCH  30  31
ENDBRANCH  29  30
ENDBRANCH   1  29
TORSDOF 19
ENDMDL
MODEL 2
REMARK VINA RESULT:     -11.6      0.381      1.975
REMARK SMILES O=C(CCCNC(=O)[C@@H]1CCCN(S(=O)(=O)c2ccc(F)cc2)C1)NCCCCCCNC(=O)c1ccc(-c2c3nc(c(-c4c(F)c(F)c(F)c(F)c4F)c4ccc([nH]4)c(-c4c(F)c(F)c(F)c(F)c4F)c4nc(c(-c5c(F)c(F)c(F)c(F)c5F)c5ccc2[nH]5)C=C4)C=C3)cc1
REMARK SMILES IDX 26 1 25 2 1 3 2 4 3 6 4 7 5 8 6 9 7 10 8 12 9 13 10 14 24 15
REMARK SMILES IDX 11 16 13 17 12 18 14 19 15 20 16 21 17 22 18 23 23 24 19 25
REMARK SMILES IDX 22 26 20 27 21 28 27 29 28 30 29 31 30 32 31 33 32 34 33 35
REMARK SMILES IDX 34 37 35 38 36 39 97 40 37 41 96 42 38 43 39 44 40 45 90 46
REMARK SMILES IDX 41 47 95 48 89 49 91 50 42 51 94 52 88 53 87 54 43 56 75 57
REMARK SMILES IDX 55 58 74 59 56 60 59 61 73 62 92 63 57 64 58 65 72 67 93 68
REMARK SMILES IDX 60 69 44 70 45 71 53 72 46 73 47 74 51 75 54 76 48 77 49 78
REMARK SMILES IDX 52 79 50 80 76 81 77 82 85 83 78 84 79 85 83 86 86 87 80 88
REMARK SMILES IDX 81 89 84 90 82 91 61 92 62 93 70 94 63 95 64 96 68 97 71 98
REMARK SMILES IDX 65 99 66 100 69 101 67 102
REMARK H PARENT 25 5 6 11 32 36 91 55 59 66
REMARK Flexibility Score: inf
ROOT
ATOM      1  C   UNL A   1      33.639  31.005  27.717  1.00  0.00     0.116 C 
ENDROOT
BRANCH   1   2
ATOM      2  N   UNL A   1      33.690  30.352  26.429  1.00  0.00    -0.356 N 
ATOM      3  O   UNL A   1      33.672  28.201  27.233  1.00  0.00    -0.275 OA
ATOM      4  C   UNL A   1      33.652  28.986  26.295  1.00  0.00     0.220 C 
ATOM      5  H   UNL A   1      33.755  30.906  25.618  1.00  0.00     0.163 HD
BRANCH   4   6
ATOM      6  C   UNL A   1      33.474  28.542  24.860  1.00  0.00     0.102 C 
BRANCH   6   7
ATOM      7  C   UNL A   1      32.375  29.360  24.182  1.00  0.00     0.031 C 
BRANCH   7   8
ATOM      8  C   UNL A   1      31.183  28.548  23.661  1.00  0.00     0.116 C 
BRANCH   8   9
ATOM      9  N   UNL A   1      31.590  27.461  22.788  1.00  0.00    -0.356 N 
ATOM     10  C   UNL A   1      31.318  26.138  22.697  1.00  0.00     0.224 C 
ATOM     11  H   UNL A   1      32.218  27.760  22.091  1.00  0.00     0.163 HD
ATOM     12  O   UNL A   1      31.830  25.594  21.707  1.00  0.00    -0.275 OA
BRANCH  10  13
ATOM     13  C   UNL A   1      30.376  25.333  23.605  1.00  0.00     0.093 C 
ATOM     14  C   UNL A   1      30.250  25.647  25.087  1.00  0.00     0.016 C 
ATOM     15  C   UNL A   1      30.724  23.831  23.490  1.00  0.00     0.116 C 
ATOM     16  C   UNL A   1      31.576  25.406  25.783  1.00  0.00     0.018 C 
ATOM     17  N   UNL A   1      31.984  23.475  24.245  1.00  0.00    -0.197 NA
ATOM     18  C   UNL A   1      31.981  23.947  25.662  1.00  0.00     0.102 C 
BRANCH  17  19
ATOM     19  S   UNL A   1      32.341  21.783  24.090  1.00  0.00     0.243 S 
ATOM     20  O   UNL A   1      31.728  21.103  25.216  1.00  0.00    -0.207 OA
ATOM     21  O   UNL A   1      32.046  21.381  22.735  1.00  0.00    -0.207 OA
BRANCH  19  22
ATOM     22  C   UNL A   1      34.108  21.692  24.306  1.00  0.00     0.082 A 
ATOM     23  C   UNL A   1      34.681  20.576  24.930  1.00  0.00     0.025 A 
ATOM     24  C   UNL A   1      34.921  22.699  23.771  1.00  0.00     0.025 A 
ATOM     25  C   UNL A   1      36.065  20.510  25.094  1.00  0.00     0.040 A 
ATOM     26  C   UNL A   1      36.307  22.610  23.908  1.00  0.00     0.040 A 
ATOM     27  C   UNL A   1      36.865  21.527  24.581  1.00  0.00     0.123 A 
ATOM     28  F   UNL A   1      38.194  21.455  24.731  1.00  0.00    -0.207 F 
ENDBRANCH  19  22
ENDBRANCH  17  19
ENDBRANCH  10  13
ENDBRANCH   8   9
ENDBRANCH   7   8
ENDBRANCH   6   7
ENDBRANCH   4   6
ENDBRANCH   1   2
BRANCH   1  29
ATOM     29  C   UNL A   1      34.935  31.756  28.007  1.00  0.00     0.021 C 
BRANCH  29  30
ATOM     30  C   UNL A   1      34.776  32.985  28.917  1.00  0.00     0.002 C 
BRANCH  30  31
ATOM     31  C   UNL A   1      34.305  34.266  28.223  1.00  0.00     0.002 C 
BRANCH  31  32
ATOM     32  C   UNL A   1      33.047  34.904  28.814  1.00  0.00     0.021 C 
BRANCH  32  33
ATOM     33  C   UNL A   1      33.277  36.211  29.565  1.00  0.00     0.116 C 
BRANCH  33  34
ATOM     34  N   UNL A   1      32.435  36.345  30.741  1.00  0.00    -0.352 N 
ATOM     35  C   UNL A   1      32.586  35.768  31.978  1.00  0.00     0.251 C 
ATOM     36  H   UNL A   1      31.648  36.928  30.636  1.00  0.00     0.163 HD
ATOM     37  O   UNL A   1      31.703  35.873  32.824  1.00  0.00    -0.269 OA
BRANCH  35  38
ATOM     38  C   UNL A   1      33.809  34.991  32.284  1.00  0.00     0.039 A 
ATOM     39  C   UNL A   1      35.055  35.602  32.114  1.00  0.00     0.014 A 
ATOM     40  C   UNL A   1      33.732  33.668  32.727  1.00  0.00     0.014 A 
ATOM     41  C   UNL A   1      36.220  34.902  32.436  1.00  0.00     0.010 A 
ATOM     42  C   UNL A   1      34.889  32.997  33.115  1.00  0.00     0.010 A 
ATOM     43  C   UNL A   1      36.146  33.603  32.966  1.00  0.00    -0.014 A 
BRANCH  43  44
ATOM     44  C   UNL A   1      37.372  32.852  33.340  1.00  0.00     0.031 A 
ATOM     45  C   UNL A   1      38.060  33.142  34.647  1.00  0.00     0.074 A 
ATOM     46  C   UNL A   1      37.891  31.942  32.492  1.00  0.00     0.049 A 
ATOM     47  N   UNL A   1      39.181  32.655  35.118  1.00  0.00    -0.248 NA
ATOM     48  C   UNL A   1      37.415  34.125  35.534  1.00  0.00     0.031 C 
ATOM     49  C   UNL A   1      37.332  31.587  31.187  1.00  0.00     0.029 A 
ATOM     50  N   UNL A   1      39.007  31.149  32.600  1.00  0.00    -0.354 N 
ATOM     51  C   UNL A   1      39.377  33.277  36.344  1.00  0.00     0.074 A 
ATOM     52  C   UNL A   1      38.291  34.215  36.525  1.00  0.00     0.031 C 
ATOM     53  C   UNL A   1      38.090  30.629  30.628  1.00  0.00     0.029 A 
ATOM     54  C   UNL A   1      39.210  30.329  31.516  1.00  0.00     0.049 A 
ATOM     55  H   UNL A   1      39.606  31.166  33.381  1.00  0.00     0.167 HD
ATOM     56  C   UNL A   1      40.359  33.063  37.250  1.00  0.00     0.037 A 
ATOM     57  C   UNL A   1      40.191  29.440  31.265  1.00  0.00     0.037 A 
ATOM     58  C   UNL A   1      41.418  32.103  37.087  1.00  0.00     0.049 A 
ATOM     59  C   UNL A   1      41.279  29.236  32.287  1.00  0.00     0.074 A 
ATOM     60  C   UNL A   1      42.445  31.799  37.964  1.00  0.00     0.029 A 
ATOM     61  N   UNL A   1      41.578  31.283  35.982  1.00  0.00    -0.354 N 
ATOM     62  N   UNL A   1      41.434  29.809  33.455  1.00  0.00    -0.248 NA
ATOM     63  C   UNL A   1      42.325  28.256  31.958  1.00  0.00     0.031 C 
ATOM     64  C   UNL A   1      43.246  30.819  37.375  1.00  0.00     0.029 A 
ATOM     65  C   UNL A   1      42.690  30.476  36.154  1.00  0.00     0.049 A 
ATOM     66  H   UNL A   1      40.990  31.277  35.192  1.00  0.00     0.167 HD
ATOM     67  C   UNL A   1      42.564  29.229  34.017  1.00  0.00     0.074 A 
ATOM     68  C   UNL A   1      43.055  28.257  33.065  1.00  0.00     0.031 C 
ATOM     69  C   UNL A   1      43.142  29.483  35.215  1.00  0.00     0.037 A 
BRANCH  56  70
ATOM     70  C   UNL A   1      40.332  33.854  38.524  1.00  0.00     0.064 A 
ATOM     71  C   UNL A   1      39.528  33.450  39.600  1.00  0.00     0.173 A 
ATOM     72  C   UNL A   1      41.017  35.073  38.636  1.00  0.00     0.173 A 
ATOM     73  F   UNL A   1      38.848  32.294  39.539  1.00  0.00    -0.203 F 
ATOM     74  C   UNL A   1      39.390  34.250  40.730  1.00  0.00     0.198 A 
ATOM     75  C   UNL A   1      40.898  35.858  39.780  1.00  0.00     0.198 A 
ATOM     76  F   UNL A   1      41.809  35.497  37.639  1.00  0.00    -0.203 F 
ATOM     77  F   UNL A   1      38.580  33.865  41.727  1.00  0.00    -0.200 F 
ATOM     78  C   UNL A   1      40.073  35.453  40.819  1.00  0.00     0.200 A 
ATOM     79  F   UNL A   1      41.575  37.011  39.873  1.00  0.00    -0.200 F 
ATOM     80  F   UNL A   1      39.936  36.225  41.906  1.00  0.00    -0.200 F 
ENDBRANCH  56  70
BRANCH  57  81
ATOM     81  C   UNL A   1      40.177  28.645  30.007  1.00  0.00     0.064 A 
ATOM     82  C   UNL A   1      39.527  27.405  29.929  1.00  0.00     0.173 A 
ATOM     83  C   UNL A   1      40.804  29.126  28.849  1.00  0.00     0.173 A 
ATOM     84  F   UNL A   1      38.915  26.898  31.009  1.00  0.00    -0.203 F 
ATOM     85  C   UNL A   1      39.510  26.674  28.743  1.00  0.00     0.198 A 
ATOM     86  C   UNL A   1      40.761  28.409  27.654  1.00  0.00     0.198 A 
ATOM     87  F   UNL A   1      41.420  30.317  28.867  1.00  0.00    -0.203 F 
ATOM     88  F   UNL A   1      38.902  25.481  28.700  1.00  0.00    -0.200 F 
ATOM     89  C   UNL A   1      40.119  27.182  27.603  1.00  0.00     0.200 A 
ATOM     90  F   UNL A   1      41.323  28.917  26.549  1.00  0.00    -0.200 F 
ATOM     91  F   UNL A   1      40.078  26.491  26.456  1.00  0.00    -0.200 F 
ENDBRANCH  57  81
BRANCH  69  92
ATOM     92  C   UNL A   1      44.333  28.660  35.609  1.00  0.00     0.064 A 
ATOM     93  C   UNL A   1      45.620  29.040  35.195  1.00  0.00     0.173 A 
ATOM     94  C   UNL A   1      44.198  27.457  36.314  1.00  0.00     0.173 A 
ATOM     95  F   UNL A   1      45.800  30.178  34.507  1.00  0.00    -0.203 F 
ATOM     96  C   UNL A   1      46.724  28.237  35.458  1.00  0.00     0.198 A 
ATOM     97  C   UNL A   1      45.309  26.669  36.603  1.00  0.00     0.198 A 
ATOM     98  F   UNL A   1      42.991  27.056  36.740  1.00  0.00    -0.203 F 
ATOM     99  F   UNL A   1      47.937  28.601  35.019  1.00  0.00    -0.200 F 
ATOM    100  C   UNL A   1      46.569  27.054  36.165  1.00  0.00     0.200 A 
ATOM    101  F   UNL A   1      45.163  25.538  37.305  1.00  0.00    -0.200 F 
ATOM    102  F   UNL A   1      47.635  26.284  36.426  1.00  0.00    -0.200 F 
ENDBRANCH  69  92
ENDBRANCH  43  44
ENDBRANCH  35  38
ENDBRANCH  33  34
ENDBRANCH  32  33
ENDBRANCH  31  32
ENDBRANCH  30  31
ENDBRANCH  29  30
ENDBRANCH   1  29
TORSDOF 19
ENDMDL
MODEL 3
REMARK VINA RESULT:     -11.6      6.685     12.485
REMARK SMILES O=C(CCCNC(=O)[C@@H]1CCCN(S(=O)(=O)c2ccc(F)cc2)C1)NCCCCCCNC(=O)c1ccc(-c2c3nc(c(-c4c(F)c(F)c(F)c(F)c4F)c4ccc([nH]4)c(-c4c(F)c(F)c(F)c(F)c4F)c4nc(c(-c5c(F)c(F)c(F)c(F)c5F)c5ccc2[nH]5)C=C4)C=C3)cc1
REMARK SMILES IDX 26 1 25 2 1 3 2 4 3 6 4 7 5 8 6 9 7 10 8 12 9 13 10 14 24 15
REMARK SMILES IDX 11 16 13 17 12 18 14 19 15 20 16 21 17 22 18 23 23 24 19 25
REMARK SMILES IDX 22 26 20 27 21 28 27 29 28 30 29 31 30 32 31 33 32 34 33 35
REMARK SMILES IDX 34 37 35 38 36 39 97 40 37 41 96 42 38 43 39 44 40 45 90 46
REMARK SMILES IDX 41 47 95 48 89 49 91 50 42 51 94 52 88 53 87 54 43 56 75 57
REMARK SMILES IDX 55 58 74 59 56 60 59 61 73 62 92 63 57 64 58 65 72 67 93 68
REMARK SMILES IDX 60 69 44 70 45 71 53 72 46 73 47 74 51 75 54 76 48 77 49 78
REMARK SMILES IDX 52 79 50 80 76 81 77 82 85 83 78 84 79 85 83 86 86 87 80 88
REMARK SMILES IDX 81 89 84 90 82 91 61 92 62 93 70 94 63 95 64 96 68 97 71 98
REMARK SMILES IDX 65 99 66 100 69 101 67 102
REMARK H PARENT 25 5 6 11 32 36 91 55 59 66
REMARK Flexibility Score: inf
ROOT
ATOM      1  C   UNL A   1      39.922  22.409  26.643  1.00  0.00     0.116 C 
ENDROOT
BRANCH   1   2
ATOM      2  N   UNL A   1      38.868  21.843  25.833  1.00  0.00    -0.356 N 
ATOM      3  O   UNL A   1      37.580  23.741  25.724  1.00  0.00    -0.275 OA
ATOM      4  C   UNL A   1      37.797  22.582  25.396  1.00  0.00     0.220 C 
ATOM      5  H   UNL A   1      38.920  20.891  25.585  1.00  0.00     0.163 HD
BRANCH   4   6
ATOM      6  C   UNL A   1      36.957  21.851  24.372  1.00  0.00     0.102 C 
BRANCH   6   7
ATOM      7  C   UNL A   1      36.357  20.585  24.983  1.00  0.00     0.031 C 
BRANCH   7   8
ATOM      8  C   UNL A   1      34.846  20.636  25.238  1.00  0.00     0.116 C 
BRANCH   8   9
ATOM      9  N   UNL A   1      34.137  21.404  24.229  1.00  0.00    -0.356 N 
ATOM     10  C   UNL A   1      33.725  22.687  24.100  1.00  0.00     0.224 C 
ATOM     11  H   UNL A   1      33.898  20.858  23.446  1.00  0.00     0.163 HD
ATOM     12  O   UNL A   1      33.223  22.939  22.995  1.00  0.00    -0.275 OA
BRANCH  10  13
ATOM     13  C   UNL A   1      33.933  23.821  25.117  1.00  0.00     0.093 C 
ATOM     14  C   UNL A   1      34.050  23.535  26.605  1.00  0.00     0.016 C 
ATOM     15  C   UNL A   1      32.806  24.866  24.946  1.00  0.00     0.116 C 
ATOM     16  C   UNL A   1      32.756  22.936  27.121  1.00  0.00     0.018 C 
ATOM     17  N   UNL A   1      31.494  24.395  25.528  1.00  0.00    -0.197 NA
ATOM     18  C   UNL A   1      31.608  23.915  26.937  1.00  0.00     0.102 C 
BRANCH  17  19
ATOM     19  S   UNL A   1      30.257  25.595  25.314  1.00  0.00     0.243 S 
ATOM     20  O   UNL A   1      29.889  25.597  23.910  1.00  0.00    -0.207 OA
ATOM     21  O   UNL A   1      29.258  25.402  26.339  1.00  0.00    -0.207 OA
BRANCH  19  22
ATOM     22  C   UNL A   1      31.087  27.136  25.654  1.00  0.00     0.082 A 
ATOM     23  C   UNL A   1      31.302  28.058  24.622  1.00  0.00     0.025 A 
ATOM     24  C   UNL A   1      31.440  27.453  26.972  1.00  0.00     0.025 A 
ATOM     25  C   UNL A   1      31.949  29.263  24.895  1.00  0.00     0.040 A 
ATOM     26  C   UNL A   1      32.057  28.675  27.243  1.00  0.00     0.040 A 
ATOM     27  C   UNL A   1      32.321  29.560  26.203  1.00  0.00     0.123 A 
ATOM     28  F   UNL A   1      32.932  30.723  26.463  1.00  0.00    -0.207 F 
ENDBRANCH  19  22
ENDBRANCH  17  19
ENDBRANCH  10  13
ENDBRANCH   8   9
ENDBRANCH   7   8
ENDBRANCH   6   7
ENDBRANCH   4   6
ENDBRANCH   1   2
BRANCH   1  29
ATOM     29  C   UNL A   1      41.294  21.935  26.175  1.00  0.00     0.021 C 
BRANCH  29  30
ATOM     30  C   UNL A   1      42.135  21.233  27.253  1.00  0.00     0.002 C 
BRANCH  30  31
ATOM     31  C   UNL A   1      41.852  19.740  27.444  1.00  0.00     0.002 C 
BRANCH  31  32
ATOM     32  C   UNL A   1      42.274  18.842  26.280  1.00  0.00     0.021 C 
BRANCH  32  33
ATOM     33  C   UNL A   1      43.779  18.630  26.140  1.00  0.00     0.116 C 
BRANCH  33  34
ATOM     34  N   UNL A   1      44.200  18.458  24.761  1.00  0.00    -0.352 N 
ATOM     35  C   UNL A   1      44.651  19.404  23.874  1.00  0.00     0.251 C 
ATOM     36  H   UNL A   1      44.157  17.537  24.415  1.00  0.00     0.163 HD
ATOM     37  O   UNL A   1      44.834  19.114  22.696  1.00  0.00    -0.269 OA
BRANCH  35  38
ATOM     38  C   UNL A   1      44.889  20.791  24.335  1.00  0.00     0.039 A 
ATOM     39  C   UNL A   1      44.533  21.851  23.495  1.00  0.00     0.014 A 
ATOM     40  C   UNL A   1      45.469  21.049  25.580  1.00  0.00     0.014 A 
ATOM     41  C   UNL A   1      44.710  23.167  23.927  1.00  0.00     0.010 A 
ATOM     42  C   UNL A   1      45.578  22.360  26.037  1.00  0.00     0.010 A 
ATOM     43  C   UNL A   1      45.208  23.434  25.213  1.00  0.00    -0.014 A 
BRANCH  43  44
ATOM     44  C   UNL A   1      45.380  24.827  25.700  1.00  0.00     0.031 A 
ATOM     45  C   UNL A   1      46.730  25.487  25.620  1.00  0.00     0.074 A 
ATOM     46  C   UNL A   1      44.339  25.483  26.250  1.00  0.00     0.049 A 
ATOM     47  N   UNL A   1      47.105  26.662  26.062  1.00  0.00    -0.248 NA
ATOM     48  C   UNL A   1      47.810  24.720  24.976  1.00  0.00     0.031 C 
ATOM     49  C   UNL A   1      42.988  24.945  26.406  1.00  0.00     0.029 A 
ATOM     50  N   UNL A   1      44.256  26.746  26.781  1.00  0.00    -0.354 N 
ATOM     51  C   UNL A   1      48.455  26.767  25.760  1.00  0.00     0.074 A 
ATOM     52  C   UNL A   1      48.853  25.520  25.144  1.00  0.00     0.031 C 
ATOM     53  C   UNL A   1      42.203  25.879  26.967  1.00  0.00     0.029 A 
ATOM     54  C   UNL A   1      43.003  27.068  27.247  1.00  0.00     0.049 A 
ATOM     55  H   UNL A   1      45.021  27.364  26.825  1.00  0.00     0.167 HD
ATOM     56  C   UNL A   1      49.283  27.820  25.953  1.00  0.00     0.037 A 
ATOM     57  C   UNL A   1      42.553  28.193  27.836  1.00  0.00     0.037 A 
ATOM     58  C   UNL A   1      48.879  29.074  26.531  1.00  0.00     0.049 A 
ATOM     59  C   UNL A   1      43.503  29.343  28.051  1.00  0.00     0.074 A 
ATOM     60  C   UNL A   1      49.643  30.209  26.742  1.00  0.00     0.029 A 
ATOM     61  N   UNL A   1      47.599  29.364  26.974  1.00  0.00    -0.354 N 
ATOM     62  N   UNL A   1      44.770  29.439  27.732  1.00  0.00    -0.248 NA
ATOM     63  C   UNL A   1      42.958  30.543  28.702  1.00  0.00     0.031 C 
ATOM     64  C   UNL A   1      48.834  31.173  27.346  1.00  0.00     0.029 A 
ATOM     65  C   UNL A   1      47.554  30.658  27.463  1.00  0.00     0.049 A 
ATOM     66  H   UNL A   1      46.836  28.741  26.947  1.00  0.00     0.167 HD
ATOM     67  C   UNL A   1      45.161  30.720  28.101  1.00  0.00     0.074 A 
ATOM     68  C   UNL A   1      43.996  31.368  28.665  1.00  0.00     0.031 C 
ATOM     69  C   UNL A   1      46.377  31.304  27.983  1.00  0.00     0.037 A 
BRANCH  56  70
ATOM     70  C   UNL A   1      50.710  27.690  25.510  1.00  0.00     0.064 A 
ATOM     71  C   UNL A   1      51.055  27.829  24.158  1.00  0.00     0.173 A 
ATOM     72  C   UNL A   1      51.719  27.316  26.411  1.00  0.00     0.173 A 
ATOM     73  F   UNL A   1      50.125  28.179  23.255  1.00  0.00    -0.203 F 
ATOM     74  C   UNL A   1      52.351  27.573  23.720  1.00  0.00     0.198 A 
ATOM     75  C   UNL A   1      53.020  27.087  25.973  1.00  0.00     0.198 A 
ATOM     76  F   UNL A   1      51.441  27.183  27.717  1.00  0.00    -0.203 F 
ATOM     77  F   UNL A   1      52.647  27.668  22.415  1.00  0.00    -0.200 F 
ATOM     78  C   UNL A   1      53.331  27.202  24.627  1.00  0.00     0.200 A 
ATOM     79  F   UNL A   1      53.971  26.749  26.854  1.00  0.00    -0.200 F 
ATOM     80  F   UNL A   1      54.578  26.951  24.203  1.00  0.00    -0.200 F 
ENDBRANCH  56  70
BRANCH  57  81
ATOM     81  C   UNL A   1      41.125  28.309  28.237  1.00  0.00     0.064 A 
ATOM     82  C   UNL A   1      40.676  27.871  29.491  1.00  0.00     0.173 A 
ATOM     83  C   UNL A   1      40.181  28.879  27.371  1.00  0.00     0.173 A 
ATOM     84  F   UNL A   1      41.537  27.314  30.356  1.00  0.00    -0.203 F 
ATOM     85  C   UNL A   1      39.338  27.994  29.861  1.00  0.00     0.198 A 
ATOM     86  C   UNL A   1      38.849  29.031  27.753  1.00  0.00     0.198 A 
ATOM     87  F   UNL A   1      40.565  29.333  26.169  1.00  0.00    -0.203 F 
ATOM     88  F   UNL A   1      38.931  27.548  31.057  1.00  0.00    -0.200 F 
ATOM     89  C   UNL A   1      38.428  28.584  28.995  1.00  0.00     0.200 A 
ATOM     90  F   UNL A   1      37.981  29.628  26.926  1.00  0.00    -0.200 F 
ATOM     91  F   UNL A   1      37.148  28.727  29.363  1.00  0.00    -0.200 F 
ENDBRANCH  57  81
BRANCH  69  92
ATOM     92  C   UNL A   1      46.512  32.737  28.407  1.00  0.00     0.064 A 
ATOM     93  C   UNL A   1      46.848  33.049  29.734  1.00  0.00     0.173 A 
ATOM     94  C   UNL A   1      46.224  33.795  27.535  1.00  0.00     0.173 A 
ATOM     95  F   UNL A   1      47.120  32.071  30.611  1.00  0.00    -0.203 F 
ATOM     96  C   UNL A   1      46.875  34.368  30.175  1.00  0.00     0.198 A 
ATOM     97  C   UNL A   1      46.282  35.116  27.971  1.00  0.00     0.198 A 
ATOM     98  F   UNL A   1      45.908  33.547  26.255  1.00  0.00    -0.203 F 
ATOM     99  F   UNL A   1      47.161  34.640  31.456  1.00  0.00    -0.200 F 
ATOM    100  C   UNL A   1      46.596  35.400  29.292  1.00  0.00     0.200 A 
ATOM    101  F   UNL A   1      46.035  36.114  27.113  1.00  0.00    -0.200 F 
ATOM    102  F   UNL A   1      46.631  36.672  29.716  1.00  0.00    -0.200 F 
ENDBRANCH  69  92
ENDBRANCH  43  44
ENDBRANCH  35  38
ENDBRANCH  33  34
ENDBRANCH  32  33
ENDBRANCH  31  32
ENDBRANCH  30  31
ENDBRANCH  29  30
ENDBRANCH   1  29
TORSDOF 19
ENDMDL
