MODEL 1
REMARK VINA RESULT:     -11.8      0.000      0.000
REMARK SMILES O=C(NCCCCCCNC(=O)[C@@H]1CS[C@H](c2cccc([N+](=O)[O-])c2)[NH2+]1)c1ccc(-c2c3nc(c(-c4c(F)c(F)c(F)c(F)c4F)c4ccc([nH]4)c(-c4c(F)c(F)c(F)c(F)c4F)c4nc(c(-c5c(F)c(F)c(F)c(F)c5F)c5ccc2[nH]5)C=C4)C=C3)cc1
REMARK SMILES IDX 6 1 5 2 4 3 3 4 1 5 2 6 27 8 28 9 89 10 29 11 88 12 30 13
REMARK SMILES IDX 31 14 32 15 82 16 33 17 87 18 81 19 83 20 34 21 86 22 80 23
REMARK SMILES IDX 79 24 35 26 67 27 47 28 66 29 48 30 51 31 65 32 84 33 49 34
REMARK SMILES IDX 50 35 64 37 85 38 52 39 36 40 37 41 45 42 38 43 39 44 43 45
REMARK SMILES IDX 46 46 40 47 41 48 44 49 42 50 68 51 69 52 77 53 70 54 71 55
REMARK SMILES IDX 75 56 78 57 72 58 73 59 76 60 74 61 53 62 54 63 62 64 55 65
REMARK SMILES IDX 56 66 60 67 63 68 57 69 58 70 61 71 59 72 7 73 8 74 9 75
REMARK SMILES IDX 10 76 11 77 12 79 13 80 14 81 26 82 15 83 16 84 17 87 18 88
REMARK SMILES IDX 25 89 19 90 21 91 20 92 22 93 23 94 24 95
REMARK H PARENT 3 7 83 25 51 36 10 78 26 85 26 86
REMARK Flexibility Score: inf
ROOT
ATOM      1  C   UNL A   1      31.395  30.517  25.863  1.00  0.00     0.002 C 
ENDROOT
BRANCH   1   2
ATOM      2  C   UNL A   1      31.266  31.905  26.491  1.00  0.00     0.021 C 
BRANCH   2   3
ATOM      3  C   UNL A   1      32.580  32.493  26.981  1.00  0.00     0.116 C 
BRANCH   3   4
ATOM      4  N   UNL A   1      32.437  33.879  27.398  1.00  0.00    -0.352 N 
ATOM      5  O   UNL A   1      32.720  35.660  28.759  1.00  0.00    -0.269 OA
ATOM      6  C   UNL A   1      33.095  34.549  28.399  1.00  0.00     0.251 C 
ATOM      7  H   UNL A   1      31.779  34.409  26.892  1.00  0.00     0.163 HD
BRANCH   6   8
ATOM      8  C   UNL A   1      34.258  33.914  29.055  1.00  0.00     0.039 A 
ATOM      9  C   UNL A   1      34.076  32.820  29.905  1.00  0.00     0.014 A 
ATOM     10  C   UNL A   1      35.541  34.410  28.811  1.00  0.00     0.014 A 
ATOM     11  C   UNL A   1      35.156  32.309  30.611  1.00  0.00     0.010 A 
ATOM     12  C   UNL A   1      36.641  33.832  29.449  1.00  0.00     0.010 A 
ATOM     13  C   UNL A   1      36.454  32.787  30.369  1.00  0.00    -0.014 A 
BRANCH  13  14
ATOM     14  C   UNL A   1      37.604  32.106  31.013  1.00  0.00     0.031 A 
ATOM     15  C   UNL A   1      38.049  32.463  32.402  1.00  0.00     0.074 A 
ATOM     16  C   UNL A   1      38.236  31.137  30.322  1.00  0.00     0.049 A 
ATOM     17  N   UNL A   1      39.033  31.959  33.104  1.00  0.00    -0.248 NA
ATOM     18  C   UNL A   1      37.302  33.525  33.094  1.00  0.00     0.031 C 
ATOM     19  C   UNL A   1      37.896  30.720  28.958  1.00  0.00     0.029 A 
ATOM     20  N   UNL A   1      39.282  30.319  30.665  1.00  0.00    -0.354 N 
ATOM     21  C   UNL A   1      39.037  32.650  34.308  1.00  0.00     0.074 A 
ATOM     22  C   UNL A   1      37.969  33.626  34.237  1.00  0.00     0.031 C 
ATOM     23  C   UNL A   1      38.688  29.700  28.598  1.00  0.00     0.029 A 
ATOM     24  C   UNL A   1      39.638  29.440  29.673  1.00  0.00     0.049 A 
ATOM     25  H   UNL A   1      39.734  30.359  31.539  1.00  0.00     0.167 HD
ATOM     26  C   UNL A   1      39.855  32.477  35.375  1.00  0.00     0.037 A 
ATOM     27  C   UNL A   1      40.637  28.541  29.619  1.00  0.00     0.037 A 
ATOM     28  C   UNL A   1      40.907  31.492  35.438  1.00  0.00     0.049 A 
ATOM     29  C   UNL A   1      41.545  28.399  30.807  1.00  0.00     0.074 A 
ATOM     30  C   UNL A   1      41.761  31.210  36.491  1.00  0.00     0.029 A 
ATOM     31  N   UNL A   1      41.254  30.635  34.403  1.00  0.00    -0.354 N 
ATOM     32  N   UNL A   1      41.505  29.024  31.958  1.00  0.00    -0.248 NA
ATOM     33  C   UNL A   1      42.639  27.427  30.687  1.00  0.00     0.031 C 
ATOM     34  C   UNL A   1      42.660  30.224  36.074  1.00  0.00     0.029 A 
ATOM     35  C   UNL A   1      42.329  29.846  34.783  1.00  0.00     0.049 A 
ATOM     36  H   UNL A   1      40.805  30.594  33.529  1.00  0.00     0.167 HD
ATOM     37  C   UNL A   1      42.552  28.508  32.707  1.00  0.00     0.074 A 
ATOM     38  C   UNL A   1      43.193  27.499  31.888  1.00  0.00     0.031 C 
ATOM     39  C   UNL A   1      42.951  28.842  33.957  1.00  0.00     0.037 A 
BRANCH  26  40
ATOM     40  C   UNL A   1      39.668  33.375  36.563  1.00  0.00     0.064 A 
ATOM     41  C   UNL A   1      40.292  34.629  36.649  1.00  0.00     0.173 A 
ATOM     42  C   UNL A   1      38.783  33.013  37.592  1.00  0.00     0.173 A 
ATOM     43  F   UNL A   1      41.153  35.020  35.698  1.00  0.00    -0.203 F 
ATOM     44  C   UNL A   1      40.047  35.479  37.725  1.00  0.00     0.198 A 
ATOM     45  C   UNL A   1      38.520  33.877  38.651  1.00  0.00     0.198 A 
ATOM     46  F   UNL A   1      38.154  31.829  37.556  1.00  0.00    -0.203 F 
ATOM     47  F   UNL A   1      40.676  36.660  37.800  1.00  0.00    -0.200 F 
ATOM     48  C   UNL A   1      39.153  35.109  38.719  1.00  0.00     0.200 A 
ATOM     49  F   UNL A   1      37.644  33.523  39.602  1.00  0.00    -0.200 F 
ATOM     50  F   UNL A   1      38.905  35.937  39.742  1.00  0.00    -0.200 F 
ENDBRANCH  26  40
BRANCH  27  51
ATOM     51  C   UNL A   1      40.841  27.728  28.393  1.00  0.00     0.064 A 
ATOM     52  C   UNL A   1      40.236  26.472  28.247  1.00  0.00     0.173 A 
ATOM     53  C   UNL A   1      41.658  28.184  27.346  1.00  0.00     0.173 A 
ATOM     54  F   UNL A   1      39.460  25.985  29.227  1.00  0.00    -0.203 F 
ATOM     55  C   UNL A   1      40.462  25.693  27.114  1.00  0.00     0.198 A 
ATOM     56  C   UNL A   1      41.854  27.419  26.199  1.00  0.00     0.198 A 
ATOM     57  F   UNL A   1      42.255  29.381  27.431  1.00  0.00    -0.203 F 
ATOM     58  F   UNL A   1      39.917  24.472  27.026  1.00  0.00    -0.200 F 
ATOM     59  C   UNL A   1      41.266  26.169  26.090  1.00  0.00     0.200 A 
ATOM     60  F   UNL A   1      42.614  27.893  25.202  1.00  0.00    -0.200 F 
ATOM     61  F   UNL A   1      41.481  25.419  25.000  1.00  0.00    -0.200 F 
ENDBRANCH  27  51
BRANCH  39  62
ATOM     62  C   UNL A   1      44.113  28.082  34.529  1.00  0.00     0.064 A 
ATOM     63  C   UNL A   1      45.430  28.549  34.411  1.00  0.00     0.173 A 
ATOM     64  C   UNL A   1      43.901  26.880  35.222  1.00  0.00     0.173 A 
ATOM     65  F   UNL A   1      45.686  29.683  33.742  1.00  0.00    -0.203 F 
ATOM     66  C   UNL A   1      46.496  27.824  34.938  1.00  0.00     0.198 A 
ATOM     67  C   UNL A   1      44.965  26.177  35.778  1.00  0.00     0.198 A 
ATOM     68  F   UNL A   1      42.660  26.392  35.368  1.00  0.00    -0.203 F 
ATOM     69  F   UNL A   1      47.751  28.261  34.762  1.00  0.00    -0.200 F 
ATOM     70  C   UNL A   1      46.261  26.644  35.627  1.00  0.00     0.200 A 
ATOM     71  F   UNL A   1      44.736  25.043  36.455  1.00  0.00    -0.200 F 
ATOM     72  F   UNL A   1      47.289  25.951  36.137  1.00  0.00    -0.200 F 
ENDBRANCH  39  62
ENDBRANCH  13  14
ENDBRANCH   6   8
ENDBRANCH   3   4
ENDBRANCH   2   3
ENDBRANCH   1   2
BRANCH   1  73
ATOM     73  C   UNL A   1      32.365  29.569  26.579  1.00  0.00     0.002 C 
BRANCH  73  74
ATOM     74  C   UNL A   1      31.728  28.313  27.191  1.00  0.00     0.021 C 
BRANCH  74  75
ATOM     75  C   UNL A   1      32.169  27.002  26.539  1.00  0.00     0.116 C 
BRANCH  75  76
ATOM     76  N   UNL A   1      31.164  25.976  26.689  1.00  0.00    -0.351 N 
ATOM     77  C   UNL A   1      31.162  24.640  26.464  1.00  0.00     0.279 C 
ATOM     78  H   UNL A   1      30.304  26.317  27.024  1.00  0.00     0.163 HD
ATOM     79  O   UNL A   1      30.153  24.050  26.874  1.00  0.00    -0.268 OA
BRANCH  77  80
ATOM     80  C   UNL A   1      32.340  23.854  25.829  1.00  0.00     0.283 C 
ATOM     81  C   UNL A   1      33.742  24.453  25.916  1.00  0.00     0.151 C 
ATOM     82  N   UNL A   1      31.993  23.569  24.390  1.00  0.00    -0.321 N 
ATOM     83  S   UNL A   1      34.518  24.032  24.348  1.00  0.00    -0.088 SA
ATOM     84  C   UNL A   1      32.935  24.245  23.495  1.00  0.00     0.274 C 
ATOM     85  H   UNL A   1      31.049  23.905  24.199  1.00  0.00     0.348 HD
ATOM     86  H   UNL A   1      32.048  22.564  24.229  1.00  0.00     0.348 HD
BRANCH  84  87
ATOM     87  C   UNL A   1      32.613  25.718  23.232  1.00  0.00     0.027 A 
ATOM     88  C   UNL A   1      33.652  26.669  23.180  1.00  0.00     0.011 A 
ATOM     89  C   UNL A   1      31.298  26.177  23.022  1.00  0.00     0.096 A 
ATOM     90  C   UNL A   1      33.389  28.033  23.016  1.00  0.00     0.008 A 
ATOM     91  C   UNL A   1      31.034  27.548  22.887  1.00  0.00     0.269 A 
ATOM     92  C   UNL A   1      32.077  28.479  22.888  1.00  0.00     0.085 A 
BRANCH  91  93
ATOM     93  N   UNL A   1      29.646  28.022  22.782  1.00  0.00     0.062 N 
ATOM     94  O   UNL A   1      29.417  28.955  21.998  1.00  0.00    -0.258 OA
ATOM     95  O   UNL A   1      28.789  27.484  23.495  1.00  0.00    -0.258 OA
ENDBRANCH  91  93
ENDBRANCH  84  87
ENDBRANCH  77  80
ENDBRANCH  75  76
ENDBRANCH  74  75
ENDBRANCH  73  74
ENDBRANCH   1  73
TORSDOF 15
ENDMDL
MODEL 2
REMARK VINA RESULT:     -11.8      0.280      1.206
REMARK SMILES O=C(NCCCCCCNC(=O)[C@@H]1CS[C@H](c2cccc([N+](=O)[O-])c2)[NH2+]1)c1ccc(-c2c3nc(c(-c4c(F)c(F)c(F)c(F)c4F)c4ccc([nH]4)c(-c4c(F)c(F)c(F)c(F)c4F)c4nc(c(-c5c(F)c(F)c(F)c(F)c5F)c5ccc2[nH]5)C=C4)C=C3)cc1
REMARK SMILES IDX 6 1 5 2 4 3 3 4 1 5 2 6 27 8 28 9 89 10 29 11 88 12 30 13
REMARK SMILES IDX 31 14 32 15 82 16 33 17 87 18 81 19 83 20 34 21 86 22 80 23
REMARK SMILES IDX 79 24 35 26 67 27 47 28 66 29 48 30 51 31 65 32 84 33 49 34
REMARK SMILES IDX 50 35 64 37 85 38 52 39 36 40 37 41 45 42 38 43 39 44 43 45
REMARK SMILES IDX 46 46 40 47 41 48 44 49 42 50 68 51 69 52 77 53 70 54 71 55
REMARK SMILES IDX 75 56 78 57 72 58 73 59 76 60 74 61 53 62 54 63 62 64 55 65
REMARK SMILES IDX 56 66 60 67 63 68 57 69 58 70 61 71 59 72 7 73 8 74 9 75
REMARK SMILES IDX 10 76 11 77 12 79 13 80 14 81 26 82 15 83 16 84 17 87 18 88
REMARK SMILES IDX 25 89 19 90 21 91 20 92 22 93 23 94 24 95
REMARK H PARENT 3 7 83 25 51 36 10 78 26 85 26 86
REMARK Flexibility Score: inf
ROOT
ATOM      1  C   UNL A   1      31.470  30.824  26.033  1.00  0.00     0.002 C 
ENDROOT
BRANCH   1   2
ATOM      2  C   UNL A   1      31.325  32.161  26.760  1.00  0.00     0.021 C 
BRANCH   2   3
ATOM      3  C   UNL A   1      32.646  32.828  27.108  1.00  0.00     0.116 C 
BRANCH   3   4
ATOM      4  N   UNL A   1      32.460  34.171  27.633  1.00  0.00    -0.352 N 
ATOM      5  O   UNL A   1      32.677  35.845  29.134  1.00  0.00    -0.269 OA
ATOM      6  C   UNL A   1      33.087  34.777  28.692  1.00  0.00     0.251 C 
ATOM      7  H   UNL A   1      31.792  34.721  27.162  1.00  0.00     0.163 HD
BRANCH   6   8
ATOM      8  C   UNL A   1      34.260  34.124  29.311  1.00  0.00     0.039 A 
ATOM      9  C   UNL A   1      34.085  33.154  30.301  1.00  0.00     0.014 A 
ATOM     10  C   UNL A   1      35.545  34.477  28.891  1.00  0.00     0.014 A 
ATOM     11  C   UNL A   1      35.190  32.636  30.962  1.00  0.00     0.010 A 
ATOM     12  C   UNL A   1      36.658  33.883  29.491  1.00  0.00     0.010 A 
ATOM     13  C   UNL A   1      36.488  32.970  30.545  1.00  0.00    -0.014 A 
BRANCH  13  14
ATOM     14  C   UNL A   1      37.644  32.272  31.159  1.00  0.00     0.031 A 
ATOM     15  C   UNL A   1      38.120  32.609  32.542  1.00  0.00     0.074 A 
ATOM     16  C   UNL A   1      38.254  31.304  30.445  1.00  0.00     0.049 A 
ATOM     17  N   UNL A   1      39.113  32.088  33.219  1.00  0.00    -0.248 NA
ATOM     18  C   UNL A   1      37.398  33.670  33.260  1.00  0.00     0.031 C 
ATOM     19  C   UNL A   1      37.883  30.905  29.083  1.00  0.00     0.029 A 
ATOM     20  N   UNL A   1      39.298  30.473  30.758  1.00  0.00    -0.354 N 
ATOM     21  C   UNL A   1      39.147  32.765  34.430  1.00  0.00     0.074 A 
ATOM     22  C   UNL A   1      38.088  33.751  34.391  1.00  0.00     0.031 C 
ATOM     23  C   UNL A   1      38.658  29.883  28.697  1.00  0.00     0.029 A 
ATOM     24  C   UNL A   1      39.626  29.602  29.749  1.00  0.00     0.049 A 
ATOM     25  H   UNL A   1      39.767  30.499  31.623  1.00  0.00     0.167 HD
ATOM     26  C   UNL A   1      39.985  32.573  35.479  1.00  0.00     0.037 A 
ATOM     27  C   UNL A   1      40.615  28.694  29.666  1.00  0.00     0.037 A 
ATOM     28  C   UNL A   1      41.028  31.577  35.510  1.00  0.00     0.049 A 
ATOM     29  C   UNL A   1      41.545  28.530  30.834  1.00  0.00     0.074 A 
ATOM     30  C   UNL A   1      41.900  31.276  36.543  1.00  0.00     0.029 A 
ATOM     31  N   UNL A   1      41.347  30.729  34.459  1.00  0.00    -0.354 N 
ATOM     32  N   UNL A   1      41.534  29.143  31.992  1.00  0.00    -0.248 NA
ATOM     33  C   UNL A   1      42.627  27.549  30.681  1.00  0.00     0.031 C 
ATOM     34  C   UNL A   1      42.781  30.286  36.098  1.00  0.00     0.029 A 
ATOM     35  C   UNL A   1      42.421  29.925  34.809  1.00  0.00     0.049 A 
ATOM     36  H   UNL A   1      40.880  30.701  33.594  1.00  0.00     0.167 HD
ATOM     37  C   UNL A   1      42.590  28.608  32.715  1.00  0.00     0.074 A 
ATOM     38  C   UNL A   1      43.205  27.602  31.872  1.00  0.00     0.031 C 
ATOM     39  C   UNL A   1      43.017  28.925  33.961  1.00  0.00     0.037 A 
BRANCH  26  40
ATOM     40  C   UNL A   1      39.830  33.459  36.681  1.00  0.00     0.064 A 
ATOM     41  C   UNL A   1      40.534  34.666  36.805  1.00  0.00     0.173 A 
ATOM     42  C   UNL A   1      38.898  33.139  37.681  1.00  0.00     0.173 A 
ATOM     43  F   UNL A   1      41.442  35.016  35.882  1.00  0.00    -0.203 F 
ATOM     44  C   UNL A   1      40.321  35.511  37.892  1.00  0.00     0.198 A 
ATOM     45  C   UNL A   1      38.668  33.999  38.752  1.00  0.00     0.198 A 
ATOM     46  F   UNL A   1      38.192  32.000  37.608  1.00  0.00    -0.203 F 
ATOM     47  F   UNL A   1      41.026  36.646  38.005  1.00  0.00    -0.200 F 
ATOM     48  C   UNL A   1      39.381  35.183  38.858  1.00  0.00     0.200 A 
ATOM     49  F   UNL A   1      37.748  33.687  39.675  1.00  0.00    -0.200 F 
ATOM     50  F   UNL A   1      39.164  36.007  39.892  1.00  0.00    -0.200 F 
ENDBRANCH  26  40
BRANCH  27  51
ATOM     51  C   UNL A   1      40.787  27.892  28.427  1.00  0.00     0.064 A 
ATOM     52  C   UNL A   1      40.187  26.634  28.289  1.00  0.00     0.173 A 
ATOM     53  C   UNL A   1      41.568  28.363  27.360  1.00  0.00     0.173 A 
ATOM     54  F   UNL A   1      39.445  26.133  29.288  1.00  0.00    -0.203 F 
ATOM     55  C   UNL A   1      40.384  25.865  27.143  1.00  0.00     0.198 A 
ATOM     56  C   UNL A   1      41.734  27.610  26.200  1.00  0.00     0.198 A 
ATOM     57  F   UNL A   1      42.158  29.565  27.437  1.00  0.00    -0.203 F 
ATOM     58  F   UNL A   1      39.845  24.641  27.061  1.00  0.00    -0.200 F 
ATOM     59  C   UNL A   1      41.152  26.356  26.099  1.00  0.00     0.200 A 
ATOM     60  F   UNL A   1      42.459  28.098  25.185  1.00  0.00    -0.200 F 
ATOM     61  F   UNL A   1      41.339  25.617  24.996  1.00  0.00    -0.200 F 
ENDBRANCH  27  51
BRANCH  39  62
ATOM     62  C   UNL A   1      44.182  28.147  34.501  1.00  0.00     0.064 A 
ATOM     63  C   UNL A   1      44.008  26.930  35.174  1.00  0.00     0.173 A 
ATOM     64  C   UNL A   1      45.492  28.619  34.324  1.00  0.00     0.173 A 
ATOM     65  F   UNL A   1      42.775  26.446  35.385  1.00  0.00    -0.203 F 
ATOM     66  C   UNL A   1      45.100  26.228  35.678  1.00  0.00     0.198 A 
ATOM     67  C   UNL A   1      46.583  27.897  34.798  1.00  0.00     0.198 A 
ATOM     68  F   UNL A   1      45.714  29.776  33.682  1.00  0.00    -0.203 F 
ATOM     69  F   UNL A   1      44.905  25.096  36.369  1.00  0.00    -0.200 F 
ATOM     70  C   UNL A   1      46.386  26.709  35.483  1.00  0.00     0.200 A 
ATOM     71  F   UNL A   1      47.827  28.357  34.596  1.00  0.00    -0.200 F 
ATOM     72  F   UNL A   1      47.436  26.029  35.965  1.00  0.00    -0.200 F 
ENDBRANCH  39  62
ENDBRANCH  13  14
ENDBRANCH   6   8
ENDBRANCH   3   4
ENDBRANCH   2   3
ENDBRANCH   1   2
BRANCH   1  73
ATOM     73  C   UNL A   1      32.433  29.828  26.691  1.00  0.00     0.002 C 
BRANCH  73  74
ATOM     74  C   UNL A   1      31.778  28.575  27.290  1.00  0.00     0.021 C 
BRANCH  74  75
ATOM     75  C   UNL A   1      32.190  27.266  26.615  1.00  0.00     0.116 C 
BRANCH  75  76
ATOM     76  N   UNL A   1      31.132  26.285  26.682  1.00  0.00    -0.351 N 
ATOM     77  C   UNL A   1      31.080  24.958  26.411  1.00  0.00     0.279 C 
ATOM     78  H   UNL A   1      30.273  26.655  26.987  1.00  0.00     0.163 HD
ATOM     79  O   UNL A   1      30.027  24.404  26.752  1.00  0.00    -0.268 OA
BRANCH  77  80
ATOM     80  C   UNL A   1      32.251  24.138  25.806  1.00  0.00     0.283 C 
ATOM     81  C   UNL A   1      33.671  24.675  25.966  1.00  0.00     0.151 C 
ATOM     82  N   UNL A   1      31.954  23.902  24.347  1.00  0.00    -0.321 N 
ATOM     83  S   UNL A   1      34.495  24.258  24.422  1.00  0.00    -0.088 SA
ATOM     84  C   UNL A   1      32.960  24.559  23.509  1.00  0.00     0.274 C 
ATOM     85  H   UNL A   1      31.033  24.282  24.125  1.00  0.00     0.348 HD
ATOM     86  H   UNL A   1      31.973  22.900  24.163  1.00  0.00     0.348 HD
BRANCH  84  87
ATOM     87  C   UNL A   1      32.711  26.049  23.270  1.00  0.00     0.027 A 
ATOM     88  C   UNL A   1      33.771  26.970  23.396  1.00  0.00     0.011 A 
ATOM     89  C   UNL A   1      31.447  26.555  22.911  1.00  0.00     0.096 A 
ATOM     90  C   UNL A   1      33.564  28.347  23.258  1.00  0.00     0.008 A 
ATOM     91  C   UNL A   1      31.236  27.937  22.802  1.00  0.00     0.269 A 
ATOM     92  C   UNL A   1      32.292  28.836  22.979  1.00  0.00     0.085 A 
BRANCH  91  93
ATOM     93  N   UNL A   1      29.886  28.456  22.537  1.00  0.00     0.062 N 
ATOM     94  O   UNL A   1      28.951  27.985  23.201  1.00  0.00    -0.258 OA
ATOM     95  O   UNL A   1      29.753  29.313  21.654  1.00  0.00    -0.258 OA
ENDBRANCH  91  93
ENDBRANCH  84  87
ENDBRANCH  77  80
ENDBRANCH  75  76
ENDBRANCH  74  75
ENDBRANCH  73  74
ENDBRANCH   1  73
TORSDOF 15
ENDMDL
MODEL 3
REMARK VINA RESULT:     -11.8      0.624      7.426
REMARK SMILES O=C(NCCCCCCNC(=O)[C@@H]1CS[C@H](c2cccc([N+](=O)[O-])c2)[NH2+]1)c1ccc(-c2c3nc(c(-c4c(F)c(F)c(F)c(F)c4F)c4ccc([nH]4)c(-c4c(F)c(F)c(F)c(F)c4F)c4nc(c(-c5c(F)c(F)c(F)c(F)c5F)c5ccc2[nH]5)C=C4)C=C3)cc1
REMARK SMILES IDX 6 1 5 2 4 3 3 4 1 5 2 6 27 8 28 9 89 10 29 11 88 12 30 13
REMARK SMILES IDX 31 14 32 15 82 16 33 17 87 18 81 19 83 20 34 21 86 22 80 23
REMARK SMILES IDX 79 24 35 26 67 27 47 28 66 29 48 30 51 31 65 32 84 33 49 34
REMARK SMILES IDX 50 35 64 37 85 38 52 39 36 40 37 41 45 42 38 43 39 44 43 45
REMARK SMILES IDX 46 46 40 47 41 48 44 49 42 50 68 51 69 52 77 53 70 54 71 55
REMARK SMILES IDX 75 56 78 57 72 58 73 59 76 60 74 61 53 62 54 63 62 64 55 65
REMARK SMILES IDX 56 66 60 67 63 68 57 69 58 70 61 71 59 72 7 73 8 74 9 75
REMARK SMILES IDX 10 76 11 77 12 79 13 80 14 81 26 82 15 83 16 84 17 87 18 88
REMARK SMILES IDX 25 89 19 90 21 91 20 92 22 93 23 94 24 95
REMARK H PARENT 3 7 83 25 51 36 10 78 26 85 26 86
REMARK Flexibility Score: inf
ROOT
ATOM      1  C   UNL A   1      31.485  30.853  26.045  1.00  0.00     0.002 C 
ENDROOT
BRANCH   1   2
ATOM      2  C   UNL A   1      31.322  32.171  26.804  1.00  0.00     0.021 C 
BRANCH   2   3
ATOM      3  C   UNL A   1      32.626  32.912  27.055  1.00  0.00     0.116 C 
BRANCH   3   4
ATOM      4  N   UNL A   1      32.402  34.255  27.566  1.00  0.00    -0.352 N 
ATOM      5  O   UNL A   1      32.549  35.940  29.064  1.00  0.00    -0.269 OA
ATOM      6  C   UNL A   1      32.989  34.877  28.639  1.00  0.00     0.251 C 
ATOM      7  H   UNL A   1      31.738  34.791  27.074  1.00  0.00     0.163 HD
BRANCH   6   8
ATOM      8  C   UNL A   1      34.156  34.247  29.294  1.00  0.00     0.039 A 
ATOM      9  C   UNL A   1      33.970  33.334  30.335  1.00  0.00     0.014 A 
ATOM     10  C   UNL A   1      35.444  34.564  28.857  1.00  0.00     0.014 A 
ATOM     11  C   UNL A   1      35.069  32.841  31.025  1.00  0.00     0.010 A 
ATOM     12  C   UNL A   1      36.551  33.993  29.490  1.00  0.00     0.010 A 
ATOM     13  C   UNL A   1      36.371  33.140  30.591  1.00  0.00    -0.014 A 
BRANCH  13  14
ATOM     14  C   UNL A   1      37.520  32.465  31.244  1.00  0.00     0.031 A 
ATOM     15  C   UNL A   1      38.271  31.358  30.563  1.00  0.00     0.074 A 
ATOM     16  C   UNL A   1      37.889  32.884  32.471  1.00  0.00     0.049 A 
ATOM     17  N   UNL A   1      39.297  30.670  30.999  1.00  0.00    -0.248 NA
ATOM     18  C   UNL A   1      37.813  30.964  29.221  1.00  0.00     0.031 C 
ATOM     19  C   UNL A   1      37.218  33.942  33.234  1.00  0.00     0.029 A 
ATOM     20  N   UNL A   1      38.915  32.489  33.290  1.00  0.00    -0.354 N 
ATOM     21  C   UNL A   1      39.596  29.754  30.000  1.00  0.00     0.074 A 
ATOM     22  C   UNL A   1      38.631  29.957  28.940  1.00  0.00     0.031 C 
ATOM     23  C   UNL A   1      37.874  34.139  34.385  1.00  0.00     0.029 A 
ATOM     24  C   UNL A   1      38.964  33.176  34.477  1.00  0.00     0.049 A 
ATOM     25  H   UNL A   1      39.555  31.781  33.048  1.00  0.00     0.167 HD
ATOM     26  C   UNL A   1      40.591  28.834  29.974  1.00  0.00     0.037 A 
ATOM     27  C   UNL A   1      39.778  33.029  35.539  1.00  0.00     0.037 A 
ATOM     28  C   UNL A   1      41.554  28.651  31.031  1.00  0.00     0.049 A 
ATOM     29  C   UNL A   1      40.849  31.978  35.487  1.00  0.00     0.074 A 
ATOM     30  C   UNL A   1      42.626  27.776  31.078  1.00  0.00     0.029 A 
ATOM     31  N   UNL A   1      41.558  29.349  32.231  1.00  0.00    -0.354 N 
ATOM     32  N   UNL A   1      41.151  31.152  34.516  1.00  0.00    -0.248 NA
ATOM     33  C   UNL A   1      41.690  31.836  36.683  1.00  0.00     0.031 C 
ATOM     34  C   UNL A   1      43.242  27.903  32.327  1.00  0.00     0.029 A 
ATOM     35  C   UNL A   1      42.594  28.902  33.036  1.00  0.00     0.049 A 
ATOM     36  H   UNL A   1      40.918  30.056  32.474  1.00  0.00     0.167 HD
ATOM     37  C   UNL A   1      42.230  30.409  34.971  1.00  0.00     0.074 A 
ATOM     38  C   UNL A   1      42.544  30.900  36.298  1.00  0.00     0.031 C 
ATOM     39  C   UNL A   1      42.897  29.406  34.351  1.00  0.00     0.037 A 
BRANCH  26  40
ATOM     40  C   UNL A   1      40.693  27.936  28.775  1.00  0.00     0.064 A 
ATOM     41  C   UNL A   1      39.940  26.756  28.668  1.00  0.00     0.173 A 
ATOM     42  C   UNL A   1      41.489  28.305  27.678  1.00  0.00     0.173 A 
ATOM     43  F   UNL A   1      39.170  26.353  29.690  1.00  0.00    -0.203 F 
ATOM     44  C   UNL A   1      39.992  25.975  27.516  1.00  0.00     0.198 A 
ATOM     45  C   UNL A   1      41.516  27.537  26.518  1.00  0.00     0.198 A 
ATOM     46  F   UNL A   1      42.222  29.428  27.724  1.00  0.00    -0.203 F 
ATOM     47  F   UNL A   1      39.287  24.837  27.448  1.00  0.00    -0.200 F 
ATOM     48  C   UNL A   1      40.770  26.371  26.438  1.00  0.00     0.200 A 
ATOM     49  F   UNL A   1      42.257  27.930  25.472  1.00  0.00    -0.200 F 
ATOM     50  F   UNL A   1      40.803  25.627  25.324  1.00  0.00    -0.200 F 
ENDBRANCH  26  40
BRANCH  27  51
ATOM     51  C   UNL A   1      39.593  33.882  36.741  1.00  0.00     0.064 A 
ATOM     52  C   UNL A   1      40.211  35.136  36.841  1.00  0.00     0.173 A 
ATOM     53  C   UNL A   1      38.806  33.455  37.822  1.00  0.00     0.173 A 
ATOM     54  F   UNL A   1      40.987  35.582  35.842  1.00  0.00    -0.203 F 
ATOM     55  C   UNL A   1      40.071  35.917  37.987  1.00  0.00     0.198 A 
ATOM     56  C   UNL A   1      38.637  34.252  38.951  1.00  0.00     0.198 A 
ATOM     57  F   UNL A   1      38.186  32.267  37.774  1.00  0.00    -0.203 F 
ATOM     58  F   UNL A   1      40.719  37.086  38.080  1.00  0.00    -0.200 F 
ATOM     59  C   UNL A   1      39.281  35.477  39.037  1.00  0.00     0.200 A 
ATOM     60  F   UNL A   1      37.855  33.832  39.954  1.00  0.00    -0.200 F 
ATOM     61  F   UNL A   1      39.146  36.229  40.139  1.00  0.00    -0.200 F 
ENDBRANCH  27  51
BRANCH  39  62
ATOM     62  C   UNL A   1      44.056  28.800  35.087  1.00  0.00     0.064 A 
ATOM     63  C   UNL A   1      45.355  29.316  34.968  1.00  0.00     0.173 A 
ATOM     64  C   UNL A   1      43.860  27.701  35.938  1.00  0.00     0.173 A 
ATOM     65  F   UNL A   1      45.598  30.353  34.153  1.00  0.00    -0.203 F 
ATOM     66  C   UNL A   1      46.421  28.733  35.650  1.00  0.00     0.198 A 
ATOM     67  C   UNL A   1      44.922  27.145  36.645  1.00  0.00     0.198 A 
ATOM     68  F   UNL A   1      42.636  27.174  36.091  1.00  0.00    -0.203 F 
ATOM     69  F   UNL A   1      47.663  29.206  35.475  1.00  0.00    -0.200 F 
ATOM     70  C   UNL A   1      46.201  27.654  36.492  1.00  0.00     0.200 A 
ATOM     71  F   UNL A   1      44.705  26.110  37.470  1.00  0.00    -0.200 F 
ATOM     72  F   UNL A   1      47.228  27.099  37.151  1.00  0.00    -0.200 F 
ENDBRANCH  39  62
ENDBRANCH  13  14
ENDBRANCH   6   8
ENDBRANCH   3   4
ENDBRANCH   2   3
ENDBRANCH   1   2
BRANCH   1  73
ATOM     73  C   UNL A   1      32.397  29.823  26.723  1.00  0.00     0.002 C 
BRANCH  73  74
ATOM     74  C   UNL A   1      31.687  28.580  27.280  1.00  0.00     0.021 C 
BRANCH  74  75
ATOM     75  C   UNL A   1      32.181  27.258  26.693  1.00  0.00     0.116 C 
BRANCH  75  76
ATOM     76  N   UNL A   1      31.140  26.256  26.706  1.00  0.00    -0.351 N 
ATOM     77  C   UNL A   1      31.118  24.938  26.393  1.00  0.00     0.279 C 
ATOM     78  H   UNL A   1      30.268  26.602  27.003  1.00  0.00     0.163 HD
ATOM     79  O   UNL A   1      30.068  24.355  26.693  1.00  0.00    -0.268 OA
BRANCH  77  80
ATOM     80  C   UNL A   1      32.317  24.158  25.789  1.00  0.00     0.283 C 
ATOM     81  C   UNL A   1      33.721  24.732  25.969  1.00  0.00     0.151 C 
ATOM     82  N   UNL A   1      32.040  23.933  24.324  1.00  0.00    -0.321 N 
ATOM     83  S   UNL A   1      34.570  24.357  24.428  1.00  0.00    -0.088 SA
ATOM     84  C   UNL A   1      33.035  24.627  23.504  1.00  0.00     0.274 C 
ATOM     85  H   UNL A   1      31.111  24.289  24.099  1.00  0.00     0.348 HD
ATOM     86  H   UNL A   1      32.089  22.933  24.128  1.00  0.00     0.348 HD
BRANCH  84  87
ATOM     87  C   UNL A   1      32.748  26.113  23.282  1.00  0.00     0.027 A 
ATOM     88  C   UNL A   1      33.779  27.062  23.434  1.00  0.00     0.011 A 
ATOM     89  C   UNL A   1      31.474  26.587  22.911  1.00  0.00     0.096 A 
ATOM     90  C   UNL A   1      33.535  28.433  23.311  1.00  0.00     0.008 A 
ATOM     91  C   UNL A   1      31.225  27.965  22.817  1.00  0.00     0.269 A 
ATOM     92  C   UNL A   1      32.253  28.890  23.021  1.00  0.00     0.085 A 
BRANCH  91  93
ATOM     93  N   UNL A   1      29.865  28.448  22.540  1.00  0.00     0.062 N 
ATOM     94  O   UNL A   1      29.727  29.279  21.630  1.00  0.00    -0.258 OA
ATOM     95  O   UNL A   1      28.939  28.022  23.242  1.00  0.00    -0.258 OA
ENDBRANCH  91  93
ENDBRANCH  84  87
ENDBRANCH  77  80
ENDBRANCH  75  76
ENDBRANCH  74  75
ENDBRANCH  73  74
ENDBRANCH   1  73
TORSDOF 15
ENDMDL
