MODEL 1
REMARK VINA RESULT:     -12.9      0.000      0.000
REMARK SMILES O=C1CC[C@@H](CC(=O)N2CCC(Oc3ccccc3)(C(=O)NCCCCCCNC(=O)c3ccc(-c4c5nc(c(-c6c(F)c(F)c(F)c(F)c6F)c6ccc([nH]6)c(-c6c(F)c(F)c(F)c(F)c6F)c6nc(c(-c7c(F)c(F)c(F)c(F)c7F)c7ccc4[nH]7)C=C6)C=C5)cc3)CC2)N1
REMARK SMILES IDX 25 1 24 2 23 3 22 4 20 5 21 6 12 8 7 9 8 10 9 11 10 12 96 13
REMARK SMILES IDX 11 14 95 15 6 16 5 17 1 18 2 19 3 20 97 21 4 22 13 24 14 25
REMARK SMILES IDX 15 26 19 27 16 28 18 29 17 30 26 31 27 32 28 33 29 34 30 35
REMARK SMILES IDX 31 37 32 38 33 39 94 40 34 41 93 42 35 43 36 44 37 45 87 46
REMARK SMILES IDX 38 47 92 48 86 49 88 50 39 51 91 52 85 53 84 54 40 56 72 57
REMARK SMILES IDX 52 58 71 59 53 60 56 61 70 62 89 63 54 64 55 65 69 67 90 68
REMARK SMILES IDX 57 69 41 70 42 71 50 72 43 73 44 74 48 75 51 76 45 77 46 78
REMARK SMILES IDX 49 79 47 80 73 81 74 82 82 83 75 84 76 85 80 86 83 87 77 88
REMARK SMILES IDX 78 89 81 90 79 91 58 92 59 93 67 94 60 95 61 96 65 97 68 98
REMARK SMILES IDX 62 99 63 100 66 101 64 102
REMARK H PARENT 22 7 97 23 29 36 88 55 56 66
REMARK Flexibility Score: inf
ROOT
ATOM      1  C   UNL A   1      32.986  30.096  26.734  1.00  0.00     0.002 C 
ENDROOT
BRANCH   1   2
ATOM      2  C   UNL A   1      33.645  29.301  25.599  1.00  0.00     0.021 C 
BRANCH   2   3
ATOM      3  C   UNL A   1      32.893  29.399  24.277  1.00  0.00     0.116 C 
BRANCH   3   4
ATOM      4  N   UNL A   1      33.382  28.392  23.371  1.00  0.00    -0.353 N 
ATOM      5  C   UNL A   1      32.758  27.305  22.855  1.00  0.00     0.264 C 
ATOM      6  O   UNL A   1      33.449  26.617  22.096  1.00  0.00    -0.270 OA
ATOM      7  H   UNL A   1      34.315  28.512  23.081  1.00  0.00     0.163 HD
BRANCH   5   8
ATOM      8  C   UNL A   1      31.269  26.982  23.177  1.00  0.00     0.190 C 
ATOM      9  C   UNL A   1      30.736  23.943  25.982  1.00  0.00     0.224 C 
ATOM     10  O   UNL A   1      29.981  24.347  26.876  1.00  0.00    -0.275 OA
ATOM     11  N   UNL A   1      31.399  24.858  25.186  1.00  0.00    -0.342 N 
ATOM     12  C   UNL A   1      31.549  26.245  25.620  1.00  0.00     0.124 C 
ATOM     13  C   UNL A   1      31.813  24.622  23.826  1.00  0.00     0.124 C 
ATOM     14  C   UNL A   1      30.874  27.213  24.654  1.00  0.00     0.080 C 
ATOM     15  C   UNL A   1      31.051  25.503  22.840  1.00  0.00     0.080 C 
BRANCH   9  16
ATOM     16  C   UNL A   1      31.072  22.439  25.976  1.00  0.00     0.125 C 
BRANCH  16  17
ATOM     17  C   UNL A   1      32.435  21.759  26.125  1.00  0.00     0.091 C 
ATOM     18  O   UNL A   1      35.408  21.774  24.251  1.00  0.00    -0.275 OA
ATOM     19  C   UNL A   1      34.553  21.867  25.119  1.00  0.00     0.220 C 
ATOM     20  C   UNL A   1      34.773  22.337  26.536  1.00  0.00     0.102 C 
ATOM     21  N   UNL A   1      33.214  21.607  24.933  1.00  0.00    -0.353 N 
ATOM     22  C   UNL A   1      33.377  22.369  27.165  1.00  0.00     0.035 C 
ATOM     23  H   UNL A   1      32.830  21.342  24.067  1.00  0.00     0.163 HD
ENDBRANCH  16  17
ENDBRANCH   9  16
BRANCH   8  24
ATOM     24  O   UNL A   1      30.606  27.866  22.234  1.00  0.00    -0.477 OA
BRANCH  24  25
ATOM     25  C   UNL A   1      29.628  28.688  22.701  1.00  0.00     0.120 A 
ATOM     26  C   UNL A   1      28.324  28.203  22.751  1.00  0.00     0.046 A 
ATOM     27  C   UNL A   1      29.886  30.033  22.962  1.00  0.00     0.046 A 
ATOM     28  C   UNL A   1      27.284  29.047  23.143  1.00  0.00     0.004 A 
ATOM     29  C   UNL A   1      28.851  30.872  23.374  1.00  0.00     0.004 A 
ATOM     30  C   UNL A   1      27.551  30.377  23.468  1.00  0.00     0.000 A 
ENDBRANCH  24  25
ENDBRANCH   8  24
ENDBRANCH   5   8
ENDBRANCH   3   4
ENDBRANCH   2   3
ENDBRANCH   1   2
BRANCH   1  31
ATOM     31  C   UNL A   1      31.605  30.667  26.395  1.00  0.00     0.002 C 
BRANCH  31  32
ATOM     32  C   UNL A   1      31.404  32.126  26.806  1.00  0.00     0.021 C 
BRANCH  32  33
ATOM     33  C   UNL A   1      32.673  32.811  27.292  1.00  0.00     0.116 C 
BRANCH  33  34
ATOM     34  N   UNL A   1      32.437  34.204  27.626  1.00  0.00    -0.352 N 
ATOM     35  C   UNL A   1      32.990  34.948  28.636  1.00  0.00     0.251 C 
ATOM     36  H   UNL A   1      31.795  34.678  27.050  1.00  0.00     0.163 HD
ATOM     37  O   UNL A   1      32.528  36.045  28.928  1.00  0.00    -0.269 OA
BRANCH  35  38
ATOM     38  C   UNL A   1      34.140  34.403  29.386  1.00  0.00     0.039 A 
ATOM     39  C   UNL A   1      33.904  33.715  30.577  1.00  0.00     0.014 A 
ATOM     40  C   UNL A   1      35.443  34.561  28.904  1.00  0.00     0.014 A 
ATOM     41  C   UNL A   1      34.975  33.143  31.263  1.00  0.00     0.010 A 
ATOM     42  C   UNL A   1      36.497  33.920  29.544  1.00  0.00     0.010 A 
ATOM     43  C   UNL A   1      36.276  33.214  30.735  1.00  0.00    -0.014 A 
BRANCH  43  44
ATOM     44  C   UNL A   1      37.418  32.561  31.421  1.00  0.00     0.031 A 
ATOM     45  C   UNL A   1      38.128  31.406  30.771  1.00  0.00     0.074 A 
ATOM     46  C   UNL A   1      37.778  32.972  32.652  1.00  0.00     0.049 A 
ATOM     47  N   UNL A   1      39.111  30.674  31.231  1.00  0.00    -0.248 NA
ATOM     48  C   UNL A   1      37.651  31.001  29.440  1.00  0.00     0.031 C 
ATOM     49  C   UNL A   1      37.134  34.051  33.403  1.00  0.00     0.029 A 
ATOM     50  N   UNL A   1      38.767  32.526  33.491  1.00  0.00    -0.354 N 
ATOM     51  C   UNL A   1      39.359  29.720  30.254  1.00  0.00     0.074 A 
ATOM     52  C   UNL A   1      38.385  29.925  29.204  1.00  0.00     0.031 C 
ATOM     53  C   UNL A   1      37.765  34.203  34.579  1.00  0.00     0.029 A 
ATOM     54  C   UNL A   1      38.825  33.205  34.682  1.00  0.00     0.049 A 
ATOM     55  H   UNL A   1      39.377  31.788  33.261  1.00  0.00     0.167 HD
ATOM     56  C   UNL A   1      40.327  28.773  30.224  1.00  0.00     0.037 A 
ATOM     57  C   UNL A   1      39.639  33.038  35.742  1.00  0.00     0.037 A 
ATOM     58  C   UNL A   1      41.305  28.586  31.264  1.00  0.00     0.049 A 
ATOM     59  C   UNL A   1      40.694  31.966  35.693  1.00  0.00     0.074 A 
ATOM     60  C   UNL A   1      42.364  27.697  31.304  1.00  0.00     0.029 A 
ATOM     61  N   UNL A   1      41.334  29.295  32.457  1.00  0.00    -0.354 N 
ATOM     62  N   UNL A   1      40.968  31.117  34.732  1.00  0.00    -0.248 NA
ATOM     63  C   UNL A   1      41.555  31.832  36.875  1.00  0.00     0.031 C 
ATOM     64  C   UNL A   1      42.997  27.826  32.544  1.00  0.00     0.029 A 
ATOM     65  C   UNL A   1      42.375  28.841  33.252  1.00  0.00     0.049 A 
ATOM     66  H   UNL A   1      40.708  30.015  32.701  1.00  0.00     0.167 HD
ATOM     67  C   UNL A   1      42.052  30.371  35.179  1.00  0.00     0.074 A 
ATOM     68  C   UNL A   1      42.392  30.879  36.491  1.00  0.00     0.031 C 
ATOM     69  C   UNL A   1      42.705  29.360  34.557  1.00  0.00     0.037 A 
BRANCH  56  70
ATOM     70  C   UNL A   1      40.371  27.863  29.028  1.00  0.00     0.064 A 
ATOM     71  C   UNL A   1      41.140  28.166  27.895  1.00  0.00     0.173 A 
ATOM     72  C   UNL A   1      39.651  26.658  29.025  1.00  0.00     0.173 A 
ATOM     73  F   UNL A   1      41.840  29.310  27.839  1.00  0.00    -0.203 F 
ATOM     74  C   UNL A   1      41.157  27.319  26.789  1.00  0.00     0.198 A 
ATOM     75  C   UNL A   1      39.698  25.795  27.933  1.00  0.00     0.198 A 
ATOM     76  F   UNL A   1      38.903  26.314  30.084  1.00  0.00    -0.203 F 
ATOM     77  F   UNL A   1      41.851  27.661  25.695  1.00  0.00    -0.200 F 
ATOM     78  C   UNL A   1      40.442  26.131  26.812  1.00  0.00     0.200 A 
ATOM     79  F   UNL A   1      39.019  24.641  27.964  1.00  0.00    -0.200 F 
ATOM     80  F   UNL A   1      40.462  25.314  25.750  1.00  0.00    -0.200 F 
ENDBRANCH  56  70
BRANCH  57  81
ATOM     81  C   UNL A   1      39.505  33.926  36.927  1.00  0.00     0.064 A 
ATOM     82  C   UNL A   1      38.747  33.533  38.038  1.00  0.00     0.173 A 
ATOM     83  C   UNL A   1      40.132  35.180  36.975  1.00  0.00     0.173 A 
ATOM     84  F   UNL A   1      38.114  32.352  38.032  1.00  0.00    -0.203 F 
ATOM     85  C   UNL A   1      38.605  34.368  39.144  1.00  0.00     0.198 A 
ATOM     86  C   UNL A   1      40.015  36.001  38.094  1.00  0.00     0.198 A 
ATOM     87  F   UNL A   1      40.874  35.601  35.940  1.00  0.00    -0.203 F 
ATOM     88  F   UNL A   1      37.837  33.987  40.175  1.00  0.00    -0.200 F 
ATOM     89  C   UNL A   1      39.245  35.598  39.174  1.00  0.00     0.200 A 
ATOM     90  F   UNL A   1      40.647  37.182  38.126  1.00  0.00    -0.200 F 
ATOM     91  F   UNL A   1      39.113  36.398  40.241  1.00  0.00    -0.200 F 
ENDBRANCH  57  81
BRANCH  69  92
ATOM     92  C   UNL A   1      43.881  28.756  35.271  1.00  0.00     0.064 A 
ATOM     93  C   UNL A   1      43.735  27.684  36.163  1.00  0.00     0.173 A 
ATOM     94  C   UNL A   1      45.179  29.234  35.027  1.00  0.00     0.173 A 
ATOM     95  F   UNL A   1      42.515  27.199  36.443  1.00  0.00    -0.203 F 
ATOM     96  C   UNL A   1      44.839  27.132  36.807  1.00  0.00     0.198 A 
ATOM     97  C   UNL A   1      46.284  28.655  35.644  1.00  0.00     0.198 A 
ATOM     98  F   UNL A   1      45.376  30.251  34.176  1.00  0.00    -0.203 F 
ATOM     99  F   UNL A   1      44.670  26.144  37.696  1.00  0.00    -0.200 F 
ATOM    100  C   UNL A   1      46.113  27.612  36.541  1.00  0.00     0.200 A 
ATOM    101  F   UNL A   1      47.515  29.110  35.373  1.00  0.00    -0.200 F 
ATOM    102  F   UNL A   1      47.176  27.073  37.154  1.00  0.00    -0.200 F 
ENDBRANCH  69  92
ENDBRANCH  43  44
ENDBRANCH  35  38
ENDBRANCH  33  34
ENDBRANCH  32  33
ENDBRANCH  31  32
ENDBRANCH   1  31
TORSDOF 17
ENDMDL
MODEL 2
REMARK VINA RESULT:     -12.7      0.627      7.030
REMARK SMILES O=C1CC[C@@H](CC(=O)N2CCC(Oc3ccccc3)(C(=O)NCCCCCCNC(=O)c3ccc(-c4c5nc(c(-c6c(F)c(F)c(F)c(F)c6F)c6ccc([nH]6)c(-c6c(F)c(F)c(F)c(F)c6F)c6nc(c(-c7c(F)c(F)c(F)c(F)c7F)c7ccc4[nH]7)C=C6)C=C5)cc3)CC2)N1
REMARK SMILES IDX 25 1 24 2 23 3 22 4 20 5 21 6 12 8 7 9 8 10 9 11 10 12 96 13
REMARK SMILES IDX 11 14 95 15 6 16 5 17 1 18 2 19 3 20 97 21 4 22 13 24 14 25
REMARK SMILES IDX 15 26 19 27 16 28 18 29 17 30 26 31 27 32 28 33 29 34 30 35
REMARK SMILES IDX 31 37 32 38 33 39 94 40 34 41 93 42 35 43 36 44 37 45 87 46
REMARK SMILES IDX 38 47 92 48 86 49 88 50 39 51 91 52 85 53 84 54 40 56 72 57
REMARK SMILES IDX 52 58 71 59 53 60 56 61 70 62 89 63 54 64 55 65 69 67 90 68
REMARK SMILES IDX 57 69 41 70 42 71 50 72 43 73 44 74 48 75 51 76 45 77 46 78
REMARK SMILES IDX 49 79 47 80 73 81 74 82 82 83 75 84 76 85 80 86 83 87 77 88
REMARK SMILES IDX 78 89 81 90 79 91 58 92 59 93 67 94 60 95 61 96 65 97 68 98
REMARK SMILES IDX 62 99 63 100 66 101 64 102
REMARK H PARENT 22 7 97 23 29 36 88 55 56 66
REMARK Flexibility Score: inf
ROOT
ATOM      1  C   UNL A   1      33.157  30.120  26.970  1.00  0.00     0.002 C 
ENDROOT
BRANCH   1   2
ATOM      2  C   UNL A   1      33.672  29.259  25.809  1.00  0.00     0.021 C 
BRANCH   2   3
ATOM      3  C   UNL A   1      32.865  29.428  24.527  1.00  0.00     0.116 C 
BRANCH   3   4
ATOM      4  N   UNL A   1      33.363  28.523  23.523  1.00  0.00    -0.353 N 
ATOM      5  C   UNL A   1      32.747  27.494  22.893  1.00  0.00     0.264 C 
ATOM      6  O   UNL A   1      33.445  26.892  22.070  1.00  0.00    -0.270 OA
ATOM      7  H   UNL A   1      34.297  28.677  23.253  1.00  0.00     0.163 HD
BRANCH   5   8
ATOM      8  C   UNL A   1      31.258  27.134  23.170  1.00  0.00     0.190 C 
ATOM      9  C   UNL A   1      30.720  24.033  25.906  1.00  0.00     0.224 C 
ATOM     10  O   UNL A   1      29.933  24.404  26.787  1.00  0.00    -0.275 OA
ATOM     11  N   UNL A   1      31.383  24.976  25.144  1.00  0.00    -0.342 N 
ATOM     12  C   UNL A   1      31.492  26.357  25.607  1.00  0.00     0.124 C 
ATOM     13  C   UNL A   1      31.836  24.775  23.790  1.00  0.00     0.124 C 
ATOM     14  C   UNL A   1      30.820  27.329  24.641  1.00  0.00     0.080 C 
ATOM     15  C   UNL A   1      31.081  25.656  22.802  1.00  0.00     0.080 C 
BRANCH   9  16
ATOM     16  C   UNL A   1      31.089  22.537  25.882  1.00  0.00     0.125 C 
BRANCH  16  17
ATOM     17  C   UNL A   1      32.400  21.864  26.293  1.00  0.00     0.091 C 
ATOM     18  O   UNL A   1      35.452  21.230  24.671  1.00  0.00    -0.275 OA
ATOM     19  C   UNL A   1      34.566  21.596  25.427  1.00  0.00     0.220 C 
ATOM     20  C   UNL A   1      34.747  22.428  26.673  1.00  0.00     0.102 C 
ATOM     21  N   UNL A   1      33.224  21.355  25.237  1.00  0.00    -0.353 N 
ATOM     22  C   UNL A   1      33.328  22.695  27.182  1.00  0.00     0.035 C 
ATOM     23  H   UNL A   1      32.865  20.879  24.455  1.00  0.00     0.163 HD
ENDBRANCH  16  17
ENDBRANCH   9  16
BRANCH   8  24
ATOM     24  O   UNL A   1      30.600  28.021  22.227  1.00  0.00    -0.477 OA
BRANCH  24  25
ATOM     25  C   UNL A   1      29.615  28.836  22.690  1.00  0.00     0.120 A 
ATOM     26  C   UNL A   1      28.311  28.347  22.722  1.00  0.00     0.046 A 
ATOM     27  C   UNL A   1      29.865  30.179  22.963  1.00  0.00     0.046 A 
ATOM     28  C   UNL A   1      27.265  29.184  23.110  1.00  0.00     0.004 A 
ATOM     29  C   UNL A   1      28.823  31.012  23.371  1.00  0.00     0.004 A 
ATOM     30  C   UNL A   1      27.524  30.512  23.448  1.00  0.00     0.000 A 
ENDBRANCH  24  25
ENDBRANCH   8  24
ENDBRANCH   5   8
ENDBRANCH   3   4
ENDBRANCH   2   3
ENDBRANCH   1   2
BRANCH   1  31
ATOM     31  C   UNL A   1      31.702  30.578  26.828  1.00  0.00     0.002 C 
BRANCH  31  32
ATOM     32  C   UNL A   1      31.507  32.095  26.872  1.00  0.00     0.021 C 
BRANCH  32  33
ATOM     33  C   UNL A   1      32.797  32.876  27.080  1.00  0.00     0.116 C 
BRANCH  33  34
ATOM     34  N   UNL A   1      32.538  34.213  27.582  1.00  0.00    -0.352 N 
ATOM     35  C   UNL A   1      33.080  34.836  28.677  1.00  0.00     0.251 C 
ATOM     36  H   UNL A   1      31.888  34.744  27.069  1.00  0.00     0.163 HD
ATOM     37  O   UNL A   1      32.601  35.881  29.100  1.00  0.00    -0.269 OA
BRANCH  35  38
ATOM     38  C   UNL A   1      34.240  34.222  29.355  1.00  0.00     0.039 A 
ATOM     39  C   UNL A   1      34.013  33.307  30.384  1.00  0.00     0.014 A 
ATOM     40  C   UNL A   1      35.544  34.541  28.964  1.00  0.00     0.014 A 
ATOM     41  C   UNL A   1      35.097  32.674  30.991  1.00  0.00     0.010 A 
ATOM     42  C   UNL A   1      36.617  33.849  29.512  1.00  0.00     0.010 A 
ATOM     43  C   UNL A   1      36.405  32.916  30.538  1.00  0.00    -0.014 A 
BRANCH  43  44
ATOM     44  C   UNL A   1      37.565  32.208  31.132  1.00  0.00     0.031 A 
ATOM     45  C   UNL A   1      38.055  32.580  32.504  1.00  0.00     0.074 A 
ATOM     46  C   UNL A   1      38.212  31.270  30.414  1.00  0.00     0.049 A 
ATOM     47  N   UNL A   1      39.080  32.115  33.173  1.00  0.00    -0.248 NA
ATOM     48  C   UNL A   1      37.311  33.635  33.207  1.00  0.00     0.031 C 
ATOM     49  C   UNL A   1      37.859  30.856  29.054  1.00  0.00     0.029 A 
ATOM     50  N   UNL A   1      39.305  30.501  30.722  1.00  0.00    -0.354 N 
ATOM     51  C   UNL A   1      39.109  32.827  34.363  1.00  0.00     0.074 A 
ATOM     52  C   UNL A   1      38.039  33.798  34.301  1.00  0.00     0.031 C 
ATOM     53  C   UNL A   1      38.700  29.888  28.658  1.00  0.00     0.029 A 
ATOM     54  C   UNL A   1      39.677  29.645  29.716  1.00  0.00     0.049 A 
ATOM     55  H   UNL A   1      39.779  30.558  31.584  1.00  0.00     0.167 HD
ATOM     56  C   UNL A   1      39.938  32.670  35.422  1.00  0.00     0.037 A 
ATOM     57  C   UNL A   1      40.696  28.767  29.651  1.00  0.00     0.037 A 
ATOM     58  C   UNL A   1      40.991  31.689  35.483  1.00  0.00     0.049 A 
ATOM     59  C   UNL A   1      41.616  28.625  30.833  1.00  0.00     0.074 A 
ATOM     60  C   UNL A   1      41.847  31.407  36.532  1.00  0.00     0.029 A 
ATOM     61  N   UNL A   1      41.337  30.837  34.444  1.00  0.00    -0.354 N 
ATOM     62  N   UNL A   1      41.589  29.252  31.984  1.00  0.00    -0.248 NA
ATOM     63  C   UNL A   1      42.706  27.649  30.707  1.00  0.00     0.031 C 
ATOM     64  C   UNL A   1      42.750  30.427  36.108  1.00  0.00     0.029 A 
ATOM     65  C   UNL A   1      42.416  30.050  34.818  1.00  0.00     0.049 A 
ATOM     66  H   UNL A   1      40.883  30.797  33.571  1.00  0.00     0.167 HD
ATOM     67  C   UNL A   1      42.635  28.725  32.731  1.00  0.00     0.074 A 
ATOM     68  C   UNL A   1      43.268  27.717  31.906  1.00  0.00     0.031 C 
ATOM     69  C   UNL A   1      43.033  29.046  33.986  1.00  0.00     0.037 A 
BRANCH  56  70
ATOM     70  C   UNL A   1      39.743  33.585  36.598  1.00  0.00     0.064 A 
ATOM     71  C   UNL A   1      38.896  33.249  37.665  1.00  0.00     0.173 A 
ATOM     72  C   UNL A   1      40.431  34.806  36.670  1.00  0.00     0.173 A 
ATOM     73  F   UNL A   1      38.205  32.100  37.643  1.00  0.00    -0.203 F 
ATOM     74  C   UNL A   1      38.715  34.117  38.740  1.00  0.00     0.198 A 
ATOM     75  C   UNL A   1      40.276  35.655  37.764  1.00  0.00     0.198 A 
ATOM     76  F   UNL A   1      41.260  35.177  35.682  1.00  0.00    -0.203 F 
ATOM     77  F   UNL A   1      37.853  33.800  39.716  1.00  0.00    -0.200 F 
ATOM     78  C   UNL A   1      39.411  35.315  38.792  1.00  0.00     0.200 A 
ATOM     79  F   UNL A   1      40.961  36.805  37.819  1.00  0.00    -0.200 F 
ATOM     80  F   UNL A   1      39.240  36.147  39.829  1.00  0.00    -0.200 F 
ENDBRANCH  56  70
BRANCH  57  81
ATOM     81  C   UNL A   1      40.880  27.934  28.433  1.00  0.00     0.064 A 
ATOM     82  C   UNL A   1      40.282  26.671  28.328  1.00  0.00     0.173 A 
ATOM     83  C   UNL A   1      41.653  28.382  27.351  1.00  0.00     0.173 A 
ATOM     84  F   UNL A   1      39.550  26.191  29.343  1.00  0.00    -0.203 F 
ATOM     85  C   UNL A   1      40.464  25.880  27.196  1.00  0.00     0.198 A 
ATOM     86  C   UNL A   1      41.809  27.603  26.207  1.00  0.00     0.198 A 
ATOM     87  F   UNL A   1      42.242  29.587  27.399  1.00  0.00    -0.203 F 
ATOM     88  F   UNL A   1      39.918  24.657  27.140  1.00  0.00    -0.200 F 
ATOM     89  C   UNL A   1      41.222  26.349  26.133  1.00  0.00     0.200 A 
ATOM     90  F   UNL A   1      42.528  28.068  25.176  1.00  0.00    -0.200 F 
ATOM     91  F   UNL A   1      41.392  25.591  25.043  1.00  0.00    -0.200 F 
ENDBRANCH  57  81
BRANCH  69  92
ATOM     92  C   UNL A   1      44.187  28.275  34.563  1.00  0.00     0.064 A 
ATOM     93  C   UNL A   1      43.999  27.068  35.252  1.00  0.00     0.173 A 
ATOM     94  C   UNL A   1      45.502  28.732  34.387  1.00  0.00     0.173 A 
ATOM     95  F   UNL A   1      42.761  26.595  35.460  1.00  0.00    -0.203 F 
ATOM     96  C   UNL A   1      45.082  26.363  35.770  1.00  0.00     0.198 A 
ATOM     97  C   UNL A   1      46.585  28.005  34.874  1.00  0.00     0.198 A 
ATOM     98  F   UNL A   1      45.739  29.875  33.727  1.00  0.00    -0.203 F 
ATOM     99  F   UNL A   1      44.875  25.240  36.472  1.00  0.00    -0.200 F 
ATOM    100  C   UNL A   1      46.374  26.827  35.573  1.00  0.00     0.200 A 
ATOM    101  F   UNL A   1      47.834  28.447  34.668  1.00  0.00    -0.200 F 
ATOM    102  F   UNL A   1      47.416  26.142  36.063  1.00  0.00    -0.200 F 
ENDBRANCH  69  92
ENDBRANCH  43  44
ENDBRANCH  35  38
ENDBRANCH  33  34
ENDBRANCH  32  33
ENDBRANCH  31  32
ENDBRANCH   1  31
TORSDOF 17
ENDMDL
MODEL 3
REMARK VINA RESULT:     -12.5      5.494     11.393
REMARK SMILES O=C1CC[C@@H](CC(=O)N2CCC(Oc3ccccc3)(C(=O)NCCCCCCNC(=O)c3ccc(-c4c5nc(c(-c6c(F)c(F)c(F)c(F)c6F)c6ccc([nH]6)c(-c6c(F)c(F)c(F)c(F)c6F)c6nc(c(-c7c(F)c(F)c(F)c(F)c7F)c7ccc4[nH]7)C=C6)C=C5)cc3)CC2)N1
REMARK SMILES IDX 25 1 24 2 23 3 22 4 20 5 21 6 12 8 7 9 8 10 9 11 10 12 96 13
REMARK SMILES IDX 11 14 95 15 6 16 5 17 1 18 2 19 3 20 97 21 4 22 13 24 14 25
REMARK SMILES IDX 15 26 19 27 16 28 18 29 17 30 26 31 27 32 28 33 29 34 30 35
REMARK SMILES IDX 31 37 32 38 33 39 94 40 34 41 93 42 35 43 36 44 37 45 87 46
REMARK SMILES IDX 38 47 92 48 86 49 88 50 39 51 91 52 85 53 84 54 40 56 72 57
REMARK SMILES IDX 52 58 71 59 53 60 56 61 70 62 89 63 54 64 55 65 69 67 90 68
REMARK SMILES IDX 57 69 41 70 42 71 50 72 43 73 44 74 48 75 51 76 45 77 46 78
REMARK SMILES IDX 49 79 47 80 73 81 74 82 82 83 75 84 76 85 80 86 83 87 77 88
REMARK SMILES IDX 78 89 81 90 79 91 58 92 59 93 67 94 60 95 61 96 65 97 68 98
REMARK SMILES IDX 62 99 63 100 66 101 64 102
REMARK H PARENT 22 7 97 23 29 36 88 55 56 66
REMARK Flexibility Score: inf
ROOT
ATOM      1  C   UNL A   1      38.048  22.877  26.103  1.00  0.00     0.002 C 
ENDROOT
BRANCH   1   2
ATOM      2  C   UNL A   1      37.231  22.297  24.941  1.00  0.00     0.021 C 
BRANCH   2   3
ATOM      3  C   UNL A   1      36.312  21.155  25.360  1.00  0.00     0.116 C 
BRANCH   3   4
ATOM      4  N   UNL A   1      35.540  21.556  26.507  1.00  0.00    -0.353 N 
ATOM      5  C   UNL A   1      34.199  21.670  26.660  1.00  0.00     0.264 C 
ATOM      6  O   UNL A   1      33.830  22.045  27.778  1.00  0.00    -0.270 OA
ATOM      7  H   UNL A   1      36.070  21.783  27.305  1.00  0.00     0.163 HD
BRANCH   5   8
ATOM      8  C   UNL A   1      33.208  21.316  25.512  1.00  0.00     0.190 C 
ATOM      9  C   UNL A   1      31.918  24.593  23.281  1.00  0.00     0.224 C 
ATOM     10  O   UNL A   1      32.100  24.360  22.078  1.00  0.00    -0.275 OA
ATOM     11  N   UNL A   1      32.628  23.881  24.227  1.00  0.00    -0.342 N 
ATOM     12  C   UNL A   1      33.849  23.170  23.856  1.00  0.00     0.124 C 
ATOM     13  C   UNL A   1      32.169  23.596  25.564  1.00  0.00     0.124 C 
ATOM     14  C   UNL A   1      33.722  21.668  24.097  1.00  0.00     0.080 C 
ATOM     15  C   UNL A   1      31.922  22.106  25.774  1.00  0.00     0.080 C 
BRANCH   9  16
ATOM     16  C   UNL A   1      31.080  25.838  23.633  1.00  0.00     0.125 C 
BRANCH  16  17
ATOM     17  C   UNL A   1      31.384  27.311  23.350  1.00  0.00     0.091 C 
ATOM     18  O   UNL A   1      29.835  29.816  21.433  1.00  0.00    -0.275 OA
ATOM     19  C   UNL A   1      30.330  29.139  22.321  1.00  0.00     0.220 C 
ATOM     20  C   UNL A   1      30.441  29.525  23.776  1.00  0.00     0.102 C 
ATOM     21  N   UNL A   1      30.828  27.867  22.153  1.00  0.00    -0.353 N 
ATOM     22  C   UNL A   1      31.031  28.293  24.469  1.00  0.00     0.035 C 
ATOM     23  H   UNL A   1      30.804  27.386  21.295  1.00  0.00     0.163 HD
ENDBRANCH  16  17
ENDBRANCH   9  16
BRANCH   8  24
ATOM     24  O   UNL A   1      33.040  19.892  25.750  1.00  0.00    -0.477 OA
BRANCH  24  25
ATOM     25  C   UNL A   1      33.251  19.037  24.714  1.00  0.00     0.120 A 
ATOM     26  C   UNL A   1      32.271  18.934  23.730  1.00  0.00     0.046 A 
ATOM     27  C   UNL A   1      34.333  18.159  24.718  1.00  0.00     0.046 A 
ATOM     28  C   UNL A   1      32.416  18.005  22.700  1.00  0.00     0.004 A 
ATOM     29  C   UNL A   1      34.490  17.244  23.678  1.00  0.00     0.004 A 
ATOM     30  C   UNL A   1      33.534  17.171  22.666  1.00  0.00     0.000 A 
ENDBRANCH  24  25
ENDBRANCH   8  24
ENDBRANCH   5   8
ENDBRANCH   3   4
ENDBRANCH   2   3
ENDBRANCH   1   2
BRANCH   1  31
ATOM     31  C   UNL A   1      39.503  22.398  26.162  1.00  0.00     0.002 C 
BRANCH  31  32
ATOM     32  C   UNL A   1      39.680  20.966  26.668  1.00  0.00     0.021 C 
BRANCH  32  33
ATOM     33  C   UNL A   1      39.844  19.936  25.560  1.00  0.00     0.116 C 
BRANCH  33  34
ATOM     34  N   UNL A   1      40.816  18.918  25.914  1.00  0.00    -0.352 N 
ATOM     35  C   UNL A   1      42.139  19.072  26.238  1.00  0.00     0.251 C 
ATOM     36  H   UNL A   1      40.481  17.992  25.924  1.00  0.00     0.163 HD
ATOM     37  O   UNL A   1      42.884  18.101  26.298  1.00  0.00    -0.269 OA
BRANCH  35  38
ATOM     38  C   UNL A   1      42.664  20.429  26.496  1.00  0.00     0.039 A 
ATOM     39  C   UNL A   1      43.123  21.190  25.422  1.00  0.00     0.014 A 
ATOM     40  C   UNL A   1      42.688  20.947  27.795  1.00  0.00     0.014 A 
ATOM     41  C   UNL A   1      43.563  22.495  25.643  1.00  0.00     0.010 A 
ATOM     42  C   UNL A   1      43.048  22.273  28.001  1.00  0.00     0.010 A 
ATOM     43  C   UNL A   1      43.500  23.057  26.929  1.00  0.00    -0.014 A 
BRANCH  43  44
ATOM     44  C   UNL A   1      43.909  24.462  27.173  1.00  0.00     0.031 A 
ATOM     45  C   UNL A   1      42.901  25.471  27.647  1.00  0.00     0.074 A 
ATOM     46  C   UNL A   1      45.175  24.840  26.913  1.00  0.00     0.049 A 
ATOM     47  N   UNL A   1      43.051  26.753  27.867  1.00  0.00    -0.248 NA
ATOM     48  C   UNL A   1      41.533  24.980  27.876  1.00  0.00     0.031 C 
ATOM     49  C   UNL A   1      46.232  23.963  26.406  1.00  0.00     0.029 A 
ATOM     50  N   UNL A   1      45.787  26.063  27.032  1.00  0.00    -0.354 N 
ATOM     51  C   UNL A   1      41.801  27.219  28.247  1.00  0.00     0.074 A 
ATOM     52  C   UNL A   1      40.889  26.100  28.168  1.00  0.00     0.031 C 
ATOM     53  C   UNL A   1      47.368  24.667  26.286  1.00  0.00     0.029 A 
ATOM     54  C   UNL A   1      47.110  26.054  26.665  1.00  0.00     0.049 A 
ATOM     55  H   UNL A   1      45.322  26.870  27.350  1.00  0.00     0.167 HD
ATOM     56  C   UNL A   1      41.450  28.464  28.648  1.00  0.00     0.037 A 
ATOM     57  C   UNL A   1      48.011  27.053  26.632  1.00  0.00     0.037 A 
ATOM     58  C   UNL A   1      42.367  29.570  28.741  1.00  0.00     0.049 A 
ATOM     59  C   UNL A   1      47.592  28.432  27.063  1.00  0.00     0.074 A 
ATOM     60  C   UNL A   1      42.127  30.855  29.193  1.00  0.00     0.029 A 
ATOM     61  N   UNL A   1      43.701  29.523  28.362  1.00  0.00    -0.354 N 
ATOM     62  N   UNL A   1      46.424  28.847  27.491  1.00  0.00    -0.248 NA
ATOM     63  C   UNL A   1      48.618  29.481  27.010  1.00  0.00     0.031 C 
ATOM     64  C   UNL A   1      43.298  31.602  29.032  1.00  0.00     0.029 A 
ATOM     65  C   UNL A   1      44.288  30.766  28.541  1.00  0.00     0.049 A 
ATOM     66  H   UNL A   1      44.163  28.725  28.017  1.00  0.00     0.167 HD
ATOM     67  C   UNL A   1      46.583  30.194  27.789  1.00  0.00     0.074 A 
ATOM     68  C   UNL A   1      47.964  30.523  27.505  1.00  0.00     0.031 C 
ATOM     69  C   UNL A   1      45.668  31.078  28.257  1.00  0.00     0.037 A 
BRANCH  56  70
ATOM     70  C   UNL A   1      40.009  28.696  29.011  1.00  0.00     0.064 A 
ATOM     71  C   UNL A   1      39.528  28.473  30.309  1.00  0.00     0.173 A 
ATOM     72  C   UNL A   1      39.103  29.171  28.051  1.00  0.00     0.173 A 
ATOM     73  F   UNL A   1      40.348  28.009  31.264  1.00  0.00    -0.203 F 
ATOM     74  C   UNL A   1      38.187  28.679  30.624  1.00  0.00     0.198 A 
ATOM     75  C   UNL A   1      37.770  29.410  28.377  1.00  0.00     0.198 A 
ATOM     76  F   UNL A   1      39.508  29.408  26.794  1.00  0.00    -0.203 F 
ATOM     77  F   UNL A   1      37.739  28.399  31.856  1.00  0.00    -0.200 F 
ATOM     78  C   UNL A   1      37.311  29.153  29.660  1.00  0.00     0.200 A 
ATOM     79  F   UNL A   1      36.929  29.884  27.449  1.00  0.00    -0.200 F 
ATOM     80  F   UNL A   1      36.021  29.356  29.965  1.00  0.00    -0.200 F 
ENDBRANCH  56  70
BRANCH  57  81
ATOM     81  C   UNL A   1      49.407  26.778  26.199  1.00  0.00     0.064 A 
ATOM     82  C   UNL A   1      50.366  26.321  27.113  1.00  0.00     0.173 A 
ATOM     83  C   UNL A   1      49.810  26.962  24.868  1.00  0.00     0.173 A 
ATOM     84  F   UNL A   1      50.035  26.149  28.400  1.00  0.00    -0.203 F 
ATOM     85  C   UNL A   1      51.680  26.078  26.717  1.00  0.00     0.198 A 
ATOM     86  C   UNL A   1      51.115  26.687  24.467  1.00  0.00     0.198 A 
ATOM     87  F   UNL A   1      48.929  27.391  23.952  1.00  0.00    -0.203 F 
ATOM     88  F   UNL A   1      52.588  25.685  27.621  1.00  0.00    -0.200 F 
ATOM     89  C   UNL A   1      52.051  26.254  25.393  1.00  0.00     0.200 A 
ATOM     90  F   UNL A   1      51.466  26.844  23.182  1.00  0.00    -0.200 F 
ATOM     91  F   UNL A   1      53.313  26.014  25.011  1.00  0.00    -0.200 F 
ENDBRANCH  57  81
BRANCH  69  92
ATOM     92  C   UNL A   1      46.137  32.479  28.529  1.00  0.00     0.064 A 
ATOM     93  C   UNL A   1      46.700  32.846  29.760  1.00  0.00     0.173 A 
ATOM     94  C   UNL A   1      46.059  33.458  27.526  1.00  0.00     0.173 A 
ATOM     95  F   UNL A   1      46.785  31.952  30.757  1.00  0.00    -0.203 F 
ATOM     96  C   UNL A   1      47.138  34.148  29.987  1.00  0.00     0.198 A 
ATOM     97  C   UNL A   1      46.532  34.749  27.745  1.00  0.00     0.198 A 
ATOM     98  F   UNL A   1      45.537  33.159  26.327  1.00  0.00    -0.203 F 
ATOM     99  F   UNL A   1      47.623  34.489  31.189  1.00  0.00    -0.200 F 
ATOM    100  C   UNL A   1      47.062  35.095  28.977  1.00  0.00     0.200 A 
ATOM    101  F   UNL A   1      46.473  35.659  26.762  1.00  0.00    -0.200 F 
ATOM    102  F   UNL A   1      47.494  36.345  29.195  1.00  0.00    -0.200 F 
ENDBRANCH  69  92
ENDBRANCH  43  44
ENDBRANCH  35  38
ENDBRANCH  33  34
ENDBRANCH  32  33
ENDBRANCH  31  32
ENDBRANCH   1  31
TORSDOF 17
ENDMDL
