MODEL 1
REMARK VINA RESULT:     -10.4      0.000      0.000
REMARK SMILES COc1ccc(CCN2/C(=[NH+]/C(=O)CCC(=O)NCCCCCCNC(=O)c3ccc(-c4c5nc(c(-c6c(F)c(F)c(F)c(F)c6F)c6ccc([nH]6)c(-c6c(F)c(F)c(F)c(F)c6F)c6nc(c(-c7c(F)c(F)c(F)c(F)c7F)c7ccc4[nH]7)C=C6)C=C5)cc3)S[C@@H]3CS(=O)(=O)C[C@@H]32)cc1
REMARK SMILES IDX 19 1 18 2 16 3 17 4 15 6 14 7 12 8 9 9 10 10 98 11 11 12
REMARK SMILES IDX 91 13 92 14 97 15 93 17 94 18 13 19 95 20 96 21 8 22 7 23
REMARK SMILES IDX 6 24 3 25 4 26 100 27 5 28 99 29 2 30 1 31 20 32 21 33 22 34
REMARK SMILES IDX 23 35 24 36 25 37 26 38 27 40 28 41 29 42 90 43 30 44 89 45
REMARK SMILES IDX 31 46 32 47 33 48 83 49 34 50 88 51 82 52 84 53 35 54 87 55
REMARK SMILES IDX 81 56 80 57 36 59 68 60 48 61 67 62 49 63 52 64 66 65 85 66
REMARK SMILES IDX 50 67 51 68 65 70 86 71 53 72 37 73 38 74 46 75 39 76 40 77
REMARK SMILES IDX 44 78 47 79 41 80 42 81 45 82 43 83 69 84 70 85 78 86 71 87
REMARK SMILES IDX 72 88 76 89 79 90 73 91 74 92 77 93 75 94 54 95 55 96 63 97
REMARK SMILES IDX 56 98 57 99 61 100 64 101 58 102 59 103 62 104 60 105
REMARK H PARENT 18 5 11 16 25 39 84 58 52 69
REMARK Flexibility Score: inf
ROOT
ATOM      1  C   UNL A   1      42.109  24.314  28.416  1.00  0.00     0.116 C 
ENDROOT
BRANCH   1   2
ATOM      2  N   UNL A   1      41.473  25.280  27.514  1.00  0.00    -0.356 N 
ATOM      3  C   UNL A   1      40.828  26.444  27.788  1.00  0.00     0.220 C 
ATOM      4  O   UNL A   1      40.188  27.000  26.895  1.00  0.00    -0.275 OA
ATOM      5  H   UNL A   1      41.521  25.047  26.559  1.00  0.00     0.163 HD
BRANCH   3   6
ATOM      6  C   UNL A   1      40.962  27.048  29.161  1.00  0.00     0.112 C 
BRANCH   6   7
ATOM      7  C   UNL A   1      39.638  27.608  29.676  1.00  0.00     0.138 C 
BRANCH   7   8
ATOM      8  C   UNL A   1      39.596  29.126  29.692  1.00  0.00     0.308 C 
ATOM      9  N   UNL A   1      36.919  31.452  28.618  1.00  0.00    -0.251 N 
ATOM     10  C   UNL A   1      38.174  30.938  29.098  1.00  0.00     0.314 C 
ATOM     11  C   UNL A   1      36.630  32.918  28.913  1.00  0.00     0.206 C 
ATOM     12  N   UNL A   1      38.552  29.695  28.968  1.00  0.00    -0.205 N 
ATOM     13  S   UNL A   1      39.172  32.113  30.074  1.00  0.00    -0.030 SA
ATOM     14  C   UNL A   1      37.962  33.447  30.263  1.00  0.00     0.120 C 
ATOM     15  C   UNL A   1      34.748  33.326  29.461  1.00  0.00     0.187 C 
ATOM     16  H   UNL A   1      38.071  29.128  28.323  1.00  0.00     0.316 HD
ATOM     17  C   UNL A   1      37.063  34.134  31.954  1.00  0.00     0.156 C 
ATOM     18  S   UNL A   1      34.719  34.130  31.613  1.00  0.00     0.155 S 
ATOM     19  O   UNL A   1      40.432  29.692  30.398  1.00  0.00    -0.247 OA
ATOM     20  O   UNL A   1      34.023  33.199  32.488  1.00  0.00    -0.229 OA
ATOM     21  O   UNL A   1      34.162  35.476  31.615  1.00  0.00    -0.229 OA
BRANCH   9  22
ATOM     22  C   UNL A   1      35.970  30.753  27.644  1.00  0.00     0.242 C 
BRANCH  22  23
ATOM     23  C   UNL A   1      34.914  29.466  27.865  1.00  0.00     0.081 C 
BRANCH  23  24
ATOM     24  C   UNL A   1      33.673  28.706  27.256  1.00  0.00    -0.044 A 
ATOM     25  C   UNL A   1      31.687  26.741  26.515  1.00  0.00     0.118 A 
ATOM     26  C   UNL A   1      31.341  27.899  27.198  1.00  0.00     0.046 A 
ATOM     27  C   UNL A   1      32.953  26.698  25.960  1.00  0.00     0.046 A 
ATOM     28  C   UNL A   1      32.298  28.926  27.443  1.00  0.00     0.007 A 
ATOM     29  C   UNL A   1      33.929  27.655  26.341  1.00  0.00     0.007 A 
BRANCH  25  30
ATOM     30  O   UNL A   1      30.726  25.777  26.395  1.00  0.00    -0.497 OA
ATOM     31  C   UNL A   1      29.959  25.798  25.187  1.00  0.00     0.278 C 
ENDBRANCH  25  30
ENDBRANCH  23  24
ENDBRANCH  22  23
ENDBRANCH   9  22
ENDBRANCH   7   8
ENDBRANCH   6   7
ENDBRANCH   3   6
ENDBRANCH   1   2
BRANCH   1  32
ATOM     32  C   UNL A   1      43.580  24.645  28.714  1.00  0.00     0.021 C 
BRANCH  32  33
ATOM     33  C   UNL A   1      43.946  23.915  29.977  1.00  0.00     0.002 C 
BRANCH  33  34
ATOM     34  C   UNL A   1      44.465  24.611  31.244  1.00  0.00     0.002 C 
BRANCH  34  35
ATOM     35  C   UNL A   1      44.642  23.797  32.604  1.00  0.00     0.021 C 
BRANCH  35  36
ATOM     36  C   UNL A   1      43.490  23.068  34.266  1.00  0.00     0.116 C 
BRANCH  36  37
ATOM     37  N   UNL A   1      43.251  23.464  35.740  1.00  0.00    -0.352 N 
ATOM     38  C   UNL A   1      43.412  24.740  36.281  1.00  0.00     0.251 C 
ATOM     39  H   UNL A   1      42.960  22.751  36.354  1.00  0.00     0.163 HD
ATOM     40  O   UNL A   1      43.503  24.907  37.489  1.00  0.00    -0.269 OA
BRANCH  38  41
ATOM     41  C   UNL A   1      43.389  25.888  35.360  1.00  0.00     0.039 A 
ATOM     42  C   UNL A   1      42.194  26.415  34.873  1.00  0.00     0.014 A 
ATOM     43  C   UNL A   1      44.617  26.498  35.092  1.00  0.00     0.014 A 
ATOM     44  C   UNL A   1      42.240  27.599  34.138  1.00  0.00     0.010 A 
ATOM     45  C   UNL A   1      44.639  27.746  34.504  1.00  0.00     0.010 A 
ATOM     46  C   UNL A   1      43.459  28.279  33.975  1.00  0.00    -0.014 A 
BRANCH  46  47
ATOM     47  C   UNL A   1      43.556  29.512  33.170  1.00  0.00     0.031 A 
ATOM     48  C   UNL A   1      43.903  29.392  31.711  1.00  0.00     0.074 A 
ATOM     49  C   UNL A   1      43.389  30.708  33.761  1.00  0.00     0.049 A 
ATOM     50  N   UNL A   1      44.106  30.333  30.827  1.00  0.00    -0.248 NA
ATOM     51  C   UNL A   1      44.094  28.028  31.182  1.00  0.00     0.031 C 
ATOM     52  C   UNL A   1      43.113  30.917  35.185  1.00  0.00     0.029 A 
ATOM     53  N   UNL A   1      43.425  31.973  33.239  1.00  0.00    -0.354 N 
ATOM     54  C   UNL A   1      44.455  29.672  29.656  1.00  0.00     0.074 A 
ATOM     55  C   UNL A   1      44.541  28.265  29.960  1.00  0.00     0.031 C 
ATOM     56  C   UNL A   1      42.959  32.231  35.413  1.00  0.00     0.029 A 
ATOM     57  C   UNL A   1      43.170  32.954  34.164  1.00  0.00     0.049 A 
ATOM     58  H   UNL A   1      43.614  32.160  32.291  1.00  0.00     0.167 HD
ATOM     59  C   UNL A   1      44.637  30.193  28.422  1.00  0.00     0.037 A 
ATOM     60  C   UNL A   1      43.117  34.289  34.006  1.00  0.00     0.037 A 
ATOM     61  C   UNL A   1      44.515  31.595  28.140  1.00  0.00     0.049 A 
ATOM     62  C   UNL A   1      43.333  34.848  32.624  1.00  0.00     0.074 A 
ATOM     63  C   UNL A   1      44.635  32.248  26.929  1.00  0.00     0.029 A 
ATOM     64  N   UNL A   1      44.239  32.563  29.098  1.00  0.00    -0.354 N 
ATOM     65  N   UNL A   1      43.596  34.211  31.505  1.00  0.00    -0.248 NA
ATOM     66  C   UNL A   1      43.235  36.304  32.477  1.00  0.00     0.031 C 
ATOM     67  C   UNL A   1      44.492  33.618  27.164  1.00  0.00     0.029 A 
ATOM     68  C   UNL A   1      44.211  33.813  28.509  1.00  0.00     0.049 A 
ATOM     69  H   UNL A   1      44.088  32.385  30.054  1.00  0.00     0.167 HD
ATOM     70  C   UNL A   1      43.665  35.184  30.518  1.00  0.00     0.074 A 
ATOM     71  C   UNL A   1      43.396  36.450  31.170  1.00  0.00     0.031 C 
ATOM     72  C   UNL A   1      43.930  35.050  29.195  1.00  0.00     0.037 A 
BRANCH  59  73
ATOM     73  C   UNL A   1      44.976  29.244  27.308  1.00  0.00     0.064 A 
ATOM     74  C   UNL A   1      43.980  28.572  26.579  1.00  0.00     0.173 A 
ATOM     75  C   UNL A   1      46.312  29.004  26.958  1.00  0.00     0.173 A 
ATOM     76  F   UNL A   1      42.685  28.746  26.885  1.00  0.00    -0.203 F 
ATOM     77  C   UNL A   1      44.311  27.672  25.569  1.00  0.00     0.198 A 
ATOM     78  C   UNL A   1      46.639  28.133  25.921  1.00  0.00     0.198 A 
ATOM     79  F   UNL A   1      47.305  29.613  27.622  1.00  0.00    -0.203 F 
ATOM     80  F   UNL A   1      43.344  26.993  24.936  1.00  0.00    -0.200 F 
ATOM     81  C   UNL A   1      45.639  27.460  25.235  1.00  0.00     0.200 A 
ATOM     82  F   UNL A   1      47.923  27.939  25.592  1.00  0.00    -0.200 F 
ATOM     83  F   UNL A   1      45.957  26.600  24.258  1.00  0.00    -0.200 F 
ENDBRANCH  59  73
BRANCH  60  84
ATOM     84  C   UNL A   1      42.832  35.170  35.169  1.00  0.00     0.064 A 
ATOM     85  C   UNL A   1      43.867  35.739  35.925  1.00  0.00     0.173 A 
ATOM     86  C   UNL A   1      41.514  35.465  35.552  1.00  0.00     0.173 A 
ATOM     87  F   UNL A   1      45.145  35.483  35.607  1.00  0.00    -0.203 F 
ATOM     88  C   UNL A   1      43.598  36.537  37.034  1.00  0.00     0.198 A 
ATOM     89  C   UNL A   1      41.245  36.293  36.641  1.00  0.00     0.198 A 
ATOM     90  F   UNL A   1      40.484  34.961  34.857  1.00  0.00    -0.203 F 
ATOM     91  F   UNL A   1      44.608  37.020  37.771  1.00  0.00    -0.200 F 
ATOM     92  C   UNL A   1      42.287  36.818  37.388  1.00  0.00     0.200 A 
ATOM     93  F   UNL A   1      39.977  36.578  36.965  1.00  0.00    -0.200 F 
ATOM     94  F   UNL A   1      42.028  37.586  38.455  1.00  0.00    -0.200 F 
ENDBRANCH  60  84
BRANCH  72  95
ATOM     95  C   UNL A   1      43.900  36.298  28.363  1.00  0.00     0.064 A 
ATOM     96  C   UNL A   1      42.706  36.800  27.827  1.00  0.00     0.173 A 
ATOM     97  C   UNL A   1      45.080  37.028  28.144  1.00  0.00     0.173 A 
ATOM     98  F   UNL A   1      41.554  36.134  28.000  1.00  0.00    -0.203 F 
ATOM     99  C   UNL A   1      42.700  37.970  27.073  1.00  0.00     0.198 A 
ATOM    100  C   UNL A   1      45.062  38.217  27.426  1.00  0.00     0.198 A 
ATOM    101  F   UNL A   1      46.246  36.595  28.648  1.00  0.00    -0.203 F 
ATOM    102  F   UNL A   1      41.557  38.400  26.520  1.00  0.00    -0.200 F 
ATOM    103  C   UNL A   1      43.874  38.681  26.882  1.00  0.00     0.200 A 
ATOM    104  F   UNL A   1      46.195  38.915  27.263  1.00  0.00    -0.200 F 
ATOM    105  F   UNL A   1      43.863  39.815  26.167  1.00  0.00    -0.200 F 
ENDBRANCH  72  95
ENDBRANCH  46  47
ENDBRANCH  38  41
ENDBRANCH  36  37
ENDBRANCH  35  36
ENDBRANCH  34  35
ENDBRANCH  33  34
ENDBRANCH  32  33
ENDBRANCH   1  32
TORSDOF 19
ENDMDL
MODEL 2
REMARK VINA RESULT:     -10.0      4.079      9.040
REMARK SMILES COc1ccc(CCN2/C(=[NH+]/C(=O)CCC(=O)NCCCCCCNC(=O)c3ccc(-c4c5nc(c(-c6c(F)c(F)c(F)c(F)c6F)c6ccc([nH]6)c(-c6c(F)c(F)c(F)c(F)c6F)c6nc(c(-c7c(F)c(F)c(F)c(F)c7F)c7ccc4[nH]7)C=C6)C=C5)cc3)S[C@@H]3CS(=O)(=O)C[C@@H]32)cc1
REMARK SMILES IDX 19 1 18 2 16 3 17 4 15 6 14 7 12 8 9 9 10 10 98 11 11 12
REMARK SMILES IDX 91 13 92 14 97 15 93 17 94 18 13 19 95 20 96 21 8 22 7 23
REMARK SMILES IDX 6 24 3 25 4 26 100 27 5 28 99 29 2 30 1 31 20 32 21 33 22 34
REMARK SMILES IDX 23 35 24 36 25 37 26 38 27 40 28 41 29 42 90 43 30 44 89 45
REMARK SMILES IDX 31 46 32 47 33 48 83 49 34 50 88 51 82 52 84 53 35 54 87 55
REMARK SMILES IDX 81 56 80 57 36 59 68 60 48 61 67 62 49 63 52 64 66 65 85 66
REMARK SMILES IDX 50 67 51 68 65 70 86 71 53 72 37 73 38 74 46 75 39 76 40 77
REMARK SMILES IDX 44 78 47 79 41 80 42 81 45 82 43 83 69 84 70 85 78 86 71 87
REMARK SMILES IDX 72 88 76 89 79 90 73 91 74 92 77 93 75 94 54 95 55 96 63 97
REMARK SMILES IDX 56 98 57 99 61 100 64 101 58 102 59 103 62 104 60 105
REMARK H PARENT 18 5 11 16 25 39 84 58 52 69
REMARK Flexibility Score: inf
ROOT
ATOM      1  C   UNL A   1      38.107  30.552  28.709  1.00  0.00     0.116 C 
ENDROOT
BRANCH   1   2
ATOM      2  N   UNL A   1      38.018  29.379  29.585  1.00  0.00    -0.356 N 
ATOM      3  C   UNL A   1      38.991  28.546  30.039  1.00  0.00     0.220 C 
ATOM      4  O   UNL A   1      38.670  27.498  30.601  1.00  0.00    -0.275 OA
ATOM      5  H   UNL A   1      37.109  29.160  29.891  1.00  0.00     0.163 HD
BRANCH   3   6
ATOM      6  C   UNL A   1      40.432  28.957  29.893  1.00  0.00     0.112 C 
BRANCH   6   7
ATOM      7  C   UNL A   1      41.062  28.406  28.616  1.00  0.00     0.138 C 
BRANCH   7   8
ATOM      8  C   UNL A   1      42.001  27.239  28.866  1.00  0.00     0.308 C 
ATOM      9  N   UNL A   1      41.647  23.659  27.983  1.00  0.00    -0.251 N 
ATOM     10  C   UNL A   1      42.157  24.891  28.523  1.00  0.00     0.314 C 
ATOM     11  C   UNL A   1      42.642  22.510  27.862  1.00  0.00     0.206 C 
ATOM     12  N   UNL A   1      41.449  25.981  28.649  1.00  0.00    -0.205 N 
ATOM     13  S   UNL A   1      43.945  24.902  28.882  1.00  0.00    -0.030 SA
ATOM     14  C   UNL A   1      44.413  23.331  28.111  1.00  0.00     0.120 C 
ATOM     15  C   UNL A   1      42.502  21.431  26.182  1.00  0.00     0.187 C 
ATOM     16  H   UNL A   1      40.469  25.908  28.587  1.00  0.00     0.316 HD
ATOM     17  C   UNL A   1      45.611  23.000  26.500  1.00  0.00     0.156 C 
ATOM     18  S   UNL A   1      44.433  21.645  24.954  1.00  0.00     0.155 S 
ATOM     19  O   UNL A   1      43.164  27.522  29.157  1.00  0.00    -0.247 OA
ATOM     20  O   UNL A   1      44.158  22.329  23.700  1.00  0.00    -0.229 OA
ATOM     21  O   UNL A   1      45.048  20.334  24.795  1.00  0.00    -0.229 OA
BRANCH   9  22
ATOM     22  C   UNL A   1      40.176  23.313  27.751  1.00  0.00     0.242 C 
BRANCH  22  23
ATOM     23  C   UNL A   1      39.139  23.698  26.488  1.00  0.00     0.081 C 
BRANCH  23  24
ATOM     24  C   UNL A   1      37.816  23.274  25.740  1.00  0.00    -0.044 A 
ATOM     25  C   UNL A   1      35.486  23.152  24.033  1.00  0.00     0.118 A 
ATOM     26  C   UNL A   1      36.490  22.197  23.958  1.00  0.00     0.046 A 
ATOM     27  C   UNL A   1      35.503  23.990  25.135  1.00  0.00     0.046 A 
ATOM     28  C   UNL A   1      37.569  22.184  24.889  1.00  0.00     0.007 A 
ATOM     29  C   UNL A   1      36.657  24.058  25.958  1.00  0.00     0.007 A 
BRANCH  25  30
ATOM     30  O   UNL A   1      34.535  23.137  23.053  1.00  0.00    -0.497 OA
ATOM     31  C   UNL A   1      33.745  24.324  22.923  1.00  0.00     0.278 C 
ENDBRANCH  25  30
ENDBRANCH  23  24
ENDBRANCH  22  23
ENDBRANCH   9  22
ENDBRANCH   7   8
ENDBRANCH   6   7
ENDBRANCH   3   6
ENDBRANCH   1   2
BRANCH   1  32
ATOM     32  C   UNL A   1      37.383  31.784  29.275  1.00  0.00     0.021 C 
BRANCH  32  33
ATOM     33  C   UNL A   1      38.006  32.083  30.612  1.00  0.00     0.002 C 
BRANCH  33  34
ATOM     34  C   UNL A   1      37.196  32.317  31.895  1.00  0.00     0.002 C 
BRANCH  34  35
ATOM     35  C   UNL A   1      37.615  33.463  32.922  1.00  0.00     0.021 C 
BRANCH  35  36
ATOM     36  C   UNL A   1      37.660  33.868  35.033  1.00  0.00     0.116 C 
BRANCH  36  37
ATOM     37  N   UNL A   1      37.468  33.073  36.344  1.00  0.00    -0.352 N 
ATOM     38  C   UNL A   1      37.869  31.755  36.568  1.00  0.00     0.251 C 
ATOM     39  H   UNL A   1      37.022  33.538  37.089  1.00  0.00     0.163 HD
ATOM     40  O   UNL A   1      37.416  31.108  37.502  1.00  0.00    -0.269 OA
BRANCH  38  41
ATOM     41  C   UNL A   1      38.913  31.193  35.695  1.00  0.00     0.039 A 
ATOM     42  C   UNL A   1      38.599  30.434  34.570  1.00  0.00     0.014 A 
ATOM     43  C   UNL A   1      40.231  31.559  35.983  1.00  0.00     0.014 A 
ATOM     44  C   UNL A   1      39.629  30.073  33.702  1.00  0.00     0.010 A 
ATOM     45  C   UNL A   1      41.215  31.337  35.044  1.00  0.00     0.010 A 
ATOM     46  C   UNL A   1      40.933  30.547  33.923  1.00  0.00    -0.014 A 
BRANCH  46  47
ATOM     47  C   UNL A   1      42.058  30.155  33.052  1.00  0.00     0.031 A 
ATOM     48  C   UNL A   1      42.773  28.863  33.339  1.00  0.00     0.074 A 
ATOM     49  C   UNL A   1      42.452  30.977  32.064  1.00  0.00     0.049 A 
ATOM     50  N   UNL A   1      43.822  28.348  32.754  1.00  0.00    -0.248 NA
ATOM     51  C   UNL A   1      42.269  28.060  34.470  1.00  0.00     0.031 C 
ATOM     52  C   UNL A   1      41.854  32.279  31.757  1.00  0.00     0.029 A 
ATOM     53  N   UNL A   1      43.447  30.839  31.134  1.00  0.00    -0.354 N 
ATOM     54  C   UNL A   1      44.099  27.179  33.452  1.00  0.00     0.074 A 
ATOM     55  C   UNL A   1      43.184  27.110  34.564  1.00  0.00     0.031 C 
ATOM     56  C   UNL A   1      42.465  32.798  30.681  1.00  0.00     0.029 A 
ATOM     57  C   UNL A   1      43.523  31.890  30.255  1.00  0.00     0.049 A 
ATOM     58  H   UNL A   1      44.048  30.060  31.099  1.00  0.00     0.167 HD
ATOM     59  C   UNL A   1      45.009  26.223  33.157  1.00  0.00     0.037 A 
ATOM     60  C   UNL A   1      44.363  32.085  29.221  1.00  0.00     0.037 A 
ATOM     61  C   UNL A   1      45.887  26.303  32.025  1.00  0.00     0.049 A 
ATOM     62  C   UNL A   1      45.374  31.011  28.918  1.00  0.00     0.074 A 
ATOM     63  C   UNL A   1      46.824  25.386  31.591  1.00  0.00     0.029 A 
ATOM     64  N   UNL A   1      45.929  27.375  31.143  1.00  0.00    -0.354 N 
ATOM     65  N   UNL A   1      45.586  29.874  29.541  1.00  0.00    -0.248 NA
ATOM     66  C   UNL A   1      46.252  31.236  27.765  1.00  0.00     0.031 C 
ATOM     67  C   UNL A   1      47.476  25.931  30.481  1.00  0.00     0.029 A 
ATOM     68  C   UNL A   1      46.895  27.154  30.179  1.00  0.00     0.049 A 
ATOM     69  H   UNL A   1      45.355  28.174  31.196  1.00  0.00     0.167 HD
ATOM     70  C   UNL A   1      46.600  29.237  28.841  1.00  0.00     0.074 A 
ATOM     71  C   UNL A   1      46.944  30.106  27.733  1.00  0.00     0.031 C 
ATOM     72  C   UNL A   1      47.199  28.045  29.086  1.00  0.00     0.037 A 
BRANCH  59  73
ATOM     73  C   UNL A   1      45.081  25.027  34.064  1.00  0.00     0.064 A 
ATOM     74  C   UNL A   1      44.473  23.806  33.729  1.00  0.00     0.173 A 
ATOM     75  C   UNL A   1      45.771  25.099  35.283  1.00  0.00     0.173 A 
ATOM     76  F   UNL A   1      43.781  23.686  32.586  1.00  0.00    -0.203 F 
ATOM     77  C   UNL A   1      44.524  22.716  34.594  1.00  0.00     0.198 A 
ATOM     78  C   UNL A   1      45.853  23.996  36.129  1.00  0.00     0.198 A 
ATOM     79  F   UNL A   1      46.366  26.241  35.658  1.00  0.00    -0.203 F 
ATOM     80  F   UNL A   1      43.878  21.584  34.281  1.00  0.00    -0.200 F 
ATOM     81  C   UNL A   1      45.221  22.809  35.789  1.00  0.00     0.200 A 
ATOM     82  F   UNL A   1      46.536  24.084  37.277  1.00  0.00    -0.200 F 
ATOM     83  F   UNL A   1      45.275  21.757  36.618  1.00  0.00    -0.200 F 
ENDBRANCH  59  73
BRANCH  60  84
ATOM     84  C   UNL A   1      44.267  33.322  28.402  1.00  0.00     0.064 A 
ATOM     85  C   UNL A   1      44.661  34.567  28.912  1.00  0.00     0.173 A 
ATOM     86  C   UNL A   1      43.780  33.286  27.086  1.00  0.00     0.173 A 
ATOM     87  F   UNL A   1      45.126  34.659  30.167  1.00  0.00    -0.203 F 
ATOM     88  C   UNL A   1      44.539  35.730  28.154  1.00  0.00     0.198 A 
ATOM     89  C   UNL A   1      43.692  34.445  26.316  1.00  0.00     0.198 A 
ATOM     90  F   UNL A   1      43.402  32.120  26.540  1.00  0.00    -0.203 F 
ATOM     91  F   UNL A   1      44.870  36.913  28.689  1.00  0.00    -0.200 F 
ATOM     92  C   UNL A   1      44.060  35.667  26.855  1.00  0.00     0.200 A 
ATOM     93  F   UNL A   1      43.248  34.374  25.054  1.00  0.00    -0.200 F 
ATOM     94  F   UNL A   1      43.944  36.785  26.125  1.00  0.00    -0.200 F 
ENDBRANCH  60  84
BRANCH  72  95
ATOM     95  C   UNL A   1      48.255  27.599  28.118  1.00  0.00     0.064 A 
ATOM     96  C   UNL A   1      47.948  26.803  27.006  1.00  0.00     0.173 A 
ATOM     97  C   UNL A   1      49.584  28.018  28.282  1.00  0.00     0.173 A 
ATOM     98  F   UNL A   1      46.693  26.367  26.811  1.00  0.00    -0.203 F 
ATOM     99  C   UNL A   1      48.940  26.414  26.111  1.00  0.00     0.198 A 
ATOM    100  C   UNL A   1      50.565  27.663  27.363  1.00  0.00     0.198 A 
ATOM    101  F   UNL A   1      49.926  28.793  29.324  1.00  0.00    -0.203 F 
ATOM    102  F   UNL A   1      48.636  25.605  25.087  1.00  0.00    -0.200 F 
ATOM    103  C   UNL A   1      50.244  26.854  26.285  1.00  0.00     0.200 A 
ATOM    104  F   UNL A   1      51.819  28.109  27.520  1.00  0.00    -0.200 F 
ATOM    105  F   UNL A   1      51.196  26.490  25.414  1.00  0.00    -0.200 F 
ENDBRANCH  72  95
ENDBRANCH  46  47
ENDBRANCH  38  41
ENDBRANCH  36  37
ENDBRANCH  35  36
ENDBRANCH  34  35
ENDBRANCH  33  34
ENDBRANCH  32  33
ENDBRANCH   1  32
TORSDOF 19
ENDMDL
MODEL 3
REMARK VINA RESULT:     -10.0      3.300      8.328
REMARK SMILES COc1ccc(CCN2/C(=[NH+]/C(=O)CCC(=O)NCCCCCCNC(=O)c3ccc(-c4c5nc(c(-c6c(F)c(F)c(F)c(F)c6F)c6ccc([nH]6)c(-c6c(F)c(F)c(F)c(F)c6F)c6nc(c(-c7c(F)c(F)c(F)c(F)c7F)c7ccc4[nH]7)C=C6)C=C5)cc3)S[C@@H]3CS(=O)(=O)C[C@@H]32)cc1
REMARK SMILES IDX 19 1 18 2 16 3 17 4 15 6 14 7 12 8 9 9 10 10 98 11 11 12
REMARK SMILES IDX 91 13 92 14 97 15 93 17 94 18 13 19 95 20 96 21 8 22 7 23
REMARK SMILES IDX 6 24 3 25 4 26 100 27 5 28 99 29 2 30 1 31 20 32 21 33 22 34
REMARK SMILES IDX 23 35 24 36 25 37 26 38 27 40 28 41 29 42 90 43 30 44 89 45
REMARK SMILES IDX 31 46 32 47 33 48 83 49 34 50 88 51 82 52 84 53 35 54 87 55
REMARK SMILES IDX 81 56 80 57 36 59 68 60 48 61 67 62 49 63 52 64 66 65 85 66
REMARK SMILES IDX 50 67 51 68 65 70 86 71 53 72 37 73 38 74 46 75 39 76 40 77
REMARK SMILES IDX 44 78 47 79 41 80 42 81 45 82 43 83 69 84 70 85 78 86 71 87
REMARK SMILES IDX 72 88 76 89 79 90 73 91 74 92 77 93 75 94 54 95 55 96 63 97
REMARK SMILES IDX 56 98 57 99 61 100 64 101 58 102 59 103 62 104 60 105
REMARK H PARENT 18 5 11 16 25 39 84 58 52 69
REMARK Flexibility Score: inf
ROOT
ATOM      1  C   UNL A   1      41.000  27.764  28.999  1.00  0.00     0.116 C 
ENDROOT
BRANCH   1   2
ATOM      2  N   UNL A   1      40.017  27.895  30.080  1.00  0.00    -0.356 N 
ATOM      3  C   UNL A   1      39.904  28.835  31.055  1.00  0.00     0.220 C 
ATOM      4  O   UNL A   1      39.122  28.641  31.987  1.00  0.00    -0.275 OA
ATOM      5  H   UNL A   1      39.331  27.190  30.102  1.00  0.00     0.163 HD
BRANCH   3   6
ATOM      6  C   UNL A   1      40.695  30.110  30.936  1.00  0.00     0.112 C 
BRANCH   6   7
ATOM      7  C   UNL A   1      40.153  31.024  29.840  1.00  0.00     0.138 C 
BRANCH   7   8
ATOM      8  C   UNL A   1      38.639  30.988  29.724  1.00  0.00     0.308 C 
ATOM      9  N   UNL A   1      36.073  33.151  31.295  1.00  0.00    -0.251 N 
ATOM     10  C   UNL A   1      36.701  32.099  30.539  1.00  0.00     0.314 C 
ATOM     11  C   UNL A   1      34.609  33.430  30.980  1.00  0.00     0.206 C 
ATOM     12  N   UNL A   1      37.958  31.768  30.654  1.00  0.00    -0.205 N 
ATOM     13  S   UNL A   1      35.656  31.339  29.251  1.00  0.00    -0.030 SA
ATOM     14  C   UNL A   1      34.252  32.482  29.292  1.00  0.00     0.120 C 
ATOM     15  C   UNL A   1      34.100  35.365  30.920  1.00  0.00     0.187 C 
ATOM     16  H   UNL A   1      38.452  32.088  31.444  1.00  0.00     0.316 HD
ATOM     17  C   UNL A   1      33.600  33.763  27.853  1.00  0.00     0.156 C 
ATOM     18  S   UNL A   1      33.418  35.927  28.799  1.00  0.00     0.155 S 
ATOM     19  O   UNL A   1      38.174  30.343  28.783  1.00  0.00    -0.247 OA
ATOM     20  O   UNL A   1      34.345  36.880  28.209  1.00  0.00    -0.229 OA
ATOM     21  O   UNL A   1      32.038  36.391  28.846  1.00  0.00    -0.229 OA
BRANCH   9  22
ATOM     22  C   UNL A   1      36.647  33.840  32.533  1.00  0.00     0.242 C 
BRANCH  22  23
ATOM     23  C   UNL A   1      36.478  33.493  34.167  1.00  0.00     0.081 C 
BRANCH  23  24
ATOM     24  C   UNL A   1      37.250  33.055  35.472  1.00  0.00    -0.044 A 
ATOM     25  C   UNL A   1      39.255  32.485  37.475  1.00  0.00     0.118 A 
ATOM     26  C   UNL A   1      38.213  33.369  37.723  1.00  0.00     0.046 A 
ATOM     27  C   UNL A   1      39.139  31.682  36.354  1.00  0.00     0.046 A 
ATOM     28  C   UNL A   1      37.155  33.545  36.785  1.00  0.00     0.007 A 
ATOM     29  C   UNL A   1      38.164  31.979  35.366  1.00  0.00     0.007 A 
BRANCH  25  30
ATOM     30  O   UNL A   1      40.266  32.439  38.392  1.00  0.00    -0.497 OA
ATOM     31  C   UNL A   1      40.225  33.428  39.425  1.00  0.00     0.278 C 
ENDBRANCH  25  30
ENDBRANCH  23  24
ENDBRANCH  22  23
ENDBRANCH   9  22
ENDBRANCH   7   8
ENDBRANCH   6   7
ENDBRANCH   3   6
ENDBRANCH   1   2
BRANCH   1  32
ATOM     32  C   UNL A   1      41.697  26.394  28.981  1.00  0.00     0.021 C 
BRANCH  32  33
ATOM     33  C   UNL A   1      41.054  25.590  27.884  1.00  0.00     0.002 C 
BRANCH  33  34
ATOM     34  C   UNL A   1      41.748  24.426  27.162  1.00  0.00     0.002 C 
BRANCH  34  35
ATOM     35  C   UNL A   1      42.934  24.701  26.132  1.00  0.00     0.021 C 
BRANCH  35  36
ATOM     36  C   UNL A   1      45.064  24.474  25.952  1.00  0.00     0.116 C 
BRANCH  36  37
ATOM     37  N   UNL A   1      46.191  25.027  25.050  1.00  0.00    -0.352 N 
ATOM     38  C   UNL A   1      46.461  26.376  24.811  1.00  0.00     0.251 C 
ATOM     39  H   UNL A   1      46.770  24.369  24.601  1.00  0.00     0.163 HD
ATOM     40  O   UNL A   1      47.154  26.723  23.865  1.00  0.00    -0.269 OA
BRANCH  38  41
ATOM     41  C   UNL A   1      45.954  27.362  25.779  1.00  0.00     0.039 A 
ATOM     42  C   UNL A   1      44.617  27.752  25.798  1.00  0.00     0.014 A 
ATOM     43  C   UNL A   1      46.855  27.799  26.755  1.00  0.00     0.014 A 
ATOM     44  C   UNL A   1      44.175  28.564  26.842  1.00  0.00     0.010 A 
ATOM     45  C   UNL A   1      46.379  28.466  27.864  1.00  0.00     0.010 A 
ATOM     46  C   UNL A   1      45.049  28.900  27.890  1.00  0.00    -0.014 A 
BRANCH  46  47
ATOM     47  C   UNL A   1      44.632  29.790  28.991  1.00  0.00     0.031 A 
ATOM     48  C   UNL A   1      44.340  29.181  30.336  1.00  0.00     0.074 A 
ATOM     49  C   UNL A   1      44.472  31.104  28.760  1.00  0.00     0.049 A 
ATOM     50  N   UNL A   1      43.901  29.752  31.426  1.00  0.00    -0.248 NA
ATOM     51  C   UNL A   1      44.522  27.723  30.459  1.00  0.00     0.031 C 
ATOM     52  C   UNL A   1      44.673  31.767  27.469  1.00  0.00     0.029 A 
ATOM     53  N   UNL A   1      44.105  32.119  29.602  1.00  0.00    -0.354 N 
ATOM     54  C   UNL A   1      43.748  28.723  32.347  1.00  0.00     0.074 A 
ATOM     55  C   UNL A   1      44.036  27.485  31.666  1.00  0.00     0.031 C 
ATOM     56  C   UNL A   1      44.471  33.086  27.617  1.00  0.00     0.029 A 
ATOM     57  C   UNL A   1      44.084  33.351  28.998  1.00  0.00     0.049 A 
ATOM     58  H   UNL A   1      43.880  31.978  30.550  1.00  0.00     0.167 HD
ATOM     59  C   UNL A   1      43.441  28.812  33.660  1.00  0.00     0.037 A 
ATOM     60  C   UNL A   1      43.781  34.555  29.516  1.00  0.00     0.037 A 
ATOM     61  C   UNL A   1      43.189  30.062  34.320  1.00  0.00     0.049 A 
ATOM     62  C   UNL A   1      43.434  34.630  30.980  1.00  0.00     0.074 A 
ATOM     63  C   UNL A   1      42.908  30.296  35.652  1.00  0.00     0.029 A 
ATOM     64  N   UNL A   1      43.191  31.296  33.682  1.00  0.00    -0.354 N 
ATOM     65  N   UNL A   1      43.357  33.660  31.863  1.00  0.00    -0.248 NA
ATOM     66  C   UNL A   1      43.142  35.961  31.523  1.00  0.00     0.031 C 
ATOM     67  C   UNL A   1      42.680  31.666  35.808  1.00  0.00     0.029 A 
ATOM     68  C   UNL A   1      42.890  32.295  34.589  1.00  0.00     0.049 A 
ATOM     69  H   UNL A   1      43.378  31.438  32.726  1.00  0.00     0.167 HD
ATOM     70  C   UNL A   1      43.039  34.266  33.070  1.00  0.00     0.074 A 
ATOM     71  C   UNL A   1      42.957  35.689  32.807  1.00  0.00     0.031 C 
ATOM     72  C   UNL A   1      42.828  33.704  34.286  1.00  0.00     0.037 A 
BRANCH  59  73
ATOM     73  C   UNL A   1      43.375  27.536  34.449  1.00  0.00     0.064 A 
ATOM     74  C   UNL A   1      44.516  26.974  35.046  1.00  0.00     0.173 A 
ATOM     75  C   UNL A   1      42.155  26.865  34.616  1.00  0.00     0.173 A 
ATOM     76  F   UNL A   1      45.713  27.560  34.901  1.00  0.00    -0.203 F 
ATOM     77  C   UNL A   1      44.442  25.774  35.749  1.00  0.00     0.198 A 
ATOM     78  C   UNL A   1      42.078  25.685  35.352  1.00  0.00     0.198 A 
ATOM     79  F   UNL A   1      41.034  27.352  34.064  1.00  0.00    -0.203 F 
ATOM     80  F   UNL A   1      45.558  25.224  36.251  1.00  0.00    -0.200 F 
ATOM     81  C   UNL A   1      43.223  25.135  35.909  1.00  0.00     0.200 A 
ATOM     82  F   UNL A   1      40.896  25.076  35.516  1.00  0.00    -0.200 F 
ATOM     83  F   UNL A   1      43.152  23.984  36.591  1.00  0.00    -0.200 F 
ENDBRANCH  59  73
BRANCH  60  84
ATOM     84  C   UNL A   1      43.814  35.770  28.658  1.00  0.00     0.064 A 
ATOM     85  C   UNL A   1      42.650  36.270  28.057  1.00  0.00     0.173 A 
ATOM     86  C   UNL A   1      45.014  36.458  28.420  1.00  0.00     0.173 A 
ATOM     87  F   UNL A   1      41.478  35.645  28.246  1.00  0.00    -0.203 F 
ATOM     88  C   UNL A   1      42.689  37.388  27.227  1.00  0.00     0.198 A 
ATOM     89  C   UNL A   1      45.046  37.598  27.617  1.00  0.00     0.198 A 
ATOM     90  F   UNL A   1      46.156  36.033  28.980  1.00  0.00    -0.203 F 
ATOM     91  F   UNL A   1      41.571  37.810  26.621  1.00  0.00    -0.200 F 
ATOM     92  C   UNL A   1      43.886  38.054  27.012  1.00  0.00     0.200 A 
ATOM     93  F   UNL A   1      46.201  38.249  27.431  1.00  0.00    -0.200 F 
ATOM     94  F   UNL A   1      43.923  39.130  26.214  1.00  0.00    -0.200 F 
ENDBRANCH  60  84
BRANCH  72  95
ATOM     95  C   UNL A   1      42.530  34.633  35.425  1.00  0.00     0.064 A 
ATOM     96  C   UNL A   1      43.550  35.195  36.206  1.00  0.00     0.173 A 
ATOM     97  C   UNL A   1      41.206  35.004  35.705  1.00  0.00     0.173 A 
ATOM     98  F   UNL A   1      44.832  34.863  35.985  1.00  0.00    -0.203 F 
ATOM     99  C   UNL A   1      43.252  36.068  37.248  1.00  0.00     0.198 A 
ATOM    100  C   UNL A   1      40.915  35.910  36.719  1.00  0.00     0.198 A 
ATOM    101  F   UNL A   1      40.195  34.504  34.977  1.00  0.00    -0.203 F 
ATOM    102  F   UNL A   1      44.238  36.547  38.019  1.00  0.00    -0.200 F 
ATOM    103  C   UNL A   1      41.938  36.432  37.495  1.00  0.00     0.200 A 
ATOM    104  F   UNL A   1      39.646  36.278  36.941  1.00  0.00    -0.200 F 
ATOM    105  F   UNL A   1      41.654  37.285  38.490  1.00  0.00    -0.200 F 
ENDBRANCH  72  95
ENDBRANCH  46  47
ENDBRANCH  38  41
ENDBRANCH  36  37
ENDBRANCH  35  36
ENDBRANCH  34  35
ENDBRANCH  33  34
ENDBRANCH  32  33
ENDBRANCH   1  32
TORSDOF 19
ENDMDL
