MODEL 1
REMARK VINA RESULT:     -11.7      0.000      0.000
REMARK SMILES CC(C)(C)OC(=O)Nc1ccc(-c2cccc(Cl)c2C(=O)NCCCCCCNC(=O)c2ccc(-c3c4nc(c(-c5c(F)c(F)c(F)c(F)c5F)c5ccc([nH]5)c(-c5c(F)c(F)c(F)c(F)c5F)c5nc(c(-c6c(F)c(F)c(F)c(F)c6F)c6ccc3[nH]6)C=C5)C=C4)cc2)cc1
REMARK SMILES IDX 24 1 23 2 22 3 20 4 21 5 19 7 13 8 14 9 15 10 17 11 16 12
REMARK SMILES IDX 18 13 12 14 9 15 10 16 96 17 11 18 95 19 8 20 6 21 7 22 5 24
REMARK SMILES IDX 2 25 1 26 3 27 4 28 25 29 26 30 27 31 28 32 29 33 30 34
REMARK SMILES IDX 31 36 32 37 33 38 94 39 34 40 93 41 35 42 36 43 37 44 87 45
REMARK SMILES IDX 38 46 92 47 86 48 88 49 39 50 91 51 85 52 84 53 40 55 72 56
REMARK SMILES IDX 52 57 71 58 53 59 56 60 70 61 89 62 54 63 55 64 69 66 90 67
REMARK SMILES IDX 57 68 41 69 42 70 50 71 43 72 44 73 48 74 51 75 45 76 46 77
REMARK SMILES IDX 49 78 47 79 73 80 74 81 82 82 75 83 76 84 80 85 83 86 77 87
REMARK SMILES IDX 78 88 81 89 79 90 58 91 59 92 67 93 60 94 61 95 65 96 68 97
REMARK SMILES IDX 62 98 63 99 66 100 64 101
REMARK H PARENT 22 6 8 23 29 35 88 54 56 65
REMARK Flexibility Score: inf
ROOT
ATOM      1  C   UNL A   1      35.317  30.990  27.805  1.00  0.00     0.021 C 
ENDROOT
BRANCH   1   2
ATOM      2  C   UNL A   1      34.642  29.730  27.286  1.00  0.00     0.116 C 
BRANCH   2   3
ATOM      3  N   UNL A   1      33.412  29.291  27.882  1.00  0.00    -0.352 N 
ATOM      4  C   UNL A   1      32.361  28.613  27.288  1.00  0.00     0.253 C 
ATOM      5  O   UNL A   1      31.745  27.847  28.036  1.00  0.00    -0.269 OA
ATOM      6  H   UNL A   1      33.300  29.502  28.838  1.00  0.00     0.163 HD
BRANCH   4   7
ATOM      7  C   UNL A   1      31.862  28.757  25.864  1.00  0.00     0.066 A 
ATOM      8  C   UNL A   1      31.757  27.738  24.873  1.00  0.00    -0.004 A 
ATOM      9  C   UNL A   1      31.068  28.013  23.660  1.00  0.00     0.009 A 
ATOM     10  C   UNL A   1      30.487  29.243  23.393  1.00  0.00     0.002 A 
ATOM     11  C   UNL A   1      31.297  30.024  25.538  1.00  0.00     0.054 A 
ATOM     12  C   UNL A   1      30.613  30.252  24.330  1.00  0.00     0.021 A 
ATOM     13  Cl  UNL A   1      31.453  31.440  26.540  1.00  0.00    -0.083 Cl
BRANCH   8  14
ATOM     14  C   UNL A   1      32.323  26.386  24.928  1.00  0.00    -0.017 A 
ATOM     15  C   UNL A   1      33.241  23.709  24.975  1.00  0.00     0.044 A 
ATOM     16  C   UNL A   1      32.179  24.103  25.791  1.00  0.00     0.027 A 
ATOM     17  C   UNL A   1      33.887  24.684  24.204  1.00  0.00     0.027 A 
ATOM     18  C   UNL A   1      31.740  25.428  25.784  1.00  0.00     0.011 A 
ATOM     19  C   UNL A   1      33.436  26.011  24.180  1.00  0.00     0.011 A 
BRANCH  15  20
ATOM     20  N   UNL A   1      33.532  22.332  24.950  1.00  0.00    -0.291 N 
ATOM     21  C   UNL A   1      34.685  21.644  25.219  1.00  0.00     0.412 C 
ATOM     22  O   UNL A   1      34.744  20.435  25.021  1.00  0.00    -0.224 OA
ATOM     23  H   UNL A   1      32.771  21.761  24.694  1.00  0.00     0.173 HD
BRANCH  21  24
ATOM     24  O   UNL A   1      35.685  22.399  25.706  1.00  0.00    -0.444 OA
BRANCH  24  25
ATOM     25  C   UNL A   1      36.951  22.560  25.026  1.00  0.00     0.106 C 
ATOM     26  C   UNL A   1      37.521  23.852  25.626  1.00  0.00     0.056 C 
ATOM     27  C   UNL A   1      36.729  22.747  23.525  1.00  0.00     0.056 C 
ATOM     28  C   UNL A   1      37.921  21.412  25.317  1.00  0.00     0.056 C 
ENDBRANCH  24  25
ENDBRANCH  21  24
ENDBRANCH  15  20
ENDBRANCH   8  14
ENDBRANCH   4   7
ENDBRANCH   2   3
ENDBRANCH   1   2
BRANCH   1  29
ATOM     29  C   UNL A   1      34.517  31.956  28.680  1.00  0.00     0.002 C 
BRANCH  29  30
ATOM     30  C   UNL A   1      34.550  33.455  28.351  1.00  0.00     0.002 C 
BRANCH  30  31
ATOM     31  C   UNL A   1      33.236  34.238  28.422  1.00  0.00     0.021 C 
BRANCH  31  32
ATOM     32  C   UNL A   1      33.299  35.675  28.934  1.00  0.00     0.116 C 
BRANCH  32  33
ATOM     33  N   UNL A   1      32.594  35.858  30.188  1.00  0.00    -0.352 N 
ATOM     34  C   UNL A   1      32.862  35.376  31.448  1.00  0.00     0.251 C 
ATOM     35  H   UNL A   1      31.789  36.421  30.129  1.00  0.00     0.163 HD
ATOM     36  O   UNL A   1      32.014  35.524  32.327  1.00  0.00    -0.269 OA
BRANCH  34  37
ATOM     37  C   UNL A   1      34.132  34.679  31.789  1.00  0.00     0.039 A 
ATOM     38  C   UNL A   1      34.050  33.379  32.304  1.00  0.00     0.014 A 
ATOM     39  C   UNL A   1      35.383  35.299  31.713  1.00  0.00     0.014 A 
ATOM     40  C   UNL A   1      35.206  32.695  32.702  1.00  0.00     0.010 A 
ATOM     41  C   UNL A   1      36.545  34.591  32.049  1.00  0.00     0.010 A 
ATOM     42  C   UNL A   1      36.473  33.282  32.556  1.00  0.00    -0.014 A 
BRANCH  42  43
ATOM     43  C   UNL A   1      37.710  32.538  32.943  1.00  0.00     0.031 A 
ATOM     44  C   UNL A   1      38.424  32.843  34.232  1.00  0.00     0.074 A 
ATOM     45  C   UNL A   1      38.210  31.585  32.128  1.00  0.00     0.049 A 
ATOM     46  N   UNL A   1      39.522  32.314  34.720  1.00  0.00    -0.248 NA
ATOM     47  C   UNL A   1      37.840  33.892  35.080  1.00  0.00     0.031 C 
ATOM     48  C   UNL A   1      37.636  31.200  30.842  1.00  0.00     0.029 A 
ATOM     49  N   UNL A   1      39.312  30.771  32.256  1.00  0.00    -0.354 N 
ATOM     50  C   UNL A   1      39.755  32.964  35.925  1.00  0.00     0.074 A 
ATOM     51  C   UNL A   1      38.721  33.967  36.067  1.00  0.00     0.031 C 
ATOM     52  C   UNL A   1      38.371  30.213  30.306  1.00  0.00     0.029 A 
ATOM     53  C   UNL A   1      39.496  29.922  31.191  1.00  0.00     0.049 A 
ATOM     54  H   UNL A   1      39.911  30.794  33.036  1.00  0.00     0.167 HD
ATOM     55  C   UNL A   1      40.727  32.732  36.843  1.00  0.00     0.037 A 
ATOM     56  C   UNL A   1      40.467  29.019  30.944  1.00  0.00     0.037 A 
ATOM     57  C   UNL A   1      41.754  31.730  36.711  1.00  0.00     0.049 A 
ATOM     58  C   UNL A   1      41.564  28.817  31.955  1.00  0.00     0.074 A 
ATOM     59  C   UNL A   1      42.758  31.399  37.607  1.00  0.00     0.029 A 
ATOM     60  N   UNL A   1      41.917  30.900  35.611  1.00  0.00    -0.354 N 
ATOM     61  N   UNL A   1      41.739  29.399  33.117  1.00  0.00    -0.248 NA
ATOM     62  C   UNL A   1      42.599  27.826  31.624  1.00  0.00     0.031 C 
ATOM     63  C   UNL A   1      43.562  30.415  37.024  1.00  0.00     0.029 A 
ATOM     64  C   UNL A   1      43.021  30.081  35.794  1.00  0.00     0.049 A 
ATOM     65  H   UNL A   1      41.334  30.893  34.817  1.00  0.00     0.167 HD
ATOM     66  C   UNL A   1      42.876  28.821  33.667  1.00  0.00     0.074 A 
ATOM     67  C   UNL A   1      43.342  27.831  32.720  1.00  0.00     0.031 C 
ATOM     68  C   UNL A   1      43.477  29.088  34.853  1.00  0.00     0.037 A 
BRANCH  55  69
ATOM     69  C   UNL A   1      40.731  33.584  38.081  1.00  0.00     0.064 A 
ATOM     70  C   UNL A   1      39.884  33.311  39.167  1.00  0.00     0.173 A 
ATOM     71  C   UNL A   1      41.623  34.660  38.204  1.00  0.00     0.173 A 
ATOM     72  F   UNL A   1      39.007  32.298  39.101  1.00  0.00    -0.203 F 
ATOM     73  C   UNL A   1      39.907  34.102  40.312  1.00  0.00     0.198 A 
ATOM     74  C   UNL A   1      41.668  35.428  39.365  1.00  0.00     0.198 A 
ATOM     75  F   UNL A   1      42.464  34.962  37.202  1.00  0.00    -0.203 F 
ATOM     76  F   UNL A   1      39.051  33.855  41.313  1.00  0.00    -0.200 F 
ATOM     77  C   UNL A   1      40.803  35.154  40.414  1.00  0.00     0.200 A 
ATOM     78  F   UNL A   1      42.549  36.433  39.469  1.00  0.00    -0.200 F 
ATOM     79  F   UNL A   1      40.830  35.910  41.520  1.00  0.00    -0.200 F 
ENDBRANCH  55  69
BRANCH  56  80
ATOM     80  C   UNL A   1      40.448  28.226  29.684  1.00  0.00     0.064 A 
ATOM     81  C   UNL A   1      41.180  28.636  28.560  1.00  0.00     0.173 A 
ATOM     82  C   UNL A   1      39.674  27.062  29.566  1.00  0.00     0.173 A 
ATOM     83  F   UNL A   1      41.915  29.756  28.611  1.00  0.00    -0.203 F 
ATOM     84  C   UNL A   1      41.114  27.930  27.359  1.00  0.00     0.198 A 
ATOM     85  C   UNL A   1      39.638  26.337  28.376  1.00  0.00     0.198 A 
ATOM     86  F   UNL A   1      38.954  26.624  30.608  1.00  0.00    -0.203 F 
ATOM     87  F   UNL A   1      41.774  28.379  26.284  1.00  0.00    -0.200 F 
ATOM     88  C   UNL A   1      40.349  26.778  27.271  1.00  0.00     0.200 A 
ATOM     89  F   UNL A   1      38.907  25.216  28.299  1.00  0.00    -0.200 F 
ATOM     90  F   UNL A   1      40.285  26.100  26.117  1.00  0.00    -0.200 F 
ENDBRANCH  56  80
BRANCH  68  91
ATOM     91  C   UNL A   1      44.682  28.267  35.221  1.00  0.00     0.064 A 
ATOM     92  C   UNL A   1      45.985  28.678  34.903  1.00  0.00     0.173 A 
ATOM     93  C   UNL A   1      44.531  27.067  35.935  1.00  0.00     0.173 A 
ATOM     94  F   UNL A   1      46.188  29.808  34.210  1.00  0.00    -0.203 F 
ATOM     95  C   UNL A   1      47.088  27.903  35.259  1.00  0.00     0.198 A 
ATOM     96  C   UNL A   1      45.637  26.315  36.321  1.00  0.00     0.198 A 
ATOM     97  F   UNL A   1      43.308  26.630  36.273  1.00  0.00    -0.203 F 
ATOM     98  F   UNL A   1      48.319  28.289  34.895  1.00  0.00    -0.200 F 
ATOM     99  C   UNL A   1      46.914  26.728  35.974  1.00  0.00     0.200 A 
ATOM    100  F   UNL A   1      45.467  25.188  37.027  1.00  0.00    -0.200 F 
ATOM    101  F   UNL A   1      47.976  25.990  36.323  1.00  0.00    -0.200 F 
ENDBRANCH  68  91
ENDBRANCH  42  43
ENDBRANCH  34  37
ENDBRANCH  32  33
ENDBRANCH  31  32
ENDBRANCH  30  31
ENDBRANCH  29  30
ENDBRANCH   1  29
TORSDOF 17
ENDMDL
MODEL 2
REMARK VINA RESULT:     -11.5      0.844      2.336
REMARK SMILES CC(C)(C)OC(=O)Nc1ccc(-c2cccc(Cl)c2C(=O)NCCCCCCNC(=O)c2ccc(-c3c4nc(c(-c5c(F)c(F)c(F)c(F)c5F)c5ccc([nH]5)c(-c5c(F)c(F)c(F)c(F)c5F)c5nc(c(-c6c(F)c(F)c(F)c(F)c6F)c6ccc3[nH]6)C=C5)C=C4)cc2)cc1
REMARK SMILES IDX 24 1 23 2 22 3 20 4 21 5 19 7 13 8 14 9 15 10 17 11 16 12
REMARK SMILES IDX 18 13 12 14 9 15 10 16 96 17 11 18 95 19 8 20 6 21 7 22 5 24
REMARK SMILES IDX 2 25 1 26 3 27 4 28 25 29 26 30 27 31 28 32 29 33 30 34
REMARK SMILES IDX 31 36 32 37 33 38 94 39 34 40 93 41 35 42 36 43 37 44 87 45
REMARK SMILES IDX 38 46 92 47 86 48 88 49 39 50 91 51 85 52 84 53 40 55 72 56
REMARK SMILES IDX 52 57 71 58 53 59 56 60 70 61 89 62 54 63 55 64 69 66 90 67
REMARK SMILES IDX 57 68 41 69 42 70 50 71 43 72 44 73 48 74 51 75 45 76 46 77
REMARK SMILES IDX 49 78 47 79 73 80 74 81 82 82 75 83 76 84 80 85 83 86 77 87
REMARK SMILES IDX 78 88 81 89 79 90 58 91 59 92 67 93 60 94 61 95 65 96 68 97
REMARK SMILES IDX 62 98 63 99 66 100 64 101
REMARK H PARENT 22 6 8 23 29 35 88 54 56 65
REMARK Flexibility Score: inf
ROOT
ATOM      1  C   UNL A   1      35.099  31.320  27.886  1.00  0.00     0.021 C 
ENDROOT
BRANCH   1   2
ATOM      2  C   UNL A   1      34.250  30.339  27.093  1.00  0.00     0.116 C 
BRANCH   2   3
ATOM      3  N   UNL A   1      33.002  29.885  27.639  1.00  0.00    -0.352 N 
ATOM      4  C   UNL A   1      32.094  28.995  27.089  1.00  0.00     0.253 C 
ATOM      5  O   UNL A   1      31.466  28.317  27.908  1.00  0.00    -0.269 OA
ATOM      6  H   UNL A   1      32.759  30.256  28.518  1.00  0.00     0.163 HD
BRANCH   4   7
ATOM      7  C   UNL A   1      31.758  28.815  25.622  1.00  0.00     0.066 A 
ATOM      8  C   UNL A   1      31.938  27.646  24.826  1.00  0.00    -0.004 A 
ATOM      9  C   UNL A   1      31.367  27.594  23.525  1.00  0.00     0.009 A 
ATOM     10  C   UNL A   1      30.637  28.642  22.987  1.00  0.00     0.002 A 
ATOM     11  C   UNL A   1      31.044  29.892  25.020  1.00  0.00     0.054 A 
ATOM     12  C   UNL A   1      30.486  29.796  23.733  1.00  0.00     0.021 A 
ATOM     13  Cl  UNL A   1      30.851  31.457  25.759  1.00  0.00    -0.083 Cl
BRANCH   8  14
ATOM     14  C   UNL A   1      32.698  26.443  25.179  1.00  0.00    -0.017 A 
ATOM     15  C   UNL A   1      34.016  24.013  25.790  1.00  0.00     0.044 A 
ATOM     16  C   UNL A   1      32.797  24.324  26.396  1.00  0.00     0.027 A 
ATOM     17  C   UNL A   1      34.603  24.964  24.946  1.00  0.00     0.027 A 
ATOM     18  C   UNL A   1      32.158  25.532  26.111  1.00  0.00     0.011 A 
ATOM     19  C   UNL A   1      33.954  26.169  24.642  1.00  0.00     0.011 A 
BRANCH  15  20
ATOM     20  N   UNL A   1      34.524  22.724  26.036  1.00  0.00    -0.291 N 
ATOM     21  C   UNL A   1      34.430  21.561  25.319  1.00  0.00     0.412 C 
ATOM     22  O   UNL A   1      34.861  20.511  25.785  1.00  0.00    -0.224 OA
ATOM     23  H   UNL A   1      35.039  22.643  26.872  1.00  0.00     0.173 HD
BRANCH  21  24
ATOM     24  O   UNL A   1      33.853  21.694  24.112  1.00  0.00    -0.444 OA
BRANCH  24  25
ATOM     25  C   UNL A   1      32.506  21.252  23.831  1.00  0.00     0.106 C 
ATOM     26  C   UNL A   1      31.821  21.287  25.204  1.00  0.00     0.056 C 
ATOM     27  C   UNL A   1      32.516  19.818  23.300  1.00  0.00     0.056 C 
ATOM     28  C   UNL A   1      31.764  22.201  22.886  1.00  0.00     0.056 C 
ENDBRANCH  24  25
ENDBRANCH  21  24
ENDBRANCH  15  20
ENDBRANCH   8  14
ENDBRANCH   4   7
ENDBRANCH   2   3
ENDBRANCH   1   2
BRANCH   1  29
ATOM     29  C   UNL A   1      34.414  32.285  28.854  1.00  0.00     0.002 C 
BRANCH  29  30
ATOM     30  C   UNL A   1      34.483  33.792  28.572  1.00  0.00     0.002 C 
BRANCH  30  31
ATOM     31  C   UNL A   1      33.185  34.600  28.644  1.00  0.00     0.021 C 
BRANCH  31  32
ATOM     32  C   UNL A   1      33.278  36.044  29.131  1.00  0.00     0.116 C 
BRANCH  32  33
ATOM     33  N   UNL A   1      32.517  36.281  30.343  1.00  0.00    -0.352 N 
ATOM     34  C   UNL A   1      32.669  35.774  31.613  1.00  0.00     0.251 C 
ATOM     35  H   UNL A   1      31.766  36.908  30.240  1.00  0.00     0.163 HD
ATOM     36  O   UNL A   1      31.785  35.989  32.440  1.00  0.00    -0.269 OA
BRANCH  34  37
ATOM     37  C   UNL A   1      33.854  34.974  32.023  1.00  0.00     0.039 A 
ATOM     38  C   UNL A   1      35.078  35.640  32.173  1.00  0.00     0.014 A 
ATOM     39  C   UNL A   1      33.821  33.584  32.164  1.00  0.00     0.014 A 
ATOM     40  C   UNL A   1      36.241  34.931  32.497  1.00  0.00     0.010 A 
ATOM     41  C   UNL A   1      34.971  32.883  32.552  1.00  0.00     0.010 A 
ATOM     42  C   UNL A   1      36.200  33.546  32.715  1.00  0.00    -0.014 A 
BRANCH  42  43
ATOM     43  C   UNL A   1      37.434  32.794  33.100  1.00  0.00     0.031 A 
ATOM     44  C   UNL A   1      38.147  33.090  34.392  1.00  0.00     0.074 A 
ATOM     45  C   UNL A   1      37.930  31.844  32.281  1.00  0.00     0.049 A 
ATOM     46  N   UNL A   1      39.241  32.553  34.879  1.00  0.00    -0.248 NA
ATOM     47  C   UNL A   1      37.566  34.137  35.244  1.00  0.00     0.031 C 
ATOM     48  C   UNL A   1      37.357  31.467  30.993  1.00  0.00     0.029 A 
ATOM     49  N   UNL A   1      39.028  31.024  32.406  1.00  0.00    -0.354 N 
ATOM     50  C   UNL A   1      39.476  33.196  36.087  1.00  0.00     0.074 A 
ATOM     51  C   UNL A   1      38.446  34.204  36.232  1.00  0.00     0.031 C 
ATOM     52  C   UNL A   1      38.088  30.479  30.452  1.00  0.00     0.029 A 
ATOM     53  C   UNL A   1      39.211  30.179  31.338  1.00  0.00     0.049 A 
ATOM     54  H   UNL A   1      39.627  31.040  33.188  1.00  0.00     0.167 HD
ATOM     55  C   UNL A   1      40.445  32.955  37.006  1.00  0.00     0.037 A 
ATOM     56  C   UNL A   1      40.177  29.273  31.087  1.00  0.00     0.037 A 
ATOM     57  C   UNL A   1      41.468  31.949  36.870  1.00  0.00     0.049 A 
ATOM     58  C   UNL A   1      41.273  29.062  32.099  1.00  0.00     0.074 A 
ATOM     59  C   UNL A   1      42.469  31.610  37.766  1.00  0.00     0.029 A 
ATOM     60  N   UNL A   1      41.629  31.124  35.766  1.00  0.00    -0.354 N 
ATOM     61  N   UNL A   1      41.448  29.637  33.264  1.00  0.00    -0.248 NA
ATOM     62  C   UNL A   1      42.303  28.068  31.765  1.00  0.00     0.031 C 
ATOM     63  C   UNL A   1      43.270  30.625  37.179  1.00  0.00     0.029 A 
ATOM     64  C   UNL A   1      42.729  30.300  35.947  1.00  0.00     0.049 A 
ATOM     65  H   UNL A   1      41.047  31.124  34.972  1.00  0.00     0.167 HD
ATOM     66  C   UNL A   1      42.582  29.051  33.814  1.00  0.00     0.074 A 
ATOM     67  C   UNL A   1      43.045  28.064  32.862  1.00  0.00     0.031 C 
ATOM     68  C   UNL A   1      43.182  29.309  35.002  1.00  0.00     0.037 A 
BRANCH  55  69
ATOM     69  C   UNL A   1      40.451  33.801  38.248  1.00  0.00     0.064 A 
ATOM     70  C   UNL A   1      41.191  34.993  38.325  1.00  0.00     0.173 A 
ATOM     71  C   UNL A   1      39.675  33.442  39.360  1.00  0.00     0.173 A 
ATOM     72  F   UNL A   1      41.955  35.380  37.293  1.00  0.00    -0.203 F 
ATOM     73  C   UNL A   1      41.179  35.772  39.478  1.00  0.00     0.198 A 
ATOM     74  C   UNL A   1      39.637  34.244  40.499  1.00  0.00     0.198 A 
ATOM     75  F   UNL A   1      38.940  32.320  39.340  1.00  0.00    -0.203 F 
ATOM     76  F   UNL A   1      41.935  36.876  39.547  1.00  0.00    -0.200 F 
ATOM     77  C   UNL A   1      40.397  35.402  40.561  1.00  0.00     0.200 A 
ATOM     78  F   UNL A   1      38.866  33.893  41.538  1.00  0.00    -0.200 F 
ATOM     79  F   UNL A   1      40.379  36.158  41.667  1.00  0.00    -0.200 F 
ENDBRANCH  55  69
BRANCH  56  80
ATOM     80  C   UNL A   1      40.157  28.487  29.824  1.00  0.00     0.064 A 
ATOM     81  C   UNL A   1      39.463  27.271  29.739  1.00  0.00     0.173 A 
ATOM     82  C   UNL A   1      40.857  28.916  28.685  1.00  0.00     0.173 A 
ATOM     83  F   UNL A   1      38.800  26.803  30.806  1.00  0.00    -0.203 F 
ATOM     84  C   UNL A   1      39.494  26.502  28.576  1.00  0.00     0.198 A 
ATOM     85  C   UNL A   1      40.857  28.164  27.513  1.00  0.00     0.198 A 
ATOM     86  F   UNL A   1      41.538  30.071  28.710  1.00  0.00    -0.203 F 
ATOM     87  F   UNL A   1      38.874  25.315  28.545  1.00  0.00    -0.200 F 
ATOM     88  C   UNL A   1      40.186  26.952  27.463  1.00  0.00     0.200 A 
ATOM     89  F   UNL A   1      41.515  28.609  26.434  1.00  0.00    -0.200 F 
ATOM     90  F   UNL A   1      40.217  26.212  26.346  1.00  0.00    -0.200 F 
ENDBRANCH  56  80
BRANCH  68  91
ATOM     91  C   UNL A   1      44.383  28.481  35.368  1.00  0.00     0.064 A 
ATOM     92  C   UNL A   1      44.263  27.266  36.059  1.00  0.00     0.173 A 
ATOM     93  C   UNL A   1      45.670  28.892  34.988  1.00  0.00     0.173 A 
ATOM     94  F   UNL A   1      43.058  26.831  36.459  1.00  0.00    -0.203 F 
ATOM     95  C   UNL A   1      45.389  26.512  36.384  1.00  0.00     0.198 A 
ATOM     96  C   UNL A   1      46.789  28.118  35.282  1.00  0.00     0.198 A 
ATOM     97  F   UNL A   1      45.843  30.042  34.318  1.00  0.00    -0.203 F 
ATOM     98  F   UNL A   1      45.253  25.382  37.093  1.00  0.00    -0.200 F 
ATOM     99  C   UNL A   1      46.649  26.934  35.988  1.00  0.00     0.200 A 
ATOM    100  F   UNL A   1      48.004  28.520  34.883  1.00  0.00    -0.200 F 
ATOM    101  F   UNL A   1      47.729  26.202  36.293  1.00  0.00    -0.200 F 
ENDBRANCH  68  91
ENDBRANCH  42  43
ENDBRANCH  34  37
ENDBRANCH  32  33
ENDBRANCH  31  32
ENDBRANCH  30  31
ENDBRANCH  29  30
ENDBRANCH   1  29
TORSDOF 17
ENDMDL
MODEL 3
REMARK VINA RESULT:     -11.3      2.895      5.691
REMARK SMILES CC(C)(C)OC(=O)Nc1ccc(-c2cccc(Cl)c2C(=O)NCCCCCCNC(=O)c2ccc(-c3c4nc(c(-c5c(F)c(F)c(F)c(F)c5F)c5ccc([nH]5)c(-c5c(F)c(F)c(F)c(F)c5F)c5nc(c(-c6c(F)c(F)c(F)c(F)c6F)c6ccc3[nH]6)C=C5)C=C4)cc2)cc1
REMARK SMILES IDX 24 1 23 2 22 3 20 4 21 5 19 7 13 8 14 9 15 10 17 11 16 12
REMARK SMILES IDX 18 13 12 14 9 15 10 16 96 17 11 18 95 19 8 20 6 21 7 22 5 24
REMARK SMILES IDX 2 25 1 26 3 27 4 28 25 29 26 30 27 31 28 32 29 33 30 34
REMARK SMILES IDX 31 36 32 37 33 38 94 39 34 40 93 41 35 42 36 43 37 44 87 45
REMARK SMILES IDX 38 46 92 47 86 48 88 49 39 50 91 51 85 52 84 53 40 55 72 56
REMARK SMILES IDX 52 57 71 58 53 59 56 60 70 61 89 62 54 63 55 64 69 66 90 67
REMARK SMILES IDX 57 68 41 69 42 70 50 71 43 72 44 73 48 74 51 75 45 76 46 77
REMARK SMILES IDX 49 78 47 79 73 80 74 81 82 82 75 83 76 84 80 85 83 86 77 87
REMARK SMILES IDX 78 88 81 89 79 90 58 91 59 92 67 93 60 94 61 95 65 96 68 97
REMARK SMILES IDX 62 98 63 99 66 100 64 101
REMARK H PARENT 22 6 8 23 29 35 88 54 56 65
REMARK Flexibility Score: inf
ROOT
ATOM      1  C   UNL A   1      33.362  25.378  22.007  1.00  0.00     0.021 C 
ENDROOT
BRANCH   1   2
ATOM      2  C   UNL A   1      34.271  24.320  22.615  1.00  0.00     0.116 C 
BRANCH   2   3
ATOM      3  N   UNL A   1      33.871  22.941  22.578  1.00  0.00    -0.352 N 
ATOM      4  C   UNL A   1      33.131  22.235  23.512  1.00  0.00     0.253 C 
ATOM      5  O   UNL A   1      32.425  21.335  23.045  1.00  0.00    -0.269 OA
ATOM      6  H   UNL A   1      34.161  22.432  21.787  1.00  0.00     0.163 HD
BRANCH   4   7
ATOM      7  C   UNL A   1      33.146  22.408  25.017  1.00  0.00     0.066 A 
ATOM      8  C   UNL A   1      32.267  23.203  25.810  1.00  0.00    -0.004 A 
ATOM      9  C   UNL A   1      32.297  23.075  27.226  1.00  0.00     0.009 A 
ATOM     10  C   UNL A   1      33.154  22.204  27.879  1.00  0.00     0.002 A 
ATOM     11  C   UNL A   1      34.048  21.558  25.723  1.00  0.00     0.054 A 
ATOM     12  C   UNL A   1      34.037  21.454  27.125  1.00  0.00     0.021 A 
ATOM     13  Cl  UNL A   1      35.302  20.627  24.953  1.00  0.00    -0.083 Cl
BRANCH   8  14
ATOM     14  C   UNL A   1      31.311  24.208  25.334  1.00  0.00    -0.017 A 
ATOM     15  C   UNL A   1      29.338  26.003  24.387  1.00  0.00     0.044 A 
ATOM     16  C   UNL A   1      29.833  24.998  23.554  1.00  0.00     0.027 A 
ATOM     17  C   UNL A   1      29.900  26.149  25.662  1.00  0.00     0.027 A 
ATOM     18  C   UNL A   1      30.822  24.126  24.014  1.00  0.00     0.011 A 
ATOM     19  C   UNL A   1      30.878  25.263  26.134  1.00  0.00     0.011 A 
BRANCH  15  20
ATOM     20  N   UNL A   1      28.255  26.751  23.888  1.00  0.00    -0.291 N 
ATOM     21  C   UNL A   1      28.214  27.891  23.130  1.00  0.00     0.412 C 
ATOM     22  O   UNL A   1      27.143  28.443  22.901  1.00  0.00    -0.224 OA
ATOM     23  H   UNL A   1      27.370  26.391  24.125  1.00  0.00     0.173 HD
BRANCH  21  24
ATOM     24  O   UNL A   1      29.412  28.308  22.683  1.00  0.00    -0.444 OA
BRANCH  24  25
ATOM     25  C   UNL A   1      29.748  29.705  22.523  1.00  0.00     0.106 C 
ATOM     26  C   UNL A   1      31.192  29.671  22.005  1.00  0.00     0.056 C 
ATOM     27  C   UNL A   1      29.704  30.421  23.873  1.00  0.00     0.056 C 
ATOM     28  C   UNL A   1      28.868  30.402  21.483  1.00  0.00     0.056 C 
ENDBRANCH  24  25
ENDBRANCH  21  24
ENDBRANCH  15  20
ENDBRANCH   8  14
ENDBRANCH   4   7
ENDBRANCH   2   3
ENDBRANCH   1   2
BRANCH   1  29
ATOM     29  C   UNL A   1      33.149  26.695  22.754  1.00  0.00     0.002 C 
BRANCH  29  30
ATOM     30  C   UNL A   1      33.564  26.788  24.228  1.00  0.00     0.002 C 
BRANCH  30  31
ATOM     31  C   UNL A   1      33.029  27.959  25.056  1.00  0.00     0.021 C 
BRANCH  31  32
ATOM     32  C   UNL A   1      33.590  29.348  24.759  1.00  0.00     0.116 C 
BRANCH  32  33
ATOM     33  N   UNL A   1      32.928  30.396  25.511  1.00  0.00    -0.352 N 
ATOM     34  C   UNL A   1      33.228  30.952  26.733  1.00  0.00     0.251 C 
ATOM     35  H   UNL A   1      32.131  30.774  25.074  1.00  0.00     0.163 HD
ATOM     36  O   UNL A   1      32.411  31.713  27.249  1.00  0.00    -0.269 OA
BRANCH  34  37
ATOM     37  C   UNL A   1      34.496  30.666  27.456  1.00  0.00     0.039 A 
ATOM     38  C   UNL A   1      34.660  29.393  28.018  1.00  0.00     0.014 A 
ATOM     39  C   UNL A   1      35.477  31.636  27.684  1.00  0.00     0.014 A 
ATOM     40  C   UNL A   1      35.805  29.084  28.764  1.00  0.00     0.010 A 
ATOM     41  C   UNL A   1      36.652  31.307  28.375  1.00  0.00     0.010 A 
ATOM     42  C   UNL A   1      36.828  30.029  28.932  1.00  0.00    -0.014 A 
BRANCH  42  43
ATOM     43  C   UNL A   1      38.068  29.687  29.694  1.00  0.00     0.031 A 
ATOM     44  C   UNL A   1      38.318  30.264  31.062  1.00  0.00     0.074 A 
ATOM     45  C   UNL A   1      38.988  28.861  29.155  1.00  0.00     0.049 A 
ATOM     46  N   UNL A   1      39.346  30.096  31.860  1.00  0.00    -0.248 NA
ATOM     47  C   UNL A   1      37.286  31.162  31.600  1.00  0.00     0.031 C 
ATOM     48  C   UNL A   1      38.888  28.247  27.835  1.00  0.00     0.029 A 
ATOM     49  N   UNL A   1      40.187  28.397  29.646  1.00  0.00    -0.354 N 
ATOM     50  C   UNL A   1      39.083  30.864  32.987  1.00  0.00     0.074 A 
ATOM     51  C   UNL A   1      37.828  31.546  32.746  1.00  0.00     0.031 C 
ATOM     52  C   UNL A   1      39.964  27.471  27.623  1.00  0.00     0.029 A 
ATOM     53  C   UNL A   1      40.853  27.565  28.778  1.00  0.00     0.049 A 
ATOM     54  H   UNL A   1      40.535  28.638  30.535  1.00  0.00     0.167 HD
ATOM     55  C   UNL A   1      39.806  30.973  34.130  1.00  0.00     0.037 A 
ATOM     56  C   UNL A   1      42.050  26.955  28.889  1.00  0.00     0.037 A 
ATOM     57  C   UNL A   1      41.051  30.292  34.378  1.00  0.00     0.049 A 
ATOM     58  C   UNL A   1      42.859  27.135  30.147  1.00  0.00     0.074 A 
ATOM     59  C   UNL A   1      41.835  30.315  35.520  1.00  0.00     0.029 A 
ATOM     60  N   UNL A   1      41.701  29.470  33.469  1.00  0.00    -0.354 N 
ATOM     61  N   UNL A   1      42.570  27.818  31.228  1.00  0.00    -0.248 NA
ATOM     62  C   UNL A   1      44.160  26.453  30.204  1.00  0.00     0.031 C 
ATOM     63  C   UNL A   1      42.986  29.558  35.280  1.00  0.00     0.029 A 
ATOM     64  C   UNL A   1      42.889  29.006  34.014  1.00  0.00     0.049 A 
ATOM     65  H   UNL A   1      41.368  29.248  32.569  1.00  0.00     0.167 HD
ATOM     66  C   UNL A   1      43.631  27.618  32.102  1.00  0.00     0.074 A 
ATOM     67  C   UNL A   1      44.564  26.738  31.433  1.00  0.00     0.031 C 
ATOM     68  C   UNL A   1      43.812  28.120  33.349  1.00  0.00     0.037 A 
BRANCH  55  69
ATOM     69  C   UNL A   1      39.270  31.873  35.208  1.00  0.00     0.064 A 
ATOM     70  C   UNL A   1      38.481  31.375  36.258  1.00  0.00     0.173 A 
ATOM     71  C   UNL A   1      39.583  33.241  35.219  1.00  0.00     0.173 A 
ATOM     72  F   UNL A   1      38.146  30.077  36.294  1.00  0.00    -0.203 F 
ATOM     73  C   UNL A   1      38.000  32.218  37.256  1.00  0.00     0.198 A 
ATOM     74  C   UNL A   1      39.130  34.074  36.238  1.00  0.00     0.198 A 
ATOM     75  F   UNL A   1      40.342  33.769  34.246  1.00  0.00    -0.203 F 
ATOM     76  F   UNL A   1      37.205  31.730  38.218  1.00  0.00    -0.200 F 
ATOM     77  C   UNL A   1      38.331  33.564  37.250  1.00  0.00     0.200 A 
ATOM     78  F   UNL A   1      39.466  35.372  36.241  1.00  0.00    -0.200 F 
ATOM     79  F   UNL A   1      37.875  34.373  38.217  1.00  0.00    -0.200 F 
ENDBRANCH  55  69
BRANCH  56  80
ATOM     80  C   UNL A   1      42.564  26.107  27.778  1.00  0.00     0.064 A 
ATOM     81  C   UNL A   1      42.198  24.758  27.669  1.00  0.00     0.173 A 
ATOM     82  C   UNL A   1      43.457  26.617  26.823  1.00  0.00     0.173 A 
ATOM     83  F   UNL A   1      41.368  24.214  28.571  1.00  0.00    -0.203 F 
ATOM     84  C   UNL A   1      42.726  23.945  26.666  1.00  0.00     0.198 A 
ATOM     85  C   UNL A   1      43.956  25.813  25.801  1.00  0.00     0.198 A 
ATOM     86  F   UNL A   1      43.842  27.900  26.880  1.00  0.00    -0.203 F 
ATOM     87  F   UNL A   1      42.407  22.645  26.623  1.00  0.00    -0.200 F 
ATOM     88  C   UNL A   1      43.600  24.475  25.730  1.00  0.00     0.200 A 
ATOM     89  F   UNL A   1      44.790  26.333  24.889  1.00  0.00    -0.200 F 
ATOM     90  F   UNL A   1      44.109  23.695  24.767  1.00  0.00    -0.200 F 
ENDBRANCH  56  80
BRANCH  68  91
ATOM     91  C   UNL A   1      45.046  27.694  34.096  1.00  0.00     0.064 A 
ATOM     92  C   UNL A   1      45.063  26.551  34.909  1.00  0.00     0.173 A 
ATOM     93  C   UNL A   1      46.239  28.422  33.968  1.00  0.00     0.173 A 
ATOM     94  F   UNL A   1      43.947  25.825  35.079  1.00  0.00    -0.203 F 
ATOM     95  C   UNL A   1      46.219  26.172  35.589  1.00  0.00     0.198 A 
ATOM     96  C   UNL A   1      47.401  28.020  34.619  1.00  0.00     0.198 A 
ATOM     97  F   UNL A   1      46.282  29.520  33.197  1.00  0.00    -0.203 F 
ATOM     98  F   UNL A   1      46.195  25.107  36.403  1.00  0.00    -0.200 F 
ATOM     99  C   UNL A   1      47.388  26.901  35.436  1.00  0.00     0.200 A 
ATOM    100  F   UNL A   1      48.535  28.717  34.457  1.00  0.00    -0.200 F 
ATOM    101  F   UNL A   1      48.501  26.529  36.084  1.00  0.00    -0.200 F 
ENDBRANCH  68  91
ENDBRANCH  42  43
ENDBRANCH  34  37
ENDBRANCH  32  33
ENDBRANCH  31  32
ENDBRANCH  30  31
ENDBRANCH  29  30
ENDBRANCH   1  29
TORSDOF 17
ENDMDL
