MODEL 1
REMARK VINA RESULT:     -12.2      0.000      0.000
REMARK SMILES CC[C@H]1SC[C@H](C(=O)NCCCCCCNC(=O)c2ccc(-c3c4nc(c(-c5c(F)c(F)c(F)c(F)c5F)c5ccc([nH]5)c(-c5c(F)c(F)c(F)c(F)c5F)c5nc(c(-c6c(F)c(F)c(F)c(F)c6F)c6ccc3[nH]6)C=C5)C=C4)cc2)N1C(=O)Cc1ccc(F)c(F)c1
REMARK SMILES IDX 12 1 11 2 10 3 9 4 7 5 8 6 6 8 3 9 4 10 82 11 5 12 2 13 1 14
REMARK SMILES IDX 83 15 84 16 85 17 86 18 87 19 93 20 88 21 91 22 89 23 92 24
REMARK SMILES IDX 90 25 13 26 14 27 15 28 16 29 17 30 18 32 19 33 20 34 81 35
REMARK SMILES IDX 21 36 80 37 22 38 23 39 24 40 74 41 25 42 79 43 73 44 75 45
REMARK SMILES IDX 26 46 78 47 72 48 71 49 27 51 59 52 39 53 58 54 40 55 43 56
REMARK SMILES IDX 57 57 76 58 41 59 42 60 56 62 77 63 44 64 28 65 29 66 37 67
REMARK SMILES IDX 30 68 31 69 35 70 38 71 32 72 33 73 36 74 34 75 60 76 61 77
REMARK SMILES IDX 69 78 62 79 63 80 67 81 70 82 64 83 65 84 68 85 66 86 45 87
REMARK SMILES IDX 46 88 54 89 47 90 48 91 52 92 55 93 49 94 50 95 53 96 51 97
REMARK H PARENT 9 7 16 31 75 50 43 61
REMARK Flexibility Score: inf
ROOT
ATOM      1  C   UNL A   1      33.032  30.306  27.134  1.00  0.00     0.002 C 
ENDROOT
BRANCH   1   2
ATOM      2  C   UNL A   1      33.704  29.257  26.245  1.00  0.00     0.021 C 
BRANCH   2   3
ATOM      3  C   UNL A   1      33.565  27.809  26.696  1.00  0.00     0.116 C 
BRANCH   3   4
ATOM      4  N   UNL A   1      32.204  27.335  26.891  1.00  0.00    -0.354 N 
ATOM      5  C   UNL A   1      31.485  26.467  26.085  1.00  0.00     0.243 C 
ATOM      6  O   UNL A   1      30.446  25.982  26.533  1.00  0.00    -0.273 OA
ATOM      7  H   UNL A   1      31.738  27.670  27.690  1.00  0.00     0.163 HD
BRANCH   5   8
ATOM      8  C   UNL A   1      32.040  26.140  24.672  1.00  0.00     0.185 C 
ATOM      9  C   UNL A   1      31.263  25.952  22.349  1.00  0.00     0.143 C 
ATOM     10  S   UNL A   1      30.695  24.412  23.088  1.00  0.00    -0.134 SA
ATOM     11  N   UNL A   1      31.427  26.831  23.503  1.00  0.00    -0.318 N 
ATOM     12  C   UNL A   1      31.850  24.618  24.459  1.00  0.00     0.107 C 
BRANCH   9  13
ATOM     13  C   UNL A   1      32.619  25.640  21.646  1.00  0.00     0.033 C 
ATOM     14  C   UNL A   1      32.501  25.561  20.130  1.00  0.00     0.007 C 
ENDBRANCH   9  13
BRANCH  11  15
ATOM     15  C   UNL A   1      31.332  28.219  23.454  1.00  0.00     0.228 C 
ATOM     16  O   UNL A   1      32.243  28.901  22.978  1.00  0.00    -0.274 OA
BRANCH  15  17
ATOM     17  C   UNL A   1      30.103  28.894  24.099  1.00  0.00     0.135 C 
BRANCH  17  18
ATOM     18  C   UNL A   1      29.348  29.927  23.278  1.00  0.00    -0.036 A 
ATOM     19  C   UNL A   1      28.855  29.633  21.994  1.00  0.00     0.007 A 
ATOM     20  C   UNL A   1      29.224  31.244  23.715  1.00  0.00     0.046 A 
ATOM     21  C   UNL A   1      28.287  30.640  21.192  1.00  0.00     0.043 A 
ATOM     22  C   UNL A   1      28.714  32.253  22.909  1.00  0.00     0.159 A 
ATOM     23  C   UNL A   1      28.244  31.953  21.648  1.00  0.00     0.158 A 
ATOM     24  F   UNL A   1      28.704  33.510  23.372  1.00  0.00    -0.204 F 
ATOM     25  F   UNL A   1      27.746  32.921  20.867  1.00  0.00    -0.204 F 
ENDBRANCH  17  18
ENDBRANCH  15  17
ENDBRANCH  11  15
ENDBRANCH   5   8
ENDBRANCH   3   4
ENDBRANCH   2   3
ENDBRANCH   1   2
BRANCH   1  26
ATOM     26  C   UNL A   1      31.716  30.912  26.631  1.00  0.00     0.002 C 
BRANCH  26  27
ATOM     27  C   UNL A   1      31.557  32.428  26.760  1.00  0.00     0.021 C 
BRANCH  27  28
ATOM     28  C   UNL A   1      32.795  33.196  27.206  1.00  0.00     0.116 C 
BRANCH  28  29
ATOM     29  N   UNL A   1      32.488  34.500  27.761  1.00  0.00    -0.352 N 
ATOM     30  C   UNL A   1      33.044  35.151  28.836  1.00  0.00     0.251 C 
ATOM     31  H   UNL A   1      31.772  34.994  27.299  1.00  0.00     0.163 HD
ATOM     32  O   UNL A   1      32.562  36.202  29.235  1.00  0.00    -0.269 OA
BRANCH  30  33
ATOM     33  C   UNL A   1      34.213  34.568  29.534  1.00  0.00     0.039 A 
ATOM     34  C   UNL A   1      34.002  33.900  30.743  1.00  0.00     0.014 A 
ATOM     35  C   UNL A   1      35.508  34.693  29.022  1.00  0.00     0.014 A 
ATOM     36  C   UNL A   1      35.080  33.311  31.409  1.00  0.00     0.010 A 
ATOM     37  C   UNL A   1      36.569  34.039  29.646  1.00  0.00     0.010 A 
ATOM     38  C   UNL A   1      36.368  33.348  30.851  1.00  0.00    -0.014 A 
BRANCH  38  39
ATOM     39  C   UNL A   1      37.511  32.678  31.524  1.00  0.00     0.031 A 
ATOM     40  C   UNL A   1      38.203  31.514  30.865  1.00  0.00     0.074 A 
ATOM     41  C   UNL A   1      37.894  33.083  32.751  1.00  0.00     0.049 A 
ATOM     42  N   UNL A   1      39.185  30.772  31.314  1.00  0.00    -0.248 NA
ATOM     43  C   UNL A   1      37.711  31.110  29.538  1.00  0.00     0.031 C 
ATOM     44  C   UNL A   1      37.271  34.165  33.517  1.00  0.00     0.029 A 
ATOM     45  N   UNL A   1      38.894  32.629  33.577  1.00  0.00    -0.354 N 
ATOM     46  C   UNL A   1      39.411  29.810  30.339  1.00  0.00     0.074 A 
ATOM     47  C   UNL A   1      38.437  30.030  29.292  1.00  0.00     0.031 C 
ATOM     48  C   UNL A   1      37.912  34.302  34.689  1.00  0.00     0.029 A 
ATOM     49  C   UNL A   1      38.963  33.295  34.778  1.00  0.00     0.049 A 
ATOM     50  H   UNL A   1      39.503  31.897  33.331  1.00  0.00     0.167 HD
ATOM     51  C   UNL A   1      40.358  28.843  30.311  1.00  0.00     0.037 A 
ATOM     52  C   UNL A   1      39.775  33.104  35.837  1.00  0.00     0.037 A 
ATOM     53  C   UNL A   1      41.352  28.654  31.336  1.00  0.00     0.049 A 
ATOM     54  C   UNL A   1      40.826  32.026  35.767  1.00  0.00     0.074 A 
ATOM     55  C   UNL A   1      42.408  27.758  31.355  1.00  0.00     0.029 A 
ATOM     56  N   UNL A   1      41.410  29.367  32.523  1.00  0.00    -0.354 N 
ATOM     57  N   UNL A   1      41.089  31.184  34.797  1.00  0.00    -0.248 NA
ATOM     58  C   UNL A   1      41.703  31.879  36.938  1.00  0.00     0.031 C 
ATOM     59  C   UNL A   1      43.065  27.884  32.582  1.00  0.00     0.029 A 
ATOM     60  C   UNL A   1      42.464  28.908  33.297  1.00  0.00     0.049 A 
ATOM     61  H   UNL A   1      40.795  30.092  32.778  1.00  0.00     0.167 HD
ATOM     62  C   UNL A   1      42.181  30.439  35.222  1.00  0.00     0.074 A 
ATOM     63  C   UNL A   1      42.543  30.939  36.532  1.00  0.00     0.031 C 
ATOM     64  C   UNL A   1      42.825  29.428  34.590  1.00  0.00     0.037 A 
BRANCH  51  65
ATOM     65  C   UNL A   1      40.380  27.902  29.141  1.00  0.00     0.064 A 
ATOM     66  C   UNL A   1      39.603  26.735  29.113  1.00  0.00     0.173 A 
ATOM     67  C   UNL A   1      41.123  28.223  27.994  1.00  0.00     0.173 A 
ATOM     68  F   UNL A   1      38.882  26.377  30.187  1.00  0.00    -0.203 F 
ATOM     69  C   UNL A   1      39.578  25.917  27.985  1.00  0.00     0.198 A 
ATOM     70  C   UNL A   1      41.072  27.419  26.857  1.00  0.00     0.198 A 
ATOM     71  F   UNL A   1      41.880  29.330  27.966  1.00  0.00    -0.203 F 
ATOM     72  F   UNL A   1      38.853  24.791  27.993  1.00  0.00    -0.200 F 
ATOM     73  C   UNL A   1      40.302  26.267  26.855  1.00  0.00     0.200 A 
ATOM     74  F   UNL A   1      41.759  27.769  25.761  1.00  0.00    -0.200 F 
ATOM     75  F   UNL A   1      40.258  25.491  25.763  1.00  0.00    -0.200 F 
ENDBRANCH  51  65
BRANCH  52  76
ATOM     76  C   UNL A   1      39.633  33.942  37.058  1.00  0.00     0.064 A 
ATOM     77  C   UNL A   1      38.858  33.515  38.147  1.00  0.00     0.173 A 
ATOM     78  C   UNL A   1      40.224  35.211  37.142  1.00  0.00     0.173 A 
ATOM     79  F   UNL A   1      38.255  32.317  38.111  1.00  0.00    -0.203 F 
ATOM     80  C   UNL A   1      38.642  34.342  39.248  1.00  0.00     0.198 A 
ATOM     81  C   UNL A   1      40.039  36.022  38.260  1.00  0.00     0.198 A 
ATOM     82  F   UNL A   1      40.983  35.668  36.134  1.00  0.00    -0.203 F 
ATOM     83  F   UNL A   1      37.833  33.938  40.237  1.00  0.00    -0.200 F 
ATOM     84  C   UNL A   1      39.234  35.593  39.304  1.00  0.00     0.200 A 
ATOM     85  F   UNL A   1      40.628  37.223  38.318  1.00  0.00    -0.200 F 
ATOM     86  F   UNL A   1      39.019  36.393  40.358  1.00  0.00    -0.200 F 
ENDBRANCH  52  76
BRANCH  64  87
ATOM     87  C   UNL A   1      44.022  28.834  35.276  1.00  0.00     0.064 A 
ATOM     88  C   UNL A   1      43.910  27.750  36.158  1.00  0.00     0.173 A 
ATOM     89  C   UNL A   1      45.306  29.339  35.019  1.00  0.00     0.173 A 
ATOM     90  F   UNL A   1      42.704  27.236  36.447  1.00  0.00    -0.203 F 
ATOM     91  C   UNL A   1      45.033  27.219  36.787  1.00  0.00     0.198 A 
ATOM     92  C   UNL A   1      46.431  28.782  35.620  1.00  0.00     0.198 A 
ATOM     93  F   UNL A   1      45.472  30.369  34.175  1.00  0.00    -0.203 F 
ATOM     94  F   UNL A   1      44.894  26.224  37.673  1.00  0.00    -0.200 F 
ATOM     95  C   UNL A   1      46.292  27.730  36.512  1.00  0.00     0.200 A 
ATOM     96  F   UNL A   1      47.649  29.266  35.337  1.00  0.00    -0.200 F 
ATOM     97  F   UNL A   1      47.373  27.214  37.114  1.00  0.00    -0.200 F 
ENDBRANCH  64  87
ENDBRANCH  38  39
ENDBRANCH  30  33
ENDBRANCH  28  29
ENDBRANCH  27  28
ENDBRANCH  26  27
ENDBRANCH   1  26
TORSDOF 17
ENDMDL
MODEL 2
REMARK VINA RESULT:     -12.2      2.667      4.229
REMARK SMILES CC[C@H]1SC[C@H](C(=O)NCCCCCCNC(=O)c2ccc(-c3c4nc(c(-c5c(F)c(F)c(F)c(F)c5F)c5ccc([nH]5)c(-c5c(F)c(F)c(F)c(F)c5F)c5nc(c(-c6c(F)c(F)c(F)c(F)c6F)c6ccc3[nH]6)C=C5)C=C4)cc2)N1C(=O)Cc1ccc(F)c(F)c1
REMARK SMILES IDX 12 1 11 2 10 3 9 4 7 5 8 6 6 8 3 9 4 10 82 11 5 12 2 13 1 14
REMARK SMILES IDX 83 15 84 16 85 17 86 18 87 19 93 20 88 21 91 22 89 23 92 24
REMARK SMILES IDX 90 25 13 26 14 27 15 28 16 29 17 30 18 32 19 33 20 34 81 35
REMARK SMILES IDX 21 36 80 37 22 38 23 39 24 40 74 41 25 42 79 43 73 44 75 45
REMARK SMILES IDX 26 46 78 47 72 48 71 49 27 51 59 52 39 53 58 54 40 55 43 56
REMARK SMILES IDX 57 57 76 58 41 59 42 60 56 62 77 63 44 64 28 65 29 66 37 67
REMARK SMILES IDX 30 68 31 69 35 70 38 71 32 72 33 73 36 74 34 75 60 76 61 77
REMARK SMILES IDX 69 78 62 79 63 80 67 81 70 82 64 83 65 84 68 85 66 86 45 87
REMARK SMILES IDX 46 88 54 89 47 90 48 91 52 92 55 93 49 94 50 95 53 96 51 97
REMARK H PARENT 9 7 16 31 75 50 43 61
REMARK Flexibility Score: inf
ROOT
ATOM      1  C   UNL A   1      32.034  29.677  27.032  1.00  0.00     0.002 C 
ENDROOT
BRANCH   1   2
ATOM      2  C   UNL A   1      33.539  29.513  27.258  1.00  0.00     0.021 C 
BRANCH   2   3
ATOM      3  C   UNL A   1      34.226  28.433  26.433  1.00  0.00     0.116 C 
BRANCH   3   4
ATOM      4  N   UNL A   1      34.042  28.522  24.993  1.00  0.00    -0.354 N 
ATOM      5  C   UNL A   1      33.180  27.781  24.202  1.00  0.00     0.243 C 
ATOM      6  O   UNL A   1      32.975  28.163  23.049  1.00  0.00    -0.273 OA
ATOM      7  H   UNL A   1      34.596  29.188  24.526  1.00  0.00     0.163 HD
BRANCH   5   8
ATOM      8  C   UNL A   1      32.505  26.526  24.818  1.00  0.00     0.185 C 
ATOM      9  C   UNL A   1      31.565  24.367  24.117  1.00  0.00     0.143 C 
ATOM     10  S   UNL A   1      30.265  25.533  23.678  1.00  0.00    -0.134 SA
ATOM     11  N   UNL A   1      32.757  25.209  24.171  1.00  0.00    -0.318 N 
ATOM     12  C   UNL A   1      30.977  26.775  24.776  1.00  0.00     0.107 C 
BRANCH   9  13
ATOM     13  C   UNL A   1      31.191  23.782  25.512  1.00  0.00     0.033 C 
ATOM     14  C   UNL A   1      31.434  22.282  25.614  1.00  0.00     0.007 C 
ENDBRANCH   9  13
BRANCH  11  15
ATOM     15  C   UNL A   1      34.052  24.750  23.948  1.00  0.00     0.228 C 
ATOM     16  O   UNL A   1      34.441  24.472  22.811  1.00  0.00    -0.274 OA
BRANCH  15  17
ATOM     17  C   UNL A   1      34.964  24.502  25.169  1.00  0.00     0.135 C 
BRANCH  17  18
ATOM     18  C   UNL A   1      35.745  23.199  25.218  1.00  0.00    -0.036 A 
ATOM     19  C   UNL A   1      37.150  23.181  25.273  1.00  0.00     0.007 A 
ATOM     20  C   UNL A   1      35.104  21.969  25.083  1.00  0.00     0.046 A 
ATOM     21  C   UNL A   1      37.861  21.972  25.171  1.00  0.00     0.043 A 
ATOM     22  C   UNL A   1      35.800  20.778  24.929  1.00  0.00     0.159 A 
ATOM     23  C   UNL A   1      37.178  20.776  24.974  1.00  0.00     0.158 A 
ATOM     24  F   UNL A   1      35.112  19.647  24.721  1.00  0.00    -0.204 F 
ATOM     25  F   UNL A   1      37.856  19.630  24.830  1.00  0.00    -0.204 F 
ENDBRANCH  17  18
ENDBRANCH  15  17
ENDBRANCH  11  15
ENDBRANCH   5   8
ENDBRANCH   3   4
ENDBRANCH   2   3
ENDBRANCH   1   2
BRANCH   1  26
ATOM     26  C   UNL A   1      31.586  30.810  26.102  1.00  0.00     0.002 C 
BRANCH  26  27
ATOM     27  C   UNL A   1      31.382  32.188  26.736  1.00  0.00     0.021 C 
BRANCH  27  28
ATOM     28  C   UNL A   1      32.646  32.913  27.183  1.00  0.00     0.116 C 
BRANCH  28  29
ATOM     29  N   UNL A   1      32.392  34.261  27.655  1.00  0.00    -0.352 N 
ATOM     30  C   UNL A   1      33.002  34.968  28.663  1.00  0.00     0.251 C 
ATOM     31  H   UNL A   1      31.674  34.743  27.182  1.00  0.00     0.163 HD
ATOM     32  O   UNL A   1      32.562  36.057  29.004  1.00  0.00    -0.269 OA
BRANCH  30  33
ATOM     33  C   UNL A   1      34.179  34.401  29.362  1.00  0.00     0.039 A 
ATOM     34  C   UNL A   1      33.970  33.682  30.542  1.00  0.00     0.014 A 
ATOM     35  C   UNL A   1      35.477  34.589  28.880  1.00  0.00     0.014 A 
ATOM     36  C   UNL A   1      35.056  33.106  31.206  1.00  0.00     0.010 A 
ATOM     37  C   UNL A   1      36.549  33.950  29.500  1.00  0.00     0.010 A 
ATOM     38  C   UNL A   1      36.352  33.209  30.675  1.00  0.00    -0.014 A 
BRANCH  38  39
ATOM     39  C   UNL A   1      37.506  32.554  31.345  1.00  0.00     0.031 A 
ATOM     40  C   UNL A   1      38.200  31.389  30.693  1.00  0.00     0.074 A 
ATOM     41  C   UNL A   1      37.896  32.976  32.564  1.00  0.00     0.049 A 
ATOM     42  N   UNL A   1      39.192  30.659  31.140  1.00  0.00    -0.248 NA
ATOM     43  C   UNL A   1      37.700  30.968  29.374  1.00  0.00     0.031 C 
ATOM     44  C   UNL A   1      37.271  34.061  33.324  1.00  0.00     0.029 A 
ATOM     45  N   UNL A   1      38.906  32.538  33.387  1.00  0.00    -0.354 N 
ATOM     46  C   UNL A   1      39.417  29.689  30.173  1.00  0.00     0.074 A 
ATOM     47  C   UNL A   1      38.433  29.890  29.133  1.00  0.00     0.031 C 
ATOM     48  C   UNL A   1      37.921  34.215  34.490  1.00  0.00     0.029 A 
ATOM     49  C   UNL A   1      38.981  33.217  34.580  1.00  0.00     0.049 A 
ATOM     50  H   UNL A   1      39.519  31.808  33.143  1.00  0.00     0.167 HD
ATOM     51  C   UNL A   1      40.371  28.729  30.148  1.00  0.00     0.037 A 
ATOM     52  C   UNL A   1      39.803  33.043  35.633  1.00  0.00     0.037 A 
ATOM     53  C   UNL A   1      41.376  28.558  31.166  1.00  0.00     0.049 A 
ATOM     54  C   UNL A   1      40.862  31.973  35.566  1.00  0.00     0.074 A 
ATOM     55  C   UNL A   1      42.438  27.671  31.185  1.00  0.00     0.029 A 
ATOM     56  N   UNL A   1      41.438  29.284  32.345  1.00  0.00    -0.354 N 
ATOM     57  N   UNL A   1      41.123  31.123  34.602  1.00  0.00    -0.248 NA
ATOM     58  C   UNL A   1      41.750  31.844  36.730  1.00  0.00     0.031 C 
ATOM     59  C   UNL A   1      43.105  27.814  32.405  1.00  0.00     0.029 A 
ATOM     60  C   UNL A   1      42.502  28.841  33.114  1.00  0.00     0.049 A 
ATOM     61  H   UNL A   1      40.820  30.007  32.597  1.00  0.00     0.167 HD
ATOM     62  C   UNL A   1      42.224  30.390  35.026  1.00  0.00     0.074 A 
ATOM     63  C   UNL A   1      42.593  30.907  36.327  1.00  0.00     0.031 C 
ATOM     64  C   UNL A   1      42.871  29.378  34.398  1.00  0.00     0.037 A 
BRANCH  51  65
ATOM     65  C   UNL A   1      40.391  27.776  28.987  1.00  0.00     0.064 A 
ATOM     66  C   UNL A   1      39.617  26.607  28.975  1.00  0.00     0.173 A 
ATOM     67  C   UNL A   1      41.128  28.087  27.833  1.00  0.00     0.173 A 
ATOM     68  F   UNL A   1      38.902  26.258  30.056  1.00  0.00    -0.203 F 
ATOM     69  C   UNL A   1      39.589  25.777  27.856  1.00  0.00     0.198 A 
ATOM     70  C   UNL A   1      41.073  27.272  26.706  1.00  0.00     0.198 A 
ATOM     71  F   UNL A   1      41.881  29.196  27.790  1.00  0.00    -0.203 F 
ATOM     72  F   UNL A   1      38.868  24.648  27.879  1.00  0.00    -0.200 F 
ATOM     73  C   UNL A   1      40.307  26.117  26.719  1.00  0.00     0.200 A 
ATOM     74  F   UNL A   1      41.754  27.611  25.603  1.00  0.00    -0.200 F 
ATOM     75  F   UNL A   1      40.260  25.330  25.635  1.00  0.00    -0.200 F 
ENDBRANCH  51  65
BRANCH  52  76
ATOM     76  C   UNL A   1      39.665  33.893  36.847  1.00  0.00     0.064 A 
ATOM     77  C   UNL A   1      38.880  33.483  37.936  1.00  0.00     0.173 A 
ATOM     78  C   UNL A   1      40.269  35.156  36.923  1.00  0.00     0.173 A 
ATOM     79  F   UNL A   1      38.265  32.292  37.908  1.00  0.00    -0.203 F 
ATOM     80  C   UNL A   1      38.669  34.322  39.029  1.00  0.00     0.198 A 
ATOM     81  C   UNL A   1      40.088  35.978  38.033  1.00  0.00     0.198 A 
ATOM     82  F   UNL A   1      41.037  35.596  35.914  1.00  0.00    -0.203 F 
ATOM     83  F   UNL A   1      37.852  33.935  40.019  1.00  0.00    -0.200 F 
ATOM     84  C   UNL A   1      39.275  35.567  39.078  1.00  0.00     0.200 A 
ATOM     85  F   UNL A   1      40.690  37.174  38.084  1.00  0.00    -0.200 F 
ATOM     86  F   UNL A   1      39.064  36.378  40.124  1.00  0.00    -0.200 F 
ENDBRANCH  52  76
BRANCH  64  87
ATOM     87  C   UNL A   1      44.078  28.800  35.081  1.00  0.00     0.064 A 
ATOM     88  C   UNL A   1      43.986  27.705  35.952  1.00  0.00     0.173 A 
ATOM     89  C   UNL A   1      45.352  29.333  34.831  1.00  0.00     0.173 A 
ATOM     90  F   UNL A   1      42.790  27.164  36.233  1.00  0.00    -0.203 F 
ATOM     91  C   UNL A   1      45.118  27.190  36.577  1.00  0.00     0.198 A 
ATOM     92  C   UNL A   1      46.487  28.792  35.428  1.00  0.00     0.198 A 
ATOM     93  F   UNL A   1      45.500  30.375  33.998  1.00  0.00    -0.203 F 
ATOM     94  F   UNL A   1      44.997  26.183  37.452  1.00  0.00    -0.200 F 
ATOM     95  C   UNL A   1      46.367  27.728  36.309  1.00  0.00     0.200 A 
ATOM     96  F   UNL A   1      47.695  29.302  35.152  1.00  0.00    -0.200 F 
ATOM     97  F   UNL A   1      47.457  27.227  36.907  1.00  0.00    -0.200 F 
ENDBRANCH  64  87
ENDBRANCH  38  39
ENDBRANCH  30  33
ENDBRANCH  28  29
ENDBRANCH  27  28
ENDBRANCH  26  27
ENDBRANCH   1  26
TORSDOF 17
ENDMDL
MODEL 3
REMARK VINA RESULT:     -12.2      1.537      2.394
REMARK SMILES CC[C@H]1SC[C@H](C(=O)NCCCCCCNC(=O)c2ccc(-c3c4nc(c(-c5c(F)c(F)c(F)c(F)c5F)c5ccc([nH]5)c(-c5c(F)c(F)c(F)c(F)c5F)c5nc(c(-c6c(F)c(F)c(F)c(F)c6F)c6ccc3[nH]6)C=C5)C=C4)cc2)N1C(=O)Cc1ccc(F)c(F)c1
REMARK SMILES IDX 12 1 11 2 10 3 9 4 7 5 8 6 6 8 3 9 4 10 82 11 5 12 2 13 1 14
REMARK SMILES IDX 83 15 84 16 85 17 86 18 87 19 93 20 88 21 91 22 89 23 92 24
REMARK SMILES IDX 90 25 13 26 14 27 15 28 16 29 17 30 18 32 19 33 20 34 81 35
REMARK SMILES IDX 21 36 80 37 22 38 23 39 24 40 74 41 25 42 79 43 73 44 75 45
REMARK SMILES IDX 26 46 78 47 72 48 71 49 27 51 59 52 39 53 58 54 40 55 43 56
REMARK SMILES IDX 57 57 76 58 41 59 42 60 56 62 77 63 44 64 28 65 29 66 37 67
REMARK SMILES IDX 30 68 31 69 35 70 38 71 32 72 33 73 36 74 34 75 60 76 61 77
REMARK SMILES IDX 69 78 62 79 63 80 67 81 70 82 64 83 65 84 68 85 66 86 45 87
REMARK SMILES IDX 46 88 54 89 47 90 48 91 52 92 55 93 49 94 50 95 53 96 51 97
REMARK H PARENT 9 7 16 31 75 50 43 61
REMARK Flexibility Score: inf
ROOT
ATOM      1  C   UNL A   1      32.343  29.589  27.119  1.00  0.00     0.002 C 
ENDROOT
BRANCH   1   2
ATOM      2  C   UNL A   1      31.630  28.267  27.412  1.00  0.00     0.021 C 
BRANCH   2   3
ATOM      3  C   UNL A   1      31.995  27.096  26.511  1.00  0.00     0.116 C 
BRANCH   3   4
ATOM      4  N   UNL A   1      31.241  25.871  26.728  1.00  0.00    -0.354 N 
ATOM      5  C   UNL A   1      31.703  24.567  26.653  1.00  0.00     0.243 C 
ATOM      6  O   UNL A   1      30.994  23.671  27.111  1.00  0.00    -0.273 OA
ATOM      7  H   UNL A   1      30.290  25.981  26.955  1.00  0.00     0.163 HD
BRANCH   5   8
ATOM      8  C   UNL A   1      33.097  24.312  26.016  1.00  0.00     0.185 C 
ATOM      9  C   UNL A   1      34.250  22.637  24.639  1.00  0.00     0.143 C 
ATOM     10  S   UNL A   1      34.243  21.878  26.271  1.00  0.00    -0.134 SA
ATOM     11  N   UNL A   1      33.148  23.591  24.714  1.00  0.00    -0.318 N 
ATOM     12  C   UNL A   1      33.908  23.476  27.038  1.00  0.00     0.107 C 
BRANCH   9  13
ATOM     13  C   UNL A   1      35.631  23.341  24.477  1.00  0.00     0.033 C 
ATOM     14  C   UNL A   1      36.371  22.921  23.214  1.00  0.00     0.007 C 
ENDBRANCH   9  13
BRANCH  11  15
ATOM     15  C   UNL A   1      32.414  24.031  23.616  1.00  0.00     0.228 C 
ATOM     16  O   UNL A   1      31.489  23.356  23.159  1.00  0.00    -0.274 OA
BRANCH  15  17
ATOM     17  C   UNL A   1      32.847  25.339  22.919  1.00  0.00     0.135 C 
BRANCH  17  18
ATOM     18  C   UNL A   1      31.884  26.514  22.953  1.00  0.00    -0.036 A 
ATOM     19  C   UNL A   1      32.333  27.842  22.847  1.00  0.00     0.007 A 
ATOM     20  C   UNL A   1      30.528  26.326  23.217  1.00  0.00     0.046 A 
ATOM     21  C   UNL A   1      31.447  28.920  23.025  1.00  0.00     0.043 A 
ATOM     22  C   UNL A   1      29.659  27.385  23.446  1.00  0.00     0.159 A 
ATOM     23  C   UNL A   1      30.116  28.682  23.350  1.00  0.00     0.158 A 
ATOM     24  F   UNL A   1      28.387  27.120  23.775  1.00  0.00    -0.204 F 
ATOM     25  F   UNL A   1      29.282  29.708  23.565  1.00  0.00    -0.204 F 
ENDBRANCH  17  18
ENDBRANCH  15  17
ENDBRANCH  11  15
ENDBRANCH   5   8
ENDBRANCH   3   4
ENDBRANCH   2   3
ENDBRANCH   1   2
BRANCH   1  26
ATOM     26  C   UNL A   1      31.622  30.586  26.203  1.00  0.00     0.002 C 
BRANCH  26  27
ATOM     27  C   UNL A   1      31.405  31.998  26.750  1.00  0.00     0.021 C 
BRANCH  27  28
ATOM     28  C   UNL A   1      32.664  32.770  27.129  1.00  0.00     0.116 C 
BRANCH  28  29
ATOM     29  N   UNL A   1      32.391  34.128  27.560  1.00  0.00    -0.352 N 
ATOM     30  C   UNL A   1      32.980  34.867  28.558  1.00  0.00     0.251 C 
ATOM     31  H   UNL A   1      31.677  34.590  27.064  1.00  0.00     0.163 HD
ATOM     32  O   UNL A   1      32.525  35.961  28.862  1.00  0.00    -0.269 OA
BRANCH  30  33
ATOM     33  C   UNL A   1      34.150  34.330  29.290  1.00  0.00     0.039 A 
ATOM     34  C   UNL A   1      33.929  33.638  30.484  1.00  0.00     0.014 A 
ATOM     35  C   UNL A   1      35.454  34.520  28.824  1.00  0.00     0.014 A 
ATOM     36  C   UNL A   1      35.010  33.091  31.180  1.00  0.00     0.010 A 
ATOM     37  C   UNL A   1      36.522  33.907  29.478  1.00  0.00     0.010 A 
ATOM     38  C   UNL A   1      36.313  33.193  30.668  1.00  0.00    -0.014 A 
BRANCH  38  39
ATOM     39  C   UNL A   1      37.462  32.567  31.372  1.00  0.00     0.031 A 
ATOM     40  C   UNL A   1      38.196  31.410  30.748  1.00  0.00     0.074 A 
ATOM     41  C   UNL A   1      37.813  33.007  32.597  1.00  0.00     0.049 A 
ATOM     42  N   UNL A   1      39.190  30.705  31.227  1.00  0.00    -0.248 NA
ATOM     43  C   UNL A   1      37.738  30.968  29.421  1.00  0.00     0.031 C 
ATOM     44  C   UNL A   1      37.148  34.086  33.331  1.00  0.00     0.029 A 
ATOM     45  N   UNL A   1      38.811  32.597  33.448  1.00  0.00    -0.354 N 
ATOM     46  C   UNL A   1      39.458  29.731  30.275  1.00  0.00     0.074 A 
ATOM     47  C   UNL A   1      38.497  29.904  29.209  1.00  0.00     0.031 C 
ATOM     48  C   UNL A   1      37.765  34.263  34.511  1.00  0.00     0.029 A 
ATOM     49  C   UNL A   1      38.842  33.287  34.636  1.00  0.00     0.049 A 
ATOM     50  H   UNL A   1      39.444  31.876  33.226  1.00  0.00     0.167 HD
ATOM     51  C   UNL A   1      40.432  28.790  30.282  1.00  0.00     0.037 A 
ATOM     52  C   UNL A   1      39.640  33.139  35.712  1.00  0.00     0.037 A 
ATOM     53  C   UNL A   1      41.413  28.648  31.327  1.00  0.00     0.049 A 
ATOM     54  C   UNL A   1      40.721  32.089  35.681  1.00  0.00     0.074 A 
ATOM     55  C   UNL A   1      42.492  27.782  31.380  1.00  0.00     0.029 A 
ATOM     56  N   UNL A   1      41.432  29.385  32.500  1.00  0.00    -0.354 N 
ATOM     57  N   UNL A   1      41.023  31.236  34.732  1.00  0.00    -0.248 NA
ATOM     58  C   UNL A   1      41.582  31.988  36.868  1.00  0.00     0.031 C 
ATOM     59  C   UNL A   1      43.125  27.949  32.615  1.00  0.00     0.029 A 
ATOM     60  C   UNL A   1      42.484  28.969  33.300  1.00  0.00     0.049 A 
ATOM     61  H   UNL A   1      40.793  30.097  32.730  1.00  0.00     0.167 HD
ATOM     62  C   UNL A   1      42.127  30.529  35.190  1.00  0.00     0.074 A 
ATOM     63  C   UNL A   1      42.454  31.065  36.495  1.00  0.00     0.031 C 
ATOM     64  C   UNL A   1      42.809  29.525  34.588  1.00  0.00     0.037 A 
BRANCH  51  65
ATOM     65  C   UNL A   1      40.499  27.827  29.131  1.00  0.00     0.064 A 
ATOM     66  C   UNL A   1      39.689  26.685  29.072  1.00  0.00     0.173 A 
ATOM     67  C   UNL A   1      41.325  28.103  28.030  1.00  0.00     0.173 A 
ATOM     68  F   UNL A   1      38.888  26.369  30.102  1.00  0.00    -0.203 F 
ATOM     69  C   UNL A   1      39.710  25.848  27.958  1.00  0.00     0.198 A 
ATOM     70  C   UNL A   1      41.321  27.281  26.906  1.00  0.00     0.198 A 
ATOM     71  F   UNL A   1      42.118  29.186  28.033  1.00  0.00    -0.203 F 
ATOM     72  F   UNL A   1      38.950  24.744  27.936  1.00  0.00    -0.200 F 
ATOM     73  C   UNL A   1      40.516  26.153  26.872  1.00  0.00     0.200 A 
ATOM     74  F   UNL A   1      42.089  27.589  25.851  1.00  0.00    -0.200 F 
ATOM     75  F   UNL A   1      40.518  25.360  25.792  1.00  0.00    -0.200 F 
ENDBRANCH  51  65
BRANCH  52  76
ATOM     76  C   UNL A   1      39.455  33.996  36.914  1.00  0.00     0.064 A 
ATOM     77  C   UNL A   1      40.043  35.268  36.998  1.00  0.00     0.173 A 
ATOM     78  C   UNL A   1      38.734  33.542  38.027  1.00  0.00     0.173 A 
ATOM     79  F   UNL A   1      40.760  35.743  35.968  1.00  0.00    -0.203 F 
ATOM     80  C   UNL A   1      39.955  36.028  38.162  1.00  0.00     0.198 A 
ATOM     81  C   UNL A   1      38.614  34.319  39.177  1.00  0.00     0.198 A 
ATOM     82  F   UNL A   1      38.144  32.337  38.000  1.00  0.00    -0.203 F 
ATOM     83  F   UNL A   1      40.592  37.205  38.240  1.00  0.00    -0.200 F 
ATOM     84  C   UNL A   1      39.239  35.555  39.250  1.00  0.00     0.200 A 
ATOM     85  F   UNL A   1      37.905  33.865  40.220  1.00  0.00    -0.200 F 
ATOM     86  F   UNL A   1      39.162  36.281  40.374  1.00  0.00    -0.200 F 
ENDBRANCH  52  76
BRANCH  64  87
ATOM     87  C   UNL A   1      44.010  28.976  35.305  1.00  0.00     0.064 A 
ATOM     88  C   UNL A   1      43.909  27.923  36.226  1.00  0.00     0.173 A 
ATOM     89  C   UNL A   1      45.288  29.495  35.042  1.00  0.00     0.173 A 
ATOM     90  F   UNL A   1      42.709  27.398  36.522  1.00  0.00    -0.203 F 
ATOM     91  C   UNL A   1      45.035  27.436  36.882  1.00  0.00     0.198 A 
ATOM     92  C   UNL A   1      46.416  28.980  35.672  1.00  0.00     0.198 A 
ATOM     93  F   UNL A   1      45.444  30.497  34.162  1.00  0.00    -0.203 F 
ATOM     94  F   UNL A   1      44.905  26.471  37.803  1.00  0.00    -0.200 F 
ATOM     95  C   UNL A   1      46.287  27.959  36.600  1.00  0.00     0.200 A 
ATOM     96  F   UNL A   1      47.628  29.475  35.382  1.00  0.00    -0.200 F 
ATOM     97  F   UNL A   1      47.372  27.483  37.229  1.00  0.00    -0.200 F 
ENDBRANCH  64  87
ENDBRANCH  38  39
ENDBRANCH  30  33
ENDBRANCH  28  29
ENDBRANCH  27  28
ENDBRANCH  26  27
ENDBRANCH   1  26
TORSDOF 17
ENDMDL
