MODEL 1
REMARK VINA RESULT:     -14.2      0.000      0.000
REMARK SMILES O=C(NCCCCCCNC(=O)c1ccn(-c2cc(-c3ccncc3)nc(-c3ccccc3F)n2)n1)c1ccc(-c2c3nc(c(-c4c(F)c(F)c(F)c(F)c4F)c4ccc([nH]4)c(-c4c(F)c(F)c(F)c(F)c4F)c4nc(c(-c5c(F)c(F)c(F)c(F)c5F)c5ccc2[nH]5)C=C4)C=C3)cc1
REMARK SMILES IDX 6 1 5 2 4 3 3 4 1 5 2 6 37 8 38 9 99 10 39 11 98 12 40 13
REMARK SMILES IDX 41 14 42 15 92 16 43 17 97 18 91 19 93 20 44 21 96 22 90 23
REMARK SMILES IDX 89 24 45 26 77 27 57 28 76 29 58 30 61 31 75 32 94 33 59 34
REMARK SMILES IDX 60 35 74 37 95 38 62 39 46 40 47 41 55 42 48 43 49 44 53 45
REMARK SMILES IDX 56 46 50 47 51 48 54 49 52 50 78 51 79 52 87 53 80 54 81 55
REMARK SMILES IDX 85 56 88 57 82 58 83 59 86 60 84 61 63 62 64 63 72 64 65 65
REMARK SMILES IDX 66 66 70 67 73 68 67 69 68 70 71 71 69 72 7 73 8 74 9 75
REMARK SMILES IDX 10 76 11 77 12 79 13 80 14 81 36 82 15 83 16 84 17 85 18 86
REMARK SMILES IDX 35 87 19 88 27 89 26 90 20 91 21 92 25 93 22 94 24 95 23 96
REMARK SMILES IDX 28 97 29 98 33 99 30 100 32 101 34 102 31 103
REMARK H PARENT 3 7 93 25 61 36 10 78
REMARK Flexibility Score: inf
ROOT
ATOM      1  C   UNL A   1      31.853  28.526  27.326  1.00  0.00     0.002 C 
ENDROOT
BRANCH   1   2
ATOM      2  C   UNL A   1      32.177  29.976  26.938  1.00  0.00     0.021 C 
BRANCH   2   3
ATOM      3  C   UNL A   1      33.650  30.349  27.077  1.00  0.00     0.116 C 
BRANCH   3   4
ATOM      4  N   UNL A   1      33.906  31.339  28.100  1.00  0.00    -0.352 N 
ATOM      5  O   UNL A   1      34.866  32.690  29.558  1.00  0.00    -0.269 OA
ATOM      6  C   UNL A   1      34.984  31.672  28.870  1.00  0.00     0.251 C 
ATOM      7  H   UNL A   1      33.121  31.904  28.285  1.00  0.00     0.163 HD
BRANCH   6   8
ATOM      8  C   UNL A   1      36.222  30.859  29.014  1.00  0.00     0.039 A 
ATOM      9  C   UNL A   1      36.297  29.488  29.268  1.00  0.00     0.014 A 
ATOM     10  C   UNL A   1      37.424  31.582  28.890  1.00  0.00     0.014 A 
ATOM     11  C   UNL A   1      37.534  28.889  29.520  1.00  0.00     0.010 A 
ATOM     12  C   UNL A   1      38.657  30.989  29.126  1.00  0.00     0.010 A 
ATOM     13  C   UNL A   1      38.711  29.652  29.496  1.00  0.00    -0.014 A 
BRANCH  13  14
ATOM     14  C   UNL A   1      40.013  28.985  29.594  1.00  0.00     0.031 A 
ATOM     15  C   UNL A   1      40.501  28.909  31.007  1.00  0.00     0.074 A 
ATOM     16  C   UNL A   1      40.628  28.357  28.562  1.00  0.00     0.049 A 
ATOM     17  N   UNL A   1      41.580  29.423  31.497  1.00  0.00    -0.248 NA
ATOM     18  C   UNL A   1      39.603  28.337  32.031  1.00  0.00     0.031 C 
ATOM     19  C   UNL A   1      40.139  28.170  27.192  1.00  0.00     0.029 A 
ATOM     20  N   UNL A   1      41.823  27.683  28.534  1.00  0.00    -0.354 N 
ATOM     21  C   UNL A   1      41.597  29.072  32.846  1.00  0.00     0.074 A 
ATOM     22  C   UNL A   1      40.294  28.547  33.153  1.00  0.00     0.031 C 
ATOM     23  C   UNL A   1      40.905  27.255  26.549  1.00  0.00     0.029 A 
ATOM     24  C   UNL A   1      42.023  26.888  27.396  1.00  0.00     0.049 A 
ATOM     25  H   UNL A   1      42.487  27.751  29.258  1.00  0.00     0.167 HD
ATOM     26  C   UNL A   1      42.765  29.020  33.542  1.00  0.00     0.037 A 
ATOM     27  C   UNL A   1      43.029  25.988  27.190  1.00  0.00     0.037 A 
ATOM     28  C   UNL A   1      43.792  29.783  32.886  1.00  0.00     0.049 A 
ATOM     29  C   UNL A   1      44.126  26.345  28.122  1.00  0.00     0.074 A 
ATOM     30  C   UNL A   1      43.961  31.121  32.594  1.00  0.00     0.029 A 
ATOM     31  N   UNL A   1      44.642  29.103  32.054  1.00  0.00    -0.354 N 
ATOM     32  N   UNL A   1      44.812  27.449  28.029  1.00  0.00    -0.248 NA
ATOM     33  C   UNL A   1      44.095  25.716  29.432  1.00  0.00     0.031 C 
ATOM     34  C   UNL A   1      44.525  31.142  31.285  1.00  0.00     0.029 A 
ATOM     35  C   UNL A   1      44.771  29.825  30.897  1.00  0.00     0.049 A 
ATOM     36  H   UNL A   1      45.083  28.245  32.253  1.00  0.00     0.167 HD
ATOM     37  C   UNL A   1      44.908  27.896  29.336  1.00  0.00     0.074 A 
ATOM     38  C   UNL A   1      44.466  26.770  30.161  1.00  0.00     0.031 C 
ATOM     39  C   UNL A   1      45.042  29.223  29.613  1.00  0.00     0.037 A 
BRANCH  26  40
ATOM     40  C   UNL A   1      43.067  27.979  34.590  1.00  0.00     0.064 A 
ATOM     41  C   UNL A   1      43.268  26.614  34.286  1.00  0.00     0.173 A 
ATOM     42  C   UNL A   1      43.451  28.375  35.886  1.00  0.00     0.173 A 
ATOM     43  F   UNL A   1      43.083  26.130  33.052  1.00  0.00    -0.203 F 
ATOM     44  C   UNL A   1      43.785  25.710  35.210  1.00  0.00     0.198 A 
ATOM     45  C   UNL A   1      44.017  27.474  36.795  1.00  0.00     0.198 A 
ATOM     46  F   UNL A   1      43.359  29.659  36.263  1.00  0.00    -0.203 F 
ATOM     47  F   UNL A   1      43.968  24.432  34.849  1.00  0.00    -0.200 F 
ATOM     48  C   UNL A   1      44.179  26.142  36.459  1.00  0.00     0.200 A 
ATOM     49  F   UNL A   1      44.462  27.914  37.980  1.00  0.00    -0.200 F 
ATOM     50  F   UNL A   1      44.758  25.287  37.311  1.00  0.00    -0.200 F 
ENDBRANCH  26  40
BRANCH  27  51
ATOM     51  C   UNL A   1      42.969  24.618  26.592  1.00  0.00     0.064 A 
ATOM     52  C   UNL A   1      42.537  23.515  27.351  1.00  0.00     0.173 A 
ATOM     53  C   UNL A   1      43.651  24.311  25.394  1.00  0.00     0.173 A 
ATOM     54  F   UNL A   1      41.939  23.695  28.537  1.00  0.00    -0.203 F 
ATOM     55  C   UNL A   1      42.805  22.197  26.965  1.00  0.00     0.198 A 
ATOM     56  C   UNL A   1      43.917  22.989  25.008  1.00  0.00     0.198 A 
ATOM     57  F   UNL A   1      44.143  25.295  24.626  1.00  0.00    -0.203 F 
ATOM     58  F   UNL A   1      42.440  21.186  27.765  1.00  0.00    -0.200 F 
ATOM     59  C   UNL A   1      43.507  21.934  25.804  1.00  0.00     0.200 A 
ATOM     60  F   UNL A   1      44.628  22.742  23.898  1.00  0.00    -0.200 F 
ATOM     61  F   UNL A   1      43.827  20.672  25.479  1.00  0.00    -0.200 F 
ENDBRANCH  27  51
BRANCH  39  62
ATOM     62  C   UNL A   1      45.315  30.164  28.470  1.00  0.00     0.064 A 
ATOM     63  C   UNL A   1      46.640  30.575  28.273  1.00  0.00     0.173 A 
ATOM     64  C   UNL A   1      44.322  30.791  27.696  1.00  0.00     0.173 A 
ATOM     65  F   UNL A   1      47.623  30.041  29.015  1.00  0.00    -0.203 F 
ATOM     66  C   UNL A   1      46.960  31.581  27.368  1.00  0.00     0.198 A 
ATOM     67  C   UNL A   1      44.650  31.776  26.761  1.00  0.00     0.198 A 
ATOM     68  F   UNL A   1      43.025  30.514  27.877  1.00  0.00    -0.203 F 
ATOM     69  F   UNL A   1      48.227  32.001  27.264  1.00  0.00    -0.200 F 
ATOM     70  C   UNL A   1      45.967  32.178  26.609  1.00  0.00     0.200 A 
ATOM     71  F   UNL A   1      43.687  32.370  26.040  1.00  0.00    -0.200 F 
ATOM     72  F   UNL A   1      46.277  33.164  25.755  1.00  0.00    -0.200 F 
ENDBRANCH  39  62
ENDBRANCH  13  14
ENDBRANCH   6   8
ENDBRANCH   3   4
ENDBRANCH   2   3
ENDBRANCH   1   2
BRANCH   1  73
ATOM     73  C   UNL A   1      31.478  27.599  26.161  1.00  0.00     0.002 C 
BRANCH  73  74
ATOM     74  C   UNL A   1      31.415  28.273  24.787  1.00  0.00     0.021 C 
BRANCH  74  75
ATOM     75  C   UNL A   1      32.512  27.832  23.822  1.00  0.00     0.116 C 
BRANCH  75  76
ATOM     76  N   UNL A   1      31.962  27.513  22.519  1.00  0.00    -0.351 N 
ATOM     77  C   UNL A   1      31.750  26.270  21.980  1.00  0.00     0.271 C 
ATOM     78  H   UNL A   1      31.710  28.280  21.954  1.00  0.00     0.163 HD
ATOM     79  O   UNL A   1      31.498  26.174  20.774  1.00  0.00    -0.267 OA
BRANCH  77  80
ATOM     80  C   UNL A   1      31.777  25.116  22.878  1.00  0.00     0.150 A 
ATOM     81  C   UNL A   1      30.653  24.440  23.423  1.00  0.00     0.056 A 
ATOM     82  N   UNL A   1      32.927  24.558  23.299  1.00  0.00    -0.161 NA
ATOM     83  C   UNL A   1      31.173  23.348  24.068  1.00  0.00     0.118 A 
ATOM     84  N   UNL A   1      32.538  23.418  23.920  1.00  0.00    -0.222 N 
BRANCH  84  85
ATOM     85  C   UNL A   1      33.471  22.439  24.344  1.00  0.00     0.158 A 
ATOM     86  C   UNL A   1      33.054  21.130  24.439  1.00  0.00     0.078 A 
ATOM     87  N   UNL A   1      34.731  22.842  24.617  1.00  0.00    -0.209 NA
ATOM     88  C   UNL A   1      34.026  20.216  24.785  1.00  0.00     0.077 A 
ATOM     89  C   UNL A   1      35.572  21.891  25.051  1.00  0.00     0.165 A 
ATOM     90  N   UNL A   1      35.277  20.582  25.137  1.00  0.00    -0.228 NA
BRANCH  88  91
ATOM     91  C   UNL A   1      33.759  18.779  24.731  1.00  0.00     0.003 A 
ATOM     92  C   UNL A   1      34.732  17.890  24.253  1.00  0.00     0.030 A 
ATOM     93  C   UNL A   1      32.528  18.254  25.128  1.00  0.00     0.030 A 
ATOM     94  C   UNL A   1      34.428  16.542  24.171  1.00  0.00     0.111 A 
ATOM     95  C   UNL A   1      32.315  16.890  25.000  1.00  0.00     0.111 A 
ATOM     96  N   UNL A   1      33.234  16.024  24.524  1.00  0.00    -0.265 NA
ENDBRANCH  88  91
BRANCH  89  97
ATOM     97  C   UNL A   1      36.859  22.345  25.557  1.00  0.00     0.055 A 
ATOM     98  C   UNL A   1      37.018  23.649  26.065  1.00  0.00     0.015 A 
ATOM     99  C   UNL A   1      37.982  21.513  25.531  1.00  0.00     0.134 A 
ATOM    100  C   UNL A   1      38.256  24.093  26.538  1.00  0.00     0.001 A 
ATOM    101  C   UNL A   1      39.223  21.953  25.993  1.00  0.00     0.040 A 
ATOM    102  F   UNL A   1      37.894  20.275  25.024  1.00  0.00    -0.206 F 
ATOM    103  C   UNL A   1      39.360  23.244  26.500  1.00  0.00     0.003 A 
ENDBRANCH  89  97
ENDBRANCH  84  85
ENDBRANCH  77  80
ENDBRANCH  75  76
ENDBRANCH  74  75
ENDBRANCH  73  74
ENDBRANCH   1  73
TORSDOF 16
ENDMDL
MODEL 2
REMARK VINA RESULT:     -14.2      3.394      9.379
REMARK SMILES O=C(NCCCCCCNC(=O)c1ccn(-c2cc(-c3ccncc3)nc(-c3ccccc3F)n2)n1)c1ccc(-c2c3nc(c(-c4c(F)c(F)c(F)c(F)c4F)c4ccc([nH]4)c(-c4c(F)c(F)c(F)c(F)c4F)c4nc(c(-c5c(F)c(F)c(F)c(F)c5F)c5ccc2[nH]5)C=C4)C=C3)cc1
REMARK SMILES IDX 6 1 5 2 4 3 3 4 1 5 2 6 37 8 38 9 99 10 39 11 98 12 40 13
REMARK SMILES IDX 41 14 42 15 92 16 43 17 97 18 91 19 93 20 44 21 96 22 90 23
REMARK SMILES IDX 89 24 45 26 77 27 57 28 76 29 58 30 61 31 75 32 94 33 59 34
REMARK SMILES IDX 60 35 74 37 95 38 62 39 46 40 47 41 55 42 48 43 49 44 53 45
REMARK SMILES IDX 56 46 50 47 51 48 54 49 52 50 78 51 79 52 87 53 80 54 81 55
REMARK SMILES IDX 85 56 88 57 82 58 83 59 86 60 84 61 63 62 64 63 72 64 65 65
REMARK SMILES IDX 66 66 70 67 73 68 67 69 68 70 71 71 69 72 7 73 8 74 9 75
REMARK SMILES IDX 10 76 11 77 12 79 13 80 14 81 36 82 15 83 16 84 17 85 18 86
REMARK SMILES IDX 35 87 19 88 27 89 26 90 20 91 21 92 25 93 22 94 24 95 23 96
REMARK SMILES IDX 28 97 29 98 33 99 30 100 32 101 34 102 31 103
REMARK H PARENT 3 7 93 25 61 36 10 78
REMARK Flexibility Score: inf
ROOT
ATOM      1  C   UNL A   1      35.775  21.990  24.177  1.00  0.00     0.002 C 
ENDROOT
BRANCH   1   2
ATOM      2  C   UNL A   1      37.024  22.809  24.536  1.00  0.00     0.021 C 
BRANCH   2   3
ATOM      3  C   UNL A   1      37.663  22.429  25.868  1.00  0.00     0.116 C 
BRANCH   3   4
ATOM      4  N   UNL A   1      39.088  22.195  25.784  1.00  0.00    -0.352 N 
ATOM      5  O   UNL A   1      41.270  22.221  26.119  1.00  0.00    -0.269 OA
ATOM      6  C   UNL A   1      40.196  22.800  26.306  1.00  0.00     0.251 C 
ATOM      7  H   UNL A   1      39.312  21.420  25.220  1.00  0.00     0.163 HD
BRANCH   6   8
ATOM      8  C   UNL A   1      40.215  24.127  26.980  1.00  0.00     0.039 A 
ATOM      9  C   UNL A   1      39.273  25.148  26.842  1.00  0.00     0.014 A 
ATOM     10  C   UNL A   1      41.319  24.347  27.826  1.00  0.00     0.014 A 
ATOM     11  C   UNL A   1      39.500  26.395  27.429  1.00  0.00     0.010 A 
ATOM     12  C   UNL A   1      41.543  25.580  28.422  1.00  0.00     0.010 A 
ATOM     13  C   UNL A   1      40.662  26.626  28.181  1.00  0.00    -0.014 A 
BRANCH  13  14
ATOM     14  C   UNL A   1      40.808  27.878  28.929  1.00  0.00     0.031 A 
ATOM     15  C   UNL A   1      41.991  28.672  28.469  1.00  0.00     0.074 A 
ATOM     16  C   UNL A   1      39.895  28.350  29.812  1.00  0.00     0.049 A 
ATOM     17  N   UNL A   1      43.023  29.023  29.163  1.00  0.00    -0.248 NA
ATOM     18  C   UNL A   1      42.121  28.969  27.028  1.00  0.00     0.031 C 
ATOM     19  C   UNL A   1      38.595  27.773  30.169  1.00  0.00     0.029 A 
ATOM     20  N   UNL A   1      39.906  29.509  30.548  1.00  0.00    -0.354 N 
ATOM     21  C   UNL A   1      43.838  29.754  28.300  1.00  0.00     0.074 A 
ATOM     22  C   UNL A   1      43.319  29.555  26.974  1.00  0.00     0.031 C 
ATOM     23  C   UNL A   1      37.861  28.679  30.861  1.00  0.00     0.029 A 
ATOM     24  C   UNL A   1      38.675  29.850  31.125  1.00  0.00     0.049 A 
ATOM     25  H   UNL A   1      40.716  30.056  30.660  1.00  0.00     0.167 HD
ATOM     26  C   UNL A   1      44.734  30.658  28.780  1.00  0.00     0.037 A 
ATOM     27  C   UNL A   1      38.359  31.020  31.754  1.00  0.00     0.037 A 
ATOM     28  C   UNL A   1      45.032  30.407  30.163  1.00  0.00     0.049 A 
ATOM     29  C   UNL A   1      39.638  31.650  32.162  1.00  0.00     0.074 A 
ATOM     30  C   UNL A   1      45.630  29.368  30.848  1.00  0.00     0.029 A 
ATOM     31  N   UNL A   1      44.319  31.113  31.096  1.00  0.00    -0.354 N 
ATOM     32  N   UNL A   1      40.433  31.138  33.060  1.00  0.00    -0.248 NA
ATOM     33  C   UNL A   1      40.251  32.556  31.204  1.00  0.00     0.031 C 
ATOM     34  C   UNL A   1      44.859  29.220  32.037  1.00  0.00     0.029 A 
ATOM     35  C   UNL A   1      43.908  30.240  32.069  1.00  0.00     0.049 A 
ATOM     36  H   UNL A   1      44.135  32.080  31.072  1.00  0.00     0.167 HD
ATOM     37  C   UNL A   1      41.696  31.282  32.512  1.00  0.00     0.074 A 
ATOM     38  C   UNL A   1      41.522  32.187  31.374  1.00  0.00     0.031 C 
ATOM     39  C   UNL A   1      42.701  30.422  32.839  1.00  0.00     0.037 A 
BRANCH  26  40
ATOM     40  C   UNL A   1      45.032  31.974  28.109  1.00  0.00     0.064 A 
ATOM     41  C   UNL A   1      46.190  32.199  27.331  1.00  0.00     0.173 A 
ATOM     42  C   UNL A   1      44.022  32.948  27.988  1.00  0.00     0.173 A 
ATOM     43  F   UNL A   1      47.167  31.288  27.237  1.00  0.00    -0.203 F 
ATOM     44  C   UNL A   1      46.339  33.320  26.518  1.00  0.00     0.198 A 
ATOM     45  C   UNL A   1      44.155  34.047  27.131  1.00  0.00     0.198 A 
ATOM     46  F   UNL A   1      42.856  32.806  28.635  1.00  0.00    -0.203 F 
ATOM     47  F   UNL A   1      47.458  33.462  25.791  1.00  0.00    -0.200 F 
ATOM     48  C   UNL A   1      45.315  34.235  26.401  1.00  0.00     0.200 A 
ATOM     49  F   UNL A   1      43.129  34.893  26.969  1.00  0.00    -0.200 F 
ATOM     50  F   UNL A   1      45.429  35.262  25.551  1.00  0.00    -0.200 F 
ENDBRANCH  26  40
BRANCH  27  51
ATOM     51  C   UNL A   1      37.116  31.845  31.656  1.00  0.00     0.064 A 
ATOM     52  C   UNL A   1      36.806  32.551  30.478  1.00  0.00     0.173 A 
ATOM     53  C   UNL A   1      36.398  32.230  32.809  1.00  0.00     0.173 A 
ATOM     54  F   UNL A   1      37.475  32.310  29.343  1.00  0.00    -0.203 F 
ATOM     55  C   UNL A   1      35.877  33.597  30.462  1.00  0.00     0.198 A 
ATOM     56  C   UNL A   1      35.466  33.278  32.790  1.00  0.00     0.198 A 
ATOM     57  F   UNL A   1      36.657  31.648  33.990  1.00  0.00    -0.203 F 
ATOM     58  F   UNL A   1      35.678  34.288  29.331  1.00  0.00    -0.200 F 
ATOM     59  C   UNL A   1      35.220  33.971  31.619  1.00  0.00     0.200 A 
ATOM     60  F   UNL A   1      34.857  33.658  33.924  1.00  0.00    -0.200 F 
ATOM     61  F   UNL A   1      34.388  35.024  31.613  1.00  0.00    -0.200 F 
ENDBRANCH  27  51
BRANCH  39  62
ATOM     62  C   UNL A   1      42.475  29.463  33.977  1.00  0.00     0.064 A 
ATOM     63  C   UNL A   1      43.088  29.755  35.201  1.00  0.00     0.173 A 
ATOM     64  C   UNL A   1      41.838  28.214  33.854  1.00  0.00     0.173 A 
ATOM     65  F   UNL A   1      43.747  30.914  35.359  1.00  0.00    -0.203 F 
ATOM     66  C   UNL A   1      43.092  28.839  36.247  1.00  0.00     0.198 A 
ATOM     67  C   UNL A   1      41.811  27.311  34.919  1.00  0.00     0.198 A 
ATOM     68  F   UNL A   1      41.296  27.824  32.694  1.00  0.00    -0.203 F 
ATOM     69  F   UNL A   1      43.755  29.123  37.376  1.00  0.00    -0.200 F 
ATOM     70  C   UNL A   1      42.450  27.620  36.109  1.00  0.00     0.200 A 
ATOM     71  F   UNL A   1      41.208  26.120  34.780  1.00  0.00    -0.200 F 
ATOM     72  F   UNL A   1      42.476  26.730  37.112  1.00  0.00    -0.200 F 
ENDBRANCH  39  62
ENDBRANCH  13  14
ENDBRANCH   6   8
ENDBRANCH   3   4
ENDBRANCH   2   3
ENDBRANCH   1   2
BRANCH   1  73
ATOM     73  C   UNL A   1      35.496  20.781  25.081  1.00  0.00     0.002 C 
BRANCH  73  74
ATOM     74  C   UNL A   1      34.103  20.752  25.718  1.00  0.00     0.021 C 
BRANCH  74  75
ATOM     75  C   UNL A   1      33.033  21.492  24.921  1.00  0.00     0.116 C 
BRANCH  75  76
ATOM     76  N   UNL A   1      31.757  21.458  25.607  1.00  0.00    -0.351 N 
ATOM     77  C   UNL A   1      30.851  22.478  25.742  1.00  0.00     0.271 C 
ATOM     78  H   UNL A   1      31.511  20.601  26.025  1.00  0.00     0.163 HD
ATOM     79  O   UNL A   1      29.927  22.356  26.553  1.00  0.00    -0.267 OA
BRANCH  77  80
ATOM     80  C   UNL A   1      30.991  23.644  24.871  1.00  0.00     0.150 A 
ATOM     81  C   UNL A   1      30.799  23.680  23.464  1.00  0.00     0.056 A 
ATOM     82  N   UNL A   1      31.338  24.856  25.341  1.00  0.00    -0.161 NA
ATOM     83  C   UNL A   1      30.891  25.004  23.125  1.00  0.00     0.118 A 
ATOM     84  N   UNL A   1      31.154  25.690  24.288  1.00  0.00    -0.222 N 
BRANCH  84  85
ATOM     85  C   UNL A   1      31.229  27.098  24.423  1.00  0.00     0.158 A 
ATOM     86  C   UNL A   1      30.454  27.881  23.597  1.00  0.00     0.078 A 
ATOM     87  N   UNL A   1      32.048  27.599  25.372  1.00  0.00    -0.209 NA
ATOM     88  C   UNL A   1      30.517  29.239  23.828  1.00  0.00     0.077 A 
ATOM     89  C   UNL A   1      32.119  28.938  25.442  1.00  0.00     0.165 A 
ATOM     90  N   UNL A   1      31.374  29.788  24.714  1.00  0.00    -0.228 NA
BRANCH  88  91
ATOM     91  C   UNL A   1      29.600  30.158  23.153  1.00  0.00     0.003 A 
ATOM     92  C   UNL A   1      28.922  31.148  23.877  1.00  0.00     0.030 A 
ATOM     93  C   UNL A   1      29.357  30.064  21.781  1.00  0.00     0.030 A 
ATOM     94  C   UNL A   1      28.027  31.970  23.213  1.00  0.00     0.111 A 
ATOM     95  C   UNL A   1      28.436  30.927  21.209  1.00  0.00     0.111 A 
ATOM     96  N   UNL A   1      27.761  31.873  21.895  1.00  0.00    -0.265 NA
ENDBRANCH  88  91
BRANCH  89  97
ATOM     97  C   UNL A   1      33.156  29.489  26.302  1.00  0.00     0.055 A 
ATOM     98  C   UNL A   1      34.374  28.807  26.496  1.00  0.00     0.015 A 
ATOM     99  C   UNL A   1      32.968  30.695  26.982  1.00  0.00     0.134 A 
ATOM    100  C   UNL A   1      35.366  29.326  27.333  1.00  0.00     0.001 A 
ATOM    101  C   UNL A   1      33.950  31.215  27.826  1.00  0.00     0.040 A 
ATOM    102  F   UNL A   1      31.813  31.366  26.861  1.00  0.00    -0.206 F 
ATOM    103  C   UNL A   1      35.153  30.530  28.000  1.00  0.00     0.003 A 
ENDBRANCH  89  97
ENDBRANCH  84  85
ENDBRANCH  77  80
ENDBRANCH  75  76
ENDBRANCH  74  75
ENDBRANCH  73  74
ENDBRANCH   1  73
TORSDOF 16
ENDMDL
MODEL 3
REMARK VINA RESULT:     -14.2      3.384      9.408
REMARK SMILES O=C(NCCCCCCNC(=O)c1ccn(-c2cc(-c3ccncc3)nc(-c3ccccc3F)n2)n1)c1ccc(-c2c3nc(c(-c4c(F)c(F)c(F)c(F)c4F)c4ccc([nH]4)c(-c4c(F)c(F)c(F)c(F)c4F)c4nc(c(-c5c(F)c(F)c(F)c(F)c5F)c5ccc2[nH]5)C=C4)C=C3)cc1
REMARK SMILES IDX 6 1 5 2 4 3 3 4 1 5 2 6 37 8 38 9 99 10 39 11 98 12 40 13
REMARK SMILES IDX 41 14 42 15 92 16 43 17 97 18 91 19 93 20 44 21 96 22 90 23
REMARK SMILES IDX 89 24 45 26 77 27 57 28 76 29 58 30 61 31 75 32 94 33 59 34
REMARK SMILES IDX 60 35 74 37 95 38 62 39 46 40 47 41 55 42 48 43 49 44 53 45
REMARK SMILES IDX 56 46 50 47 51 48 54 49 52 50 78 51 79 52 87 53 80 54 81 55
REMARK SMILES IDX 85 56 88 57 82 58 83 59 86 60 84 61 63 62 64 63 72 64 65 65
REMARK SMILES IDX 66 66 70 67 73 68 67 69 68 70 71 71 69 72 7 73 8 74 9 75
REMARK SMILES IDX 10 76 11 77 12 79 13 80 14 81 36 82 15 83 16 84 17 85 18 86
REMARK SMILES IDX 35 87 19 88 27 89 26 90 20 91 21 92 25 93 22 94 24 95 23 96
REMARK SMILES IDX 28 97 29 98 33 99 30 100 32 101 34 102 31 103
REMARK H PARENT 3 7 93 25 61 36 10 78
REMARK Flexibility Score: inf
ROOT
ATOM      1  C   UNL A   1      36.038  22.530  23.825  1.00  0.00     0.002 C 
ENDROOT
BRANCH   1   2
ATOM      2  C   UNL A   1      37.139  23.240  24.626  1.00  0.00     0.021 C 
BRANCH   2   3
ATOM      3  C   UNL A   1      37.542  22.525  25.911  1.00  0.00     0.116 C 
BRANCH   3   4
ATOM      4  N   UNL A   1      38.953  22.219  25.991  1.00  0.00    -0.352 N 
ATOM      5  O   UNL A   1      41.087  22.158  26.552  1.00  0.00    -0.269 OA
ATOM      6  C   UNL A   1      40.032  22.797  26.597  1.00  0.00     0.251 C 
ATOM      7  H   UNL A   1      39.193  21.404  25.491  1.00  0.00     0.163 HD
BRANCH   6   8
ATOM      8  C   UNL A   1      40.052  24.156  27.203  1.00  0.00     0.039 A 
ATOM      9  C   UNL A   1      39.019  25.095  27.185  1.00  0.00     0.014 A 
ATOM     10  C   UNL A   1      41.258  24.503  27.841  1.00  0.00     0.014 A 
ATOM     11  C   UNL A   1      39.236  26.385  27.674  1.00  0.00     0.010 A 
ATOM     12  C   UNL A   1      41.475  25.779  28.341  1.00  0.00     0.010 A 
ATOM     13  C   UNL A   1      40.483  26.742  28.210  1.00  0.00    -0.014 A 
BRANCH  13  14
ATOM     14  C   UNL A   1      40.646  28.040  28.871  1.00  0.00     0.031 A 
ATOM     15  C   UNL A   1      41.775  28.830  28.286  1.00  0.00     0.074 A 
ATOM     16  C   UNL A   1      39.781  28.545  29.784  1.00  0.00     0.049 A 
ATOM     17  N   UNL A   1      42.842  29.245  28.887  1.00  0.00    -0.248 NA
ATOM     18  C   UNL A   1      41.802  29.042  26.825  1.00  0.00     0.031 C 
ATOM     19  C   UNL A   1      38.524  27.963  30.262  1.00  0.00     0.029 A 
ATOM     20  N   UNL A   1      39.812  29.746  30.448  1.00  0.00    -0.354 N 
ATOM     21  C   UNL A   1      43.579  29.939  27.929  1.00  0.00     0.074 A 
ATOM     22  C   UNL A   1      42.978  29.649  26.655  1.00  0.00     0.031 C 
ATOM     23  C   UNL A   1      37.814  28.893  30.947  1.00  0.00     0.029 A 
ATOM     24  C   UNL A   1      38.613  30.095  31.086  1.00  0.00     0.049 A 
ATOM     25  H   UNL A   1      40.613  30.317  30.473  1.00  0.00     0.167 HD
ATOM     26  C   UNL A   1      44.482  30.890  28.293  1.00  0.00     0.037 A 
ATOM     27  C   UNL A   1      38.310  31.294  31.665  1.00  0.00     0.037 A 
ATOM     28  C   UNL A   1      44.877  30.729  29.665  1.00  0.00     0.049 A 
ATOM     29  C   UNL A   1      39.597  31.975  31.948  1.00  0.00     0.074 A 
ATOM     30  C   UNL A   1      45.545  29.747  30.368  1.00  0.00     0.029 A 
ATOM     31  N   UNL A   1      44.210  31.475  30.601  1.00  0.00    -0.354 N 
ATOM     32  N   UNL A   1      40.462  31.536  32.818  1.00  0.00    -0.248 NA
ATOM     33  C   UNL A   1      40.122  32.834  30.899  1.00  0.00     0.031 C 
ATOM     34  C   UNL A   1      44.858  29.654  31.613  1.00  0.00     0.029 A 
ATOM     35  C   UNL A   1      43.886  30.653  31.649  1.00  0.00     0.049 A 
ATOM     36  H   UNL A   1      44.000  32.435  30.533  1.00  0.00     0.167 HD
ATOM     37  C   UNL A   1      41.683  31.673  32.178  1.00  0.00     0.074 A 
ATOM     38  C   UNL A   1      41.410  32.503  31.004  1.00  0.00     0.031 C 
ATOM     39  C   UNL A   1      42.729  30.856  32.487  1.00  0.00     0.037 A 
BRANCH  26  40
ATOM     40  C   UNL A   1      44.701  32.169  27.527  1.00  0.00     0.064 A 
ATOM     41  C   UNL A   1      43.882  33.310  27.680  1.00  0.00     0.173 A 
ATOM     42  C   UNL A   1      45.912  32.379  26.838  1.00  0.00     0.173 A 
ATOM     43  F   UNL A   1      42.775  33.290  28.433  1.00  0.00    -0.203 F 
ATOM     44  C   UNL A   1      44.231  34.556  27.163  1.00  0.00     0.198 A 
ATOM     45  C   UNL A   1      46.282  33.644  26.365  1.00  0.00     0.198 A 
ATOM     46  F   UNL A   1      46.792  31.380  26.686  1.00  0.00    -0.203 F 
ATOM     47  F   UNL A   1      43.415  35.602  27.362  1.00  0.00    -0.200 F 
ATOM     48  C   UNL A   1      45.439  34.729  26.523  1.00  0.00     0.200 A 
ATOM     49  F   UNL A   1      47.487  33.819  25.807  1.00  0.00    -0.200 F 
ATOM     50  F   UNL A   1      45.808  35.947  26.108  1.00  0.00    -0.200 F 
ENDBRANCH  26  40
BRANCH  27  51
ATOM     51  C   UNL A   1      37.042  32.085  31.602  1.00  0.00     0.064 A 
ATOM     52  C   UNL A   1      36.664  32.755  30.424  1.00  0.00     0.173 A 
ATOM     53  C   UNL A   1      36.365  32.479  32.777  1.00  0.00     0.173 A 
ATOM     54  F   UNL A   1      37.290  32.504  29.266  1.00  0.00    -0.203 F 
ATOM     55  C   UNL A   1      35.708  33.776  30.425  1.00  0.00     0.198 A 
ATOM     56  C   UNL A   1      35.406  33.502  32.776  1.00  0.00     0.198 A 
ATOM     57  F   UNL A   1      36.690  31.931  33.959  1.00  0.00    -0.203 F 
ATOM     58  F   UNL A   1      35.442  34.435  29.289  1.00  0.00    -0.200 F 
ATOM     59  C   UNL A   1      35.091  34.161  31.601  1.00  0.00     0.200 A 
ATOM     60  F   UNL A   1      34.837  33.893  33.926  1.00  0.00    -0.200 F 
ATOM     61  F   UNL A   1      34.233  35.191  31.608  1.00  0.00    -0.200 F 
ENDBRANCH  27  51
BRANCH  39  62
ATOM     62  C   UNL A   1      42.602  29.963  33.692  1.00  0.00     0.064 A 
ATOM     63  C   UNL A   1      42.059  28.687  33.498  1.00  0.00     0.173 A 
ATOM     64  C   UNL A   1      42.828  30.374  35.018  1.00  0.00     0.173 A 
ATOM     65  F   UNL A   1      41.783  28.260  32.255  1.00  0.00    -0.203 F 
ATOM     66  C   UNL A   1      41.731  27.867  34.572  1.00  0.00     0.198 A 
ATOM     67  C   UNL A   1      42.532  29.534  36.094  1.00  0.00     0.198 A 
ATOM     68  F   UNL A   1      43.270  31.607  35.296  1.00  0.00    -0.203 F 
ATOM     69  F   UNL A   1      41.141  26.685  34.349  1.00  0.00    -0.200 F 
ATOM     70  C   UNL A   1      41.971  28.288  35.869  1.00  0.00     0.200 A 
ATOM     71  F   UNL A   1      42.744  29.949  37.353  1.00  0.00    -0.200 F 
ATOM     72  F   UNL A   1      41.631  27.503  36.903  1.00  0.00    -0.200 F 
ENDBRANCH  39  62
ENDBRANCH  13  14
ENDBRANCH   6   8
ENDBRANCH   3   4
ENDBRANCH   2   3
ENDBRANCH   1   2
BRANCH   1  73
ATOM     73  C   UNL A   1      35.358  21.353  24.537  1.00  0.00     0.002 C 
BRANCH  73  74
ATOM     74  C   UNL A   1      33.832  21.449  24.641  1.00  0.00     0.021 C 
BRANCH  74  75
ATOM     75  C   UNL A   1      33.333  22.171  25.889  1.00  0.00     0.116 C 
BRANCH  75  76
ATOM     76  N   UNL A   1      31.962  21.808  26.187  1.00  0.00    -0.351 N 
ATOM     77  C   UNL A   1      30.832  22.555  25.974  1.00  0.00     0.271 C 
ATOM     78  H   UNL A   1      31.825  20.920  26.589  1.00  0.00     0.163 HD
ATOM     79  O   UNL A   1      29.771  22.201  26.498  1.00  0.00    -0.267 OA
BRANCH  77  80
ATOM     80  C   UNL A   1      30.928  23.712  25.083  1.00  0.00     0.150 A 
ATOM     81  C   UNL A   1      30.657  23.733  23.690  1.00  0.00     0.056 A 
ATOM     82  N   UNL A   1      31.306  24.927  25.520  1.00  0.00    -0.161 NA
ATOM     83  C   UNL A   1      30.736  25.053  23.332  1.00  0.00     0.118 A 
ATOM     84  N   UNL A   1      31.067  25.750  24.470  1.00  0.00    -0.222 N 
BRANCH  84  85
ATOM     85  C   UNL A   1      31.156  27.159  24.584  1.00  0.00     0.158 A 
ATOM     86  C   UNL A   1      30.401  27.938  23.737  1.00  0.00     0.078 A 
ATOM     87  N   UNL A   1      31.968  27.666  25.538  1.00  0.00    -0.209 NA
ATOM     88  C   UNL A   1      30.475  29.298  23.948  1.00  0.00     0.077 A 
ATOM     89  C   UNL A   1      32.053  29.004  25.589  1.00  0.00     0.165 A 
ATOM     90  N   UNL A   1      31.327  29.851  24.838  1.00  0.00    -0.228 NA
BRANCH  88  91
ATOM     91  C   UNL A   1      29.579  30.217  23.247  1.00  0.00     0.003 A 
ATOM     92  C   UNL A   1      29.199  29.969  21.921  1.00  0.00     0.030 A 
ATOM     93  C   UNL A   1      29.096  31.373  23.864  1.00  0.00     0.030 A 
ATOM     94  C   UNL A   1      28.387  30.885  21.273  1.00  0.00     0.111 A 
ATOM     95  C   UNL A   1      28.295  32.233  23.129  1.00  0.00     0.111 A 
ATOM     96  N   UNL A   1      27.936  32.019  21.846  1.00  0.00    -0.265 NA
ENDBRANCH  88  91
BRANCH  89  97
ATOM     97  C   UNL A   1      33.084  29.557  26.454  1.00  0.00     0.055 A 
ATOM     98  C   UNL A   1      32.948  30.843  27.012  1.00  0.00     0.015 A 
ATOM     99  C   UNL A   1      34.252  28.843  26.736  1.00  0.00     0.134 A 
ATOM    100  C   UNL A   1      33.944  31.383  27.831  1.00  0.00     0.001 A 
ATOM    101  C   UNL A   1      35.254  29.379  27.546  1.00  0.00     0.040 A 
ATOM    102  F   UNL A   1      34.448  27.629  26.201  1.00  0.00    -0.206 F 
ATOM    103  C   UNL A   1      35.099  30.651  28.097  1.00  0.00     0.003 A 
ENDBRANCH  89  97
ENDBRANCH  84  85
ENDBRANCH  77  80
ENDBRANCH  75  76
ENDBRANCH  74  75
ENDBRANCH  73  74
ENDBRANCH   1  73
TORSDOF 16
ENDMDL
