MODEL 1
REMARK VINA RESULT:     -11.6      0.000      0.000
REMARK SMILES C[C@](O)(C(=O)NCCCCCCNC(=O)c1ccc(-c2c3nc(c(-c4c(F)c(F)c(F)c(F)c4F)c4ccc([nH]4)c(-c4c(F)c(F)c(F)c(F)c4F)c4nc(c(-c5c(F)c(F)c(F)c(F)c5F)c5ccc2[nH]5)C=C4)C=C3)cc1)c1ccc(O)cc1
REMARK SMILES IDX 9 1 8 2 7 3 6 4 4 5 5 6 2 8 1 9 79 10 80 11 85 12 81 13
REMARK SMILES IDX 84 14 82 15 83 16 3 18 10 20 11 21 12 22 13 23 14 24 15 26
REMARK SMILES IDX 16 27 17 28 78 29 18 30 77 31 19 32 20 33 21 34 71 35 22 36
REMARK SMILES IDX 76 37 70 38 72 39 23 40 75 41 69 42 68 43 24 45 56 46 36 47
REMARK SMILES IDX 55 48 37 49 40 50 54 51 73 52 38 53 39 54 53 56 74 57 41 58
REMARK SMILES IDX 25 59 26 60 34 61 27 62 28 63 32 64 35 65 29 66 30 67 33 68
REMARK SMILES IDX 31 69 57 70 58 71 66 72 59 73 60 74 64 75 67 76 61 77 62 78
REMARK SMILES IDX 65 79 63 80 42 81 43 82 51 83 44 84 45 85 49 86 52 87 46 88
REMARK SMILES IDX 47 89 50 90 48 91
REMARK H PARENT 6 7 83 17 3 19 13 25 72 44 40 55
REMARK Flexibility Score: inf
ROOT
ATOM      1  C   UNL A   1      32.464  29.922  26.611  1.00  0.00     0.002 C 
ENDROOT
BRANCH   1   2
ATOM      2  C   UNL A   1      31.807  28.742  27.335  1.00  0.00     0.021 C 
BRANCH   2   3
ATOM      3  C   UNL A   1      32.274  27.360  26.882  1.00  0.00     0.116 C 
BRANCH   3   4
ATOM      4  N   UNL A   1      31.225  26.364  26.989  1.00  0.00    -0.353 N 
ATOM      5  C   UNL A   1      30.811  25.409  26.101  1.00  0.00     0.256 C 
ATOM      6  O   UNL A   1      29.960  24.616  26.519  1.00  0.00    -0.271 OA
ATOM      7  H   UNL A   1      30.729  26.377  27.839  1.00  0.00     0.163 HD
BRANCH   5   8
ATOM      8  C   UNL A   1      31.428  25.322  24.654  1.00  0.00     0.165 C 
ATOM      9  C   UNL A   1      30.781  24.104  23.973  1.00  0.00     0.058 C 
BRANCH   8  10
ATOM     10  C   UNL A   1      31.252  26.630  23.855  1.00  0.00    -0.007 A 
ATOM     11  C   UNL A   1      32.352  27.363  23.372  1.00  0.00     0.011 A 
ATOM     12  C   UNL A   1      29.967  27.173  23.641  1.00  0.00     0.011 A 
ATOM     13  C   UNL A   1      32.174  28.555  22.666  1.00  0.00     0.046 A 
ATOM     14  C   UNL A   1      29.787  28.364  22.930  1.00  0.00     0.046 A 
ATOM     15  C   UNL A   1      30.896  29.042  22.440  1.00  0.00     0.115 A 
BRANCH  15  16
ATOM     16  O   UNL A   1      30.769  30.198  21.731  1.00  0.00    -0.508 OA
ATOM     17  H   UNL A   1      30.897  30.194  20.803  1.00  0.00     0.293 HD
ENDBRANCH  15  16
ENDBRANCH   8  10
BRANCH   8  18
ATOM     18  O   UNL A   1      32.842  25.087  24.698  1.00  0.00    -0.376 OA
ATOM     19  H   UNL A   1      33.281  25.627  24.022  1.00  0.00     0.212 HD
ENDBRANCH   8  18
ENDBRANCH   5   8
ENDBRANCH   3   4
ENDBRANCH   2   3
ENDBRANCH   1   2
BRANCH   1  20
ATOM     20  C   UNL A   1      31.511  30.868  25.875  1.00  0.00     0.002 C 
BRANCH  20  21
ATOM     21  C   UNL A   1      31.274  32.225  26.541  1.00  0.00     0.021 C 
BRANCH  21  22
ATOM     22  C   UNL A   1      32.475  32.814  27.274  1.00  0.00     0.116 C 
BRANCH  22  23
ATOM     23  N   UNL A   1      32.292  34.213  27.622  1.00  0.00    -0.352 N 
ATOM     24  C   UNL A   1      32.953  34.979  28.547  1.00  0.00     0.251 C 
ATOM     25  H   UNL A   1      31.587  34.680  27.118  1.00  0.00     0.163 HD
ATOM     26  O   UNL A   1      32.560  36.118  28.793  1.00  0.00    -0.269 OA
BRANCH  24  27
ATOM     27  C   UNL A   1      34.121  34.438  29.277  1.00  0.00     0.039 A 
ATOM     28  C   UNL A   1      33.908  33.811  30.507  1.00  0.00     0.014 A 
ATOM     29  C   UNL A   1      35.418  34.556  28.769  1.00  0.00     0.014 A 
ATOM     30  C   UNL A   1      34.983  33.248  31.197  1.00  0.00     0.010 A 
ATOM     31  C   UNL A   1      36.482  33.936  29.425  1.00  0.00     0.010 A 
ATOM     32  C   UNL A   1      36.274  33.275  30.644  1.00  0.00    -0.014 A 
BRANCH  32  33
ATOM     33  C   UNL A   1      37.405  32.593  31.324  1.00  0.00     0.031 A 
ATOM     34  C   UNL A   1      38.121  31.451  30.662  1.00  0.00     0.074 A 
ATOM     35  C   UNL A   1      37.753  32.975  32.567  1.00  0.00     0.049 A 
ATOM     36  N   UNL A   1      39.119  30.730  31.109  1.00  0.00    -0.248 NA
ATOM     37  C   UNL A   1      37.636  31.046  29.334  1.00  0.00     0.031 C 
ATOM     38  C   UNL A   1      37.099  34.033  33.338  1.00  0.00     0.029 A 
ATOM     39  N   UNL A   1      38.740  32.516  33.402  1.00  0.00    -0.354 N 
ATOM     40  C   UNL A   1      39.373  29.783  30.126  1.00  0.00     0.074 A 
ATOM     41  C   UNL A   1      38.393  29.988  29.081  1.00  0.00     0.031 C 
ATOM     42  C   UNL A   1      37.721  34.164  34.520  1.00  0.00     0.029 A 
ATOM     43  C   UNL A   1      38.797  33.180  34.603  1.00  0.00     0.049 A 
ATOM     44  H   UNL A   1      39.349  31.781  33.164  1.00  0.00     0.167 HD
ATOM     45  C   UNL A   1      40.349  28.843  30.089  1.00  0.00     0.037 A 
ATOM     46  C   UNL A   1      39.626  33.018  35.651  1.00  0.00     0.037 A 
ATOM     47  C   UNL A   1      41.338  28.658  31.118  1.00  0.00     0.049 A 
ATOM     48  C   UNL A   1      40.704  31.971  35.582  1.00  0.00     0.074 A 
ATOM     49  C   UNL A   1      42.415  27.788  31.136  1.00  0.00     0.029 A 
ATOM     50  N   UNL A   1      41.366  29.350  32.321  1.00  0.00    -0.354 N 
ATOM     51  N   UNL A   1      40.987  31.138  34.612  1.00  0.00    -0.248 NA
ATOM     52  C   UNL A   1      41.578  31.848  36.756  1.00  0.00     0.031 C 
ATOM     53  C   UNL A   1      43.067  27.922  32.367  1.00  0.00     0.029 A 
ATOM     54  C   UNL A   1      42.424  28.908  33.099  1.00  0.00     0.049 A 
ATOM     55  H   UNL A   1      40.729  30.054  32.581  1.00  0.00     0.167 HD
ATOM     56  C   UNL A   1      42.083  30.407  35.045  1.00  0.00     0.074 A 
ATOM     57  C   UNL A   1      42.426  30.907  36.361  1.00  0.00     0.031 C 
ATOM     58  C   UNL A   1      42.748  29.409  34.410  1.00  0.00     0.037 A 
BRANCH  45  59
ATOM     59  C   UNL A   1      40.391  27.940  28.890  1.00  0.00     0.064 A 
ATOM     60  C   UNL A   1      41.129  28.271  27.743  1.00  0.00     0.173 A 
ATOM     61  C   UNL A   1      39.705  26.716  28.896  1.00  0.00     0.173 A 
ATOM     62  F   UNL A   1      41.795  29.434  27.682  1.00  0.00    -0.203 F 
ATOM     63  C   UNL A   1      41.151  27.427  26.637  1.00  0.00     0.198 A 
ATOM     64  C   UNL A   1      39.753  25.860  27.799  1.00  0.00     0.198 A 
ATOM     65  F   UNL A   1      38.990  26.347  29.970  1.00  0.00    -0.203 F 
ATOM     66  F   UNL A   1      41.820  27.789  25.532  1.00  0.00    -0.200 F 
ATOM     67  C   UNL A   1      40.468  26.220  26.667  1.00  0.00     0.200 A 
ATOM     68  F   UNL A   1      39.102  24.690  27.834  1.00  0.00    -0.200 F 
ATOM     69  F   UNL A   1      40.492  25.408  25.600  1.00  0.00    -0.200 F 
ENDBRANCH  45  59
BRANCH  46  70
ATOM     70  C   UNL A   1      39.494  33.899  36.838  1.00  0.00     0.064 A 
ATOM     71  C   UNL A   1      38.744  33.492  37.950  1.00  0.00     0.173 A 
ATOM     72  C   UNL A   1      40.122  35.151  36.894  1.00  0.00     0.173 A 
ATOM     73  F   UNL A   1      38.109  32.311  37.934  1.00  0.00    -0.203 F 
ATOM     74  C   UNL A   1      38.616  34.312  39.070  1.00  0.00     0.198 A 
ATOM     75  C   UNL A   1      40.015  35.958  38.024  1.00  0.00     0.198 A 
ATOM     76  F   UNL A   1      40.854  35.582  35.857  1.00  0.00    -0.203 F 
ATOM     77  F   UNL A   1      37.865  33.915  40.106  1.00  0.00    -0.200 F 
ATOM     78  C   UNL A   1      39.257  35.541  39.109  1.00  0.00     0.200 A 
ATOM     79  F   UNL A   1      40.646  37.140  38.064  1.00  0.00    -0.200 F 
ATOM     80  F   UNL A   1      39.142  36.325  40.189  1.00  0.00    -0.200 F 
ENDBRANCH  46  70
BRANCH  58  81
ATOM     81  C   UNL A   1      43.920  28.806  35.127  1.00  0.00     0.064 A 
ATOM     82  C   UNL A   1      45.213  29.336  34.996  1.00  0.00     0.173 A 
ATOM     83  C   UNL A   1      43.745  27.701  35.973  1.00  0.00     0.173 A 
ATOM     84  F   UNL A   1      45.434  30.381  34.185  1.00  0.00    -0.203 F 
ATOM     85  C   UNL A   1      46.292  28.763  35.662  1.00  0.00     0.198 A 
ATOM     86  C   UNL A   1      44.822  27.148  36.661  1.00  0.00     0.198 A 
ATOM     87  F   UNL A   1      42.529  27.160  36.137  1.00  0.00    -0.203 F 
ATOM     88  F   UNL A   1      47.526  29.253  35.482  1.00  0.00    -0.200 F 
ATOM     89  C   UNL A   1      46.095  27.674  36.499  1.00  0.00     0.200 A 
ATOM     90  F   UNL A   1      44.629  26.104  37.478  1.00  0.00    -0.200 F 
ATOM     91  F   UNL A   1      47.135  27.125  37.142  1.00  0.00    -0.200 F 
ENDBRANCH  58  81
ENDBRANCH  32  33
ENDBRANCH  24  27
ENDBRANCH  22  23
ENDBRANCH  21  22
ENDBRANCH  20  21
ENDBRANCH   1  20
TORSDOF 16
ENDMDL
MODEL 2
REMARK VINA RESULT:     -11.6      0.555      7.510
REMARK SMILES C[C@](O)(C(=O)NCCCCCCNC(=O)c1ccc(-c2c3nc(c(-c4c(F)c(F)c(F)c(F)c4F)c4ccc([nH]4)c(-c4c(F)c(F)c(F)c(F)c4F)c4nc(c(-c5c(F)c(F)c(F)c(F)c5F)c5ccc2[nH]5)C=C4)C=C3)cc1)c1ccc(O)cc1
REMARK SMILES IDX 9 1 8 2 7 3 6 4 4 5 5 6 2 8 1 9 79 10 80 11 85 12 81 13
REMARK SMILES IDX 84 14 82 15 83 16 3 18 10 20 11 21 12 22 13 23 14 24 15 26
REMARK SMILES IDX 16 27 17 28 78 29 18 30 77 31 19 32 20 33 21 34 71 35 22 36
REMARK SMILES IDX 76 37 70 38 72 39 23 40 75 41 69 42 68 43 24 45 56 46 36 47
REMARK SMILES IDX 55 48 37 49 40 50 54 51 73 52 38 53 39 54 53 56 74 57 41 58
REMARK SMILES IDX 25 59 26 60 34 61 27 62 28 63 32 64 35 65 29 66 30 67 33 68
REMARK SMILES IDX 31 69 57 70 58 71 66 72 59 73 60 74 64 75 67 76 61 77 62 78
REMARK SMILES IDX 65 79 63 80 42 81 43 82 51 83 44 84 45 85 49 86 52 87 46 88
REMARK SMILES IDX 47 89 50 90 48 91
REMARK H PARENT 6 7 83 17 3 19 13 25 72 44 40 55
REMARK Flexibility Score: inf
ROOT
ATOM      1  C   UNL A   1      32.374  29.959  26.720  1.00  0.00     0.002 C 
ENDROOT
BRANCH   1   2
ATOM      2  C   UNL A   1      31.756  28.730  27.395  1.00  0.00     0.021 C 
BRANCH   2   3
ATOM      3  C   UNL A   1      32.245  27.383  26.866  1.00  0.00     0.116 C 
BRANCH   3   4
ATOM      4  N   UNL A   1      31.227  26.353  26.965  1.00  0.00    -0.353 N 
ATOM      5  C   UNL A   1      30.785  25.448  26.039  1.00  0.00     0.256 C 
ATOM      6  O   UNL A   1      29.979  24.606  26.451  1.00  0.00    -0.271 OA
ATOM      7  H   UNL A   1      30.783  26.296  27.841  1.00  0.00     0.163 HD
BRANCH   5   8
ATOM      8  C   UNL A   1      31.317  25.475  24.557  1.00  0.00     0.165 C 
ATOM      9  C   UNL A   1      30.680  24.272  23.840  1.00  0.00     0.058 C 
BRANCH   8  10
ATOM     10  C   UNL A   1      31.039  26.818  23.852  1.00  0.00    -0.007 A 
ATOM     11  C   UNL A   1      29.731  27.284  23.622  1.00  0.00     0.011 A 
ATOM     12  C   UNL A   1      32.102  27.598  23.347  1.00  0.00     0.011 A 
ATOM     13  C   UNL A   1      29.498  28.495  22.964  1.00  0.00     0.046 A 
ATOM     14  C   UNL A   1      31.870  28.812  22.693  1.00  0.00     0.046 A 
ATOM     15  C   UNL A   1      30.566  29.255  22.514  1.00  0.00     0.115 A 
BRANCH  15  16
ATOM     16  O   UNL A   1      30.292  30.437  21.896  1.00  0.00    -0.508 OA
ATOM     17  H   UNL A   1      30.058  31.188  22.404  1.00  0.00     0.293 HD
ENDBRANCH  15  16
ENDBRANCH   8  10
BRANCH   8  18
ATOM     18  O   UNL A   1      32.739  25.300  24.505  1.00  0.00    -0.376 OA
ATOM     19  H   UNL A   1      33.038  25.355  23.583  1.00  0.00     0.212 HD
ENDBRANCH   8  18
ENDBRANCH   5   8
ENDBRANCH   3   4
ENDBRANCH   2   3
ENDBRANCH   1   2
BRANCH   1  20
ATOM     20  C   UNL A   1      31.404  30.849  25.938  1.00  0.00     0.002 C 
BRANCH  20  21
ATOM     21  C   UNL A   1      31.279  32.292  26.432  1.00  0.00     0.021 C 
BRANCH  21  22
ATOM     22  C   UNL A   1      32.479  32.826  27.207  1.00  0.00     0.116 C 
BRANCH  22  23
ATOM     23  N   UNL A   1      32.304  34.202  27.640  1.00  0.00    -0.352 N 
ATOM     24  C   UNL A   1      32.987  34.915  28.591  1.00  0.00     0.251 C 
ATOM     25  H   UNL A   1      31.587  34.696  27.180  1.00  0.00     0.163 HD
ATOM     26  O   UNL A   1      32.599  36.037  28.911  1.00  0.00    -0.269 OA
BRANCH  24  27
ATOM     27  C   UNL A   1      34.172  34.335  29.260  1.00  0.00     0.039 A 
ATOM     28  C   UNL A   1      33.979  33.559  30.405  1.00  0.00     0.014 A 
ATOM     29  C   UNL A   1      35.466  34.561  28.780  1.00  0.00     0.014 A 
ATOM     30  C   UNL A   1      35.072  32.957  31.032  1.00  0.00     0.010 A 
ATOM     31  C   UNL A   1      36.550  33.908  29.365  1.00  0.00     0.010 A 
ATOM     32  C   UNL A   1      36.363  33.099  30.496  1.00  0.00    -0.014 A 
BRANCH  32  33
ATOM     33  C   UNL A   1      37.517  32.384  31.099  1.00  0.00     0.031 A 
ATOM     34  C   UNL A   1      38.014  32.749  32.468  1.00  0.00     0.074 A 
ATOM     35  C   UNL A   1      38.153  31.437  30.384  1.00  0.00     0.049 A 
ATOM     36  N   UNL A   1      39.013  32.244  33.147  1.00  0.00    -0.248 NA
ATOM     37  C   UNL A   1      37.312  33.842  33.157  1.00  0.00     0.031 C 
ATOM     38  C   UNL A   1      37.802  31.032  29.022  1.00  0.00     0.029 A 
ATOM     39  N   UNL A   1      39.228  30.645  30.700  1.00  0.00    -0.354 N 
ATOM     40  C   UNL A   1      39.068  32.964  34.334  1.00  0.00     0.074 A 
ATOM     41  C   UNL A   1      38.033  33.973  34.261  1.00  0.00     0.031 C 
ATOM     42  C   UNL A   1      38.625  30.046  28.631  1.00  0.00     0.029 A 
ATOM     43  C   UNL A   1      39.580  29.770  29.701  1.00  0.00     0.049 A 
ATOM     44  H   UNL A   1      39.702  30.699  31.561  1.00  0.00     0.167 HD
ATOM     45  C   UNL A   1      39.892  32.785  35.395  1.00  0.00     0.037 A 
ATOM     46  C   UNL A   1      40.559  28.848  29.655  1.00  0.00     0.037 A 
ATOM     47  C   UNL A   1      40.904  31.763  35.475  1.00  0.00     0.049 A 
ATOM     48  C   UNL A   1      41.455  28.665  30.848  1.00  0.00     0.074 A 
ATOM     49  C   UNL A   1      41.733  31.450  36.538  1.00  0.00     0.029 A 
ATOM     50  N   UNL A   1      41.231  30.894  34.444  1.00  0.00    -0.354 N 
ATOM     51  N   UNL A   1      41.442  29.294  31.997  1.00  0.00    -0.248 NA
ATOM     52  C   UNL A   1      42.500  27.638  30.736  1.00  0.00     0.031 C 
ATOM     53  C   UNL A   1      42.593  30.421  36.134  1.00  0.00     0.029 A 
ATOM     54  C   UNL A   1      42.269  30.063  34.835  1.00  0.00     0.049 A 
ATOM     55  H   UNL A   1      40.790  30.871  33.564  1.00  0.00     0.167 HD
ATOM     56  C   UNL A   1      42.458  28.729  32.753  1.00  0.00     0.074 A 
ATOM     57  C   UNL A   1      43.057  27.691  31.938  1.00  0.00     0.031 C 
ATOM     58  C   UNL A   1      42.860  29.040  34.011  1.00  0.00     0.037 A 
BRANCH  45  59
ATOM     59  C   UNL A   1      39.729  33.718  36.560  1.00  0.00     0.064 A 
ATOM     60  C   UNL A   1      40.386  34.957  36.609  1.00  0.00     0.173 A 
ATOM     61  C   UNL A   1      38.886  33.381  37.630  1.00  0.00     0.173 A 
ATOM     62  F   UNL A   1      41.211  35.323  35.616  1.00  0.00    -0.203 F 
ATOM     63  C   UNL A   1      40.231  35.808  37.700  1.00  0.00     0.198 A 
ATOM     64  C   UNL A   1      38.711  34.247  38.705  1.00  0.00     0.198 A 
ATOM     65  F   UNL A   1      38.228  32.212  37.630  1.00  0.00    -0.203 F 
ATOM     66  F   UNL A   1      40.911  36.963  37.749  1.00  0.00    -0.200 F 
ATOM     67  C   UNL A   1      39.391  35.455  38.745  1.00  0.00     0.200 A 
ATOM     68  F   UNL A   1      37.889  33.910  39.708  1.00  0.00    -0.200 F 
ATOM     69  F   UNL A   1      39.242  36.277  39.793  1.00  0.00    -0.200 F 
ENDBRANCH  45  59
BRANCH  46  70
ATOM     70  C   UNL A   1      40.712  27.997  28.448  1.00  0.00     0.064 A 
ATOM     71  C   UNL A   1      41.502  28.420  27.371  1.00  0.00     0.173 A 
ATOM     72  C   UNL A   1      40.091  26.744  28.352  1.00  0.00     0.173 A 
ATOM     73  F   UNL A   1      42.099  29.620  27.410  1.00  0.00    -0.203 F 
ATOM     74  C   UNL A   1      41.654  27.627  26.235  1.00  0.00     0.198 A 
ATOM     75  C   UNL A   1      40.264  25.941  27.227  1.00  0.00     0.198 A 
ATOM     76  F   UNL A   1      39.329  26.294  29.360  1.00  0.00    -0.203 F 
ATOM     77  F   UNL A   1      42.386  28.071  25.204  1.00  0.00    -0.200 F 
ATOM     78  C   UNL A   1      41.040  26.386  26.167  1.00  0.00     0.200 A 
ATOM     79  F   UNL A   1      39.680  24.736  27.170  1.00  0.00    -0.200 F 
ATOM     80  F   UNL A   1      41.194  25.619  25.079  1.00  0.00    -0.200 F 
ENDBRANCH  46  70
BRANCH  58  81
ATOM     81  C   UNL A   1      43.992  28.238  34.584  1.00  0.00     0.064 A 
ATOM     82  C   UNL A   1      45.324  28.665  34.474  1.00  0.00     0.173 A 
ATOM     83  C   UNL A   1      43.740  27.041  35.271  1.00  0.00     0.173 A 
ATOM     84  F   UNL A   1      45.617  29.794  33.811  1.00  0.00    -0.203 F 
ATOM     85  C   UNL A   1      46.364  27.909  35.005  1.00  0.00     0.198 A 
ATOM     86  C   UNL A   1      44.781  26.302  35.827  1.00  0.00     0.198 A 
ATOM     87  F   UNL A   1      42.483  26.592  35.409  1.00  0.00    -0.203 F 
ATOM     88  F   UNL A   1      47.633  28.310  34.843  1.00  0.00    -0.200 F 
ATOM     89  C   UNL A   1      46.091  26.731  35.686  1.00  0.00     0.200 A 
ATOM     90  F   UNL A   1      44.515  25.171  36.495  1.00  0.00    -0.200 F 
ATOM     91  F   UNL A   1      47.094  26.006  36.199  1.00  0.00    -0.200 F 
ENDBRANCH  58  81
ENDBRANCH  32  33
ENDBRANCH  24  27
ENDBRANCH  22  23
ENDBRANCH  21  22
ENDBRANCH  20  21
ENDBRANCH   1  20
TORSDOF 16
ENDMDL
MODEL 3
REMARK VINA RESULT:     -11.4      5.433      9.967
REMARK SMILES C[C@](O)(C(=O)NCCCCCCNC(=O)c1ccc(-c2c3nc(c(-c4c(F)c(F)c(F)c(F)c4F)c4ccc([nH]4)c(-c4c(F)c(F)c(F)c(F)c4F)c4nc(c(-c5c(F)c(F)c(F)c(F)c5F)c5ccc2[nH]5)C=C4)C=C3)cc1)c1ccc(O)cc1
REMARK SMILES IDX 9 1 8 2 7 3 6 4 4 5 5 6 2 8 1 9 79 10 80 11 85 12 81 13
REMARK SMILES IDX 84 14 82 15 83 16 3 18 10 20 11 21 12 22 13 23 14 24 15 26
REMARK SMILES IDX 16 27 17 28 78 29 18 30 77 31 19 32 20 33 21 34 71 35 22 36
REMARK SMILES IDX 76 37 70 38 72 39 23 40 75 41 69 42 68 43 24 45 56 46 36 47
REMARK SMILES IDX 55 48 37 49 40 50 54 51 73 52 38 53 39 54 53 56 74 57 41 58
REMARK SMILES IDX 25 59 26 60 34 61 27 62 28 63 32 64 35 65 29 66 30 67 33 68
REMARK SMILES IDX 31 69 57 70 58 71 66 72 59 73 60 74 64 75 67 76 61 77 62 78
REMARK SMILES IDX 65 79 63 80 42 81 43 82 51 83 44 84 45 85 49 86 52 87 46 88
REMARK SMILES IDX 47 89 50 90 48 91
REMARK H PARENT 6 7 83 17 3 19 13 25 72 44 40 55
REMARK Flexibility Score: inf
ROOT
ATOM      1  C   UNL A   1      42.330  23.059  28.077  1.00  0.00     0.002 C 
ENDROOT
BRANCH   1   2
ATOM      2  C   UNL A   1      43.693  23.272  28.746  1.00  0.00     0.021 C 
BRANCH   2   3
ATOM      3  C   UNL A   1      44.807  23.747  27.816  1.00  0.00     0.116 C 
BRANCH   3   4
ATOM      4  N   UNL A   1      45.492  22.641  27.172  1.00  0.00    -0.353 N 
ATOM      5  C   UNL A   1      45.648  22.344  25.845  1.00  0.00     0.256 C 
ATOM      6  O   UNL A   1      46.389  21.388  25.591  1.00  0.00    -0.271 OA
ATOM      7  H   UNL A   1      45.912  22.001  27.790  1.00  0.00     0.163 HD
BRANCH   5   8
ATOM      8  C   UNL A   1      44.948  23.208  24.730  1.00  0.00     0.165 C 
ATOM      9  C   UNL A   1      43.500  22.698  24.625  1.00  0.00     0.058 C 
BRANCH   8  10
ATOM     10  C   UNL A   1      45.040  24.722  25.008  1.00  0.00    -0.007 A 
ATOM     11  C   UNL A   1      43.893  25.526  25.144  1.00  0.00     0.011 A 
ATOM     12  C   UNL A   1      46.294  25.367  25.067  1.00  0.00     0.011 A 
ATOM     13  C   UNL A   1      43.995  26.900  25.377  1.00  0.00     0.046 A 
ATOM     14  C   UNL A   1      46.397  26.742  25.305  1.00  0.00     0.046 A 
ATOM     15  C   UNL A   1      45.243  27.496  25.466  1.00  0.00     0.115 A 
BRANCH  15  16
ATOM     16  O   UNL A   1      45.294  28.835  25.713  1.00  0.00    -0.508 OA
ATOM     17  H   UNL A   1      44.624  29.243  26.226  1.00  0.00     0.293 HD
ENDBRANCH  15  16
ENDBRANCH   8  10
BRANCH   8  18
ATOM     18  O   UNL A   1      45.563  23.014  23.450  1.00  0.00    -0.376 OA
ATOM     19  H   UNL A   1      45.557  23.851  22.958  1.00  0.00     0.212 HD
ENDBRANCH   8  18
ENDBRANCH   5   8
ENDBRANCH   3   4
ENDBRANCH   2   3
ENDBRANCH   1   2
BRANCH   1  20
ATOM     20  C   UNL A   1      41.531  21.848  28.564  1.00  0.00     0.002 C 
BRANCH  20  21
ATOM     21  C   UNL A   1      40.790  21.062  27.480  1.00  0.00     0.021 C 
BRANCH  21  22
ATOM     22  C   UNL A   1      40.680  21.754  26.126  1.00  0.00     0.116 C 
BRANCH  22  23
ATOM     23  N   UNL A   1      39.307  22.047  25.751  1.00  0.00    -0.352 N 
ATOM     24  C   UNL A   1      38.530  23.135  26.054  1.00  0.00     0.251 C 
ATOM     25  H   UNL A   1      38.870  21.361  25.197  1.00  0.00     0.163 HD
ATOM     26  O   UNL A   1      37.337  23.138  25.755  1.00  0.00    -0.269 OA
BRANCH  24  27
ATOM     27  C   UNL A   1      39.106  24.298  26.766  1.00  0.00     0.039 A 
ATOM     28  C   UNL A   1      39.885  25.204  26.043  1.00  0.00     0.014 A 
ATOM     29  C   UNL A   1      38.898  24.492  28.135  1.00  0.00     0.014 A 
ATOM     30  C   UNL A   1      40.403  26.336  26.675  1.00  0.00     0.010 A 
ATOM     31  C   UNL A   1      39.358  25.655  28.750  1.00  0.00     0.010 A 
ATOM     32  C   UNL A   1      40.114  26.589  28.026  1.00  0.00    -0.014 A 
BRANCH  32  33
ATOM     33  C   UNL A   1      40.578  27.839  28.680  1.00  0.00     0.031 A 
ATOM     34  C   UNL A   1      42.016  28.005  29.082  1.00  0.00     0.074 A 
ATOM     35  C   UNL A   1      39.686  28.808  28.961  1.00  0.00     0.049 A 
ATOM     36  N   UNL A   1      42.598  29.018  29.673  1.00  0.00    -0.248 NA
ATOM     37  C   UNL A   1      42.915  26.874  28.807  1.00  0.00     0.031 C 
ATOM     38  C   UNL A   1      38.253  28.742  28.672  1.00  0.00     0.029 A 
ATOM     39  N   UNL A   1      39.851  30.035  29.552  1.00  0.00    -0.354 N 
ATOM     40  C   UNL A   1      43.923  28.643  29.851  1.00  0.00     0.074 A 
ATOM     41  C   UNL A   1      44.049  27.292  29.350  1.00  0.00     0.031 C 
ATOM     42  C   UNL A   1      37.674  29.891  29.058  1.00  0.00     0.029 A 
ATOM     43  C   UNL A   1      38.689  30.760  29.648  1.00  0.00     0.049 A 
ATOM     44  H   UNL A   1      40.720  30.364  29.877  1.00  0.00     0.167 HD
ATOM     45  C   UNL A   1      44.946  29.370  30.365  1.00  0.00     0.037 A 
ATOM     46  C   UNL A   1      38.466  31.988  30.151  1.00  0.00     0.037 A 
ATOM     47  C   UNL A   1      44.824  30.724  30.839  1.00  0.00     0.049 A 
ATOM     48  C   UNL A   1      39.619  32.775  30.710  1.00  0.00     0.074 A 
ATOM     49  C   UNL A   1      45.816  31.571  31.301  1.00  0.00     0.029 A 
ATOM     50  N   UNL A   1      43.630  31.427  30.920  1.00  0.00    -0.354 N 
ATOM     51  N   UNL A   1      40.883  32.443  30.795  1.00  0.00    -0.248 NA
ATOM     52  C   UNL A   1      39.311  34.110  31.239  1.00  0.00     0.031 C 
ATOM     53  C   UNL A   1      45.217  32.770  31.705  1.00  0.00     0.029 A 
ATOM     54  C   UNL A   1      43.856  32.687  31.451  1.00  0.00     0.049 A 
ATOM     55  H   UNL A   1      42.752  31.082  30.639  1.00  0.00     0.167 HD
ATOM     56  C   UNL A   1      41.526  33.532  31.365  1.00  0.00     0.074 A 
ATOM     57  C   UNL A   1      40.514  34.544  31.589  1.00  0.00     0.031 C 
ATOM     58  C   UNL A   1      42.839  33.681  31.675  1.00  0.00     0.037 A 
BRANCH  45  59
ATOM     59  C   UNL A   1      46.292  28.708  30.440  1.00  0.00     0.064 A 
ATOM     60  C   UNL A   1      47.211  28.786  29.382  1.00  0.00     0.173 A 
ATOM     61  C   UNL A   1      46.678  28.009  31.593  1.00  0.00     0.173 A 
ATOM     62  F   UNL A   1      46.887  29.433  28.253  1.00  0.00    -0.203 F 
ATOM     63  C   UNL A   1      48.452  28.159  29.464  1.00  0.00     0.198 A 
ATOM     64  C   UNL A   1      47.931  27.409  31.683  1.00  0.00     0.198 A 
ATOM     65  F   UNL A   1      45.840  27.911  32.637  1.00  0.00    -0.203 F 
ATOM     66  F   UNL A   1      49.292  28.202  28.420  1.00  0.00    -0.200 F 
ATOM     67  C   UNL A   1      48.813  27.476  30.615  1.00  0.00     0.200 A 
ATOM     68  F   UNL A   1      48.283  26.760  32.801  1.00  0.00    -0.200 F 
ATOM     69  F   UNL A   1      50.009  26.876  30.692  1.00  0.00    -0.200 F 
ENDBRANCH  45  59
BRANCH  46  70
ATOM     70  C   UNL A   1      37.099  32.565  30.108  1.00  0.00     0.064 A 
ATOM     71  C   UNL A   1      36.213  32.383  31.179  1.00  0.00     0.173 A 
ATOM     72  C   UNL A   1      36.656  33.318  29.013  1.00  0.00     0.173 A 
ATOM     73  F   UNL A   1      36.586  31.652  32.240  1.00  0.00    -0.203 F 
ATOM     74  C   UNL A   1      34.928  32.922  31.149  1.00  0.00     0.198 A 
ATOM     75  C   UNL A   1      35.381  33.879  28.994  1.00  0.00     0.198 A 
ATOM     76  F   UNL A   1      37.470  33.523  27.966  1.00  0.00    -0.203 F 
ATOM     77  F   UNL A   1      34.088  32.704  32.170  1.00  0.00    -0.200 F 
ATOM     78  C   UNL A   1      34.516  33.675  30.060  1.00  0.00     0.200 A 
ATOM     79  F   UNL A   1      34.990  34.617  27.946  1.00  0.00    -0.200 F 
ATOM     80  F   UNL A   1      33.284  34.202  30.035  1.00  0.00    -0.200 F 
ENDBRANCH  46  70
BRANCH  58  81
ATOM     81  C   UNL A   1      43.252  34.992  32.277  1.00  0.00     0.064 A 
ATOM     82  C   UNL A   1      43.278  35.187  33.667  1.00  0.00     0.173 A 
ATOM     83  C   UNL A   1      43.650  36.058  31.457  1.00  0.00     0.173 A 
ATOM     84  F   UNL A   1      42.889  34.204  34.492  1.00  0.00    -0.203 F 
ATOM     85  C   UNL A   1      43.658  36.410  34.211  1.00  0.00     0.198 A 
ATOM     86  C   UNL A   1      44.059  37.271  32.006  1.00  0.00     0.198 A 
ATOM     87  F   UNL A   1      43.649  35.922  30.122  1.00  0.00    -0.203 F 
ATOM     88  F   UNL A   1      43.626  36.590  35.539  1.00  0.00    -0.200 F 
ATOM     89  C   UNL A   1      44.054  37.449  33.381  1.00  0.00     0.200 A 
ATOM     90  F   UNL A   1      44.451  38.270  31.203  1.00  0.00    -0.200 F 
ATOM     91  F   UNL A   1      44.423  38.624  33.907  1.00  0.00    -0.200 F 
ENDBRANCH  58  81
ENDBRANCH  32  33
ENDBRANCH  24  27
ENDBRANCH  22  23
ENDBRANCH  21  22
ENDBRANCH  20  21
ENDBRANCH   1  20
TORSDOF 16
ENDMDL
