MODEL 1
REMARK VINA RESULT:     -10.8      0.000      0.000
REMARK SMILES C[C@H]([NH2+]C[C@]1(C)CCCO1)[C@H](C)C(=O)NCCCCCCNC(=O)c1ccc(-c2c3nc(c(-c4c(F)c(F)c(F)c(F)c4F)c4ccc([nH]4)c(-c4c(F)c(F)c(F)c(F)c4F)c4nc(c(-c5c(F)c(F)c(F)c(F)c5F)c5ccc2[nH]5)C=C4)C=C3)cc1
REMARK SMILES IDX 17 1 16 2 15 3 13 4 14 5 11 7 12 8 2 9 1 10 3 11 4 14 5 15
REMARK SMILES IDX 7 16 10 17 6 18 8 19 9 20 18 21 19 22 20 23 21 24 22 25
REMARK SMILES IDX 23 26 24 28 25 29 26 30 87 31 27 32 86 33 28 34 29 35 30 36
REMARK SMILES IDX 80 37 31 38 85 39 79 40 81 41 32 42 84 43 78 44 77 45 33 47
REMARK SMILES IDX 65 48 45 49 64 50 46 51 49 52 63 53 82 54 47 55 48 56 62 58
REMARK SMILES IDX 83 59 50 60 34 61 35 62 43 63 36 64 37 65 41 66 44 67 38 68
REMARK SMILES IDX 39 69 42 70 40 71 66 72 67 73 75 74 68 75 69 76 73 77 76 78
REMARK SMILES IDX 70 79 71 80 74 81 72 82 51 83 52 84 60 85 53 86 54 87 58 88
REMARK SMILES IDX 61 89 55 90 56 91 59 92 57 93
REMARK H PARENT 15 6 3 12 3 13 22 27 81 46 49 57
REMARK Flexibility Score: inf
ROOT
ATOM      1  C   UNL A   1      36.977  23.568  24.915  1.00  0.00     0.021 C 
ENDROOT
BRANCH   1   2
ATOM      2  C   UNL A   1      35.791  24.032  25.753  1.00  0.00     0.116 C 
BRANCH   2   3
ATOM      3  N   UNL A   1      35.373  22.991  26.666  1.00  0.00    -0.356 N 
ATOM      4  C   UNL A   1      34.153  22.447  26.892  1.00  0.00     0.228 C 
ATOM      5  O   UNL A   1      34.050  21.656  27.835  1.00  0.00    -0.275 OA
ATOM      6  H   UNL A   1      36.098  22.614  27.216  1.00  0.00     0.163 HD
BRANCH   4   7
ATOM      7  C   UNL A   1      32.943  22.783  26.033  1.00  0.00     0.133 C 
ATOM      8  C   UNL A   1      32.612  21.622  25.087  1.00  0.00     0.024 C 
BRANCH   7   9
ATOM      9  C   UNL A   1      31.703  23.298  26.810  1.00  0.00     0.191 C 
ATOM     10  C   UNL A   1      30.441  22.519  26.400  1.00  0.00     0.076 C 
BRANCH   9  11
ATOM     11  N   UNL A   1      31.436  24.741  26.780  1.00  0.00    -0.341 N 
ATOM     12  H   UNL A   1      31.524  25.091  27.734  1.00  0.00     0.346 HD
ATOM     13  H   UNL A   1      30.504  24.832  26.376  1.00  0.00     0.346 HD
BRANCH  11  14
ATOM     14  C   UNL A   1      32.307  25.558  25.925  1.00  0.00     0.296 C 
BRANCH  14  15
ATOM     15  C   UNL A   1      31.770  27.018  25.793  1.00  0.00     0.114 C 
ATOM     16  C   UNL A   1      32.931  28.021  25.779  1.00  0.00     0.043 C 
ATOM     17  O   UNL A   1      30.996  27.335  26.979  1.00  0.00    -0.369 OA
ATOM     18  C   UNL A   1      30.864  27.175  24.564  1.00  0.00     0.048 C 
ATOM     19  C   UNL A   1      33.127  28.332  27.242  1.00  0.00     0.032 C 
ATOM     20  C   UNL A   1      31.706  28.311  27.755  1.00  0.00     0.161 C 
ENDBRANCH  14  15
ENDBRANCH  11  14
ENDBRANCH   9  11
ENDBRANCH   7   9
ENDBRANCH   4   7
ENDBRANCH   2   3
ENDBRANCH   1   2
BRANCH   1  21
ATOM     21  C   UNL A   1      37.637  22.286  25.434  1.00  0.00     0.002 C 
BRANCH  21  22
ATOM     22  C   UNL A   1      37.347  21.032  24.602  1.00  0.00     0.002 C 
BRANCH  22  23
ATOM     23  C   UNL A   1      38.238  19.830  24.921  1.00  0.00     0.021 C 
BRANCH  23  24
ATOM     24  C   UNL A   1      39.294  20.095  25.988  1.00  0.00     0.116 C 
BRANCH  24  25
ATOM     25  N   UNL A   1      40.328  19.073  25.998  1.00  0.00    -0.352 N 
ATOM     26  C   UNL A   1      41.687  19.223  26.082  1.00  0.00     0.251 C 
ATOM     27  H   UNL A   1      40.007  18.144  25.938  1.00  0.00     0.163 HD
ATOM     28  O   UNL A   1      42.433  18.265  25.885  1.00  0.00    -0.269 OA
BRANCH  26  29
ATOM     29  C   UNL A   1      42.257  20.549  26.390  1.00  0.00     0.039 A 
ATOM     30  C   UNL A   1      42.673  21.366  25.337  1.00  0.00     0.014 A 
ATOM     31  C   UNL A   1      42.374  20.985  27.712  1.00  0.00     0.014 A 
ATOM     32  C   UNL A   1      43.158  22.646  25.608  1.00  0.00     0.010 A 
ATOM     33  C   UNL A   1      42.784  22.287  27.976  1.00  0.00     0.010 A 
ATOM     34  C   UNL A   1      43.186  23.129  26.928  1.00  0.00    -0.014 A 
BRANCH  34  35
ATOM     35  C   UNL A   1      43.635  24.510  27.230  1.00  0.00     0.031 A 
ATOM     36  C   UNL A   1      42.651  25.528  27.738  1.00  0.00     0.074 A 
ATOM     37  C   UNL A   1      44.911  24.864  26.990  1.00  0.00     0.049 A 
ATOM     38  N   UNL A   1      42.833  26.799  27.996  1.00  0.00    -0.248 NA
ATOM     39  C   UNL A   1      41.273  25.062  27.959  1.00  0.00     0.031 C 
ATOM     40  C   UNL A   1      45.947  23.977  26.457  1.00  0.00     0.029 A 
ATOM     41  N   UNL A   1      45.555  26.065  27.153  1.00  0.00    -0.354 N 
ATOM     42  C   UNL A   1      41.594  27.283  28.397  1.00  0.00     0.074 A 
ATOM     43  C   UNL A   1      40.657  26.186  28.292  1.00  0.00     0.031 C 
ATOM     44  C   UNL A   1      47.099  24.657  26.358  1.00  0.00     0.029 A 
ATOM     45  C   UNL A   1      46.876  26.037  26.780  1.00  0.00     0.049 A 
ATOM     46  H   UNL A   1      45.110  26.871  27.502  1.00  0.00     0.167 HD
ATOM     47  C   UNL A   1      41.275  28.524  28.836  1.00  0.00     0.037 A 
ATOM     48  C   UNL A   1      47.800  27.016  26.773  1.00  0.00     0.037 A 
ATOM     49  C   UNL A   1      42.217  29.606  28.955  1.00  0.00     0.049 A 
ATOM     50  C   UNL A   1      47.414  28.391  27.246  1.00  0.00     0.074 A 
ATOM     51  C   UNL A   1      42.006  30.884  29.440  1.00  0.00     0.029 A 
ATOM     52  N   UNL A   1      43.551  29.536  28.577  1.00  0.00    -0.354 N 
ATOM     53  N   UNL A   1      46.257  28.821  27.689  1.00  0.00    -0.248 NA
ATOM     54  C   UNL A   1      48.466  29.418  27.225  1.00  0.00     0.031 C 
ATOM     55  C   UNL A   1      43.197  31.605  29.306  1.00  0.00     0.029 A 
ATOM     56  C   UNL A   1      44.168  30.759  28.794  1.00  0.00     0.049 A 
ATOM     57  H   UNL A   1      43.993  28.738  28.209  1.00  0.00     0.167 HD
ATOM     58  C   UNL A   1      46.448  30.153  28.028  1.00  0.00     0.074 A 
ATOM     59  C   UNL A   1      47.837  30.458  27.752  1.00  0.00     0.031 C 
ATOM     60  C   UNL A   1      45.553  31.045  28.522  1.00  0.00     0.037 A 
BRANCH  47  61
ATOM     61  C   UNL A   1      39.845  28.778  29.218  1.00  0.00     0.064 A 
ATOM     62  C   UNL A   1      38.901  29.232  28.284  1.00  0.00     0.173 A 
ATOM     63  C   UNL A   1      39.404  28.535  30.528  1.00  0.00     0.173 A 
ATOM     64  F   UNL A   1      39.272  29.490  27.020  1.00  0.00    -0.203 F 
ATOM     65  C   UNL A   1      37.579  29.465  28.654  1.00  0.00     0.198 A 
ATOM     66  C   UNL A   1      38.073  28.737  30.887  1.00  0.00     0.198 A 
ATOM     67  F   UNL A   1      40.261  28.095  31.461  1.00  0.00    -0.203 F 
ATOM     68  F   UNL A   1      36.710  29.952  27.757  1.00  0.00    -0.200 F 
ATOM     69  C   UNL A   1      37.164  29.211  29.953  1.00  0.00     0.200 A 
ATOM     70  F   UNL A   1      37.670  28.476  32.138  1.00  0.00    -0.200 F 
ATOM     71  F   UNL A   1      35.890  29.429  30.306  1.00  0.00    -0.200 F 
ENDBRANCH  47  61
BRANCH  48  72
ATOM     72  C   UNL A   1      49.186  26.725  26.321  1.00  0.00     0.064 A 
ATOM     73  C   UNL A   1      50.145  26.229  27.216  1.00  0.00     0.173 A 
ATOM     74  C   UNL A   1      49.583  26.939  24.993  1.00  0.00     0.173 A 
ATOM     75  F   UNL A   1      49.820  26.027  28.501  1.00  0.00    -0.203 F 
ATOM     76  C   UNL A   1      51.453  25.980  26.804  1.00  0.00     0.198 A 
ATOM     77  C   UNL A   1      50.882  26.661  24.576  1.00  0.00     0.198 A 
ATOM     78  F   UNL A   1      48.702  27.408  24.096  1.00  0.00    -0.203 F 
ATOM     79  F   UNL A   1      52.362  25.553  27.691  1.00  0.00    -0.200 F 
ATOM     80  C   UNL A   1      51.819  26.190  25.483  1.00  0.00     0.200 A 
ATOM     81  F   UNL A   1      51.227  26.851  23.295  1.00  0.00    -0.200 F 
ATOM     82  F   UNL A   1      53.076  25.947  25.087  1.00  0.00    -0.200 F 
ENDBRANCH  48  72
BRANCH  60  83
ATOM     83  C   UNL A   1      46.057  32.425  28.836  1.00  0.00     0.064 A 
ATOM     84  C   UNL A   1      46.615  32.742  30.082  1.00  0.00     0.173 A 
ATOM     85  C   UNL A   1      46.020  33.431  27.858  1.00  0.00     0.173 A 
ATOM     86  F   UNL A   1      46.662  31.819  31.056  1.00  0.00    -0.203 F 
ATOM     87  C   UNL A   1      47.093  34.023  30.348  1.00  0.00     0.198 A 
ATOM     88  C   UNL A   1      46.528  34.701  28.115  1.00  0.00     0.198 A 
ATOM     89  F   UNL A   1      45.502  33.178  26.646  1.00  0.00    -0.203 F 
ATOM     90  F   UNL A   1      47.576  34.317  31.562  1.00  0.00    -0.200 F 
ATOM     91  C   UNL A   1      47.057  34.998  29.362  1.00  0.00     0.200 A 
ATOM     92  F   UNL A   1      46.506  35.636  27.156  1.00  0.00    -0.200 F 
ATOM     93  F   UNL A   1      47.525  36.227  29.616  1.00  0.00    -0.200 F 
ENDBRANCH  60  83
ENDBRANCH  34  35
ENDBRANCH  26  29
ENDBRANCH  24  25
ENDBRANCH  23  24
ENDBRANCH  22  23
ENDBRANCH  21  22
ENDBRANCH   1  21
TORSDOF 17
ENDMDL
MODEL 2
REMARK VINA RESULT:     -10.6      2.216      8.213
REMARK SMILES C[C@H]([NH2+]C[C@]1(C)CCCO1)[C@H](C)C(=O)NCCCCCCNC(=O)c1ccc(-c2c3nc(c(-c4c(F)c(F)c(F)c(F)c4F)c4ccc([nH]4)c(-c4c(F)c(F)c(F)c(F)c4F)c4nc(c(-c5c(F)c(F)c(F)c(F)c5F)c5ccc2[nH]5)C=C4)C=C3)cc1
REMARK SMILES IDX 17 1 16 2 15 3 13 4 14 5 11 7 12 8 2 9 1 10 3 11 4 14 5 15
REMARK SMILES IDX 7 16 10 17 6 18 8 19 9 20 18 21 19 22 20 23 21 24 22 25
REMARK SMILES IDX 23 26 24 28 25 29 26 30 87 31 27 32 86 33 28 34 29 35 30 36
REMARK SMILES IDX 80 37 31 38 85 39 79 40 81 41 32 42 84 43 78 44 77 45 33 47
REMARK SMILES IDX 65 48 45 49 64 50 46 51 49 52 63 53 82 54 47 55 48 56 62 58
REMARK SMILES IDX 83 59 50 60 34 61 35 62 43 63 36 64 37 65 41 66 44 67 38 68
REMARK SMILES IDX 39 69 42 70 40 71 66 72 67 73 75 74 68 75 69 76 73 77 76 78
REMARK SMILES IDX 70 79 71 80 74 81 72 82 51 83 52 84 60 85 53 86 54 87 58 88
REMARK SMILES IDX 61 89 55 90 56 91 59 92 57 93
REMARK H PARENT 15 6 3 12 3 13 22 27 81 46 49 57
REMARK Flexibility Score: inf
ROOT
ATOM      1  C   UNL A   1      39.454  23.155  26.942  1.00  0.00     0.021 C 
ENDROOT
BRANCH   1   2
ATOM      2  C   UNL A   1      38.221  23.905  26.452  1.00  0.00     0.116 C 
BRANCH   2   3
ATOM      3  N   UNL A   1      37.863  23.480  25.116  1.00  0.00    -0.356 N 
ATOM      4  C   UNL A   1      36.654  23.224  24.561  1.00  0.00     0.228 C 
ATOM      5  O   UNL A   1      36.642  22.740  23.425  1.00  0.00    -0.275 OA
ATOM      6  H   UNL A   1      38.628  23.355  24.508  1.00  0.00     0.163 HD
BRANCH   4   7
ATOM      7  C   UNL A   1      35.349  23.511  25.289  1.00  0.00     0.133 C 
ATOM      8  C   UNL A   1      34.653  24.738  24.687  1.00  0.00     0.024 C 
BRANCH   7   9
ATOM      9  C   UNL A   1      34.398  22.296  25.446  1.00  0.00     0.191 C 
ATOM     10  C   UNL A   1      34.576  21.639  26.825  1.00  0.00     0.076 C 
BRANCH   9  11
ATOM     11  N   UNL A   1      34.426  21.273  24.393  1.00  0.00    -0.341 N 
ATOM     12  H   UNL A   1      35.231  21.466  23.797  1.00  0.00     0.346 HD
ATOM     13  H   UNL A   1      33.522  21.346  23.926  1.00  0.00     0.346 HD
BRANCH  11  14
ATOM     14  C   UNL A   1      34.520  19.875  24.830  1.00  0.00     0.296 C 
BRANCH  14  15
ATOM     15  C   UNL A   1      33.316  19.030  24.306  1.00  0.00     0.114 C 
ATOM     16  C   UNL A   1      32.551  18.398  25.476  1.00  0.00     0.043 C 
ATOM     17  O   UNL A   1      33.833  17.917  23.532  1.00  0.00    -0.369 OA
ATOM     18  C   UNL A   1      32.394  19.865  23.405  1.00  0.00     0.048 C 
ATOM     19  C   UNL A   1      33.261  17.081  25.671  1.00  0.00     0.032 C 
ATOM     20  C   UNL A   1      33.595  16.698  24.248  1.00  0.00     0.161 C 
ENDBRANCH  14  15
ENDBRANCH  11  14
ENDBRANCH   9  11
ENDBRANCH   7   9
ENDBRANCH   4   7
ENDBRANCH   2   3
ENDBRANCH   1   2
BRANCH   1  21
ATOM     21  C   UNL A   1      39.785  21.904  26.121  1.00  0.00     0.002 C 
BRANCH  21  22
ATOM     22  C   UNL A   1      41.203  21.360  26.322  1.00  0.00     0.002 C 
BRANCH  22  23
ATOM     23  C   UNL A   1      41.364  19.867  26.030  1.00  0.00     0.021 C 
BRANCH  23  24
ATOM     24  C   UNL A   1      42.724  19.294  26.411  1.00  0.00     0.116 C 
BRANCH  24  25
ATOM     25  N   UNL A   1      43.503  18.911  25.245  1.00  0.00    -0.352 N 
ATOM     26  C   UNL A   1      44.287  19.692  24.437  1.00  0.00     0.251 C 
ATOM     27  H   UNL A   1      43.462  17.958  25.002  1.00  0.00     0.163 HD
ATOM     28  O   UNL A   1      44.726  19.249  23.378  1.00  0.00    -0.269 OA
BRANCH  26  29
ATOM     29  C   UNL A   1      44.586  21.082  24.835  1.00  0.00     0.039 A 
ATOM     30  C   UNL A   1      44.125  22.128  24.034  1.00  0.00     0.014 A 
ATOM     31  C   UNL A   1      45.316  21.349  25.997  1.00  0.00     0.014 A 
ATOM     32  C   UNL A   1      44.348  23.448  24.428  1.00  0.00     0.010 A 
ATOM     33  C   UNL A   1      45.470  22.662  26.428  1.00  0.00     0.010 A 
ATOM     34  C   UNL A   1      44.994  23.724  25.645  1.00  0.00    -0.014 A 
BRANCH  34  35
ATOM     35  C   UNL A   1      45.182  25.120  26.114  1.00  0.00     0.031 A 
ATOM     36  C   UNL A   1      46.540  25.761  26.045  1.00  0.00     0.074 A 
ATOM     37  C   UNL A   1      44.145  25.785  26.658  1.00  0.00     0.049 A 
ATOM     38  N   UNL A   1      46.919  26.942  26.465  1.00  0.00    -0.248 NA
ATOM     39  C   UNL A   1      47.620  24.959  25.450  1.00  0.00     0.031 C 
ATOM     40  C   UNL A   1      42.791  25.252  26.820  1.00  0.00     0.029 A 
ATOM     41  N   UNL A   1      44.069  27.050  27.186  1.00  0.00    -0.354 N 
ATOM     42  C   UNL A   1      48.280  27.018  26.195  1.00  0.00     0.074 A 
ATOM     43  C   UNL A   1      48.671  25.745  25.631  1.00  0.00     0.031 C 
ATOM     44  C   UNL A   1      42.015  26.189  27.385  1.00  0.00     0.029 A 
ATOM     45  C   UNL A   1      42.823  27.373  27.664  1.00  0.00     0.049 A 
ATOM     46  H   UNL A   1      44.836  27.666  27.219  1.00  0.00     0.167 HD
ATOM     47  C   UNL A   1      49.120  28.064  26.379  1.00  0.00     0.037 A 
ATOM     48  C   UNL A   1      42.385  28.495  28.266  1.00  0.00     0.037 A 
ATOM     49  C   UNL A   1      48.720  29.335  26.925  1.00  0.00     0.049 A 
ATOM     50  C   UNL A   1      43.344  29.635  28.477  1.00  0.00     0.074 A 
ATOM     51  C   UNL A   1      49.483  30.476  27.101  1.00  0.00     0.029 A 
ATOM     52  N   UNL A   1      47.446  29.628  27.389  1.00  0.00    -0.354 N 
ATOM     53  N   UNL A   1      44.612  29.722  28.155  1.00  0.00    -0.248 NA
ATOM     54  C   UNL A   1      42.809  30.837  29.131  1.00  0.00     0.031 C 
ATOM     55  C   UNL A   1      48.684  31.443  27.722  1.00  0.00     0.029 A 
ATOM     56  C   UNL A   1      47.408  30.926  27.876  1.00  0.00     0.049 A 
ATOM     57  H   UNL A   1      46.683  29.008  27.375  1.00  0.00     0.167 HD
ATOM     58  C   UNL A   1      45.017  30.993  28.537  1.00  0.00     0.074 A 
ATOM     59  C   UNL A   1      43.856  31.648  29.102  1.00  0.00     0.031 C 
ATOM     60  C   UNL A   1      46.242  31.566  28.429  1.00  0.00     0.037 A 
BRANCH  47  61
ATOM     61  C   UNL A   1      50.559  27.876  25.989  1.00  0.00     0.064 A 
ATOM     62  C   UNL A   1      51.547  27.574  26.938  1.00  0.00     0.173 A 
ATOM     63  C   UNL A   1      50.950  27.968  24.644  1.00  0.00     0.173 A 
ATOM     64  F   UNL A   1      51.229  27.485  28.239  1.00  0.00    -0.203 F 
ATOM     65  C   UNL A   1      52.877  27.405  26.561  1.00  0.00     0.198 A 
ATOM     66  C   UNL A   1      52.274  27.765  24.266  1.00  0.00     0.198 A 
ATOM     67  F   UNL A   1      50.046  28.249  23.694  1.00  0.00    -0.203 F 
ATOM     68  F   UNL A   1      53.811  27.173  27.494  1.00  0.00    -0.200 F 
ATOM     69  C   UNL A   1      53.239  27.493  25.225  1.00  0.00     0.200 A 
ATOM     70  F   UNL A   1      52.620  27.835  22.973  1.00  0.00    -0.200 F 
ATOM     71  F   UNL A   1      54.518  27.323  24.863  1.00  0.00    -0.200 F 
ENDBRANCH  47  61
BRANCH  48  72
ATOM     72  C   UNL A   1      40.965  28.602  28.693  1.00  0.00     0.064 A 
ATOM     73  C   UNL A   1      40.578  28.255  29.996  1.00  0.00     0.173 A 
ATOM     74  C   UNL A   1      39.968  29.046  27.814  1.00  0.00     0.173 A 
ATOM     75  F   UNL A   1      41.492  27.804  30.868  1.00  0.00    -0.203 F 
ATOM     76  C   UNL A   1      39.245  28.326  30.394  1.00  0.00     0.198 A 
ATOM     77  C   UNL A   1      38.640  29.147  28.222  1.00  0.00     0.198 A 
ATOM     78  F   UNL A   1      40.286  29.396  26.558  1.00  0.00    -0.203 F 
ATOM     79  F   UNL A   1      38.895  27.942  31.629  1.00  0.00    -0.200 F 
ATOM     80  C   UNL A   1      38.278  28.779  29.509  1.00  0.00     0.200 A 
ATOM     81  F   UNL A   1      37.711  29.600  27.368  1.00  0.00    -0.200 F 
ATOM     82  F   UNL A   1      36.996  28.852  29.893  1.00  0.00    -0.200 F 
ENDBRANCH  48  72
BRANCH  60  83
ATOM     83  C   UNL A   1      46.380  32.988  28.895  1.00  0.00     0.064 A 
ATOM     84  C   UNL A   1      46.148  34.073  28.037  1.00  0.00     0.173 A 
ATOM     85  C   UNL A   1      46.707  33.266  30.232  1.00  0.00     0.173 A 
ATOM     86  F   UNL A   1      45.847  33.861  26.747  1.00  0.00    -0.203 F 
ATOM     87  C   UNL A   1      46.265  35.384  28.494  1.00  0.00     0.198 A 
ATOM     88  C   UNL A   1      46.790  34.577  30.692  1.00  0.00     0.198 A 
ATOM     89  F   UNL A   1      46.932  32.264  31.095  1.00  0.00    -0.203 F 
ATOM     90  F   UNL A   1      46.088  36.404  27.644  1.00  0.00    -0.200 F 
ATOM     91  C   UNL A   1      46.577  35.634  29.822  1.00  0.00     0.200 A 
ATOM     92  F   UNL A   1      47.076  34.815  31.980  1.00  0.00    -0.200 F 
ATOM     93  F   UNL A   1      46.680  36.896  30.260  1.00  0.00    -0.200 F 
ENDBRANCH  60  83
ENDBRANCH  34  35
ENDBRANCH  26  29
ENDBRANCH  24  25
ENDBRANCH  23  24
ENDBRANCH  22  23
ENDBRANCH  21  22
ENDBRANCH   1  21
TORSDOF 17
ENDMDL
MODEL 3
REMARK VINA RESULT:     -10.6      6.341     10.927
REMARK SMILES C[C@H]([NH2+]C[C@]1(C)CCCO1)[C@H](C)C(=O)NCCCCCCNC(=O)c1ccc(-c2c3nc(c(-c4c(F)c(F)c(F)c(F)c4F)c4ccc([nH]4)c(-c4c(F)c(F)c(F)c(F)c4F)c4nc(c(-c5c(F)c(F)c(F)c(F)c5F)c5ccc2[nH]5)C=C4)C=C3)cc1
REMARK SMILES IDX 17 1 16 2 15 3 13 4 14 5 11 7 12 8 2 9 1 10 3 11 4 14 5 15
REMARK SMILES IDX 7 16 10 17 6 18 8 19 9 20 18 21 19 22 20 23 21 24 22 25
REMARK SMILES IDX 23 26 24 28 25 29 26 30 87 31 27 32 86 33 28 34 29 35 30 36
REMARK SMILES IDX 80 37 31 38 85 39 79 40 81 41 32 42 84 43 78 44 77 45 33 47
REMARK SMILES IDX 65 48 45 49 64 50 46 51 49 52 63 53 82 54 47 55 48 56 62 58
REMARK SMILES IDX 83 59 50 60 34 61 35 62 43 63 36 64 37 65 41 66 44 67 38 68
REMARK SMILES IDX 39 69 42 70 40 71 66 72 67 73 75 74 68 75 69 76 73 77 76 78
REMARK SMILES IDX 70 79 71 80 74 81 72 82 51 83 52 84 60 85 53 86 54 87 58 88
REMARK SMILES IDX 61 89 55 90 56 91 59 92 57 93
REMARK H PARENT 15 6 3 12 3 13 22 27 81 46 49 57
REMARK Flexibility Score: inf
ROOT
ATOM      1  C   UNL A   1      33.768  31.727  28.239  1.00  0.00     0.021 C 
ENDROOT
BRANCH   1   2
ATOM      2  C   UNL A   1      33.508  30.749  27.098  1.00  0.00     0.116 C 
BRANCH   2   3
ATOM      3  N   UNL A   1      32.664  29.661  27.541  1.00  0.00    -0.356 N 
ATOM      4  C   UNL A   1      32.386  28.465  26.969  1.00  0.00     0.228 C 
ATOM      5  O   UNL A   1      31.516  27.769  27.502  1.00  0.00    -0.275 OA
ATOM      6  H   UNL A   1      32.217  29.817  28.405  1.00  0.00     0.163 HD
BRANCH   4   7
ATOM      7  C   UNL A   1      33.102  27.977  25.718  1.00  0.00     0.133 C 
ATOM      8  C   UNL A   1      33.720  26.593  25.954  1.00  0.00     0.024 C 
BRANCH   7   9
ATOM      9  C   UNL A   1      32.272  28.051  24.410  1.00  0.00     0.191 C 
ATOM     10  C   UNL A   1      32.952  28.975  23.385  1.00  0.00     0.076 C 
BRANCH   9  11
ATOM     11  N   UNL A   1      30.849  28.390  24.529  1.00  0.00    -0.341 N 
ATOM     12  H   UNL A   1      30.608  28.368  25.519  1.00  0.00     0.346 HD
ATOM     13  H   UNL A   1      30.362  27.702  23.955  1.00  0.00     0.346 HD
BRANCH  11  14
ATOM     14  C   UNL A   1      30.432  29.695  23.999  1.00  0.00     0.296 C 
BRANCH  14  15
ATOM     15  C   UNL A   1      29.155  29.569  23.109  1.00  0.00     0.114 C 
ATOM     16  C   UNL A   1      29.425  30.106  21.698  1.00  0.00     0.043 C 
ATOM     17  O   UNL A   1      28.121  30.425  23.661  1.00  0.00    -0.369 OA
ATOM     18  C   UNL A   1      28.631  28.126  23.080  1.00  0.00     0.048 C 
ATOM     19  C   UNL A   1      29.074  31.568  21.821  1.00  0.00     0.032 C 
ATOM     20  C   UNL A   1      27.898  31.524  22.768  1.00  0.00     0.161 C 
ENDBRANCH  14  15
ENDBRANCH  11  14
ENDBRANCH   9  11
ENDBRANCH   7   9
ENDBRANCH   4   7
ENDBRANCH   2   3
ENDBRANCH   1   2
BRANCH   1  21
ATOM     21  C   UNL A   1      35.085  32.499  28.104  1.00  0.00     0.002 C 
BRANCH  21  22
ATOM     22  C   UNL A   1      35.038  33.943  28.616  1.00  0.00     0.002 C 
BRANCH  22  23
ATOM     23  C   UNL A   1      33.631  34.497  28.845  1.00  0.00     0.021 C 
BRANCH  23  24
ATOM     24  C   UNL A   1      33.595  35.929  29.364  1.00  0.00     0.116 C 
BRANCH  24  25
ATOM     25  N   UNL A   1      32.632  36.097  30.440  1.00  0.00    -0.352 N 
ATOM     26  C   UNL A   1      32.648  35.564  31.702  1.00  0.00     0.251 C 
ATOM     27  H   UNL A   1      31.862  36.675  30.234  1.00  0.00     0.163 HD
ATOM     28  O   UNL A   1      31.658  35.651  32.428  1.00  0.00    -0.269 OA
BRANCH  26  29
ATOM     29  C   UNL A   1      33.854  34.864  32.183  1.00  0.00     0.039 A 
ATOM     30  C   UNL A   1      33.765  33.509  32.506  1.00  0.00     0.014 A 
ATOM     31  C   UNL A   1      35.070  35.542  32.308  1.00  0.00     0.014 A 
ATOM     32  C   UNL A   1      34.911  32.818  32.904  1.00  0.00     0.010 A 
ATOM     33  C   UNL A   1      36.224  34.837  32.631  1.00  0.00     0.010 A 
ATOM     34  C   UNL A   1      36.155  33.469  32.937  1.00  0.00    -0.014 A 
BRANCH  34  35
ATOM     35  C   UNL A   1      37.396  32.737  33.294  1.00  0.00     0.031 A 
ATOM     36  C   UNL A   1      38.108  33.043  34.582  1.00  0.00     0.074 A 
ATOM     37  C   UNL A   1      37.913  31.843  32.430  1.00  0.00     0.049 A 
ATOM     38  N   UNL A   1      39.236  32.560  35.039  1.00  0.00    -0.248 NA
ATOM     39  C   UNL A   1      37.482  34.043  35.461  1.00  0.00     0.031 C 
ATOM     40  C   UNL A   1      37.337  31.494  31.130  1.00  0.00     0.029 A 
ATOM     41  N   UNL A   1      39.045  31.071  32.509  1.00  0.00    -0.354 N 
ATOM     42  C   UNL A   1      39.459  33.206  36.249  1.00  0.00     0.074 A 
ATOM     43  C   UNL A   1      38.382  34.155  36.426  1.00  0.00     0.031 C 
ATOM     44  C   UNL A   1      38.105  30.563  30.545  1.00  0.00     0.029 A 
ATOM     45  C   UNL A   1      39.249  30.279  31.406  1.00  0.00     0.049 A 
ATOM     46  H   UNL A   1      39.654  31.086  33.282  1.00  0.00     0.167 HD
ATOM     47  C   UNL A   1      40.459  33.006  37.140  1.00  0.00     0.037 A 
ATOM     48  C   UNL A   1      40.251  29.425  31.120  1.00  0.00     0.037 A 
ATOM     49  C   UNL A   1      41.518  32.047  36.965  1.00  0.00     0.049 A 
ATOM     50  C   UNL A   1      41.360  29.237  32.119  1.00  0.00     0.074 A 
ATOM     51  C   UNL A   1      42.546  31.729  37.834  1.00  0.00     0.029 A 
ATOM     52  N   UNL A   1      41.686  31.254  35.838  1.00  0.00    -0.354 N 
ATOM     53  N   UNL A   1      41.525  29.801  33.291  1.00  0.00    -0.248 NA
ATOM     54  C   UNL A   1      42.422  28.287  31.758  1.00  0.00     0.031 C 
ATOM     55  C   UNL A   1      43.369  30.784  37.211  1.00  0.00     0.029 A 
ATOM     56  C   UNL A   1      42.818  30.466  35.980  1.00  0.00     0.049 A 
ATOM     57  H   UNL A   1      41.090  31.251  35.055  1.00  0.00     0.167 HD
ATOM     58  C   UNL A   1      42.686  29.254  33.819  1.00  0.00     0.074 A 
ATOM     59  C   UNL A   1      43.178  28.302  32.845  1.00  0.00     0.031 C 
ATOM     60  C   UNL A   1      43.291  29.518  35.004  1.00  0.00     0.037 A 
BRANCH  47  61
ATOM     61  C   UNL A   1      40.455  33.845  38.387  1.00  0.00     0.064 A 
ATOM     62  C   UNL A   1      41.196  35.033  38.479  1.00  0.00     0.173 A 
ATOM     63  C   UNL A   1      39.676  33.473  39.493  1.00  0.00     0.173 A 
ATOM     64  F   UNL A   1      41.967  35.429  37.453  1.00  0.00    -0.203 F 
ATOM     65  C   UNL A   1      41.185  35.798  39.642  1.00  0.00     0.198 A 
ATOM     66  C   UNL A   1      39.640  34.259  40.642  1.00  0.00     0.198 A 
ATOM     67  F   UNL A   1      38.943  32.350  39.459  1.00  0.00    -0.203 F 
ATOM     68  F   UNL A   1      41.945  36.899  39.724  1.00  0.00    -0.200 F 
ATOM     69  C   UNL A   1      40.401  35.416  40.720  1.00  0.00     0.200 A 
ATOM     70  F   UNL A   1      38.870  33.895  41.677  1.00  0.00    -0.200 F 
ATOM     71  F   UNL A   1      40.385  36.157  41.836  1.00  0.00    -0.200 F 
ENDBRANCH  47  61
BRANCH  48  72
ATOM     72  C   UNL A   1      40.239  28.670  29.840  1.00  0.00     0.064 A 
ATOM     73  C   UNL A   1      39.562  27.446  29.734  1.00  0.00     0.173 A 
ATOM     74  C   UNL A   1      40.904  29.147  28.702  1.00  0.00     0.173 A 
ATOM     75  F   UNL A   1      38.929  26.937  30.801  1.00  0.00    -0.203 F 
ATOM     76  C   UNL A   1      39.570  26.719  28.546  1.00  0.00     0.198 A 
ATOM     77  C   UNL A   1      40.885  28.435  27.505  1.00  0.00     0.198 A 
ATOM     78  F   UNL A   1      41.562  30.315  28.749  1.00  0.00    -0.203 F 
ATOM     79  F   UNL A   1      38.957  25.529  28.485  1.00  0.00    -0.200 F 
ATOM     80  C   UNL A   1      40.226  27.218  27.429  1.00  0.00     0.200 A 
ATOM     81  F   UNL A   1      41.508  28.928  26.425  1.00  0.00    -0.200 F 
ATOM     82  F   UNL A   1      40.230  26.520  26.285  1.00  0.00    -0.200 F 
ENDBRANCH  48  72
BRANCH  60  83
ATOM     83  C   UNL A   1      44.531  28.736  35.333  1.00  0.00     0.064 A 
ATOM     84  C   UNL A   1      45.811  29.210  35.010  1.00  0.00     0.173 A 
ATOM     85  C   UNL A   1      44.437  27.516  36.021  1.00  0.00     0.173 A 
ATOM     86  F   UNL A   1      45.954  30.364  34.341  1.00  0.00    -0.203 F 
ATOM     87  C   UNL A   1      46.949  28.477  35.339  1.00  0.00     0.198 A 
ATOM     88  C   UNL A   1      45.578  26.803  36.377  1.00  0.00     0.198 A 
ATOM     89  F   UNL A   1      43.237  27.021  36.360  1.00  0.00    -0.203 F 
ATOM     90  F   UNL A   1      48.158  28.925  34.976  1.00  0.00    -0.200 F 
ATOM     91  C   UNL A   1      46.832  27.280  36.030  1.00  0.00     0.200 A 
ATOM     92  F   UNL A   1      45.463  25.655  37.058  1.00  0.00    -0.200 F 
ATOM     93  F   UNL A   1      47.929  26.583  36.353  1.00  0.00    -0.200 F 
ENDBRANCH  60  83
ENDBRANCH  34  35
ENDBRANCH  26  29
ENDBRANCH  24  25
ENDBRANCH  23  24
ENDBRANCH  22  23
ENDBRANCH  21  22
ENDBRANCH   1  21
TORSDOF 17
ENDMDL
