MODEL 1
REMARK VINA RESULT:     -12.1      0.000      0.000
REMARK SMILES C[NH2+][C@]1(C(=O)NCCCCCCNC(=O)c2ccc(-c3c4nc(c(-c5c(F)c(F)c(F)c(F)c5F)c5ccc([nH]5)c(-c5c(F)c(F)c(F)c(F)c5F)c5nc(c(-c6c(F)c(F)c(F)c(F)c6F)c6ccc3[nH]6)C=C5)C=C4)cc2)CCC[C@H]([N@@H+]2CCC[C@@H]2C2CCCC2)C1
REMARK SMILES IDX 9 1 8 2 7 3 6 4 4 5 5 6 3 8 79 9 93 10 80 11 82 12 81 13
REMARK SMILES IDX 2 14 1 15 83 18 84 19 87 20 85 22 86 23 88 24 89 25 92 26
REMARK SMILES IDX 90 27 91 28 10 29 11 30 12 31 13 32 14 33 15 35 16 36 17 37
REMARK SMILES IDX 78 38 18 39 77 40 19 41 20 42 21 43 71 44 22 45 76 46 70 47
REMARK SMILES IDX 72 48 23 49 75 50 69 51 68 52 24 54 56 55 36 56 55 57 37 58
REMARK SMILES IDX 40 59 54 60 73 61 38 62 39 63 53 65 74 66 41 67 25 68 26 69
REMARK SMILES IDX 34 70 27 71 28 72 32 73 35 74 29 75 30 76 33 77 31 78 57 79
REMARK SMILES IDX 58 80 66 81 59 82 60 83 64 84 67 85 61 86 62 87 65 88 63 89
REMARK SMILES IDX 42 90 43 91 51 92 44 93 45 94 49 95 52 96 46 97 47 98 50 99
REMARK SMILES IDX 48 100
REMARK H PARENT 6 7 2 16 2 17 83 21 13 34 72 53 40 64
REMARK Flexibility Score: inf
ROOT
ATOM      1  C   UNL A   1      35.775  19.857  24.978  1.00  0.00     0.002 C 
ENDROOT
BRANCH   1   2
ATOM      2  C   UNL A   1      34.752  20.990  25.113  1.00  0.00     0.021 C 
BRANCH   2   3
ATOM      3  C   UNL A   1      33.327  20.509  25.397  1.00  0.00     0.116 C 
BRANCH   3   4
ATOM      4  N   UNL A   1      32.402  20.690  24.289  1.00  0.00    -0.351 N 
ATOM      5  C   UNL A   1      32.348  21.673  23.334  1.00  0.00     0.281 C 
ATOM      6  O   UNL A   1      32.155  21.265  22.179  1.00  0.00    -0.268 OA
ATOM      7  H   UNL A   1      31.705  19.998  24.212  1.00  0.00     0.163 HD
BRANCH   5   8
ATOM      8  C   UNL A   1      32.321  23.230  23.661  1.00  0.00     0.181 C 
ATOM      9  C   UNL A   1      32.094  23.485  25.189  1.00  0.00     0.079 C 
ATOM     10  C   UNL A   1      33.643  23.911  23.279  1.00  0.00     0.144 C 
ATOM     11  C   UNL A   1      32.676  24.684  25.945  1.00  0.00     0.013 C 
ATOM     12  C   UNL A   1      33.856  25.334  23.877  1.00  0.00     0.191 C 
ATOM     13  C   UNL A   1      33.973  25.188  25.385  1.00  0.00     0.065 C 
BRANCH   8  14
ATOM     14  N   UNL A   1      31.279  23.859  22.781  1.00  0.00    -0.336 N 
ATOM     15  C   UNL A   1      30.246  24.662  23.450  1.00  0.00     0.331 C 
ATOM     16  H   UNL A   1      31.761  24.467  22.118  1.00  0.00     0.346 HD
ATOM     17  H   UNL A   1      30.779  23.077  22.357  1.00  0.00     0.346 HD
ENDBRANCH   8  14
BRANCH  12  18
ATOM     18  N   UNL A   1      33.098  26.519  23.410  1.00  0.00    -0.330 N 
ATOM     19  C   UNL A   1      33.435  26.813  21.999  1.00  0.00     0.262 C 
ATOM     20  C   UNL A   1      32.683  27.838  24.013  1.00  0.00     0.187 C 
ATOM     21  H   UNL A   1      32.293  26.044  23.822  1.00  0.00     0.348 HD
ATOM     22  C   UNL A   1      34.030  28.197  22.038  1.00  0.00     0.067 C 
ATOM     23  C   UNL A   1      33.126  28.917  23.005  1.00  0.00     0.071 C 
BRANCH  20  24
ATOM     24  C   UNL A   1      32.777  28.352  25.490  1.00  0.00     0.047 C 
ATOM     25  C   UNL A   1      34.088  28.850  26.128  1.00  0.00     0.010 C 
ATOM     26  C   UNL A   1      31.895  29.588  25.767  1.00  0.00     0.010 C 
ATOM     27  C   UNL A   1      33.605  29.359  27.491  1.00  0.00     0.001 C 
ATOM     28  C   UNL A   1      32.221  29.954  27.218  1.00  0.00     0.001 C 
ENDBRANCH  20  24
ENDBRANCH  12  18
ENDBRANCH   5   8
ENDBRANCH   3   4
ENDBRANCH   2   3
ENDBRANCH   1   2
BRANCH   1  29
ATOM     29  C   UNL A   1      37.204  20.299  24.637  1.00  0.00     0.002 C 
BRANCH  29  30
ATOM     30  C   UNL A   1      38.301  19.309  25.039  1.00  0.00     0.021 C 
BRANCH  30  31
ATOM     31  C   UNL A   1      39.392  19.923  25.909  1.00  0.00     0.116 C 
BRANCH  31  32
ATOM     32  N   UNL A   1      40.513  19.005  26.061  1.00  0.00    -0.352 N 
ATOM     33  C   UNL A   1      41.849  19.283  26.098  1.00  0.00     0.251 C 
ATOM     34  H   UNL A   1      40.274  18.054  26.147  1.00  0.00     0.163 HD
ATOM     35  O   UNL A   1      42.680  18.386  25.898  1.00  0.00    -0.269 OA
BRANCH  33  36
ATOM     36  C   UNL A   1      42.310  20.649  26.397  1.00  0.00     0.039 A 
ATOM     37  C   UNL A   1      42.500  21.038  27.725  1.00  0.00     0.014 A 
ATOM     38  C   UNL A   1      42.509  21.563  25.356  1.00  0.00     0.014 A 
ATOM     39  C   UNL A   1      42.924  22.336  28.009  1.00  0.00     0.010 A 
ATOM     40  C   UNL A   1      42.992  22.835  25.636  1.00  0.00     0.010 A 
ATOM     41  C   UNL A   1      43.188  23.238  26.965  1.00  0.00    -0.014 A 
BRANCH  41  42
ATOM     42  C   UNL A   1      43.644  24.621  27.242  1.00  0.00     0.031 A 
ATOM     43  C   UNL A   1      42.661  25.648  27.728  1.00  0.00     0.074 A 
ATOM     44  C   UNL A   1      44.920  24.963  26.986  1.00  0.00     0.049 A 
ATOM     45  N   UNL A   1      42.840  26.926  27.952  1.00  0.00    -0.248 NA
ATOM     46  C   UNL A   1      41.286  25.184  27.969  1.00  0.00     0.031 C 
ATOM     47  C   UNL A   1      45.947  24.063  26.464  1.00  0.00     0.029 A 
ATOM     48  N   UNL A   1      45.565  26.166  27.118  1.00  0.00    -0.354 N 
ATOM     49  C   UNL A   1      41.600  27.417  28.336  1.00  0.00     0.074 A 
ATOM     50  C   UNL A   1      40.666  26.316  28.272  1.00  0.00     0.031 C 
ATOM     51  C   UNL A   1      47.099  24.740  26.334  1.00  0.00     0.029 A 
ATOM     52  C   UNL A   1      46.882  26.127  26.733  1.00  0.00     0.049 A 
ATOM     53  H   UNL A   1      45.126  26.979  27.456  1.00  0.00     0.167 HD
ATOM     54  C   UNL A   1      41.277  28.672  28.729  1.00  0.00     0.037 A 
ATOM     55  C   UNL A   1      47.807  27.105  26.703  1.00  0.00     0.037 A 
ATOM     56  C   UNL A   1      42.220  29.755  28.824  1.00  0.00     0.049 A 
ATOM     57  C   UNL A   1      47.427  28.485  27.162  1.00  0.00     0.074 A 
ATOM     58  C   UNL A   1      42.011  31.046  29.277  1.00  0.00     0.029 A 
ATOM     59  N   UNL A   1      43.556  29.670  28.458  1.00  0.00    -0.354 N 
ATOM     60  N   UNL A   1      46.268  28.925  27.590  1.00  0.00    -0.248 NA
ATOM     61  C   UNL A   1      48.486  29.503  27.145  1.00  0.00     0.031 C 
ATOM     62  C   UNL A   1      43.211  31.753  29.148  1.00  0.00     0.029 A 
ATOM     63  C   UNL A   1      44.179  30.891  28.658  1.00  0.00     0.049 A 
ATOM     64  H   UNL A   1      43.995  28.862  28.108  1.00  0.00     0.167 HD
ATOM     65  C   UNL A   1      46.463  30.260  27.914  1.00  0.00     0.074 A 
ATOM     66  C   UNL A   1      47.855  30.555  27.649  1.00  0.00     0.031 C 
ATOM     67  C   UNL A   1      45.569  31.161  28.391  1.00  0.00     0.037 A 
BRANCH  54  68
ATOM     68  C   UNL A   1      39.845  28.940  29.090  1.00  0.00     0.064 A 
ATOM     69  C   UNL A   1      39.364  28.737  30.392  1.00  0.00     0.173 A 
ATOM     70  C   UNL A   1      38.950  29.439  28.131  1.00  0.00     0.173 A 
ATOM     71  F   UNL A   1      40.176  28.250  31.343  1.00  0.00    -0.203 F 
ATOM     72  C   UNL A   1      38.034  28.995  30.715  1.00  0.00     0.198 A 
ATOM     73  C   UNL A   1      37.628  29.724  28.464  1.00  0.00     0.198 A 
ATOM     74  F   UNL A   1      39.358  29.656  26.871  1.00  0.00    -0.203 F 
ATOM     75  F   UNL A   1      37.586  28.746  31.953  1.00  0.00    -0.200 F 
ATOM     76  C   UNL A   1      37.170  29.494  29.752  1.00  0.00     0.200 A 
ATOM     77  F   UNL A   1      36.797  30.217  27.536  1.00  0.00    -0.200 F 
ATOM     78  F   UNL A   1      35.892  29.748  30.066  1.00  0.00    -0.200 F 
ENDBRANCH  54  68
BRANCH  55  79
ATOM     79  C   UNL A   1      49.188  26.801  26.249  1.00  0.00     0.064 A 
ATOM     80  C   UNL A   1      50.144  26.300  27.143  1.00  0.00     0.173 A 
ATOM     81  C   UNL A   1      49.577  26.993  24.915  1.00  0.00     0.173 A 
ATOM     82  F   UNL A   1      49.822  26.117  28.431  1.00  0.00    -0.203 F 
ATOM     83  C   UNL A   1      51.442  26.019  26.725  1.00  0.00     0.198 A 
ATOM     84  C   UNL A   1      50.869  26.687  24.493  1.00  0.00     0.198 A 
ATOM     85  F   UNL A   1      48.697  27.463  24.019  1.00  0.00    -0.203 F 
ATOM     86  F   UNL A   1      52.347  25.578  27.610  1.00  0.00    -0.200 F 
ATOM     87  C   UNL A   1      51.803  26.207  25.399  1.00  0.00     0.200 A 
ATOM     88  F   UNL A   1      51.209  26.857  23.207  1.00  0.00    -0.200 F 
ATOM     89  F   UNL A   1      53.050  25.930  24.996  1.00  0.00    -0.200 F 
ENDBRANCH  55  79
BRANCH  67  90
ATOM     90  C   UNL A   1      46.077  32.542  28.680  1.00  0.00     0.064 A 
ATOM     91  C   UNL A   1      46.711  32.853  29.891  1.00  0.00     0.173 A 
ATOM     92  C   UNL A   1      45.965  33.554  27.714  1.00  0.00     0.173 A 
ATOM     93  F   UNL A   1      46.828  31.923  30.850  1.00  0.00    -0.203 F 
ATOM     94  C   UNL A   1      47.195  34.135  30.134  1.00  0.00     0.198 A 
ATOM     95  C   UNL A   1      46.475  34.827  27.951  1.00  0.00     0.198 A 
ATOM     96  F   UNL A   1      45.371  33.304  26.538  1.00  0.00    -0.203 F 
ATOM     97  F   UNL A   1      47.760  34.423  31.315  1.00  0.00    -0.200 F 
ATOM     98  C   UNL A   1      47.084  35.118  29.162  1.00  0.00     0.200 A 
ATOM     99  F   UNL A   1      46.377  35.773  27.006  1.00  0.00    -0.200 F 
ATOM    100  F   UNL A   1      47.557  36.350  29.396  1.00  0.00    -0.200 F 
ENDBRANCH  67  90
ENDBRANCH  41  42
ENDBRANCH  33  36
ENDBRANCH  31  32
ENDBRANCH  30  31
ENDBRANCH  29  30
ENDBRANCH   1  29
TORSDOF 16
ENDMDL
MODEL 2
REMARK VINA RESULT:     -12.0      0.979      2.255
REMARK SMILES C[NH2+][C@]1(C(=O)NCCCCCCNC(=O)c2ccc(-c3c4nc(c(-c5c(F)c(F)c(F)c(F)c5F)c5ccc([nH]5)c(-c5c(F)c(F)c(F)c(F)c5F)c5nc(c(-c6c(F)c(F)c(F)c(F)c6F)c6ccc3[nH]6)C=C5)C=C4)cc2)CCC[C@H]([N@@H+]2CCC[C@@H]2C2CCCC2)C1
REMARK SMILES IDX 9 1 8 2 7 3 6 4 4 5 5 6 3 8 79 9 93 10 80 11 82 12 81 13
REMARK SMILES IDX 2 14 1 15 83 18 84 19 87 20 85 22 86 23 88 24 89 25 92 26
REMARK SMILES IDX 90 27 91 28 10 29 11 30 12 31 13 32 14 33 15 35 16 36 17 37
REMARK SMILES IDX 78 38 18 39 77 40 19 41 20 42 21 43 71 44 22 45 76 46 70 47
REMARK SMILES IDX 72 48 23 49 75 50 69 51 68 52 24 54 56 55 36 56 55 57 37 58
REMARK SMILES IDX 40 59 54 60 73 61 38 62 39 63 53 65 74 66 41 67 25 68 26 69
REMARK SMILES IDX 34 70 27 71 28 72 32 73 35 74 29 75 30 76 33 77 31 78 57 79
REMARK SMILES IDX 58 80 66 81 59 82 60 83 64 84 67 85 61 86 62 87 65 88 63 89
REMARK SMILES IDX 42 90 43 91 51 92 44 93 45 94 49 95 52 96 46 97 47 98 50 99
REMARK SMILES IDX 48 100
REMARK H PARENT 6 7 2 16 2 17 83 21 13 34 72 53 40 64
REMARK Flexibility Score: inf
ROOT
ATOM      1  C   UNL A   1      35.701  20.292  24.804  1.00  0.00     0.002 C 
ENDROOT
BRANCH   1   2
ATOM      2  C   UNL A   1      34.842  21.264  25.619  1.00  0.00     0.021 C 
BRANCH   2   3
ATOM      3  C   UNL A   1      33.442  20.735  25.940  1.00  0.00     0.116 C 
BRANCH   3   4
ATOM      4  N   UNL A   1      32.515  20.773  24.819  1.00  0.00    -0.351 N 
ATOM      5  C   UNL A   1      32.420  21.663  23.780  1.00  0.00     0.281 C 
ATOM      6  O   UNL A   1      32.253  21.146  22.666  1.00  0.00    -0.268 OA
ATOM      7  H   UNL A   1      31.852  20.044  24.803  1.00  0.00     0.163 HD
BRANCH   5   8
ATOM      8  C   UNL A   1      32.318  23.241  23.967  1.00  0.00     0.181 C 
ATOM      9  C   UNL A   1      31.923  23.613  25.435  1.00  0.00     0.079 C 
ATOM     10  C   UNL A   1      33.656  23.933  23.667  1.00  0.00     0.144 C 
ATOM     11  C   UNL A   1      32.390  24.891  26.142  1.00  0.00     0.013 C 
ATOM     12  C   UNL A   1      33.767  25.408  24.159  1.00  0.00     0.191 C 
ATOM     13  C   UNL A   1      33.726  25.391  25.678  1.00  0.00     0.065 C 
BRANCH   8  14
ATOM     14  N   UNL A   1      31.360  23.757  22.933  1.00  0.00    -0.336 N 
ATOM     15  C   UNL A   1      30.214  24.535  23.423  1.00  0.00     0.331 C 
ATOM     16  H   UNL A   1      31.888  24.354  22.294  1.00  0.00     0.346 HD
ATOM     17  H   UNL A   1      30.955  22.925  22.503  1.00  0.00     0.346 HD
ENDBRANCH   8  14
BRANCH  12  18
ATOM     18  N   UNL A   1      33.032  26.522  23.516  1.00  0.00    -0.330 N 
ATOM     19  C   UNL A   1      33.472  26.675  22.111  1.00  0.00     0.262 C 
ATOM     20  C   UNL A   1      32.557  27.888  23.944  1.00  0.00     0.187 C 
ATOM     21  H   UNL A   1      32.205  26.077  23.914  1.00  0.00     0.348 HD
ATOM     22  C   UNL A   1      34.046  28.067  22.048  1.00  0.00     0.067 C 
ATOM     23  C   UNL A   1      33.063  28.865  22.865  1.00  0.00     0.071 C 
BRANCH  20  24
ATOM     24  C   UNL A   1      32.533  28.555  25.362  1.00  0.00     0.047 C 
ATOM     25  C   UNL A   1      33.804  29.020  26.098  1.00  0.00     0.010 C 
ATOM     26  C   UNL A   1      31.737  29.876  25.405  1.00  0.00     0.010 C 
ATOM     27  C   UNL A   1      33.220  29.712  27.335  1.00  0.00     0.001 C 
ATOM     28  C   UNL A   1      31.933  30.376  26.840  1.00  0.00     0.001 C 
ENDBRANCH  20  24
ENDBRANCH  12  18
ENDBRANCH   5   8
ENDBRANCH   3   4
ENDBRANCH   2   3
ENDBRANCH   1   2
BRANCH   1  29
ATOM     29  C   UNL A   1      37.172  20.693  24.641  1.00  0.00     0.002 C 
BRANCH  29  30
ATOM     30  C   UNL A   1      38.186  19.606  25.011  1.00  0.00     0.021 C 
BRANCH  30  31
ATOM     31  C   UNL A   1      39.234  20.063  26.018  1.00  0.00     0.116 C 
BRANCH  31  32
ATOM     32  N   UNL A   1      40.386  19.171  26.009  1.00  0.00    -0.352 N 
ATOM     33  C   UNL A   1      41.714  19.486  26.016  1.00  0.00     0.251 C 
ATOM     34  H   UNL A   1      40.178  18.208  25.995  1.00  0.00     0.163 HD
ATOM     35  O   UNL A   1      42.558  18.645  25.674  1.00  0.00    -0.269 OA
BRANCH  33  36
ATOM     36  C   UNL A   1      42.153  20.822  26.450  1.00  0.00     0.039 A 
ATOM     37  C   UNL A   1      42.465  21.790  25.493  1.00  0.00     0.014 A 
ATOM     38  C   UNL A   1      42.302  21.101  27.813  1.00  0.00     0.014 A 
ATOM     39  C   UNL A   1      42.894  23.052  25.903  1.00  0.00     0.010 A 
ATOM     40  C   UNL A   1      42.668  22.378  28.222  1.00  0.00     0.010 A 
ATOM     41  C   UNL A   1      42.984  23.359  27.271  1.00  0.00    -0.014 A 
BRANCH  41  42
ATOM     42  C   UNL A   1      43.432  24.694  27.731  1.00  0.00     0.031 A 
ATOM     43  C   UNL A   1      42.415  25.737  28.099  1.00  0.00     0.074 A 
ATOM     44  C   UNL A   1      44.746  24.985  27.747  1.00  0.00     0.049 A 
ATOM     45  N   UNL A   1      42.598  26.986  28.447  1.00  0.00    -0.248 NA
ATOM     46  C   UNL A   1      41.002  25.332  28.041  1.00  0.00     0.031 C 
ATOM     47  C   UNL A   1      45.818  24.068  27.362  1.00  0.00     0.029 A 
ATOM     48  N   UNL A   1      45.400  26.141  28.087  1.00  0.00    -0.354 N 
ATOM     49  C   UNL A   1      41.327  27.516  28.626  1.00  0.00     0.074 A 
ATOM     50  C   UNL A   1      40.381  26.472  28.305  1.00  0.00     0.031 C 
ATOM     51  C   UNL A   1      46.999  24.690  27.502  1.00  0.00     0.029 A 
ATOM     52  C   UNL A   1      46.764  26.058  27.955  1.00  0.00     0.049 A 
ATOM     53  H   UNL A   1      44.937  26.952  28.396  1.00  0.00     0.167 HD
ATOM     54  C   UNL A   1      40.984  28.758  29.043  1.00  0.00     0.037 A 
ATOM     55  C   UNL A   1      47.715  26.985  28.173  1.00  0.00     0.037 A 
ATOM     56  C   UNL A   1      41.933  29.781  29.395  1.00  0.00     0.049 A 
ATOM     57  C   UNL A   1      47.309  28.350  28.655  1.00  0.00     0.074 A 
ATOM     58  C   UNL A   1      41.692  31.048  29.896  1.00  0.00     0.029 A 
ATOM     59  N   UNL A   1      43.310  29.650  29.282  1.00  0.00    -0.354 N 
ATOM     60  N   UNL A   1      46.107  28.822  28.888  1.00  0.00    -0.248 NA
ATOM     61  C   UNL A   1      48.390  29.311  28.913  1.00  0.00     0.031 C 
ATOM     62  C   UNL A   1      42.922  31.698  30.048  1.00  0.00     0.029 A 
ATOM     63  C   UNL A   1      43.931  30.820  29.687  1.00  0.00     0.049 A 
ATOM     64  H   UNL A   1      43.777  28.845  28.962  1.00  0.00     0.167 HD
ATOM     65  C   UNL A   1      46.288  30.120  29.342  1.00  0.00     0.074 A 
ATOM     66  C   UNL A   1      47.716  30.359  29.366  1.00  0.00     0.031 C 
ATOM     67  C   UNL A   1      45.355  31.034  29.707  1.00  0.00     0.037 A 
BRANCH  54  68
ATOM     68  C   UNL A   1      39.522  29.077  29.148  1.00  0.00     0.064 A 
ATOM     69  C   UNL A   1      38.774  29.480  28.032  1.00  0.00     0.173 A 
ATOM     70  C   UNL A   1      38.850  28.944  30.373  1.00  0.00     0.173 A 
ATOM     71  F   UNL A   1      39.371  29.635  26.840  1.00  0.00    -0.203 F 
ATOM     72  C   UNL A   1      37.416  29.768  28.143  1.00  0.00     0.198 A 
ATOM     73  C   UNL A   1      37.486  29.204  30.475  1.00  0.00     0.198 A 
ATOM     74  F   UNL A   1      39.515  28.557  31.472  1.00  0.00    -0.203 F 
ATOM     75  F   UNL A   1      36.734  30.200  27.072  1.00  0.00    -0.200 F 
ATOM     76  C   UNL A   1      36.772  29.624  29.362  1.00  0.00     0.200 A 
ATOM     77  F   UNL A   1      36.862  29.053  31.651  1.00  0.00    -0.200 F 
ATOM     78  F   UNL A   1      35.464  29.894  29.466  1.00  0.00    -0.200 F 
ENDBRANCH  54  68
BRANCH  55  79
ATOM     79  C   UNL A   1      49.145  26.640  27.966  1.00  0.00     0.064 A 
ATOM     80  C   UNL A   1      49.709  26.660  26.683  1.00  0.00     0.173 A 
ATOM     81  C   UNL A   1      49.977  26.297  29.041  1.00  0.00     0.173 A 
ATOM     82  F   UNL A   1      48.947  26.965  25.623  1.00  0.00    -0.203 F 
ATOM     83  C   UNL A   1      51.047  26.331  26.481  1.00  0.00     0.198 A 
ATOM     84  C   UNL A   1      51.322  25.994  28.840  1.00  0.00     0.198 A 
ATOM     85  F   UNL A   1      49.487  26.272  30.289  1.00  0.00    -0.203 F 
ATOM     86  F   UNL A   1      51.551  26.320  25.239  1.00  0.00    -0.200 F 
ATOM     87  C   UNL A   1      51.854  26.005  27.560  1.00  0.00     0.200 A 
ATOM     88  F   UNL A   1      52.102  25.693  29.888  1.00  0.00    -0.200 F 
ATOM     89  F   UNL A   1      53.144  25.695  27.365  1.00  0.00    -0.200 F 
ENDBRANCH  55  79
BRANCH  67  90
ATOM     90  C   UNL A   1      45.852  32.364  30.189  1.00  0.00     0.064 A 
ATOM     91  C   UNL A   1      46.050  33.437  29.309  1.00  0.00     0.173 A 
ATOM     92  C   UNL A   1      46.091  32.579  31.555  1.00  0.00     0.173 A 
ATOM     93  F   UNL A   1      45.849  33.276  27.993  1.00  0.00    -0.203 F 
ATOM     94  C   UNL A   1      46.492  34.672  29.776  1.00  0.00     0.198 A 
ATOM     95  C   UNL A   1      46.506  33.823  32.022  1.00  0.00     0.198 A 
ATOM     96  F   UNL A   1      45.911  31.585  32.438  1.00  0.00    -0.203 F 
ATOM     97  F   UNL A   1      46.716  35.672  28.912  1.00  0.00    -0.200 F 
ATOM     98  C   UNL A   1      46.712  34.865  31.132  1.00  0.00     0.200 A 
ATOM     99  F   UNL A   1      46.707  34.012  33.334  1.00  0.00    -0.200 F 
ATOM    100  F   UNL A   1      47.130  36.057  31.580  1.00  0.00    -0.200 F 
ENDBRANCH  67  90
ENDBRANCH  41  42
ENDBRANCH  33  36
ENDBRANCH  31  32
ENDBRANCH  30  31
ENDBRANCH  29  30
ENDBRANCH   1  29
TORSDOF 16
ENDMDL
MODEL 3
REMARK VINA RESULT:     -11.9      3.164      8.246
REMARK SMILES C[NH2+][C@]1(C(=O)NCCCCCCNC(=O)c2ccc(-c3c4nc(c(-c5c(F)c(F)c(F)c(F)c5F)c5ccc([nH]5)c(-c5c(F)c(F)c(F)c(F)c5F)c5nc(c(-c6c(F)c(F)c(F)c(F)c6F)c6ccc3[nH]6)C=C5)C=C4)cc2)CCC[C@H]([N@@H+]2CCC[C@@H]2C2CCCC2)C1
REMARK SMILES IDX 9 1 8 2 7 3 6 4 4 5 5 6 3 8 79 9 93 10 80 11 82 12 81 13
REMARK SMILES IDX 2 14 1 15 83 18 84 19 87 20 85 22 86 23 88 24 89 25 92 26
REMARK SMILES IDX 90 27 91 28 10 29 11 30 12 31 13 32 14 33 15 35 16 36 17 37
REMARK SMILES IDX 78 38 18 39 77 40 19 41 20 42 21 43 71 44 22 45 76 46 70 47
REMARK SMILES IDX 72 48 23 49 75 50 69 51 68 52 24 54 56 55 36 56 55 57 37 58
REMARK SMILES IDX 40 59 54 60 73 61 38 62 39 63 53 65 74 66 41 67 25 68 26 69
REMARK SMILES IDX 34 70 27 71 28 72 32 73 35 74 29 75 30 76 33 77 31 78 57 79
REMARK SMILES IDX 58 80 66 81 59 82 60 83 64 84 67 85 61 86 62 87 65 88 63 89
REMARK SMILES IDX 42 90 43 91 51 92 44 93 45 94 49 95 52 96 46 97 47 98 50 99
REMARK SMILES IDX 48 100
REMARK H PARENT 6 7 2 16 2 17 83 21 13 34 72 53 40 64
REMARK Flexibility Score: inf
ROOT
ATOM      1  C   UNL A   1      34.649  20.958  24.949  1.00  0.00     0.002 C 
ENDROOT
BRANCH   1   2
ATOM      2  C   UNL A   1      33.480  21.931  25.133  1.00  0.00     0.021 C 
BRANCH   2   3
ATOM      3  C   UNL A   1      32.292  21.656  24.208  1.00  0.00     0.116 C 
BRANCH   3   4
ATOM      4  N   UNL A   1      32.393  22.282  22.899  1.00  0.00    -0.351 N 
ATOM      5  C   UNL A   1      32.906  23.503  22.540  1.00  0.00     0.281 C 
ATOM      6  O   UNL A   1      33.626  23.487  21.531  1.00  0.00    -0.268 OA
ATOM      7  H   UNL A   1      32.039  21.745  22.153  1.00  0.00     0.163 HD
BRANCH   5   8
ATOM      8  C   UNL A   1      32.471  24.880  23.208  1.00  0.00     0.181 C 
ATOM      9  C   UNL A   1      33.404  25.247  24.410  1.00  0.00     0.079 C 
ATOM     10  C   UNL A   1      32.544  26.042  22.206  1.00  0.00     0.144 C 
ATOM     11  C   UNL A   1      33.748  26.687  24.809  1.00  0.00     0.013 C 
ATOM     12  C   UNL A   1      32.490  27.467  22.834  1.00  0.00     0.191 C 
ATOM     13  C   UNL A   1      33.750  27.653  23.662  1.00  0.00     0.065 C 
BRANCH   8  14
ATOM     14  N   UNL A   1      31.020  24.764  23.580  1.00  0.00    -0.336 N 
ATOM     15  C   UNL A   1      30.697  24.847  25.011  1.00  0.00     0.331 C 
ATOM     16  H   UNL A   1      30.519  25.516  23.106  1.00  0.00     0.346 HD
ATOM     17  H   UNL A   1      30.745  23.823  23.297  1.00  0.00     0.346 HD
ENDBRANCH   8  14
BRANCH  12  18
ATOM     18  N   UNL A   1      31.254  28.035  23.421  1.00  0.00    -0.330 N 
ATOM     19  C   UNL A   1      30.210  28.162  22.379  1.00  0.00     0.262 C 
ATOM     20  C   UNL A   1      30.937  29.096  24.445  1.00  0.00     0.187 C 
ATOM     21  H   UNL A   1      31.392  27.333  24.148  1.00  0.00     0.348 HD
ATOM     22  C   UNL A   1      29.915  29.639  22.323  1.00  0.00     0.067 C 
ATOM     23  C   UNL A   1      29.907  30.028  23.779  1.00  0.00     0.071 C 
BRANCH  20  24
ATOM     24  C   UNL A   1      31.882  29.881  25.419  1.00  0.00     0.047 C 
ATOM     25  C   UNL A   1      31.486  31.208  26.092  1.00  0.00     0.010 C 
ATOM     26  C   UNL A   1      32.265  29.080  26.681  1.00  0.00     0.010 C 
ATOM     27  C   UNL A   1      32.675  31.459  27.025  1.00  0.00     0.001 C 
ATOM     28  C   UNL A   1      33.097  30.068  27.505  1.00  0.00     0.001 C 
ENDBRANCH  20  24
ENDBRANCH  12  18
ENDBRANCH   5   8
ENDBRANCH   3   4
ENDBRANCH   2   3
ENDBRANCH   1   2
BRANCH   1  29
ATOM     29  C   UNL A   1      35.929  21.571  24.367  1.00  0.00     0.002 C 
BRANCH  29  30
ATOM     30  C   UNL A   1      36.007  23.099  24.441  1.00  0.00     0.021 C 
BRANCH  30  31
ATOM     31  C   UNL A   1      36.866  23.613  25.590  1.00  0.00     0.116 C 
BRANCH  31  32
ATOM     32  N   UNL A   1      37.850  22.616  25.989  1.00  0.00    -0.352 N 
ATOM     33  C   UNL A   1      39.125  22.803  26.439  1.00  0.00     0.251 C 
ATOM     34  H   UNL A   1      37.555  21.678  25.924  1.00  0.00     0.163 HD
ATOM     35  O   UNL A   1      39.938  21.867  26.418  1.00  0.00    -0.269 OA
BRANCH  33  36
ATOM     36  C   UNL A   1      39.537  24.113  26.969  1.00  0.00     0.039 A 
ATOM     37  C   UNL A   1      40.197  25.018  26.135  1.00  0.00     0.014 A 
ATOM     38  C   UNL A   1      39.309  24.426  28.314  1.00  0.00     0.014 A 
ATOM     39  C   UNL A   1      40.599  26.254  26.640  1.00  0.00     0.010 A 
ATOM     40  C   UNL A   1      39.653  25.682  28.799  1.00  0.00     0.010 A 
ATOM     41  C   UNL A   1      40.316  26.599  27.972  1.00  0.00    -0.014 A 
BRANCH  41  42
ATOM     42  C   UNL A   1      40.729  27.909  28.530  1.00  0.00     0.031 A 
ATOM     43  C   UNL A   1      42.159  28.131  28.933  1.00  0.00     0.074 A 
ATOM     44  C   UNL A   1      39.804  28.864  28.738  1.00  0.00     0.049 A 
ATOM     45  N   UNL A   1      42.705  29.171  29.512  1.00  0.00    -0.248 NA
ATOM     46  C   UNL A   1      43.097  27.026  28.678  1.00  0.00     0.031 C 
ATOM     47  C   UNL A   1      38.379  28.740  28.433  1.00  0.00     0.029 A 
ATOM     48  N   UNL A   1      39.924  30.122  29.269  1.00  0.00    -0.354 N 
ATOM     49  C   UNL A   1      44.038  28.835  29.707  1.00  0.00     0.074 A 
ATOM     50  C   UNL A   1      44.211  27.482  29.231  1.00  0.00     0.031 C 
ATOM     51  C   UNL A   1      37.758  29.882  28.767  1.00  0.00     0.029 A 
ATOM     52  C   UNL A   1      38.734  30.804  29.339  1.00  0.00     0.049 A 
ATOM     53  H   UNL A   1      40.780  30.500  29.573  1.00  0.00     0.167 HD
ATOM     54  C   UNL A   1      45.032  29.600  30.220  1.00  0.00     0.037 A 
ATOM     55  C   UNL A   1      38.466  32.034  29.814  1.00  0.00     0.037 A 
ATOM     56  C   UNL A   1      44.859  30.959  30.660  1.00  0.00     0.049 A 
ATOM     57  C   UNL A   1      39.591  32.869  30.360  1.00  0.00     0.074 A 
ATOM     58  C   UNL A   1      45.813  31.844  31.128  1.00  0.00     0.029 A 
ATOM     59  N   UNL A   1      43.644  31.630  30.683  1.00  0.00    -0.354 N 
ATOM     60  N   UNL A   1      40.862  32.570  30.477  1.00  0.00    -0.248 NA
ATOM     61  C   UNL A   1      39.246  34.218  30.830  1.00  0.00     0.031 C 
ATOM     62  C   UNL A   1      45.170  33.038  31.473  1.00  0.00     0.029 A 
ATOM     63  C   UNL A   1      43.822  32.912  31.175  1.00  0.00     0.049 A 
ATOM     64  H   UNL A   1      42.784  31.251  30.393  1.00  0.00     0.167 HD
ATOM     65  C   UNL A   1      41.472  33.696  31.011  1.00  0.00     0.074 A 
ATOM     66  C   UNL A   1      40.434  34.692  31.180  1.00  0.00     0.031 C 
ATOM     67  C   UNL A   1      42.775  33.889  31.330  1.00  0.00     0.037 A 
BRANCH  54  68
ATOM     68  C   UNL A   1      46.396  28.985  30.326  1.00  0.00     0.064 A 
ATOM     69  C   UNL A   1      46.834  28.363  31.505  1.00  0.00     0.173 A 
ATOM     70  C   UNL A   1      47.266  28.987  29.225  1.00  0.00     0.173 A 
ATOM     71  F   UNL A   1      46.046  28.344  32.591  1.00  0.00    -0.203 F 
ATOM     72  C   UNL A   1      48.101  27.792  31.588  1.00  0.00     0.198 A 
ATOM     73  C   UNL A   1      48.522  28.390  29.301  1.00  0.00     0.198 A 
ATOM     74  F   UNL A   1      46.897  29.565  28.071  1.00  0.00    -0.203 F 
ATOM     75  F   UNL A   1      48.515  27.247  32.740  1.00  0.00    -0.200 F 
ATOM     76  C   UNL A   1      48.941  27.800  30.484  1.00  0.00     0.200 A 
ATOM     77  F   UNL A   1      49.328  28.388  28.231  1.00  0.00    -0.200 F 
ATOM     78  F   UNL A   1      50.158  27.244  30.563  1.00  0.00    -0.200 F 
ENDBRANCH  54  68
BRANCH  55  79
ATOM     79  C   UNL A   1      37.077  32.558  29.766  1.00  0.00     0.064 A 
ATOM     80  C   UNL A   1      36.212  32.400  30.858  1.00  0.00     0.173 A 
ATOM     81  C   UNL A   1      36.590  33.235  28.639  1.00  0.00     0.173 A 
ATOM     82  F   UNL A   1      36.628  31.743  31.950  1.00  0.00    -0.203 F 
ATOM     83  C   UNL A   1      34.906  32.882  30.817  1.00  0.00     0.198 A 
ATOM     84  C   UNL A   1      35.292  33.740  28.609  1.00  0.00     0.198 A 
ATOM     85  F   UNL A   1      37.381  33.419  27.572  1.00  0.00    -0.203 F 
ATOM     86  F   UNL A   1      34.088  32.682  31.859  1.00  0.00    -0.200 F 
ATOM     87  C   UNL A   1      34.449  33.558  29.695  1.00  0.00     0.200 A 
ATOM     88  F   UNL A   1      34.858  34.405  27.529  1.00  0.00    -0.200 F 
ATOM     89  F   UNL A   1      33.194  34.028  29.659  1.00  0.00    -0.200 F 
ENDBRANCH  55  79
BRANCH  67  90
ATOM     90  C   UNL A   1      43.155  35.236  31.870  1.00  0.00     0.064 A 
ATOM     91  C   UNL A   1      43.628  36.256  31.033  1.00  0.00     0.173 A 
ATOM     92  C   UNL A   1      43.002  35.521  33.236  1.00  0.00     0.173 A 
ATOM     93  F   UNL A   1      43.806  36.027  29.724  1.00  0.00    -0.203 F 
ATOM     94  C   UNL A   1      43.957  37.507  31.548  1.00  0.00     0.198 A 
ATOM     95  C   UNL A   1      43.305  36.781  33.741  1.00  0.00     0.198 A 
ATOM     96  F   UNL A   1      42.547  34.579  34.076  1.00  0.00    -0.203 F 
ATOM     97  F   UNL A   1      44.449  38.455  30.737  1.00  0.00    -0.200 F 
ATOM     98  C   UNL A   1      43.787  37.771  32.899  1.00  0.00     0.200 A 
ATOM     99  F   UNL A   1      43.129  37.039  35.045  1.00  0.00    -0.200 F 
ATOM    100  F   UNL A   1      44.097  38.978  33.391  1.00  0.00    -0.200 F 
ENDBRANCH  67  90
ENDBRANCH  41  42
ENDBRANCH  33  36
ENDBRANCH  31  32
ENDBRANCH  30  31
ENDBRANCH  29  30
ENDBRANCH   1  29
TORSDOF 16
ENDMDL
