MODEL 1
REMARK VINA RESULT:     -11.8      0.000      0.000
REMARK SMILES O=C(C[C@@H]1CSCC[NH2+]1)NC[C@@H](C(=O)NCCCCCCNC(=O)c1ccc(-c2c3nc(c(-c4c(F)c(F)c(F)c(F)c4F)c4ccc([nH]4)c(-c4c(F)c(F)c(F)c(F)c4F)c4nc(c(-c5c(F)c(F)c(F)c(F)c5F)c5ccc2[nH]5)C=C4)C=C3)cc1)c1ccccc1
REMARK SMILES IDX 17 1 16 2 15 3 13 4 14 5 12 7 11 8 10 9 1 10 2 11 3 13 4 14
REMARK SMILES IDX 5 15 9 16 6 17 8 18 7 21 88 22 89 23 93 24 90 25 92 26 91 27
REMARK SMILES IDX 18 28 19 29 20 30 21 31 22 32 23 33 24 35 25 36 26 37 87 38
REMARK SMILES IDX 27 39 86 40 28 41 29 42 30 43 80 44 31 45 85 46 79 47 81 48
REMARK SMILES IDX 32 49 84 50 78 51 77 52 33 54 65 55 45 56 64 57 46 58 49 59
REMARK SMILES IDX 63 60 82 61 47 62 48 63 62 65 83 66 50 67 34 68 35 69 43 70
REMARK SMILES IDX 36 71 37 72 41 73 44 74 38 75 39 76 42 77 40 78 66 79 67 80
REMARK SMILES IDX 75 81 68 82 69 83 73 84 76 85 70 86 71 87 74 88 72 89 51 90
REMARK SMILES IDX 52 91 60 92 53 93 54 94 58 95 61 96 55 97 56 98 59 99 57 100
REMARK H PARENT 15 6 10 12 9 19 9 20 22 34 81 53 49 64
REMARK Flexibility Score: inf
ROOT
ATOM      1  C   UNL A   1      33.251  29.268  24.703  1.00  0.00     0.021 C 
ENDROOT
BRANCH   1   2
ATOM      2  C   UNL A   1      33.423  27.746  24.615  1.00  0.00     0.116 C 
BRANCH   2   3
ATOM      3  N   UNL A   1      32.864  27.280  23.361  1.00  0.00    -0.356 N 
ATOM      4  C   UNL A   1      31.604  26.834  23.075  1.00  0.00     0.229 C 
ATOM      5  O   UNL A   1      31.499  26.094  22.093  1.00  0.00    -0.274 OA
ATOM      6  H   UNL A   1      33.487  27.287  22.599  1.00  0.00     0.163 HD
BRANCH   4   7
ATOM      7  C   UNL A   1      30.387  27.269  23.919  1.00  0.00     0.127 C 
BRANCH   7   8
ATOM      8  C   UNL A   1      29.538  26.037  24.298  1.00  0.00     0.134 C 
BRANCH   8   9
ATOM      9  N   UNL A   1      30.272  24.788  24.439  1.00  0.00    -0.355 N 
ATOM     10  O   UNL A   1      30.545  24.922  26.700  1.00  0.00    -0.275 OA
ATOM     11  C   UNL A   1      30.652  24.283  25.656  1.00  0.00     0.226 C 
ATOM     12  H   UNL A   1      30.506  24.284  23.625  1.00  0.00     0.163 HD
BRANCH  11  13
ATOM     13  C   UNL A   1      31.350  22.933  25.647  1.00  0.00     0.165 C 
BRANCH  13  14
ATOM     14  C   UNL A   1      32.239  22.517  24.451  1.00  0.00     0.201 C 
ATOM     15  C   UNL A   1      32.387  21.021  24.111  1.00  0.00     0.135 C 
ATOM     16  N   UNL A   1      33.565  23.194  24.503  1.00  0.00    -0.342 N 
ATOM     17  S   UNL A   1      33.275  20.095  25.383  1.00  0.00    -0.150 SA
ATOM     18  C   UNL A   1      34.472  22.602  25.513  1.00  0.00     0.271 C 
ATOM     19  H   UNL A   1      33.420  24.178  24.733  1.00  0.00     0.346 HD
ATOM     20  H   UNL A   1      34.005  23.078  23.590  1.00  0.00     0.346 HD
ATOM     21  C   UNL A   1      34.782  21.108  25.344  1.00  0.00     0.131 C 
ENDBRANCH  13  14
ENDBRANCH  11  13
ENDBRANCH   8   9
ENDBRANCH   7   8
BRANCH   7  22
ATOM     22  C   UNL A   1      29.589  28.331  23.135  1.00  0.00    -0.034 A 
ATOM     23  C   UNL A   1      28.183  28.323  23.214  1.00  0.00     0.004 A 
ATOM     24  C   UNL A   1      30.196  29.358  22.391  1.00  0.00     0.004 A 
ATOM     25  C   UNL A   1      27.422  29.323  22.602  1.00  0.00     0.000 A 
ATOM     26  C   UNL A   1      29.431  30.348  21.767  1.00  0.00     0.000 A 
ATOM     27  C   UNL A   1      28.046  30.336  21.880  1.00  0.00     0.000 A 
ENDBRANCH   7  22
ENDBRANCH   4   7
ENDBRANCH   2   3
ENDBRANCH   1   2
BRANCH   1  28
ATOM     28  C   UNL A   1      32.553  29.768  25.968  1.00  0.00     0.002 C 
BRANCH  28  29
ATOM     29  C   UNL A   1      31.276  30.573  25.718  1.00  0.00     0.002 C 
BRANCH  29  30
ATOM     30  C   UNL A   1      31.203  31.937  26.416  1.00  0.00     0.021 C 
BRANCH  30  31
ATOM     31  C   UNL A   1      32.522  32.462  26.981  1.00  0.00     0.116 C 
BRANCH  31  32
ATOM     32  N   UNL A   1      32.423  33.846  27.408  1.00  0.00    -0.352 N 
ATOM     33  C   UNL A   1      33.074  34.502  28.416  1.00  0.00     0.251 C 
ATOM     34  H   UNL A   1      31.791  34.396  26.893  1.00  0.00     0.163 HD
ATOM     35  O   UNL A   1      32.693  35.631  28.748  1.00  0.00    -0.269 OA
BRANCH  33  36
ATOM     36  C   UNL A   1      34.219  33.890  29.124  1.00  0.00     0.039 A 
ATOM     37  C   UNL A   1      35.512  34.279  28.765  1.00  0.00     0.014 A 
ATOM     38  C   UNL A   1      34.037  32.883  30.078  1.00  0.00     0.014 A 
ATOM     39  C   UNL A   1      36.620  33.680  29.372  1.00  0.00     0.010 A 
ATOM     40  C   UNL A   1      35.141  32.330  30.730  1.00  0.00     0.010 A 
ATOM     41  C   UNL A   1      36.444  32.707  30.368  1.00  0.00    -0.014 A 
BRANCH  41  42
ATOM     42  C   UNL A   1      37.616  32.031  30.985  1.00  0.00     0.031 A 
ATOM     43  C   UNL A   1      38.065  32.422  32.368  1.00  0.00     0.074 A 
ATOM     44  C   UNL A   1      38.287  31.083  30.302  1.00  0.00     0.049 A 
ATOM     45  N   UNL A   1      39.089  31.990  33.061  1.00  0.00    -0.248 NA
ATOM     46  C   UNL A   1      37.270  33.452  33.054  1.00  0.00     0.031 C 
ATOM     47  C   UNL A   1      37.974  30.635  28.945  1.00  0.00     0.029 A 
ATOM     48  N   UNL A   1      39.378  30.329  30.657  1.00  0.00    -0.354 N 
ATOM     49  C   UNL A   1      39.062  32.697  34.256  1.00  0.00     0.074 A 
ATOM     50  C   UNL A   1      37.957  33.627  34.173  1.00  0.00     0.031 C 
ATOM     51  C   UNL A   1      38.843  29.676  28.587  1.00  0.00     0.029 A 
ATOM     52  C   UNL A   1      39.790  29.459  29.677  1.00  0.00     0.049 A 
ATOM     53  H   UNL A   1      39.823  30.405  31.532  1.00  0.00     0.167 HD
ATOM     54  C   UNL A   1      39.868  32.566  35.339  1.00  0.00     0.037 A 
ATOM     55  C   UNL A   1      40.816  28.587  29.661  1.00  0.00     0.037 A 
ATOM     56  C   UNL A   1      40.953  31.626  35.433  1.00  0.00     0.049 A 
ATOM     57  C   UNL A   1      41.685  28.451  30.884  1.00  0.00     0.074 A 
ATOM     58  C   UNL A   1      41.828  31.416  36.486  1.00  0.00     0.029 A 
ATOM     59  N   UNL A   1      41.304  30.727  34.438  1.00  0.00    -0.354 N 
ATOM     60  N   UNL A   1      41.628  29.104  32.018  1.00  0.00    -0.248 NA
ATOM     61  C   UNL A   1      42.750  27.439  30.830  1.00  0.00     0.031 C 
ATOM     62  C   UNL A   1      42.721  30.403  36.120  1.00  0.00     0.029 A 
ATOM     63  C   UNL A   1      42.376  29.954  34.856  1.00  0.00     0.049 A 
ATOM     64  H   UNL A   1      40.858  30.648  33.564  1.00  0.00     0.167 HD
ATOM     65  C   UNL A   1      42.619  28.558  32.824  1.00  0.00     0.074 A 
ATOM     66  C   UNL A   1      43.252  27.509  32.053  1.00  0.00     0.031 C 
ATOM     67  C   UNL A   1      42.973  28.893  34.088  1.00  0.00     0.037 A 
BRANCH  54  68
ATOM     68  C   UNL A   1      39.591  33.450  36.519  1.00  0.00     0.064 A 
ATOM     69  C   UNL A   1      38.757  33.027  37.567  1.00  0.00     0.173 A 
ATOM     70  C   UNL A   1      40.195  34.710  36.631  1.00  0.00     0.173 A 
ATOM     71  F   UNL A   1      38.144  31.836  37.502  1.00  0.00    -0.203 F 
ATOM     72  C   UNL A   1      38.522  33.843  38.670  1.00  0.00     0.198 A 
ATOM     73  C   UNL A   1      39.980  35.513  37.748  1.00  0.00     0.198 A 
ATOM     74  F   UNL A   1      41.004  35.161  35.659  1.00  0.00    -0.203 F 
ATOM     75  F   UNL A   1      37.688  33.436  39.636  1.00  0.00    -0.200 F 
ATOM     76  C   UNL A   1      39.140  35.081  38.764  1.00  0.00     0.200 A 
ATOM     77  F   UNL A   1      40.587  36.703  37.844  1.00  0.00    -0.200 F 
ATOM     78  F   UNL A   1      38.920  35.862  39.831  1.00  0.00    -0.200 F 
ENDBRANCH  54  68
BRANCH  55  79
ATOM     79  C   UNL A   1      41.070  27.750  28.459  1.00  0.00     0.064 A 
ATOM     80  C   UNL A   1      41.943  28.181  27.450  1.00  0.00     0.173 A 
ATOM     81  C   UNL A   1      40.418  26.521  28.277  1.00  0.00     0.173 A 
ATOM     82  F   UNL A   1      42.574  29.358  27.568  1.00  0.00    -0.203 F 
ATOM     83  C   UNL A   1      42.126  27.433  26.288  1.00  0.00     0.198 A 
ATOM     84  C   UNL A   1      40.626  25.760  27.130  1.00  0.00     0.198 A 
ATOM     85  F   UNL A   1      39.579  26.061  29.216  1.00  0.00    -0.203 F 
ATOM     86  F   UNL A   1      42.918  27.898  25.312  1.00  0.00    -0.200 F 
ATOM     87  C   UNL A   1      41.470  26.222  26.130  1.00  0.00     0.200 A 
ATOM     88  F   UNL A   1      40.001  24.583  26.986  1.00  0.00    -0.200 F 
ATOM     89  F   UNL A   1      41.642  25.506  25.011  1.00  0.00    -0.200 F 
ENDBRANCH  55  79
BRANCH  67  90
ATOM     90  C   UNL A   1      44.051  28.078  34.740  1.00  0.00     0.064 A 
ATOM     91  C   UNL A   1      45.402  28.445  34.669  1.00  0.00     0.173 A 
ATOM     92  C   UNL A   1      43.720  26.921  35.462  1.00  0.00     0.173 A 
ATOM     93  F   UNL A   1      45.770  29.535  33.979  1.00  0.00    -0.203 F 
ATOM     94  C   UNL A   1      46.387  27.665  35.270  1.00  0.00     0.198 A 
ATOM     95  C   UNL A   1      44.703  26.160  36.086  1.00  0.00     0.198 A 
ATOM     96  F   UNL A   1      42.440  26.533  35.566  1.00  0.00    -0.203 F 
ATOM     97  F   UNL A   1      47.677  28.004  35.143  1.00  0.00    -0.200 F 
ATOM     98  C   UNL A   1      46.037  26.527  35.982  1.00  0.00     0.200 A 
ATOM     99  F   UNL A   1      44.362  25.068  36.784  1.00  0.00    -0.200 F 
ATOM    100  F   UNL A   1      46.985  25.778  36.559  1.00  0.00    -0.200 F 
ENDBRANCH  67  90
ENDBRANCH  41  42
ENDBRANCH  33  36
ENDBRANCH  31  32
ENDBRANCH  30  31
ENDBRANCH  29  30
ENDBRANCH  28  29
ENDBRANCH   1  28
TORSDOF 18
ENDMDL
MODEL 2
REMARK VINA RESULT:     -11.6      5.100      9.217
REMARK SMILES O=C(C[C@@H]1CSCC[NH2+]1)NC[C@@H](C(=O)NCCCCCCNC(=O)c1ccc(-c2c3nc(c(-c4c(F)c(F)c(F)c(F)c4F)c4ccc([nH]4)c(-c4c(F)c(F)c(F)c(F)c4F)c4nc(c(-c5c(F)c(F)c(F)c(F)c5F)c5ccc2[nH]5)C=C4)C=C3)cc1)c1ccccc1
REMARK SMILES IDX 17 1 16 2 15 3 13 4 14 5 12 7 11 8 10 9 1 10 2 11 3 13 4 14
REMARK SMILES IDX 5 15 9 16 6 17 8 18 7 21 88 22 89 23 93 24 90 25 92 26 91 27
REMARK SMILES IDX 18 28 19 29 20 30 21 31 22 32 23 33 24 35 25 36 26 37 87 38
REMARK SMILES IDX 27 39 86 40 28 41 29 42 30 43 80 44 31 45 85 46 79 47 81 48
REMARK SMILES IDX 32 49 84 50 78 51 77 52 33 54 65 55 45 56 64 57 46 58 49 59
REMARK SMILES IDX 63 60 82 61 47 62 48 63 62 65 83 66 50 67 34 68 35 69 43 70
REMARK SMILES IDX 36 71 37 72 41 73 44 74 38 75 39 76 42 77 40 78 66 79 67 80
REMARK SMILES IDX 75 81 68 82 69 83 73 84 76 85 70 86 71 87 74 88 72 89 51 90
REMARK SMILES IDX 52 91 60 92 53 93 54 94 58 95 61 96 55 97 56 98 59 99 57 100
REMARK H PARENT 15 6 10 12 9 19 9 20 22 34 81 53 49 64
REMARK Flexibility Score: inf
ROOT
ATOM      1  C   UNL A   1      37.022  23.199  25.724  1.00  0.00     0.021 C 
ENDROOT
BRANCH   1   2
ATOM      2  C   UNL A   1      35.624  23.822  25.812  1.00  0.00     0.116 C 
BRANCH   2   3
ATOM      3  N   UNL A   1      35.293  24.419  24.533  1.00  0.00    -0.356 N 
ATOM      4  C   UNL A   1      34.103  24.450  23.861  1.00  0.00     0.229 C 
ATOM      5  O   UNL A   1      34.172  24.609  22.639  1.00  0.00    -0.274 OA
ATOM      6  H   UNL A   1      36.039  24.874  24.079  1.00  0.00     0.163 HD
BRANCH   4   7
ATOM      7  C   UNL A   1      32.757  24.326  24.606  1.00  0.00     0.127 C 
BRANCH   7   8
ATOM      8  C   UNL A   1      31.827  23.346  23.861  1.00  0.00     0.134 C 
BRANCH   8   9
ATOM      9  N   UNL A   1      32.376  22.020  23.620  1.00  0.00    -0.355 N 
ATOM     10  O   UNL A   1      31.577  21.076  25.537  1.00  0.00    -0.275 OA
ATOM     11  C   UNL A   1      32.136  20.954  24.450  1.00  0.00     0.226 C 
ATOM     12  H   UNL A   1      32.945  21.881  22.828  1.00  0.00     0.163 HD
BRANCH  11  13
ATOM     13  C   UNL A   1      32.719  19.616  24.029  1.00  0.00     0.165 C 
BRANCH  13  14
ATOM     14  C   UNL A   1      33.691  18.856  24.962  1.00  0.00     0.201 C 
ATOM     15  C   UNL A   1      34.724  17.892  24.344  1.00  0.00     0.135 C 
ATOM     16  N   UNL A   1      32.964  18.216  26.094  1.00  0.00    -0.342 N 
ATOM     17  S   UNL A   1      33.964  16.441  23.582  1.00  0.00    -0.150 SA
ATOM     18  C   UNL A   1      32.237  16.992  25.690  1.00  0.00     0.271 C 
ATOM     19  H   UNL A   1      32.293  18.886  26.470  1.00  0.00     0.346 HD
ATOM     20  H   UNL A   1      33.659  17.944  26.790  1.00  0.00     0.346 HD
ATOM     21  C   UNL A   1      33.089  15.877  25.069  1.00  0.00     0.131 C 
ENDBRANCH  13  14
ENDBRANCH  11  13
ENDBRANCH   8   9
ENDBRANCH   7   8
BRANCH   7  22
ATOM     22  C   UNL A   1      32.144  25.733  24.765  1.00  0.00    -0.034 A 
ATOM     23  C   UNL A   1      32.321  26.420  25.981  1.00  0.00     0.004 A 
ATOM     24  C   UNL A   1      31.467  26.401  23.730  1.00  0.00     0.004 A 
ATOM     25  C   UNL A   1      31.870  27.734  26.139  1.00  0.00     0.000 A 
ATOM     26  C   UNL A   1      31.002  27.709  23.896  1.00  0.00     0.000 A 
ATOM     27  C   UNL A   1      31.212  28.379  25.096  1.00  0.00     0.000 A 
ENDBRANCH   7  22
ENDBRANCH   4   7
ENDBRANCH   2   3
ENDBRANCH   1   2
BRANCH   1  28
ATOM     28  C   UNL A   1      37.227  22.230  24.559  1.00  0.00     0.002 C 
BRANCH  28  29
ATOM     29  C   UNL A   1      36.930  20.765  24.885  1.00  0.00     0.002 C 
BRANCH  29  30
ATOM     30  C   UNL A   1      38.146  19.831  24.917  1.00  0.00     0.021 C 
BRANCH  30  31
ATOM     31  C   UNL A   1      39.209  20.166  25.962  1.00  0.00     0.116 C 
BRANCH  31  32
ATOM     32  N   UNL A   1      40.308  19.217  25.950  1.00  0.00    -0.352 N 
ATOM     33  C   UNL A   1      41.655  19.432  26.057  1.00  0.00     0.251 C 
ATOM     34  H   UNL A   1      40.043  18.275  25.848  1.00  0.00     0.163 HD
ATOM     35  O   UNL A   1      42.436  18.504  25.815  1.00  0.00    -0.269 OA
BRANCH  33  36
ATOM     36  C   UNL A   1      42.198  20.749  26.449  1.00  0.00     0.039 A 
ATOM     37  C   UNL A   1      42.210  21.091  27.805  1.00  0.00     0.014 A 
ATOM     38  C   UNL A   1      42.620  21.681  25.495  1.00  0.00     0.014 A 
ATOM     39  C   UNL A   1      42.663  22.351  28.207  1.00  0.00     0.010 A 
ATOM     40  C   UNL A   1      43.133  22.915  25.902  1.00  0.00     0.010 A 
ATOM     41  C   UNL A   1      43.138  23.271  27.260  1.00  0.00    -0.014 A 
BRANCH  41  42
ATOM     42  C   UNL A   1      43.578  24.630  27.674  1.00  0.00     0.031 A 
ATOM     43  C   UNL A   1      42.552  25.682  28.005  1.00  0.00     0.074 A 
ATOM     44  C   UNL A   1      44.890  24.927  27.734  1.00  0.00     0.049 A 
ATOM     45  N   UNL A   1      42.727  26.936  28.337  1.00  0.00    -0.248 NA
ATOM     46  C   UNL A   1      41.140  25.274  27.931  1.00  0.00     0.031 C 
ATOM     47  C   UNL A   1      45.982  24.009  27.410  1.00  0.00     0.029 A 
ATOM     48  N   UNL A   1      45.528  26.090  28.087  1.00  0.00    -0.354 N 
ATOM     49  C   UNL A   1      41.454  27.465  28.506  1.00  0.00     0.074 A 
ATOM     50  C   UNL A   1      40.514  26.413  28.183  1.00  0.00     0.031 C 
ATOM     51  C   UNL A   1      47.154  24.639  27.590  1.00  0.00     0.029 A 
ATOM     52  C   UNL A   1      46.898  26.011  28.019  1.00  0.00     0.049 A 
ATOM     53  H   UNL A   1      45.048  26.905  28.363  1.00  0.00     0.167 HD
ATOM     54  C   UNL A   1      41.098  28.706  28.919  1.00  0.00     0.037 A 
ATOM     55  C   UNL A   1      47.838  26.942  28.271  1.00  0.00     0.037 A 
ATOM     56  C   UNL A   1      42.031  29.746  29.262  1.00  0.00     0.049 A 
ATOM     57  C   UNL A   1      47.413  28.308  28.744  1.00  0.00     0.074 A 
ATOM     58  C   UNL A   1      41.770  31.037  29.690  1.00  0.00     0.029 A 
ATOM     59  N   UNL A   1      43.410  29.608  29.229  1.00  0.00    -0.354 N 
ATOM     60  N   UNL A   1      46.206  28.783  28.928  1.00  0.00    -0.248 NA
ATOM     61  C   UNL A   1      48.486  29.260  29.063  1.00  0.00     0.031 C 
ATOM     62  C   UNL A   1      42.992  31.686  29.897  1.00  0.00     0.029 A 
ATOM     63  C   UNL A   1      44.012  30.787  29.638  1.00  0.00     0.049 A 
ATOM     64  H   UNL A   1      43.890  28.793  28.956  1.00  0.00     0.167 HD
ATOM     65  C   UNL A   1      46.374  30.070  29.421  1.00  0.00     0.074 A 
ATOM     66  C   UNL A   1      47.801  30.297  29.520  1.00  0.00     0.031 C 
ATOM     67  C   UNL A   1      45.433  30.983  29.761  1.00  0.00     0.037 A 
BRANCH  54  68
ATOM     68  C   UNL A   1      39.631  29.000  29.041  1.00  0.00     0.064 A 
ATOM     69  C   UNL A   1      38.862  29.353  27.922  1.00  0.00     0.173 A 
ATOM     70  C   UNL A   1      38.977  28.887  30.277  1.00  0.00     0.173 A 
ATOM     71  F   UNL A   1      39.443  29.488  26.720  1.00  0.00    -0.203 F 
ATOM     72  C   UNL A   1      37.498  29.603  28.038  1.00  0.00     0.198 A 
ATOM     73  C   UNL A   1      37.606  29.111  30.386  1.00  0.00     0.198 A 
ATOM     74  F   UNL A   1      39.665  28.548  31.379  1.00  0.00    -0.203 F 
ATOM     75  F   UNL A   1      36.793  29.981  26.963  1.00  0.00    -0.200 F 
ATOM     76  C   UNL A   1      36.870  29.474  29.268  1.00  0.00     0.200 A 
ATOM     77  F   UNL A   1      36.998  28.973  31.571  1.00  0.00    -0.200 F 
ATOM     78  F   UNL A   1      35.554  29.706  29.378  1.00  0.00    -0.200 F 
ENDBRANCH  54  68
BRANCH  55  79
ATOM     79  C   UNL A   1      49.279  26.614  28.110  1.00  0.00     0.064 A 
ATOM     80  C   UNL A   1      50.080  26.314  29.221  1.00  0.00     0.173 A 
ATOM     81  C   UNL A   1      49.892  26.629  26.849  1.00  0.00     0.173 A 
ATOM     82  F   UNL A   1      49.544  26.306  30.450  1.00  0.00    -0.203 F 
ATOM     83  C   UNL A   1      51.447  26.078  29.081  1.00  0.00     0.198 A 
ATOM     84  C   UNL A   1      51.252  26.364  26.707  1.00  0.00     0.198 A 
ATOM     85  F   UNL A   1      49.169  26.903  25.754  1.00  0.00    -0.203 F 
ATOM     86  F   UNL A   1      52.200  25.855  30.167  1.00  0.00    -0.200 F 
ATOM     87  C   UNL A   1      52.031  26.101  27.825  1.00  0.00     0.200 A 
ATOM     88  F   UNL A   1      51.811  26.372  25.489  1.00  0.00    -0.200 F 
ATOM     89  F   UNL A   1      53.345  25.880  27.691  1.00  0.00    -0.200 F 
ENDBRANCH  55  79
BRANCH  67  90
ATOM     90  C   UNL A   1      45.912  32.286  30.332  1.00  0.00     0.064 A 
ATOM     91  C   UNL A   1      46.102  32.466  31.709  1.00  0.00     0.173 A 
ATOM     92  C   UNL A   1      46.202  33.364  29.480  1.00  0.00     0.173 A 
ATOM     93  F   UNL A   1      45.825  31.470  32.564  1.00  0.00    -0.203 F 
ATOM     94  C   UNL A   1      46.533  33.689  32.218  1.00  0.00     0.198 A 
ATOM     95  C   UNL A   1      46.661  34.575  29.989  1.00  0.00     0.198 A 
ATOM     96  F   UNL A   1      46.045  33.239  28.154  1.00  0.00    -0.203 F 
ATOM     97  F   UNL A   1      46.655  33.856  33.541  1.00  0.00    -0.200 F 
ATOM     98  C   UNL A   1      46.817  34.741  31.358  1.00  0.00     0.200 A 
ATOM     99  F   UNL A   1      46.947  35.586  29.156  1.00  0.00    -0.200 F 
ATOM    100  F   UNL A   1      47.232  35.916  31.848  1.00  0.00    -0.200 F 
ENDBRANCH  67  90
ENDBRANCH  41  42
ENDBRANCH  33  36
ENDBRANCH  31  32
ENDBRANCH  30  31
ENDBRANCH  29  30
ENDBRANCH  28  29
ENDBRANCH   1  28
TORSDOF 18
ENDMDL
MODEL 3
REMARK VINA RESULT:     -11.5      0.961      7.319
REMARK SMILES O=C(C[C@@H]1CSCC[NH2+]1)NC[C@@H](C(=O)NCCCCCCNC(=O)c1ccc(-c2c3nc(c(-c4c(F)c(F)c(F)c(F)c4F)c4ccc([nH]4)c(-c4c(F)c(F)c(F)c(F)c4F)c4nc(c(-c5c(F)c(F)c(F)c(F)c5F)c5ccc2[nH]5)C=C4)C=C3)cc1)c1ccccc1
REMARK SMILES IDX 17 1 16 2 15 3 13 4 14 5 12 7 11 8 10 9 1 10 2 11 3 13 4 14
REMARK SMILES IDX 5 15 9 16 6 17 8 18 7 21 88 22 89 23 93 24 90 25 92 26 91 27
REMARK SMILES IDX 18 28 19 29 20 30 21 31 22 32 23 33 24 35 25 36 26 37 87 38
REMARK SMILES IDX 27 39 86 40 28 41 29 42 30 43 80 44 31 45 85 46 79 47 81 48
REMARK SMILES IDX 32 49 84 50 78 51 77 52 33 54 65 55 45 56 64 57 46 58 49 59
REMARK SMILES IDX 63 60 82 61 47 62 48 63 62 65 83 66 50 67 34 68 35 69 43 70
REMARK SMILES IDX 36 71 37 72 41 73 44 74 38 75 39 76 42 77 40 78 66 79 67 80
REMARK SMILES IDX 75 81 68 82 69 83 73 84 76 85 70 86 71 87 74 88 72 89 51 90
REMARK SMILES IDX 52 91 60 92 53 93 54 94 58 95 61 96 55 97 56 98 59 99 57 100
REMARK H PARENT 15 6 10 12 9 19 9 20 22 34 81 53 49 64
REMARK Flexibility Score: inf
ROOT
ATOM      1  C   UNL A   1      33.400  29.319  25.413  1.00  0.00     0.021 C 
ENDROOT
BRANCH   1   2
ATOM      2  C   UNL A   1      33.568  27.797  25.511  1.00  0.00     0.116 C 
BRANCH   2   3
ATOM      3  N   UNL A   1      33.168  27.197  24.253  1.00  0.00    -0.356 N 
ATOM      4  C   UNL A   1      31.989  26.602  23.902  1.00  0.00     0.229 C 
ATOM      5  O   UNL A   1      32.043  25.795  22.970  1.00  0.00    -0.274 OA
ATOM      6  H   UNL A   1      33.850  27.223  23.543  1.00  0.00     0.163 HD
BRANCH   4   7
ATOM      7  C   UNL A   1      30.667  26.955  24.616  1.00  0.00     0.127 C 
BRANCH   7   8
ATOM      8  C   UNL A   1      29.874  25.670  24.929  1.00  0.00     0.134 C 
BRANCH   8   9
ATOM      9  N   UNL A   1      30.665  24.451  25.024  1.00  0.00    -0.355 N 
ATOM     10  O   UNL A   1      30.052  23.932  27.159  1.00  0.00    -0.275 OA
ATOM     11  C   UNL A   1      30.627  23.625  26.118  1.00  0.00     0.226 C 
ATOM     12  H   UNL A   1      31.252  24.210  24.271  1.00  0.00     0.163 HD
BRANCH  11  13
ATOM     13  C   UNL A   1      31.454  22.352  26.041  1.00  0.00     0.165 C 
BRANCH  13  14
ATOM     14  C   UNL A   1      32.823  22.262  26.757  1.00  0.00     0.201 C 
ATOM     15  C   UNL A   1      33.892  23.334  26.466  1.00  0.00     0.135 C 
ATOM     16  N   UNL A   1      33.393  20.889  26.661  1.00  0.00    -0.342 N 
ATOM     17  S   UNL A   1      34.519  23.262  24.774  1.00  0.00    -0.150 SA
ATOM     18  C   UNL A   1      33.959  20.595  25.325  1.00  0.00     0.271 C 
ATOM     19  H   UNL A   1      32.653  20.215  26.858  1.00  0.00     0.346 HD
ATOM     20  H   UNL A   1      34.154  20.825  27.337  1.00  0.00     0.346 HD
ATOM     21  C   UNL A   1      35.074  21.535  24.845  1.00  0.00     0.131 C 
ENDBRANCH  13  14
ENDBRANCH  11  13
ENDBRANCH   8   9
ENDBRANCH   7   8
BRANCH   7  22
ATOM     22  C   UNL A   1      29.877  27.950  23.740  1.00  0.00    -0.034 A 
ATOM     23  C   UNL A   1      30.580  28.950  23.041  1.00  0.00     0.004 A 
ATOM     24  C   UNL A   1      28.487  27.873  23.548  1.00  0.00     0.004 A 
ATOM     25  C   UNL A   1      29.921  29.811  22.159  1.00  0.00     0.000 A 
ATOM     26  C   UNL A   1      27.827  28.747  22.678  1.00  0.00     0.000 A 
ATOM     27  C   UNL A   1      28.545  29.709  21.976  1.00  0.00     0.000 A 
ENDBRANCH   7  22
ENDBRANCH   4   7
ENDBRANCH   2   3
ENDBRANCH   1   2
BRANCH   1  28
ATOM     28  C   UNL A   1      32.610  29.957  26.555  1.00  0.00     0.002 C 
BRANCH  28  29
ATOM     29  C   UNL A   1      31.352  30.712  26.121  1.00  0.00     0.002 C 
BRANCH  29  30
ATOM     30  C   UNL A   1      31.325  32.208  26.458  1.00  0.00     0.021 C 
BRANCH  30  31
ATOM     31  C   UNL A   1      32.553  32.742  27.194  1.00  0.00     0.116 C 
BRANCH  31  32
ATOM     32  N   UNL A   1      32.399  34.134  27.577  1.00  0.00    -0.352 N 
ATOM     33  C   UNL A   1      33.004  34.840  28.581  1.00  0.00     0.251 C 
ATOM     34  H   UNL A   1      31.762  34.649  27.032  1.00  0.00     0.163 HD
ATOM     35  O   UNL A   1      32.579  35.964  28.871  1.00  0.00    -0.269 OA
BRANCH  33  36
ATOM     36  C   UNL A   1      34.150  34.286  29.333  1.00  0.00     0.039 A 
ATOM     37  C   UNL A   1      35.440  34.506  28.842  1.00  0.00     0.014 A 
ATOM     38  C   UNL A   1      33.965  33.488  30.467  1.00  0.00     0.014 A 
ATOM     39  C   UNL A   1      36.544  33.949  29.495  1.00  0.00     0.010 A 
ATOM     40  C   UNL A   1      35.072  32.985  31.156  1.00  0.00     0.010 A 
ATOM     41  C   UNL A   1      36.370  33.191  30.664  1.00  0.00    -0.014 A 
BRANCH  41  42
ATOM     42  C   UNL A   1      37.533  32.556  31.337  1.00  0.00     0.031 A 
ATOM     43  C   UNL A   1      38.272  31.433  30.659  1.00  0.00     0.074 A 
ATOM     44  C   UNL A   1      37.915  32.970  32.561  1.00  0.00     0.049 A 
ATOM     45  N   UNL A   1      39.276  30.716  31.097  1.00  0.00    -0.248 NA
ATOM     46  C   UNL A   1      37.804  31.050  29.317  1.00  0.00     0.031 C 
ATOM     47  C   UNL A   1      37.266  34.026  33.339  1.00  0.00     0.029 A 
ATOM     48  N   UNL A   1      38.942  32.548  33.368  1.00  0.00    -0.354 N 
ATOM     49  C   UNL A   1      39.555  29.799  30.092  1.00  0.00     0.074 A 
ATOM     50  C   UNL A   1      38.578  30.010  29.046  1.00  0.00     0.031 C 
ATOM     51  C   UNL A   1      37.917  34.178  34.504  1.00  0.00     0.029 A 
ATOM     52  C   UNL A   1      39.013  33.214  34.567  1.00  0.00     0.049 A 
ATOM     53  H   UNL A   1      39.570  31.833  33.111  1.00  0.00     0.167 HD
ATOM     54  C   UNL A   1      40.551  28.882  30.031  1.00  0.00     0.037 A 
ATOM     55  C   UNL A   1      39.864  33.063  35.600  1.00  0.00     0.037 A 
ATOM     56  C   UNL A   1      41.537  28.685  31.060  1.00  0.00     0.049 A 
ATOM     57  C   UNL A   1      40.971  32.046  35.498  1.00  0.00     0.074 A 
ATOM     58  C   UNL A   1      42.586  27.782  31.093  1.00  0.00     0.029 A 
ATOM     59  N   UNL A   1      41.604  29.418  32.236  1.00  0.00    -0.354 N 
ATOM     60  N   UNL A   1      41.240  31.208  34.527  1.00  0.00    -0.248 NA
ATOM     61  C   UNL A   1      41.906  31.971  36.629  1.00  0.00     0.031 C 
ATOM     62  C   UNL A   1      43.276  27.954  32.298  1.00  0.00     0.029 A 
ATOM     63  C   UNL A   1      42.682  28.992  32.996  1.00  0.00     0.049 A 
ATOM     64  H   UNL A   1      40.979  30.133  32.492  1.00  0.00     0.167 HD
ATOM     65  C   UNL A   1      42.394  30.537  34.911  1.00  0.00     0.074 A 
ATOM     66  C   UNL A   1      42.781  31.075  36.199  1.00  0.00     0.031 C 
ATOM     67  C   UNL A   1      43.071  29.561  34.259  1.00  0.00     0.037 A 
BRANCH  54  68
ATOM     68  C   UNL A   1      40.635  28.031  28.797  1.00  0.00     0.064 A 
ATOM     69  C   UNL A   1      39.926  26.824  28.694  1.00  0.00     0.173 A 
ATOM     70  C   UNL A   1      41.392  28.443  27.691  1.00  0.00     0.173 A 
ATOM     71  F   UNL A   1      39.199  26.379  29.729  1.00  0.00    -0.203 F 
ATOM     72  C   UNL A   1      39.990  26.051  27.539  1.00  0.00     0.198 A 
ATOM     73  C   UNL A   1      41.432  27.681  26.526  1.00  0.00     0.198 A 
ATOM     74  F   UNL A   1      42.085  29.592  27.735  1.00  0.00    -0.203 F 
ATOM     75  F   UNL A   1      39.340  24.881  27.480  1.00  0.00    -0.200 F 
ATOM     76  C   UNL A   1      40.737  26.484  26.453  1.00  0.00     0.200 A 
ATOM     77  F   UNL A   1      42.143  28.107  25.473  1.00  0.00    -0.200 F 
ATOM     78  F   UNL A   1      40.790  25.743  25.336  1.00  0.00    -0.200 F 
ENDBRANCH  54  68
BRANCH  55  79
ATOM     79  C   UNL A   1      39.727  33.909  36.814  1.00  0.00     0.064 A 
ATOM     80  C   UNL A   1      38.928  33.503  37.892  1.00  0.00     0.173 A 
ATOM     81  C   UNL A   1      40.362  35.157  36.906  1.00  0.00     0.173 A 
ATOM     82  F   UNL A   1      38.285  32.327  37.842  1.00  0.00    -0.203 F 
ATOM     83  C   UNL A   1      38.740  34.327  39.000  1.00  0.00     0.198 A 
ATOM     84  C   UNL A   1      40.197  35.966  38.028  1.00  0.00     0.198 A 
ATOM     85  F   UNL A   1      41.143  35.589  35.906  1.00  0.00    -0.203 F 
ATOM     86  F   UNL A   1      37.921  33.939  39.988  1.00  0.00    -0.200 F 
ATOM     87  C   UNL A   1      39.376  35.557  39.069  1.00  0.00     0.200 A 
ATOM     88  F   UNL A   1      40.825  37.148  38.097  1.00  0.00    -0.200 F 
ATOM     89  F   UNL A   1      39.190  36.351  40.131  1.00  0.00    -0.200 F 
ENDBRANCH  55  79
BRANCH  67  90
ATOM     90  C   UNL A   1      44.335  29.059  34.894  1.00  0.00     0.064 A 
ATOM     91  C   UNL A   1      44.337  27.976  35.784  1.00  0.00     0.173 A 
ATOM     92  C   UNL A   1      45.565  29.663  34.588  1.00  0.00     0.173 A 
ATOM     93  F   UNL A   1      43.185  27.375  36.118  1.00  0.00    -0.203 F 
ATOM     94  C   UNL A   1      45.521  27.536  36.372  1.00  0.00     0.198 A 
ATOM     95  C   UNL A   1      46.749  29.202  35.154  1.00  0.00     0.198 A 
ATOM     96  F   UNL A   1      45.616  30.697  33.735  1.00  0.00    -0.203 F 
ATOM     97  F   UNL A   1      45.492  26.536  37.262  1.00  0.00    -0.200 F 
ATOM     98  C   UNL A   1      46.726  28.146  36.053  1.00  0.00     0.200 A 
ATOM     99  F   UNL A   1      47.914  29.784  34.836  1.00  0.00    -0.200 F 
ATOM    100  F   UNL A   1      47.863  27.722  36.619  1.00  0.00    -0.200 F 
ENDBRANCH  67  90
ENDBRANCH  41  42
ENDBRANCH  33  36
ENDBRANCH  31  32
ENDBRANCH  30  31
ENDBRANCH  29  30
ENDBRANCH  28  29
ENDBRANCH   1  28
TORSDOF 18
ENDMDL
