MODEL 1
REMARK VINA RESULT:     -11.6      0.000      0.000
REMARK SMILES CSCC[C@@H](C(=O)NCCCCCCNC(=O)c1ccc(-c2c3nc(c(-c4c(F)c(F)c(F)c(F)c4F)c4ccc([nH]4)c(-c4c(F)c(F)c(F)c(F)c4F)c4nc(c(-c5c(F)c(F)c(F)c(F)c5F)c5ccc2[nH]5)C=C4)C=C3)cc1)N1C(=O)/C(=C/c2ccc(-c3ccccc3Cl)o2)SC1=S
REMARK SMILES IDX 11 1 10 2 9 3 8 4 6 5 7 6 5 8 4 9 3 10 2 11 1 12 81 13 82 14
REMARK SMILES IDX 99 15 83 16 84 17 98 18 100 19 85 20 86 21 87 22 97 23 88 24
REMARK SMILES IDX 89 25 90 26 91 27 95 28 92 29 94 30 96 31 93 32 12 33 13 34
REMARK SMILES IDX 14 35 15 36 16 37 17 39 18 40 19 41 80 42 20 43 79 44 21 45
REMARK SMILES IDX 22 46 23 47 73 48 24 49 78 50 72 51 74 52 25 53 77 54 71 55
REMARK SMILES IDX 70 56 26 58 58 59 38 60 57 61 39 62 42 63 56 64 75 65 40 66
REMARK SMILES IDX 41 67 55 69 76 70 43 71 27 72 28 73 36 74 29 75 30 76 34 77
REMARK SMILES IDX 37 78 31 79 32 80 35 81 33 82 59 83 60 84 68 85 61 86 62 87
REMARK SMILES IDX 66 88 69 89 63 90 64 91 67 92 65 93 44 94 45 95 53 96 46 97
REMARK SMILES IDX 47 98 51 99 54 100 48 101 49 102 52 103 50 104
REMARK H PARENT 8 7 15 38 74 57 42 68
REMARK Flexibility Score: inf
ROOT
ATOM      1  C   UNL A   1      32.718  30.137  26.706  1.00  0.00     0.002 C 
ENDROOT
BRANCH   1   2
ATOM      2  C   UNL A   1      33.407  29.352  25.587  1.00  0.00     0.021 C 
BRANCH   2   3
ATOM      3  C   UNL A   1      33.592  27.874  25.936  1.00  0.00     0.116 C 
BRANCH   3   4
ATOM      4  N   UNL A   1      32.417  27.373  26.608  1.00  0.00    -0.354 N 
ATOM      5  C   UNL A   1      31.249  26.883  26.111  1.00  0.00     0.243 C 
ATOM      6  O   UNL A   1      30.377  26.611  26.942  1.00  0.00    -0.273 OA
ATOM      7  H   UNL A   1      32.470  27.389  27.591  1.00  0.00     0.163 HD
BRANCH   5   8
ATOM      8  C   UNL A   1      31.056  26.618  24.589  1.00  0.00     0.182 C 
BRANCH   8   9
ATOM      9  C   UNL A   1      29.604  26.333  24.149  1.00  0.00     0.046 C 
BRANCH   9  10
ATOM     10  C   UNL A   1      28.860  27.321  23.252  1.00  0.00     0.072 C 
BRANCH  10  11
ATOM     11  S   UNL A   1      29.642  28.942  22.925  1.00  0.00    -0.165 SA
ATOM     12  C   UNL A   1      28.297  30.122  23.180  1.00  0.00     0.085 C 
ENDBRANCH  10  11
ENDBRANCH   9  10
ENDBRANCH   8   9
BRANCH   8  13
ATOM     13  N   UNL A   1      31.971  25.465  24.318  1.00  0.00    -0.280 N 
ATOM     14  C   UNL A   1      31.921  24.327  25.116  1.00  0.00     0.267 C 
ATOM     15  C   UNL A   1      33.048  25.538  23.452  1.00  0.00     0.149 C 
ATOM     16  O   UNL A   1      31.127  24.096  26.017  1.00  0.00    -0.268 OA
ATOM     17  C   UNL A   1      33.013  23.389  24.767  1.00  0.00     0.084 C 
ATOM     18  S   UNL A   1      34.042  24.092  23.590  1.00  0.00    -0.054 SA
ATOM     19  S   UNL A   1      33.441  26.774  22.398  1.00  0.00    -0.052 S 
ATOM     20  C   UNL A   1      33.096  22.190  25.358  1.00  0.00     0.068 C 
BRANCH  20  21
ATOM     21  C   UNL A   1      34.195  21.316  25.174  1.00  0.00     0.128 A 
ATOM     22  C   UNL A   1      34.184  20.018  24.678  1.00  0.00     0.051 A 
ATOM     23  O   UNL A   1      35.503  21.657  25.433  1.00  0.00    -0.457 OA
ATOM     24  C   UNL A   1      35.514  19.551  24.659  1.00  0.00     0.051 A 
ATOM     25  C   UNL A   1      36.286  20.575  25.160  1.00  0.00     0.136 A 
BRANCH  25  26
ATOM     26  C   UNL A   1      37.714  20.698  25.412  1.00  0.00     0.036 A 
ATOM     27  C   UNL A   1      38.491  19.525  25.411  1.00  0.00     0.013 A 
ATOM     28  C   UNL A   1      38.336  21.912  25.748  1.00  0.00     0.052 A 
ATOM     29  C   UNL A   1      39.846  19.557  25.749  1.00  0.00     0.001 A 
ATOM     30  C   UNL A   1      39.694  21.939  26.088  1.00  0.00     0.021 A 
ATOM     31  Cl  UNL A   1      37.475  23.412  25.831  1.00  0.00    -0.084 Cl
ATOM     32  C   UNL A   1      40.446  20.764  26.095  1.00  0.00     0.002 A 
ENDBRANCH  25  26
ENDBRANCH  20  21
ENDBRANCH   8  13
ENDBRANCH   5   8
ENDBRANCH   3   4
ENDBRANCH   2   3
ENDBRANCH   1   2
BRANCH   1  33
ATOM     33  C   UNL A   1      31.443  30.867  26.263  1.00  0.00     0.002 C 
BRANCH  33  34
ATOM     34  C   UNL A   1      31.390  32.357  26.614  1.00  0.00     0.021 C 
BRANCH  34  35
ATOM     35  C   UNL A   1      32.670  32.912  27.231  1.00  0.00     0.116 C 
BRANCH  35  36
ATOM     36  N   UNL A   1      32.497  34.279  27.693  1.00  0.00    -0.352 N 
ATOM     37  C   UNL A   1      33.076  34.922  28.756  1.00  0.00     0.251 C 
ATOM     38  H   UNL A   1      31.872  34.825  27.162  1.00  0.00     0.163 HD
ATOM     39  O   UNL A   1      32.642  36.006  29.131  1.00  0.00    -0.269 OA
BRANCH  37  40
ATOM     40  C   UNL A   1      34.223  34.306  29.454  1.00  0.00     0.039 A 
ATOM     41  C   UNL A   1      35.518  34.636  29.048  1.00  0.00     0.014 A 
ATOM     42  C   UNL A   1      34.021  33.376  30.479  1.00  0.00     0.014 A 
ATOM     43  C   UNL A   1      36.612  34.059  29.693  1.00  0.00     0.010 A 
ATOM     44  C   UNL A   1      35.112  32.859  31.169  1.00  0.00     0.010 A 
ATOM     45  C   UNL A   1      36.419  33.181  30.771  1.00  0.00    -0.014 A 
BRANCH  45  46
ATOM     46  C   UNL A   1      37.569  32.554  31.468  1.00  0.00     0.031 A 
ATOM     47  C   UNL A   1      38.284  31.392  30.834  1.00  0.00     0.074 A 
ATOM     48  C   UNL A   1      37.939  32.997  32.685  1.00  0.00     0.049 A 
ATOM     49  N   UNL A   1      39.253  30.653  31.313  1.00  0.00    -0.248 NA
ATOM     50  C   UNL A   1      37.833  30.991  29.492  1.00  0.00     0.031 C 
ATOM     51  C   UNL A   1      37.298  34.091  33.418  1.00  0.00     0.029 A 
ATOM     52  N   UNL A   1      38.934  32.572  33.528  1.00  0.00    -0.354 N 
ATOM     53  C   UNL A   1      39.519  29.700  30.337  1.00  0.00     0.074 A 
ATOM     54  C   UNL A   1      38.571  29.914  29.266  1.00  0.00     0.031 C 
ATOM     55  C   UNL A   1      37.926  34.260  34.593  1.00  0.00     0.029 A 
ATOM     56  C   UNL A   1      38.986  33.263  34.713  1.00  0.00     0.049 A 
ATOM     57  H   UNL A   1      39.554  31.841  33.303  1.00  0.00     0.167 HD
ATOM     58  C   UNL A   1      40.487  28.754  30.322  1.00  0.00     0.037 A 
ATOM     59  C   UNL A   1      39.791  33.101  35.781  1.00  0.00     0.037 A 
ATOM     60  C   UNL A   1      41.441  28.558  31.381  1.00  0.00     0.049 A 
ATOM     61  C   UNL A   1      40.852  32.032  35.741  1.00  0.00     0.074 A 
ATOM     62  C   UNL A   1      42.473  27.639  31.455  1.00  0.00     0.029 A 
ATOM     63  N   UNL A   1      41.483  29.303  32.550  1.00  0.00    -0.354 N 
ATOM     64  N   UNL A   1      41.123  31.169  34.792  1.00  0.00    -0.248 NA
ATOM     65  C   UNL A   1      41.728  31.922  36.916  1.00  0.00     0.031 C 
ATOM     66  C   UNL A   1      43.120  27.805  32.683  1.00  0.00     0.029 A 
ATOM     67  C   UNL A   1      42.523  28.861  33.352  1.00  0.00     0.049 A 
ATOM     68  H   UNL A   1      40.867  30.036  32.776  1.00  0.00     0.167 HD
ATOM     69  C   UNL A   1      42.221  30.444  35.237  1.00  0.00     0.074 A 
ATOM     70  C   UNL A   1      42.575  30.978  36.535  1.00  0.00     0.031 C 
ATOM     71  C   UNL A   1      42.878  29.427  34.627  1.00  0.00     0.037 A 
BRANCH  58  72
ATOM     72  C   UNL A   1      40.578  27.869  29.113  1.00  0.00     0.064 A 
ATOM     73  C   UNL A   1      41.444  28.172  28.051  1.00  0.00     0.173 A 
ATOM     74  C   UNL A   1      39.838  26.681  29.036  1.00  0.00     0.173 A 
ATOM     75  F   UNL A   1      42.165  29.304  28.069  1.00  0.00    -0.203 F 
ATOM     76  C   UNL A   1      41.550  27.328  26.949  1.00  0.00     0.198 A 
ATOM     77  C   UNL A   1      39.970  25.823  27.947  1.00  0.00     0.198 A 
ATOM     78  F   UNL A   1      38.998  26.341  30.026  1.00  0.00    -0.203 F 
ATOM     79  F   UNL A   1      42.354  27.659  25.929  1.00  0.00    -0.200 F 
ATOM     80  C   UNL A   1      40.821  26.149  26.902  1.00  0.00     0.200 A 
ATOM     81  F   UNL A   1      39.274  24.677  27.909  1.00  0.00    -0.200 F 
ATOM     82  F   UNL A   1      40.936  25.330  25.848  1.00  0.00    -0.200 F 
ENDBRANCH  58  72
BRANCH  59  83
ATOM     83  C   UNL A   1      39.642  33.974  36.976  1.00  0.00     0.064 A 
ATOM     84  C   UNL A   1      38.859  33.577  38.069  1.00  0.00     0.173 A 
ATOM     85  C   UNL A   1      40.245  35.240  37.033  1.00  0.00     0.173 A 
ATOM     86  F   UNL A   1      38.248  32.383  38.056  1.00  0.00    -0.203 F 
ATOM     87  C   UNL A   1      38.652  34.426  39.155  1.00  0.00     0.198 A 
ATOM     88  C   UNL A   1      40.064  36.075  38.134  1.00  0.00     0.198 A 
ATOM     89  F   UNL A   1      41.010  35.667  36.019  1.00  0.00    -0.203 F 
ATOM     90  F   UNL A   1      37.844  34.046  40.154  1.00  0.00    -0.200 F 
ATOM     91  C   UNL A   1      39.256  35.673  39.187  1.00  0.00     0.200 A 
ATOM     92  F   UNL A   1      40.663  37.273  38.170  1.00  0.00    -0.200 F 
ATOM     93  F   UNL A   1      39.050  36.492  40.228  1.00  0.00    -0.200 F 
ENDBRANCH  59  83
BRANCH  71  94
ATOM     94  C   UNL A   1      44.084  28.868  35.326  1.00  0.00     0.064 A 
ATOM     95  C   UNL A   1      43.989  27.802  36.231  1.00  0.00     0.173 A 
ATOM     96  C   UNL A   1      45.359  29.388  35.051  1.00  0.00     0.173 A 
ATOM     97  F   UNL A   1      42.791  27.281  36.536  1.00  0.00    -0.203 F 
ATOM     98  C   UNL A   1      45.123  27.297  36.861  1.00  0.00     0.198 A 
ATOM     99  C   UNL A   1      46.494  28.858  35.658  1.00  0.00     0.198 A 
ATOM    100  F   UNL A   1      45.505  30.402  34.185  1.00  0.00    -0.203 F 
ATOM    101  F   UNL A   1      45.002  26.313  37.764  1.00  0.00    -0.200 F 
ATOM    102  C   UNL A   1      46.374  27.819  36.569  1.00  0.00     0.200 A 
ATOM    103  F   UNL A   1      47.703  29.353  35.362  1.00  0.00    -0.200 F 
ATOM    104  F   UNL A   1      47.465  27.325  37.171  1.00  0.00    -0.200 F 
ENDBRANCH  71  94
ENDBRANCH  45  46
ENDBRANCH  37  40
ENDBRANCH  35  36
ENDBRANCH  34  35
ENDBRANCH  33  34
ENDBRANCH   1  33
TORSDOF 19
ENDMDL
MODEL 2
REMARK VINA RESULT:     -11.4      5.200     11.219
REMARK SMILES CSCC[C@@H](C(=O)NCCCCCCNC(=O)c1ccc(-c2c3nc(c(-c4c(F)c(F)c(F)c(F)c4F)c4ccc([nH]4)c(-c4c(F)c(F)c(F)c(F)c4F)c4nc(c(-c5c(F)c(F)c(F)c(F)c5F)c5ccc2[nH]5)C=C4)C=C3)cc1)N1C(=O)/C(=C/c2ccc(-c3ccccc3Cl)o2)SC1=S
REMARK SMILES IDX 11 1 10 2 9 3 8 4 6 5 7 6 5 8 4 9 3 10 2 11 1 12 81 13 82 14
REMARK SMILES IDX 99 15 83 16 84 17 98 18 100 19 85 20 86 21 87 22 97 23 88 24
REMARK SMILES IDX 89 25 90 26 91 27 95 28 92 29 94 30 96 31 93 32 12 33 13 34
REMARK SMILES IDX 14 35 15 36 16 37 17 39 18 40 19 41 80 42 20 43 79 44 21 45
REMARK SMILES IDX 22 46 23 47 73 48 24 49 78 50 72 51 74 52 25 53 77 54 71 55
REMARK SMILES IDX 70 56 26 58 58 59 38 60 57 61 39 62 42 63 56 64 75 65 40 66
REMARK SMILES IDX 41 67 55 69 76 70 43 71 27 72 28 73 36 74 29 75 30 76 34 77
REMARK SMILES IDX 37 78 31 79 32 80 35 81 33 82 59 83 60 84 68 85 61 86 62 87
REMARK SMILES IDX 66 88 69 89 63 90 64 91 67 92 65 93 44 94 45 95 53 96 46 97
REMARK SMILES IDX 47 98 51 99 54 100 48 101 49 102 52 103 50 104
REMARK H PARENT 8 7 15 38 74 57 42 68
REMARK Flexibility Score: inf
ROOT
ATOM      1  C   UNL A   1      37.155  33.220  30.785  1.00  0.00     0.002 C 
ENDROOT
BRANCH   1   2
ATOM      2  C   UNL A   1      37.545  32.245  31.898  1.00  0.00     0.021 C 
BRANCH   2   3
ATOM      3  C   UNL A   1      36.877  32.581  33.232  1.00  0.00     0.116 C 
BRANCH   3   4
ATOM      4  N   UNL A   1      37.731  33.450  34.008  1.00  0.00    -0.354 N 
ATOM      5  C   UNL A   1      38.292  33.280  35.236  1.00  0.00     0.243 C 
ATOM      6  O   UNL A   1      38.911  34.248  35.689  1.00  0.00    -0.273 OA
ATOM      7  H   UNL A   1      37.943  34.308  33.575  1.00  0.00     0.163 HD
BRANCH   5   8
ATOM      8  C   UNL A   1      38.215  31.919  35.989  1.00  0.00     0.182 C 
BRANCH   8   9
ATOM      9  C   UNL A   1      38.051  32.022  37.520  1.00  0.00     0.046 C 
BRANCH   9  10
ATOM     10  C   UNL A   1      36.985  32.935  38.125  1.00  0.00     0.072 C 
BRANCH  10  11
ATOM     11  S   UNL A   1      36.244  32.449  39.724  1.00  0.00    -0.165 SA
ATOM     12  C   UNL A   1      37.208  33.376  40.940  1.00  0.00     0.085 C 
ENDBRANCH  10  11
ENDBRANCH   9  10
ENDBRANCH   8   9
BRANCH   8  13
ATOM     13  N   UNL A   1      39.484  31.231  35.595  1.00  0.00    -0.280 N 
ATOM     14  C   UNL A   1      39.457  30.175  34.691  1.00  0.00     0.267 C 
ATOM     15  C   UNL A   1      40.686  31.420  36.254  1.00  0.00     0.149 C 
ATOM     16  O   UNL A   1      38.486  29.759  34.075  1.00  0.00    -0.268 OA
ATOM     17  C   UNL A   1      40.795  29.548  34.572  1.00  0.00     0.084 C 
ATOM     18  S   UNL A   1      41.881  30.257  35.692  1.00  0.00    -0.054 SA
ATOM     19  S   UNL A   1      41.050  32.551  37.430  1.00  0.00    -0.052 S 
ATOM     20  C   UNL A   1      41.010  28.566  33.687  1.00  0.00     0.068 C 
BRANCH  20  21
ATOM     21  C   UNL A   1      42.221  27.833  33.631  1.00  0.00     0.128 A 
ATOM     22  C   UNL A   1      43.434  28.225  33.080  1.00  0.00     0.051 A 
ATOM     23  O   UNL A   1      42.390  26.582  34.178  1.00  0.00    -0.457 OA
ATOM     24  C   UNL A   1      44.356  27.176  33.275  1.00  0.00     0.051 A 
ATOM     25  C   UNL A   1      43.666  26.176  33.923  1.00  0.00     0.136 A 
BRANCH  25  26
ATOM     26  C   UNL A   1      44.052  24.848  34.374  1.00  0.00     0.036 A 
ATOM     27  C   UNL A   1      44.249  24.646  35.752  1.00  0.00     0.013 A 
ATOM     28  C   UNL A   1      44.328  23.785  33.497  1.00  0.00     0.052 A 
ATOM     29  C   UNL A   1      44.721  23.427  36.244  1.00  0.00     0.001 A 
ATOM     30  C   UNL A   1      44.803  22.565  33.994  1.00  0.00     0.021 A 
ATOM     31  Cl  UNL A   1      44.172  23.926  31.779  1.00  0.00    -0.084 Cl
ATOM     32  C   UNL A   1      45.005  22.388  35.363  1.00  0.00     0.002 A 
ENDBRANCH  25  26
ENDBRANCH  20  21
ENDBRANCH   8  13
ENDBRANCH   5   8
ENDBRANCH   3   4
ENDBRANCH   2   3
ENDBRANCH   1   2
BRANCH   1  33
ATOM     33  C   UNL A   1      35.747  33.811  30.937  1.00  0.00     0.002 C 
BRANCH  33  34
ATOM     34  C   UNL A   1      34.625  33.001  30.279  1.00  0.00     0.021 C 
BRANCH  34  35
ATOM     35  C   UNL A   1      34.859  32.671  28.808  1.00  0.00     0.116 C 
BRANCH  35  36
ATOM     36  N   UNL A   1      34.117  31.491  28.396  1.00  0.00    -0.352 N 
ATOM     37  C   UNL A   1      34.578  30.254  28.026  1.00  0.00     0.251 C 
ATOM     38  H   UNL A   1      33.138  31.595  28.382  1.00  0.00     0.163 HD
ATOM     39  O   UNL A   1      33.822  29.450  27.492  1.00  0.00    -0.269 OA
BRANCH  37  40
ATOM     40  C   UNL A   1      35.990  29.891  28.265  1.00  0.00     0.039 A 
ATOM     41  C   UNL A   1      36.916  30.066  27.235  1.00  0.00     0.014 A 
ATOM     42  C   UNL A   1      36.390  29.343  29.488  1.00  0.00     0.014 A 
ATOM     43  C   UNL A   1      38.253  29.723  27.442  1.00  0.00     0.010 A 
ATOM     44  C   UNL A   1      37.735  29.070  29.717  1.00  0.00     0.010 A 
ATOM     45  C   UNL A   1      38.676  29.242  28.691  1.00  0.00    -0.014 A 
BRANCH  45  46
ATOM     46  C   UNL A   1      40.092  28.868  28.931  1.00  0.00     0.031 A 
ATOM     47  C   UNL A   1      41.023  29.849  29.590  1.00  0.00     0.074 A 
ATOM     48  C   UNL A   1      40.549  27.670  28.517  1.00  0.00     0.049 A 
ATOM     49  N   UNL A   1      42.310  29.751  29.813  1.00  0.00    -0.248 NA
ATOM     50  C   UNL A   1      40.434  31.123  30.035  1.00  0.00     0.031 C 
ATOM     51  C   UNL A   1      39.752  26.651  27.833  1.00  0.00     0.029 A 
ATOM     52  N   UNL A   1      41.801  27.114  28.598  1.00  0.00    -0.354 N 
ATOM     53  C   UNL A   1      42.681  30.947  30.415  1.00  0.00     0.074 A 
ATOM     54  C   UNL A   1      41.500  31.780  30.467  1.00  0.00     0.031 C 
ATOM     55  C   UNL A   1      40.530  25.588  27.570  1.00  0.00     0.029 A 
ATOM     56  C   UNL A   1      41.887  25.866  28.031  1.00  0.00     0.049 A 
ATOM     57  H   UNL A   1      42.565  27.566  29.023  1.00  0.00     0.167 HD
ATOM     58  C   UNL A   1      43.890  31.305  30.908  1.00  0.00     0.037 A 
ATOM     59  C   UNL A   1      42.946  25.046  27.889  1.00  0.00     0.037 A 
ATOM     60  C   UNL A   1      45.057  30.465  30.872  1.00  0.00     0.049 A 
ATOM     61  C   UNL A   1      44.282  25.476  28.437  1.00  0.00     0.074 A 
ATOM     62  C   UNL A   1      46.325  30.727  31.361  1.00  0.00     0.029 A 
ATOM     63  N   UNL A   1      45.094  29.193  30.322  1.00  0.00    -0.354 N 
ATOM     64  N   UNL A   1      44.609  26.590  29.046  1.00  0.00    -0.248 NA
ATOM     65  C   UNL A   1      45.396  24.528  28.289  1.00  0.00     0.031 C 
ATOM     66  C   UNL A   1      47.139  29.627  31.076  1.00  0.00     0.029 A 
ATOM     67  C   UNL A   1      46.366  28.659  30.456  1.00  0.00     0.049 A 
ATOM     68  H   UNL A   1      44.332  28.737  29.898  1.00  0.00     0.167 HD
ATOM     69  C   UNL A   1      45.948  26.460  29.388  1.00  0.00     0.074 A 
ATOM     70  C   UNL A   1      46.371  25.154  28.931  1.00  0.00     0.031 C 
ATOM     71  C   UNL A   1      46.758  27.343  30.022  1.00  0.00     0.037 A 
BRANCH  58  72
ATOM     72  C   UNL A   1      44.009  32.657  31.549  1.00  0.00     0.064 A 
ATOM     73  C   UNL A   1      43.952  32.812  32.943  1.00  0.00     0.173 A 
ATOM     74  C   UNL A   1      44.237  33.802  30.772  1.00  0.00     0.173 A 
ATOM     75  F   UNL A   1      43.722  31.750  33.731  1.00  0.00    -0.203 F 
ATOM     76  C   UNL A   1      44.099  34.064  33.533  1.00  0.00     0.198 A 
ATOM     77  C   UNL A   1      44.415  35.049  31.367  1.00  0.00     0.198 A 
ATOM     78  F   UNL A   1      44.305  33.711  29.436  1.00  0.00    -0.203 F 
ATOM     79  F   UNL A   1      44.000  34.191  34.863  1.00  0.00    -0.200 F 
ATOM     80  C   UNL A   1      44.341  35.180  32.746  1.00  0.00     0.200 A 
ATOM     81  F   UNL A   1      44.662  36.124  30.607  1.00  0.00    -0.200 F 
ATOM     82  F   UNL A   1      44.498  36.382  33.316  1.00  0.00    -0.200 F 
ENDBRANCH  58  72
BRANCH  59  83
ATOM     83  C   UNL A   1      42.794  23.731  27.212  1.00  0.00     0.064 A 
ATOM     84  C   UNL A   1      42.305  22.613  27.903  1.00  0.00     0.173 A 
ATOM     85  C   UNL A   1      43.173  23.553  25.872  1.00  0.00     0.173 A 
ATOM     86  F   UNL A   1      41.945  22.727  29.189  1.00  0.00    -0.203 F 
ATOM     87  C   UNL A   1      42.238  21.361  27.294  1.00  0.00     0.198 A 
ATOM     88  C   UNL A   1      43.074  22.308  25.255  1.00  0.00     0.198 A 
ATOM     89  F   UNL A   1      43.640  24.590  25.163  1.00  0.00    -0.203 F 
ATOM     90  F   UNL A   1      41.830  20.298  28.000  1.00  0.00    -0.200 F 
ATOM     91  C   UNL A   1      42.621  21.210  25.971  1.00  0.00     0.200 A 
ATOM     92  F   UNL A   1      43.429  22.169  23.970  1.00  0.00    -0.200 F 
ATOM     93  F   UNL A   1      42.563  20.004  25.388  1.00  0.00    -0.200 F 
ENDBRANCH  59  83
BRANCH  71  94
ATOM     94  C   UNL A   1      48.162  26.902  30.318  1.00  0.00     0.064 A 
ATOM     95  C   UNL A   1      48.474  26.130  31.446  1.00  0.00     0.173 A 
ATOM     96  C   UNL A   1      49.203  27.228  29.434  1.00  0.00     0.173 A 
ATOM     97  F   UNL A   1      47.516  25.804  32.327  1.00  0.00    -0.203 F 
ATOM     98  C   UNL A   1      49.783  25.727  31.695  1.00  0.00     0.198 A 
ATOM     99  C   UNL A   1      50.505  26.795  29.670  1.00  0.00     0.198 A 
ATOM    100  F   UNL A   1      48.956  27.957  28.336  1.00  0.00    -0.203 F 
ATOM    101  F   UNL A   1      50.067  25.035  32.807  1.00  0.00    -0.200 F 
ATOM    102  C   UNL A   1      50.795  26.052  30.805  1.00  0.00     0.200 A 
ATOM    103  F   UNL A   1      51.477  27.097  28.800  1.00  0.00    -0.200 F 
ATOM    104  F   UNL A   1      52.053  25.656  31.043  1.00  0.00    -0.200 F 
ENDBRANCH  71  94
ENDBRANCH  45  46
ENDBRANCH  37  40
ENDBRANCH  35  36
ENDBRANCH  34  35
ENDBRANCH  33  34
ENDBRANCH   1  33
TORSDOF 19
ENDMDL
MODEL 3
REMARK VINA RESULT:     -11.0      1.415      2.110
REMARK SMILES CSCC[C@@H](C(=O)NCCCCCCNC(=O)c1ccc(-c2c3nc(c(-c4c(F)c(F)c(F)c(F)c4F)c4ccc([nH]4)c(-c4c(F)c(F)c(F)c(F)c4F)c4nc(c(-c5c(F)c(F)c(F)c(F)c5F)c5ccc2[nH]5)C=C4)C=C3)cc1)N1C(=O)/C(=C/c2ccc(-c3ccccc3Cl)o2)SC1=S
REMARK SMILES IDX 11 1 10 2 9 3 8 4 6 5 7 6 5 8 4 9 3 10 2 11 1 12 81 13 82 14
REMARK SMILES IDX 99 15 83 16 84 17 98 18 100 19 85 20 86 21 87 22 97 23 88 24
REMARK SMILES IDX 89 25 90 26 91 27 95 28 92 29 94 30 96 31 93 32 12 33 13 34
REMARK SMILES IDX 14 35 15 36 16 37 17 39 18 40 19 41 80 42 20 43 79 44 21 45
REMARK SMILES IDX 22 46 23 47 73 48 24 49 78 50 72 51 74 52 25 53 77 54 71 55
REMARK SMILES IDX 70 56 26 58 58 59 38 60 57 61 39 62 42 63 56 64 75 65 40 66
REMARK SMILES IDX 41 67 55 69 76 70 43 71 27 72 28 73 36 74 29 75 30 76 34 77
REMARK SMILES IDX 37 78 31 79 32 80 35 81 33 82 59 83 60 84 68 85 61 86 62 87
REMARK SMILES IDX 66 88 69 89 63 90 64 91 67 92 65 93 44 94 45 95 53 96 46 97
REMARK SMILES IDX 47 98 51 99 54 100 48 101 49 102 52 103 50 104
REMARK H PARENT 8 7 15 38 74 57 42 68
REMARK Flexibility Score: inf
ROOT
ATOM      1  C   UNL A   1      32.903  30.507  25.799  1.00  0.00     0.002 C 
ENDROOT
BRANCH   1   2
ATOM      2  C   UNL A   1      33.142  29.260  24.946  1.00  0.00     0.021 C 
BRANCH   2   3
ATOM      3  C   UNL A   1      33.689  28.087  25.762  1.00  0.00     0.116 C 
BRANCH   3   4
ATOM      4  N   UNL A   1      32.681  27.611  26.681  1.00  0.00    -0.354 N 
ATOM      5  C   UNL A   1      31.635  26.761  26.492  1.00  0.00     0.243 C 
ATOM      6  O   UNL A   1      30.879  26.609  27.456  1.00  0.00    -0.273 OA
ATOM      7  H   UNL A   1      32.766  27.961  27.598  1.00  0.00     0.163 HD
BRANCH   5   8
ATOM      8  C   UNL A   1      31.452  25.974  25.161  1.00  0.00     0.182 C 
BRANCH   8   9
ATOM      9  C   UNL A   1      29.989  25.692  24.760  1.00  0.00     0.046 C 
BRANCH   9  10
ATOM     10  C   UNL A   1      29.265  26.612  23.777  1.00  0.00     0.072 C 
BRANCH  10  11
ATOM     11  S   UNL A   1      30.268  27.795  22.808  1.00  0.00    -0.165 SA
ATOM     12  C   UNL A   1      31.411  26.734  21.894  1.00  0.00     0.085 C 
ENDBRANCH  10  11
ENDBRANCH   9  10
ENDBRANCH   8   9
BRANCH   8  13
ATOM     13  N   UNL A   1      32.234  24.719  25.387  1.00  0.00    -0.280 N 
ATOM     14  C   UNL A   1      33.483  24.556  24.801  1.00  0.00     0.267 C 
ATOM     15  C   UNL A   1      31.695  23.583  25.966  1.00  0.00     0.149 C 
ATOM     16  O   UNL A   1      34.103  25.384  24.148  1.00  0.00    -0.268 OA
ATOM     17  C   UNL A   1      34.000  23.186  25.030  1.00  0.00     0.084 C 
ATOM     18  S   UNL A   1      32.817  22.234  25.825  1.00  0.00    -0.054 SA
ATOM     19  S   UNL A   1      30.207  23.410  26.707  1.00  0.00    -0.052 S 
ATOM     20  C   UNL A   1      35.229  22.844  24.621  1.00  0.00     0.068 C 
BRANCH  20  21
ATOM     21  C   UNL A   1      35.718  21.516  24.680  1.00  0.00     0.128 A 
ATOM     22  C   UNL A   1      37.040  21.091  24.707  1.00  0.00     0.051 A 
ATOM     23  O   UNL A   1      34.914  20.402  24.766  1.00  0.00    -0.457 OA
ATOM     24  C   UNL A   1      37.039  19.683  24.785  1.00  0.00     0.051 A 
ATOM     25  C   UNL A   1      35.717  19.300  24.787  1.00  0.00     0.136 A 
BRANCH  25  26
ATOM     26  C   UNL A   1      35.069  17.998  24.826  1.00  0.00     0.036 A 
ATOM     27  C   UNL A   1      35.805  16.906  25.319  1.00  0.00     0.013 A 
ATOM     28  C   UNL A   1      33.784  17.760  24.311  1.00  0.00     0.052 A 
ATOM     29  C   UNL A   1      35.284  15.610  25.288  1.00  0.00     0.001 A 
ATOM     30  C   UNL A   1      33.266  16.459  24.279  1.00  0.00     0.021 A 
ATOM     31  Cl  UNL A   1      32.802  19.013  23.632  1.00  0.00    -0.084 Cl
ATOM     32  C   UNL A   1      34.016  15.386  24.761  1.00  0.00     0.002 A 
ENDBRANCH  25  26
ENDBRANCH  20  21
ENDBRANCH   8  13
ENDBRANCH   5   8
ENDBRANCH   3   4
ENDBRANCH   2   3
ENDBRANCH   1   2
BRANCH   1  33
ATOM     33  C   UNL A   1      31.455  31.014  25.772  1.00  0.00     0.002 C 
BRANCH  33  34
ATOM     34  C   UNL A   1      31.222  32.359  26.467  1.00  0.00     0.021 C 
BRANCH  34  35
ATOM     35  C   UNL A   1      32.324  32.773  27.439  1.00  0.00     0.116 C 
BRANCH  35  36
ATOM     36  N   UNL A   1      32.288  34.198  27.720  1.00  0.00    -0.352 N 
ATOM     37  C   UNL A   1      33.014  34.929  28.624  1.00  0.00     0.251 C 
ATOM     38  H   UNL A   1      31.647  34.716  27.180  1.00  0.00     0.163 HD
ATOM     39  O   UNL A   1      32.691  36.083  28.883  1.00  0.00    -0.269 OA
BRANCH  37  40
ATOM     40  C   UNL A   1      34.185  34.324  29.290  1.00  0.00     0.039 A 
ATOM     41  C   UNL A   1      35.457  34.553  28.761  1.00  0.00     0.014 A 
ATOM     42  C   UNL A   1      34.025  33.499  30.408  1.00  0.00     0.014 A 
ATOM     43  C   UNL A   1      36.574  33.985  29.375  1.00  0.00     0.010 A 
ATOM     44  C   UNL A   1      35.145  32.994  31.061  1.00  0.00     0.010 A 
ATOM     45  C   UNL A   1      36.429  33.217  30.541  1.00  0.00    -0.014 A 
BRANCH  45  46
ATOM     46  C   UNL A   1      37.603  32.600  31.207  1.00  0.00     0.031 A 
ATOM     47  C   UNL A   1      38.338  31.474  30.532  1.00  0.00     0.074 A 
ATOM     48  C   UNL A   1      37.977  33.020  32.431  1.00  0.00     0.049 A 
ATOM     49  N   UNL A   1      39.331  30.746  30.979  1.00  0.00    -0.248 NA
ATOM     50  C   UNL A   1      37.880  31.098  29.185  1.00  0.00     0.031 C 
ATOM     51  C   UNL A   1      37.319  34.077  33.200  1.00  0.00     0.029 A 
ATOM     52  N   UNL A   1      38.994  32.596  33.249  1.00  0.00    -0.354 N 
ATOM     53  C   UNL A   1      39.608  29.828  29.974  1.00  0.00     0.074 A 
ATOM     54  C   UNL A   1      38.642  30.047  28.921  1.00  0.00     0.031 C 
ATOM     55  C   UNL A   1      37.957  34.229  34.372  1.00  0.00     0.029 A 
ATOM     56  C   UNL A   1      39.043  33.257  34.452  1.00  0.00     0.049 A 
ATOM     57  H   UNL A   1      39.628  31.887  32.997  1.00  0.00     0.167 HD
ATOM     58  C   UNL A   1      40.599  28.907  29.922  1.00  0.00     0.037 A 
ATOM     59  C   UNL A   1      39.866  33.086  35.505  1.00  0.00     0.037 A 
ATOM     60  C   UNL A   1      41.571  28.706  30.963  1.00  0.00     0.049 A 
ATOM     61  C   UNL A   1      40.952  32.045  35.423  1.00  0.00     0.074 A 
ATOM     62  C   UNL A   1      42.626  27.812  30.999  1.00  0.00     0.029 A 
ATOM     63  N   UNL A   1      41.610  29.421  32.151  1.00  0.00    -0.354 N 
ATOM     64  N   UNL A   1      41.232  31.215  34.448  1.00  0.00    -0.248 NA
ATOM     65  C   UNL A   1      41.845  31.925  36.584  1.00  0.00     0.031 C 
ATOM     66  C   UNL A   1      43.284  27.961  32.224  1.00  0.00     0.029 A 
ATOM     67  C   UNL A   1      42.670  28.983  32.929  1.00  0.00     0.049 A 
ATOM     68  H   UNL A   1      40.979  30.132  32.405  1.00  0.00     0.167 HD
ATOM     69  C   UNL A   1      42.353  30.507  34.859  1.00  0.00     0.074 A 
ATOM     70  C   UNL A   1      42.710  31.014  36.167  1.00  0.00     0.031 C 
ATOM     71  C   UNL A   1      43.027  29.523  34.215  1.00  0.00     0.037 A 
BRANCH  58  72
ATOM     72  C   UNL A   1      40.696  28.058  28.688  1.00  0.00     0.064 A 
ATOM     73  C   UNL A   1      41.483  28.448  27.593  1.00  0.00     0.173 A 
ATOM     74  C   UNL A   1      40.045  26.818  28.617  1.00  0.00     0.173 A 
ATOM     75  F   UNL A   1      42.116  29.631  27.605  1.00  0.00    -0.203 F 
ATOM     76  C   UNL A   1      41.598  27.638  26.467  1.00  0.00     0.198 A 
ATOM     77  C   UNL A   1      40.187  25.996  27.501  1.00  0.00     0.198 A 
ATOM     78  F   UNL A   1      39.283  26.393  29.637  1.00  0.00    -0.203 F 
ATOM     79  F   UNL A   1      42.322  28.052  25.418  1.00  0.00    -0.200 F 
ATOM     80  C   UNL A   1      40.958  26.409  26.426  1.00  0.00     0.200 A 
ATOM     81  F   UNL A   1      39.579  24.801  27.468  1.00  0.00    -0.200 F 
ATOM     82  F   UNL A   1      41.082  25.623  25.347  1.00  0.00    -0.200 F 
ENDBRANCH  58  72
BRANCH  59  83
ATOM     83  C   UNL A   1      39.710  33.922  36.725  1.00  0.00     0.064 A 
ATOM     84  C   UNL A   1      38.919  33.493  37.801  1.00  0.00     0.173 A 
ATOM     85  C   UNL A   1      40.315  35.185  36.825  1.00  0.00     0.173 A 
ATOM     86  F   UNL A   1      38.306  32.302  37.747  1.00  0.00    -0.203 F 
ATOM     87  C   UNL A   1      38.706  34.309  38.910  1.00  0.00     0.198 A 
ATOM     88  C   UNL A   1      40.129  35.986  37.950  1.00  0.00     0.198 A 
ATOM     89  F   UNL A   1      41.087  35.640  35.829  1.00  0.00    -0.203 F 
ATOM     90  F   UNL A   1      37.891  33.901  39.892  1.00  0.00    -0.200 F 
ATOM     91  C   UNL A   1      39.313  35.554  38.985  1.00  0.00     0.200 A 
ATOM     92  F   UNL A   1      40.730  37.181  38.026  1.00  0.00    -0.200 F 
ATOM     93  F   UNL A   1      39.102  36.341  40.049  1.00  0.00    -0.200 F 
ENDBRANCH  59  83
BRANCH  71  94
ATOM     94  C   UNL A   1      44.256  28.976  34.883  1.00  0.00     0.064 A 
ATOM     95  C   UNL A   1      44.204  27.863  35.734  1.00  0.00     0.173 A 
ATOM     96  C   UNL A   1      45.509  29.556  34.633  1.00  0.00     0.173 A 
ATOM     97  F   UNL A   1      43.027  27.282  36.013  1.00  0.00    -0.203 F 
ATOM     98  C   UNL A   1      45.357  27.370  36.336  1.00  0.00     0.198 A 
ATOM     99  C   UNL A   1      46.666  29.040  35.212  1.00  0.00     0.198 A 
ATOM    100  F   UNL A   1      45.615  30.617  33.819  1.00  0.00    -0.203 F 
ATOM    101  F   UNL A   1      45.276  26.338  37.188  1.00  0.00    -0.200 F 
ATOM    102  C   UNL A   1      46.587  27.952  36.069  1.00  0.00     0.200 A 
ATOM    103  F   UNL A   1      47.854  29.595  34.940  1.00  0.00    -0.200 F 
ATOM    104  F   UNL A   1      47.698  27.471  36.645  1.00  0.00    -0.200 F 
ENDBRANCH  71  94
ENDBRANCH  45  46
ENDBRANCH  37  40
ENDBRANCH  35  36
ENDBRANCH  34  35
ENDBRANCH  33  34
ENDBRANCH   1  33
TORSDOF 19
ENDMDL
