MODEL 1
REMARK VINA RESULT:     -14.1      0.000      0.000
REMARK SMILES Cc1c(CC(=O)NCCCCCCNC(=O)c2ccc(-c3c4nc(c(-c5c(F)c(F)c(F)c(F)c5F)c5ccc([nH]5)c(-c5c(F)c(F)c(F)c(F)c5F)c5nc(c(-c6c(F)c(F)c(F)c(F)c6F)c6ccc3[nH]6)C=C5)C=C4)cc2)cc(-c2ccccc2)cc1-c1ccccc1
REMARK SMILES IDX 10 1 9 2 8 3 7 4 5 5 6 6 4 8 3 9 1 10 2 11 89 12 80 13 88 14
REMARK SMILES IDX 81 15 90 16 91 17 95 18 92 19 94 20 93 21 82 22 83 23 87 24
REMARK SMILES IDX 84 25 86 26 85 27 11 28 12 29 13 30 14 31 15 32 16 34 17 35
REMARK SMILES IDX 18 36 79 37 19 38 78 39 20 40 21 41 22 42 72 43 23 44 77 45
REMARK SMILES IDX 71 46 73 47 24 48 76 49 70 50 69 51 25 53 57 54 37 55 56 56
REMARK SMILES IDX 38 57 41 58 55 59 74 60 39 61 40 62 54 64 75 65 42 66 26 67
REMARK SMILES IDX 27 68 35 69 28 70 29 71 33 72 36 73 30 74 31 75 34 76 32 77
REMARK SMILES IDX 58 78 59 79 67 80 60 81 61 82 65 83 68 84 62 85 63 86 66 87
REMARK SMILES IDX 64 88 43 89 44 90 52 91 45 92 46 93 50 94 53 95 47 96 48 97
REMARK SMILES IDX 51 98 49 99
REMARK H PARENT 7 7 14 33 73 52 41 63
REMARK Flexibility Score: inf
ROOT
ATOM      1  C   UNL A   1      34.097  27.195  26.002  1.00  0.00     0.002 C 
ENDROOT
BRANCH   1   2
ATOM      2  C   UNL A   1      33.977  25.935  25.135  1.00  0.00     0.021 C 
BRANCH   2   3
ATOM      3  C   UNL A   1      33.008  26.052  23.957  1.00  0.00     0.116 C 
BRANCH   3   4
ATOM      4  N   UNL A   1      31.873  25.164  24.078  1.00  0.00    -0.356 N 
ATOM      5  C   UNL A   1      31.704  23.913  23.554  1.00  0.00     0.224 C 
ATOM      6  O   UNL A   1      30.658  23.313  23.810  1.00  0.00    -0.275 OA
ATOM      7  H   UNL A   1      31.120  25.507  24.611  1.00  0.00     0.163 HD
BRANCH   5   8
ATOM      8  C   UNL A   1      32.802  23.267  22.716  1.00  0.00     0.135 C 
BRANCH   8   9
ATOM      9  C   UNL A   1      33.621  22.226  23.460  1.00  0.00    -0.035 A 
ATOM     10  C   UNL A   1      32.040  20.334  22.820  1.00  0.00     0.045 C 
ATOM     11  C   UNL A   1      33.251  20.860  23.562  1.00  0.00    -0.040 A 
ATOM     12  C   UNL A   1      34.062  19.979  24.326  1.00  0.00    -0.015 A 
ATOM     13  C   UNL A   1      34.814  22.669  24.065  1.00  0.00     0.013 A 
ATOM     14  C   UNL A   1      35.236  20.478  24.931  1.00  0.00     0.017 A 
ATOM     15  C   UNL A   1      35.637  21.813  24.801  1.00  0.00    -0.017 A 
BRANCH  12  16
ATOM     16  C   UNL A   1      33.724  18.558  24.553  1.00  0.00    -0.018 A 
ATOM     17  C   UNL A   1      34.312  17.554  23.763  1.00  0.00     0.009 A 
ATOM     18  C   UNL A   1      32.814  18.169  25.549  1.00  0.00     0.009 A 
ATOM     19  C   UNL A   1      34.014  16.205  23.973  1.00  0.00     0.001 A 
ATOM     20  C   UNL A   1      32.527  16.819  25.769  1.00  0.00     0.001 A 
ATOM     21  C   UNL A   1      33.127  15.839  24.981  1.00  0.00     0.000 A 
ENDBRANCH  12  16
BRANCH  15  22
ATOM     22  C   UNL A   1      36.887  22.302  25.401  1.00  0.00    -0.018 A 
ATOM     23  C   UNL A   1      38.010  21.468  25.524  1.00  0.00     0.009 A 
ATOM     24  C   UNL A   1      36.980  23.614  25.896  1.00  0.00     0.009 A 
ATOM     25  C   UNL A   1      39.184  21.926  26.126  1.00  0.00     0.001 A 
ATOM     26  C   UNL A   1      38.153  24.073  26.501  1.00  0.00     0.001 A 
ATOM     27  C   UNL A   1      39.254  23.228  26.617  1.00  0.00     0.000 A 
ENDBRANCH  15  22
ENDBRANCH   8   9
ENDBRANCH   5   8
ENDBRANCH   3   4
ENDBRANCH   2   3
ENDBRANCH   1   2
BRANCH   1  28
ATOM     28  C   UNL A   1      33.551  28.501  25.400  1.00  0.00     0.002 C 
BRANCH  28  29
ATOM     29  C   UNL A   1      33.635  29.748  26.286  1.00  0.00     0.021 C 
BRANCH  29  30
ATOM     30  C   UNL A   1      34.137  29.477  27.699  1.00  0.00     0.116 C 
BRANCH  30  31
ATOM     31  N   UNL A   1      34.659  30.657  28.376  1.00  0.00    -0.352 N 
ATOM     32  C   UNL A   1      35.904  30.864  28.942  1.00  0.00     0.251 C 
ATOM     33  H   UNL A   1      34.036  31.417  28.439  1.00  0.00     0.163 HD
ATOM     34  O   UNL A   1      36.161  31.911  29.513  1.00  0.00    -0.269 OA
BRANCH  32  35
ATOM     35  C   UNL A   1      36.966  29.851  28.733  1.00  0.00     0.039 A 
ATOM     36  C   UNL A   1      37.244  28.971  29.785  1.00  0.00     0.014 A 
ATOM     37  C   UNL A   1      37.796  29.898  27.614  1.00  0.00     0.014 A 
ATOM     38  C   UNL A   1      38.477  28.324  29.824  1.00  0.00     0.010 A 
ATOM     39  C   UNL A   1      39.051  29.328  27.691  1.00  0.00     0.010 A 
ATOM     40  C   UNL A   1      39.413  28.600  28.827  1.00  0.00    -0.014 A 
BRANCH  40  41
ATOM     41  C   UNL A   1      40.826  28.272  28.966  1.00  0.00     0.031 A 
ATOM     42  C   UNL A   1      41.380  27.048  28.357  1.00  0.00     0.074 A 
ATOM     43  C   UNL A   1      41.635  29.126  29.631  1.00  0.00     0.049 A 
ATOM     44  N   UNL A   1      42.399  26.404  28.819  1.00  0.00    -0.248 NA
ATOM     45  C   UNL A   1      40.790  26.430  27.177  1.00  0.00     0.031 C 
ATOM     46  C   UNL A   1      43.093  29.097  29.700  1.00  0.00     0.029 A 
ATOM     47  N   UNL A   1      41.258  30.106  30.566  1.00  0.00    -0.354 N 
ATOM     48  C   UNL A   1      42.755  25.457  27.885  1.00  0.00     0.074 A 
ATOM     49  C   UNL A   1      41.687  25.474  26.910  1.00  0.00     0.031 C 
ATOM     50  C   UNL A   1      43.485  29.766  30.796  1.00  0.00     0.029 A 
ATOM     51  C   UNL A   1      42.285  30.120  31.535  1.00  0.00     0.049 A 
ATOM     52  H   UNL A   1      40.447  30.664  30.550  1.00  0.00     0.167 HD
ATOM     53  C   UNL A   1      43.981  24.859  27.966  1.00  0.00     0.037 A 
ATOM     54  C   UNL A   1      42.044  29.790  32.836  1.00  0.00     0.037 A 
ATOM     55  C   UNL A   1      44.727  25.336  29.126  1.00  0.00     0.049 A 
ATOM     56  C   UNL A   1      42.866  28.629  33.335  1.00  0.00     0.074 A 
ATOM     57  C   UNL A   1      45.682  26.330  29.265  1.00  0.00     0.029 A 
ATOM     58  N   UNL A   1      44.307  25.010  30.412  1.00  0.00    -0.354 N 
ATOM     59  N   UNL A   1      43.423  27.747  32.554  1.00  0.00    -0.248 NA
ATOM     60  C   UNL A   1      43.082  28.343  34.751  1.00  0.00     0.031 C 
ATOM     61  C   UNL A   1      45.799  26.641  30.638  1.00  0.00     0.029 A 
ATOM     62  C   UNL A   1      44.930  25.822  31.339  1.00  0.00     0.049 A 
ATOM     63  H   UNL A   1      43.658  24.302  30.629  1.00  0.00     0.167 HD
ATOM     64  C   UNL A   1      44.027  26.785  33.318  1.00  0.00     0.074 A 
ATOM     65  C   UNL A   1      43.804  27.211  34.686  1.00  0.00     0.031 C 
ATOM     66  C   UNL A   1      44.650  25.706  32.760  1.00  0.00     0.037 A 
BRANCH  53  67
ATOM     67  C   UNL A   1      44.618  24.105  26.817  1.00  0.00     0.064 A 
ATOM     68  C   UNL A   1      44.298  22.751  26.570  1.00  0.00     0.173 A 
ATOM     69  C   UNL A   1      45.596  24.641  25.963  1.00  0.00     0.173 A 
ATOM     70  F   UNL A   1      43.294  22.138  27.209  1.00  0.00    -0.203 F 
ATOM     71  C   UNL A   1      45.006  21.966  25.656  1.00  0.00     0.198 A 
ATOM     72  C   UNL A   1      46.344  23.845  25.087  1.00  0.00     0.198 A 
ATOM     73  F   UNL A   1      45.826  25.960  25.915  1.00  0.00    -0.203 F 
ATOM     74  F   UNL A   1      44.669  20.681  25.481  1.00  0.00    -0.200 F 
ATOM     75  C   UNL A   1      46.060  22.502  24.947  1.00  0.00     0.200 A 
ATOM     76  F   UNL A   1      47.345  24.392  24.381  1.00  0.00    -0.200 F 
ATOM     77  F   UNL A   1      46.778  21.737  24.114  1.00  0.00    -0.200 F 
ENDBRANCH  53  67
BRANCH  54  78
ATOM     78  C   UNL A   1      40.654  30.083  33.278  1.00  0.00     0.064 A 
ATOM     79  C   UNL A   1      40.269  31.426  33.445  1.00  0.00     0.173 A 
ATOM     80  C   UNL A   1      39.639  29.123  33.192  1.00  0.00     0.173 A 
ATOM     81  F   UNL A   1      41.204  32.385  33.531  1.00  0.00    -0.203 F 
ATOM     82  C   UNL A   1      38.929  31.805  33.412  1.00  0.00     0.198 A 
ATOM     83  C   UNL A   1      38.296  29.505  33.175  1.00  0.00     0.198 A 
ATOM     84  F   UNL A   1      39.941  27.829  33.016  1.00  0.00    -0.203 F 
ATOM     85  F   UNL A   1      38.599  33.103  33.466  1.00  0.00    -0.200 F 
ATOM     86  C   UNL A   1      37.944  30.845  33.252  1.00  0.00     0.200 A 
ATOM     87  F   UNL A   1      37.344  28.580  32.994  1.00  0.00    -0.200 F 
ATOM     88  F   UNL A   1      36.661  31.213  33.134  1.00  0.00    -0.200 F 
ENDBRANCH  54  78
BRANCH  66  89
ATOM     89  C   UNL A   1      45.146  24.502  33.514  1.00  0.00     0.064 A 
ATOM     90  C   UNL A   1      44.398  23.323  33.672  1.00  0.00     0.173 A 
ATOM     91  C   UNL A   1      46.478  24.454  33.988  1.00  0.00     0.173 A 
ATOM     92  F   UNL A   1      43.166  23.209  33.160  1.00  0.00    -0.203 F 
ATOM     93  C   UNL A   1      44.921  22.201  34.319  1.00  0.00     0.198 A 
ATOM     94  C   UNL A   1      47.013  23.314  34.586  1.00  0.00     0.198 A 
ATOM     95  F   UNL A   1      47.302  25.504  33.865  1.00  0.00    -0.203 F 
ATOM     96  F   UNL A   1      44.154  21.115  34.485  1.00  0.00    -0.200 F 
ATOM     97  C   UNL A   1      46.229  22.193  34.768  1.00  0.00     0.200 A 
ATOM     98  F   UNL A   1      48.298  23.302  34.968  1.00  0.00    -0.200 F 
ATOM     99  F   UNL A   1      46.739  21.101  35.351  1.00  0.00    -0.200 F 
ENDBRANCH  66  89
ENDBRANCH  40  41
ENDBRANCH  32  35
ENDBRANCH  30  31
ENDBRANCH  29  30
ENDBRANCH  28  29
ENDBRANCH   1  28
TORSDOF 16
ENDMDL
MODEL 2
REMARK VINA RESULT:     -13.6      4.045     10.588
REMARK SMILES Cc1c(CC(=O)NCCCCCCNC(=O)c2ccc(-c3c4nc(c(-c5c(F)c(F)c(F)c(F)c5F)c5ccc([nH]5)c(-c5c(F)c(F)c(F)c(F)c5F)c5nc(c(-c6c(F)c(F)c(F)c(F)c6F)c6ccc3[nH]6)C=C5)C=C4)cc2)cc(-c2ccccc2)cc1-c1ccccc1
REMARK SMILES IDX 10 1 9 2 8 3 7 4 5 5 6 6 4 8 3 9 1 10 2 11 89 12 80 13 88 14
REMARK SMILES IDX 81 15 90 16 91 17 95 18 92 19 94 20 93 21 82 22 83 23 87 24
REMARK SMILES IDX 84 25 86 26 85 27 11 28 12 29 13 30 14 31 15 32 16 34 17 35
REMARK SMILES IDX 18 36 79 37 19 38 78 39 20 40 21 41 22 42 72 43 23 44 77 45
REMARK SMILES IDX 71 46 73 47 24 48 76 49 70 50 69 51 25 53 57 54 37 55 56 56
REMARK SMILES IDX 38 57 41 58 55 59 74 60 39 61 40 62 54 64 75 65 42 66 26 67
REMARK SMILES IDX 27 68 35 69 28 70 29 71 33 72 36 73 30 74 31 75 34 76 32 77
REMARK SMILES IDX 58 78 59 79 67 80 60 81 61 82 65 83 68 84 62 85 63 86 66 87
REMARK SMILES IDX 64 88 43 89 44 90 52 91 45 92 46 93 50 94 53 95 47 96 48 97
REMARK SMILES IDX 51 98 49 99
REMARK H PARENT 7 7 14 33 73 52 41 63
REMARK Flexibility Score: inf
ROOT
ATOM      1  C   UNL A   1      35.264  23.271  26.555  1.00  0.00     0.002 C 
ENDROOT
BRANCH   1   2
ATOM      2  C   UNL A   1      34.151  24.151  25.971  1.00  0.00     0.021 C 
BRANCH   2   3
ATOM      3  C   UNL A   1      32.879  23.402  25.571  1.00  0.00     0.116 C 
BRANCH   3   4
ATOM      4  N   UNL A   1      32.401  23.776  24.259  1.00  0.00    -0.356 N 
ATOM      5  C   UNL A   1      31.420  24.667  23.925  1.00  0.00     0.224 C 
ATOM      6  O   UNL A   1      31.191  24.858  22.729  1.00  0.00    -0.275 OA
ATOM      7  H   UNL A   1      32.842  23.326  23.502  1.00  0.00     0.163 HD
BRANCH   5   8
ATOM      8  C   UNL A   1      30.666  25.432  25.007  1.00  0.00     0.135 C 
BRANCH   8   9
ATOM      9  C   UNL A   1      30.797  26.943  24.905  1.00  0.00    -0.035 A 
ATOM     10  C   UNL A   1      28.758  27.149  23.391  1.00  0.00     0.045 C 
ATOM     11  C   UNL A   1      29.944  27.754  24.112  1.00  0.00    -0.040 A 
ATOM     12  C   UNL A   1      30.185  29.153  24.047  1.00  0.00    -0.015 A 
ATOM     13  C   UNL A   1      31.825  27.544  25.658  1.00  0.00     0.013 A 
ATOM     14  C   UNL A   1      31.243  29.703  24.803  1.00  0.00     0.017 A 
ATOM     15  C   UNL A   1      32.063  28.921  25.624  1.00  0.00    -0.017 A 
BRANCH  12  16
ATOM     16  C   UNL A   1      29.402  30.071  23.194  1.00  0.00    -0.018 A 
ATOM     17  C   UNL A   1      28.423  30.906  23.762  1.00  0.00     0.009 A 
ATOM     18  C   UNL A   1      29.602  30.137  21.806  1.00  0.00     0.009 A 
ATOM     19  C   UNL A   1      27.682  31.789  22.973  1.00  0.00     0.001 A 
ATOM     20  C   UNL A   1      28.872  31.030  21.018  1.00  0.00     0.001 A 
ATOM     21  C   UNL A   1      27.913  31.855  21.602  1.00  0.00     0.000 A 
ENDBRANCH  12  16
BRANCH  15  22
ATOM     22  C   UNL A   1      33.130  29.520  26.439  1.00  0.00    -0.018 A 
ATOM     23  C   UNL A   1      32.978  30.792  27.015  1.00  0.00     0.009 A 
ATOM     24  C   UNL A   1      34.346  28.845  26.639  1.00  0.00     0.009 A 
ATOM     25  C   UNL A   1      34.008  31.372  27.759  1.00  0.00     0.001 A 
ATOM     26  C   UNL A   1      35.378  29.424  27.381  1.00  0.00     0.001 A 
ATOM     27  C   UNL A   1      35.209  30.689  27.940  1.00  0.00     0.000 A 
ENDBRANCH  15  22
ENDBRANCH   8   9
ENDBRANCH   5   8
ENDBRANCH   3   4
ENDBRANCH   2   3
ENDBRANCH   1   2
BRANCH   1  28
ATOM     28  C   UNL A   1      35.800  22.147  25.652  1.00  0.00     0.002 C 
BRANCH  28  29
ATOM     29  C   UNL A   1      37.302  22.172  25.349  1.00  0.00     0.021 C 
BRANCH  29  30
ATOM     30  C   UNL A   1      38.037  23.370  25.938  1.00  0.00     0.116 C 
BRANCH  30  31
ATOM     31  N   UNL A   1      39.468  23.158  26.109  1.00  0.00    -0.352 N 
ATOM     32  C   UNL A   1      40.429  24.021  26.604  1.00  0.00     0.251 C 
ATOM     33  H   UNL A   1      39.799  22.272  25.833  1.00  0.00     0.163 HD
ATOM     34  O   UNL A   1      41.603  23.691  26.638  1.00  0.00    -0.269 OA
BRANCH  32  35
ATOM     35  C   UNL A   1      39.998  25.301  27.216  1.00  0.00     0.039 A 
ATOM     36  C   UNL A   1      40.348  26.487  26.559  1.00  0.00     0.014 A 
ATOM     37  C   UNL A   1      39.445  25.339  28.494  1.00  0.00     0.014 A 
ATOM     38  C   UNL A   1      40.371  27.681  27.276  1.00  0.00     0.010 A 
ATOM     39  C   UNL A   1      39.549  26.502  29.231  1.00  0.00     0.010 A 
ATOM     40  C   UNL A   1      40.077  27.653  28.639  1.00  0.00    -0.014 A 
BRANCH  40  41
ATOM     41  C   UNL A   1      40.419  28.748  29.538  1.00  0.00     0.031 A 
ATOM     42  C   UNL A   1      39.415  29.764  29.905  1.00  0.00     0.074 A 
ATOM     43  C   UNL A   1      41.662  28.800  30.065  1.00  0.00     0.049 A 
ATOM     44  N   UNL A   1      39.698  30.983  30.220  1.00  0.00    -0.248 NA
ATOM     45  C   UNL A   1      37.986  29.482  29.908  1.00  0.00     0.031 C 
ATOM     46  C   UNL A   1      42.138  29.673  31.133  1.00  0.00     0.029 A 
ATOM     47  N   UNL A   1      42.824  28.179  29.573  1.00  0.00    -0.354 N 
ATOM     48  C   UNL A   1      38.549  31.568  30.705  1.00  0.00     0.074 A 
ATOM     49  C   UNL A   1      37.499  30.611  30.434  1.00  0.00     0.031 C 
ATOM     50  C   UNL A   1      43.473  29.776  31.041  1.00  0.00     0.029 A 
ATOM     51  C   UNL A   1      43.875  29.088  29.826  1.00  0.00     0.049 A 
ATOM     52  H   UNL A   1      42.891  27.297  29.142  1.00  0.00     0.167 HD
ATOM     53  C   UNL A   1      38.633  32.738  31.405  1.00  0.00     0.037 A 
ATOM     54  C   UNL A   1      44.593  29.649  28.812  1.00  0.00     0.037 A 
ATOM     55  C   UNL A   1      40.013  33.209  31.486  1.00  0.00     0.049 A 
ATOM     56  C   UNL A   1      44.544  31.156  28.789  1.00  0.00     0.074 A 
ATOM     57  C   UNL A   1      40.984  33.056  32.462  1.00  0.00     0.029 A 
ATOM     58  N   UNL A   1      40.667  33.660  30.345  1.00  0.00    -0.354 N 
ATOM     59  N   UNL A   1      43.609  31.859  29.363  1.00  0.00    -0.248 NA
ATOM     60  C   UNL A   1      45.512  31.983  28.075  1.00  0.00     0.031 C 
ATOM     61  C   UNL A   1      42.238  33.367  31.889  1.00  0.00     0.029 A 
ATOM     62  C   UNL A   1      42.029  33.730  30.570  1.00  0.00     0.049 A 
ATOM     63  H   UNL A   1      40.224  33.896  29.498  1.00  0.00     0.167 HD
ATOM     64  C   UNL A   1      43.810  33.186  29.090  1.00  0.00     0.074 A 
ATOM     65  C   UNL A   1      45.024  33.216  28.297  1.00  0.00     0.031 C 
ATOM     66  C   UNL A   1      42.950  34.150  29.528  1.00  0.00     0.037 A 
BRANCH  53  67
ATOM     67  C   UNL A   1      37.520  33.264  32.287  1.00  0.00     0.064 A 
ATOM     68  C   UNL A   1      36.448  34.006  31.741  1.00  0.00     0.173 A 
ATOM     69  C   UNL A   1      37.483  33.124  33.685  1.00  0.00     0.173 A 
ATOM     70  F   UNL A   1      36.270  34.114  30.419  1.00  0.00    -0.203 F 
ATOM     71  C   UNL A   1      35.515  34.676  32.537  1.00  0.00     0.198 A 
ATOM     72  C   UNL A   1      36.584  33.839  34.487  1.00  0.00     0.198 A 
ATOM     73  F   UNL A   1      38.284  32.255  34.315  1.00  0.00    -0.203 F 
ATOM     74  F   UNL A   1      34.533  35.382  31.959  1.00  0.00    -0.200 F 
ATOM     75  C   UNL A   1      35.611  34.630  33.912  1.00  0.00     0.200 A 
ATOM     76  F   UNL A   1      36.673  33.755  35.822  1.00  0.00    -0.200 F 
ATOM     77  F   UNL A   1      34.754  35.319  34.676  1.00  0.00    -0.200 F 
ENDBRANCH  53  67
BRANCH  54  78
ATOM     78  C   UNL A   1      44.676  28.795  27.596  1.00  0.00     0.064 A 
ATOM     79  C   UNL A   1      45.475  27.637  27.641  1.00  0.00     0.173 A 
ATOM     80  C   UNL A   1      43.741  28.899  26.561  1.00  0.00     0.173 A 
ATOM     81  F   UNL A   1      46.386  27.488  28.615  1.00  0.00    -0.203 F 
ATOM     82  C   UNL A   1      45.268  26.581  26.756  1.00  0.00     0.198 A 
ATOM     83  C   UNL A   1      43.547  27.844  25.667  1.00  0.00     0.198 A 
ATOM     84  F   UNL A   1      42.940  29.971  26.474  1.00  0.00    -0.203 F 
ATOM     85  F   UNL A   1      45.972  25.448  26.891  1.00  0.00    -0.200 F 
ATOM     86  C   UNL A   1      44.286  26.676  25.785  1.00  0.00     0.200 A 
ATOM     87  F   UNL A   1      42.579  27.925  24.743  1.00  0.00    -0.200 F 
ATOM     88  F   UNL A   1      44.026  25.630  24.989  1.00  0.00    -0.200 F 
ENDBRANCH  54  78
BRANCH  66  89
ATOM     89  C   UNL A   1      42.969  35.593  29.100  1.00  0.00     0.064 A 
ATOM     90  C   UNL A   1      42.227  36.090  28.016  1.00  0.00     0.173 A 
ATOM     91  C   UNL A   1      43.646  36.561  29.878  1.00  0.00     0.173 A 
ATOM     92  F   UNL A   1      41.453  35.285  27.277  1.00  0.00    -0.203 F 
ATOM     93  C   UNL A   1      42.218  37.449  27.692  1.00  0.00     0.198 A 
ATOM     94  C   UNL A   1      43.590  37.922  29.583  1.00  0.00     0.198 A 
ATOM     95  F   UNL A   1      44.361  36.215  30.958  1.00  0.00    -0.203 F 
ATOM     96  F   UNL A   1      41.529  37.870  26.621  1.00  0.00    -0.200 F 
ATOM     97  C   UNL A   1      42.891  38.365  28.479  1.00  0.00     0.200 A 
ATOM     98  F   UNL A   1      44.205  38.804  30.385  1.00  0.00    -0.200 F 
ATOM     99  F   UNL A   1      42.845  39.671  28.188  1.00  0.00    -0.200 F 
ENDBRANCH  66  89
ENDBRANCH  40  41
ENDBRANCH  32  35
ENDBRANCH  30  31
ENDBRANCH  29  30
ENDBRANCH  28  29
ENDBRANCH   1  28
TORSDOF 16
ENDMDL
MODEL 3
REMARK VINA RESULT:     -13.1      2.077      3.428
REMARK SMILES Cc1c(CC(=O)NCCCCCCNC(=O)c2ccc(-c3c4nc(c(-c5c(F)c(F)c(F)c(F)c5F)c5ccc([nH]5)c(-c5c(F)c(F)c(F)c(F)c5F)c5nc(c(-c6c(F)c(F)c(F)c(F)c6F)c6ccc3[nH]6)C=C5)C=C4)cc2)cc(-c2ccccc2)cc1-c1ccccc1
REMARK SMILES IDX 10 1 9 2 8 3 7 4 5 5 6 6 4 8 3 9 1 10 2 11 89 12 80 13 88 14
REMARK SMILES IDX 81 15 90 16 91 17 95 18 92 19 94 20 93 21 82 22 83 23 87 24
REMARK SMILES IDX 84 25 86 26 85 27 11 28 12 29 13 30 14 31 15 32 16 34 17 35
REMARK SMILES IDX 18 36 79 37 19 38 78 39 20 40 21 41 22 42 72 43 23 44 77 45
REMARK SMILES IDX 71 46 73 47 24 48 76 49 70 50 69 51 25 53 57 54 37 55 56 56
REMARK SMILES IDX 38 57 41 58 55 59 74 60 39 61 40 62 54 64 75 65 42 66 26 67
REMARK SMILES IDX 27 68 35 69 28 70 29 71 33 72 36 73 30 74 31 75 34 76 32 77
REMARK SMILES IDX 58 78 59 79 67 80 60 81 61 82 65 83 68 84 62 85 63 86 66 87
REMARK SMILES IDX 64 88 43 89 44 90 52 91 45 92 46 93 50 94 53 95 47 96 48 97
REMARK SMILES IDX 51 98 49 99
REMARK H PARENT 7 7 14 33 73 52 41 63
REMARK Flexibility Score: inf
ROOT
ATOM      1  C   UNL A   1      33.945  28.104  25.629  1.00  0.00     0.002 C 
ENDROOT
BRANCH   1   2
ATOM      2  C   UNL A   1      33.621  26.605  25.661  1.00  0.00     0.021 C 
BRANCH   2   3
ATOM      3  C   UNL A   1      33.329  25.980  24.296  1.00  0.00     0.116 C 
BRANCH   3   4
ATOM      4  N   UNL A   1      32.090  25.234  24.277  1.00  0.00    -0.356 N 
ATOM      5  C   UNL A   1      31.799  24.070  23.624  1.00  0.00     0.224 C 
ATOM      6  O   UNL A   1      30.676  23.585  23.772  1.00  0.00    -0.275 OA
ATOM      7  H   UNL A   1      31.355  25.618  24.808  1.00  0.00     0.163 HD
BRANCH   5   8
ATOM      8  C   UNL A   1      32.856  23.373  22.773  1.00  0.00     0.135 C 
BRANCH   8   9
ATOM      9  C   UNL A   1      33.660  22.322  23.520  1.00  0.00    -0.035 A 
ATOM     10  C   UNL A   1      32.086  20.440  22.835  1.00  0.00     0.045 C 
ATOM     11  C   UNL A   1      33.286  20.955  23.602  1.00  0.00    -0.040 A 
ATOM     12  C   UNL A   1      34.082  20.064  24.370  1.00  0.00    -0.015 A 
ATOM     13  C   UNL A   1      34.844  22.756  24.149  1.00  0.00     0.013 A 
ATOM     14  C   UNL A   1      35.247  20.555  24.999  1.00  0.00     0.017 A 
ATOM     15  C   UNL A   1      35.653  21.889  24.890  1.00  0.00    -0.017 A 
BRANCH  12  16
ATOM     16  C   UNL A   1      33.737  18.642  24.577  1.00  0.00    -0.018 A 
ATOM     17  C   UNL A   1      32.804  18.275  25.564  1.00  0.00     0.009 A 
ATOM     18  C   UNL A   1      34.322  17.624  23.809  1.00  0.00     0.009 A 
ATOM     19  C   UNL A   1      32.455  16.938  25.763  1.00  0.00     0.001 A 
ATOM     20  C   UNL A   1      33.963  16.287  23.999  1.00  0.00     0.001 A 
ATOM     21  C   UNL A   1      33.030  15.945  24.975  1.00  0.00     0.000 A 
ENDBRANCH  12  16
BRANCH  15  22
ATOM     22  C   UNL A   1      36.894  22.369  25.515  1.00  0.00    -0.018 A 
ATOM     23  C   UNL A   1      37.004  23.684  25.999  1.00  0.00     0.009 A 
ATOM     24  C   UNL A   1      38.017  21.532  25.617  1.00  0.00     0.009 A 
ATOM     25  C   UNL A   1      38.197  24.146  26.560  1.00  0.00     0.001 A 
ATOM     26  C   UNL A   1      39.212  21.993  26.175  1.00  0.00     0.001 A 
ATOM     27  C   UNL A   1      39.301  23.301  26.646  1.00  0.00     0.000 A 
ENDBRANCH  15  22
ENDBRANCH   8   9
ENDBRANCH   5   8
ENDBRANCH   3   4
ENDBRANCH   2   3
ENDBRANCH   1   2
BRANCH   1  28
ATOM     28  C   UNL A   1      34.035  28.818  26.989  1.00  0.00     0.002 C 
BRANCH  28  29
ATOM     29  C   UNL A   1      34.413  30.304  26.956  1.00  0.00     0.021 C 
BRANCH  29  30
ATOM     30  C   UNL A   1      34.937  30.843  28.281  1.00  0.00     0.116 C 
BRANCH  30  31
ATOM     31  N   UNL A   1      34.181  31.978  28.796  1.00  0.00    -0.352 N 
ATOM     32  C   UNL A   1      34.550  32.921  29.738  1.00  0.00     0.251 C 
ATOM     33  H   UNL A   1      33.279  32.090  28.417  1.00  0.00     0.163 HD
ATOM     34  O   UNL A   1      33.767  33.790  30.087  1.00  0.00    -0.269 OA
BRANCH  32  35
ATOM     35  C   UNL A   1      35.950  32.944  30.223  1.00  0.00     0.039 A 
ATOM     36  C   UNL A   1      36.897  33.624  29.449  1.00  0.00     0.014 A 
ATOM     37  C   UNL A   1      36.354  32.152  31.297  1.00  0.00     0.014 A 
ATOM     38  C   UNL A   1      38.247  33.317  29.599  1.00  0.00     0.010 A 
ATOM     39  C   UNL A   1      37.681  31.781  31.389  1.00  0.00     0.010 A 
ATOM     40  C   UNL A   1      38.614  32.312  30.494  1.00  0.00    -0.014 A 
BRANCH  40  41
ATOM     41  C   UNL A   1      39.923  31.673  30.464  1.00  0.00     0.031 A 
ATOM     42  C   UNL A   1      40.128  30.409  29.733  1.00  0.00     0.074 A 
ATOM     43  C   UNL A   1      40.961  32.275  31.084  1.00  0.00     0.049 A 
ATOM     44  N   UNL A   1      41.013  29.523  30.048  1.00  0.00    -0.248 NA
ATOM     45  C   UNL A   1      39.308  30.027  28.591  1.00  0.00     0.031 C 
ATOM     46  C   UNL A   1      42.374  31.922  30.996  1.00  0.00     0.029 A 
ATOM     47  N   UNL A   1      40.902  33.239  32.107  1.00  0.00    -0.354 N 
ATOM     48  C   UNL A   1      41.059  28.596  29.031  1.00  0.00     0.074 A 
ATOM     49  C   UNL A   1      39.937  28.922  28.178  1.00  0.00     0.031 C 
ATOM     50  C   UNL A   1      43.006  32.403  32.079  1.00  0.00     0.029 A 
ATOM     51  C   UNL A   1      41.990  32.953  32.960  1.00  0.00     0.049 A 
ATOM     52  H   UNL A   1      40.240  33.960  32.207  1.00  0.00     0.167 HD
ATOM     53  C   UNL A   1      42.120  27.740  28.948  1.00  0.00     0.037 A 
ATOM     54  C   UNL A   1      41.801  32.585  34.260  1.00  0.00     0.037 A 
ATOM     55  C   UNL A   1      43.058  27.950  30.046  1.00  0.00     0.049 A 
ATOM     56  C   UNL A   1      42.382  31.236  34.603  1.00  0.00     0.074 A 
ATOM     57  C   UNL A   1      44.221  28.698  30.137  1.00  0.00     0.029 A 
ATOM     58  N   UNL A   1      42.695  27.627  31.349  1.00  0.00    -0.354 N 
ATOM     59  N   UNL A   1      42.651  30.317  33.720  1.00  0.00    -0.248 NA
ATOM     60  C   UNL A   1      42.657  30.802  35.971  1.00  0.00     0.031 C 
ATOM     61  C   UNL A   1      44.530  28.869  31.505  1.00  0.00     0.029 A 
ATOM     62  C   UNL A   1      43.568  28.208  32.248  1.00  0.00     0.049 A 
ATOM     63  H   UNL A   1      41.925  27.063  31.596  1.00  0.00     0.167 HD
ATOM     64  C   UNL A   1      43.090  29.190  34.362  1.00  0.00     0.074 A 
ATOM     65  C   UNL A   1      43.095  29.548  35.767  1.00  0.00     0.031 C 
ATOM     66  C   UNL A   1      43.400  28.047  33.683  1.00  0.00     0.037 A 
BRANCH  53  67
ATOM     67  C   UNL A   1      42.463  26.956  27.698  1.00  0.00     0.064 A 
ATOM     68  C   UNL A   1      42.228  25.564  27.626  1.00  0.00     0.173 A 
ATOM     69  C   UNL A   1      43.081  27.505  26.562  1.00  0.00     0.173 A 
ATOM     70  F   UNL A   1      41.529  24.919  28.568  1.00  0.00    -0.203 F 
ATOM     71  C   UNL A   1      42.710  24.773  26.579  1.00  0.00     0.198 A 
ATOM     72  C   UNL A   1      43.614  26.710  25.540  1.00  0.00     0.198 A 
ATOM     73  F   UNL A   1      43.147  28.831  26.382  1.00  0.00    -0.203 F 
ATOM     74  F   UNL A   1      42.473  23.454  26.578  1.00  0.00    -0.200 F 
ATOM     75  C   UNL A   1      43.444  25.340  25.559  1.00  0.00     0.200 A 
ATOM     76  F   UNL A   1      44.297  27.283  24.539  1.00  0.00    -0.200 F 
ATOM     77  F   UNL A   1      43.958  24.577  24.585  1.00  0.00    -0.200 F 
ENDBRANCH  53  67
BRANCH  54  78
ATOM     78  C   UNL A   1      40.559  33.139  34.862  1.00  0.00     0.064 A 
ATOM     79  C   UNL A   1      39.423  32.314  34.942  1.00  0.00     0.173 A 
ATOM     80  C   UNL A   1      40.579  34.293  35.653  1.00  0.00     0.173 A 
ATOM     81  F   UNL A   1      39.355  31.194  34.204  1.00  0.00    -0.203 F 
ATOM     82  C   UNL A   1      38.403  32.571  35.855  1.00  0.00     0.198 A 
ATOM     83  C   UNL A   1      39.548  34.556  36.557  1.00  0.00     0.198 A 
ATOM     84  F   UNL A   1      41.640  35.112  35.634  1.00  0.00    -0.203 F 
ATOM     85  F   UNL A   1      37.385  31.707  35.982  1.00  0.00    -0.200 F 
ATOM     86  C   UNL A   1      38.479  33.679  36.681  1.00  0.00     0.200 A 
ATOM     87  F   UNL A   1      39.634  35.615  37.374  1.00  0.00    -0.200 F 
ATOM     88  F   UNL A   1      37.545  33.883  37.619  1.00  0.00    -0.200 F 
ENDBRANCH  54  78
BRANCH  66  89
ATOM     89  C   UNL A   1      43.679  26.709  34.312  1.00  0.00     0.064 A 
ATOM     90  C   UNL A   1      44.973  26.206  34.525  1.00  0.00     0.173 A 
ATOM     91  C   UNL A   1      42.623  25.941  34.857  1.00  0.00     0.173 A 
ATOM     92  F   UNL A   1      46.057  26.902  34.158  1.00  0.00    -0.203 F 
ATOM     93  C   UNL A   1      45.193  24.989  35.175  1.00  0.00     0.198 A 
ATOM     94  C   UNL A   1      42.850  24.754  35.551  1.00  0.00     0.198 A 
ATOM     95  F   UNL A   1      41.346  26.333  34.748  1.00  0.00    -0.203 F 
ATOM     96  F   UNL A   1      46.444  24.530  35.315  1.00  0.00    -0.200 F 
ATOM     97  C   UNL A   1      44.133  24.269  35.695  1.00  0.00     0.200 A 
ATOM     98  F   UNL A   1      41.818  24.093  36.096  1.00  0.00    -0.200 F 
ATOM     99  F   UNL A   1      44.352  23.123  36.353  1.00  0.00    -0.200 F 
ENDBRANCH  66  89
ENDBRANCH  40  41
ENDBRANCH  32  35
ENDBRANCH  30  31
ENDBRANCH  29  30
ENDBRANCH  28  29
ENDBRANCH   1  28
TORSDOF 16
ENDMDL
