MODEL 1
REMARK VINA RESULT:     -11.9      0.000      0.000
REMARK SMILES O=C(/C=C/c1ccc(Br)cc1-n1ccnc1)NCCCCCCNC(=O)c1ccc(-c2c3nc(c(-c4c(F)c(F)c(F)c(F)c4F)c4ccc([nH]4)c(-c4c(F)c(F)c(F)c(F)c4F)c4nc(c(-c5c(F)c(F)c(F)c(F)c5F)c5ccc2[nH]5)C=C4)C=C3)cc1
REMARK SMILES IDX 20 1 19 2 18 3 17 4 1 5 2 6 3 8 4 9 5 10 6 11 11 12 7 13
REMARK SMILES IDX 10 14 8 15 9 16 12 17 13 18 16 19 14 20 15 21 21 22 22 23
REMARK SMILES IDX 23 24 24 25 25 26 26 28 27 29 28 30 89 31 29 32 88 33 30 34
REMARK SMILES IDX 31 35 32 36 82 37 33 38 87 39 81 40 83 41 34 42 86 43 80 44
REMARK SMILES IDX 79 45 35 47 67 48 47 49 66 50 48 51 51 52 65 53 84 54 49 55
REMARK SMILES IDX 50 56 64 58 85 59 52 60 36 61 37 62 45 63 38 64 39 65 43 66
REMARK SMILES IDX 46 67 40 68 41 69 44 70 42 71 68 72 69 73 77 74 70 75 71 76
REMARK SMILES IDX 75 77 78 78 72 79 73 80 76 81 74 82 53 83 54 84 62 85 55 86
REMARK SMILES IDX 56 87 60 88 63 89 57 90 58 91 61 92 59 93
REMARK H PARENT 17 7 24 27 83 46 51 57
REMARK Flexibility Score: inf
ROOT
ATOM      1  C   UNL A   1      39.029  21.132  25.547  1.00  0.00     0.002 C 
ENDROOT
BRANCH   1   2
ATOM      2  C   UNL A   1      38.240  22.422  25.816  1.00  0.00     0.021 C 
BRANCH   2   3
ATOM      3  C   UNL A   1      36.721  22.285  25.708  1.00  0.00     0.116 C 
BRANCH   3   4
ATOM      4  N   UNL A   1      36.060  23.570  25.798  1.00  0.00    -0.353 N 
ATOM      5  O   UNL A   1      33.914  22.759  25.848  1.00  0.00    -0.270 OA
ATOM      6  C   UNL A   1      34.698  23.701  25.817  1.00  0.00     0.244 C 
ATOM      7  H   UNL A   1      36.613  24.384  25.848  1.00  0.00     0.163 HD
BRANCH   6   8
ATOM      8  C   UNL A   1      34.161  25.089  25.818  1.00  0.00     0.072 C 
ATOM      9  C   UNL A   1      32.868  25.438  25.732  1.00  0.00     0.016 C 
BRANCH   9  10
ATOM     10  C   UNL A   1      32.381  26.832  25.783  1.00  0.00    -0.001 A 
ATOM     11  C   UNL A   1      32.215  27.451  27.035  1.00  0.00     0.011 A 
ATOM     12  C   UNL A   1      32.247  27.633  24.626  1.00  0.00     0.055 A 
ATOM     13  C   UNL A   1      31.897  28.809  27.136  1.00  0.00     0.016 A 
ATOM     14  C   UNL A   1      31.964  29.006  24.728  1.00  0.00     0.043 A 
ATOM     15  C   UNL A   1      31.773  29.578  25.985  1.00  0.00     0.020 A 
ATOM     16  Br  UNL A   1      31.327  31.408  26.124  1.00  0.00    -0.051 Br
BRANCH  12  17
ATOM     17  N   UNL A   1      32.360  27.087  23.325  1.00  0.00    -0.306 N 
ATOM     18  C   UNL A   1      31.344  26.600  22.533  1.00  0.00     0.113 A 
ATOM     19  C   UNL A   1      33.512  26.971  22.582  1.00  0.00     0.204 A 
ATOM     20  C   UNL A   1      31.942  26.211  21.358  1.00  0.00     0.131 A 
ATOM     21  N   UNL A   1      33.293  26.425  21.405  1.00  0.00    -0.245 NA
ENDBRANCH  12  17
ENDBRANCH   9  10
ENDBRANCH   6   8
ENDBRANCH   3   4
ENDBRANCH   2   3
ENDBRANCH   1   2
BRANCH   1  22
ATOM     22  C   UNL A   1      40.312  20.931  26.368  1.00  0.00     0.002 C 
BRANCH  22  23
ATOM     23  C   UNL A   1      41.090  19.629  26.131  1.00  0.00     0.021 C 
BRANCH  23  24
ATOM     24  C   UNL A   1      42.466  19.597  26.776  1.00  0.00     0.116 C 
BRANCH  24  25
ATOM     25  N   UNL A   1      43.559  19.435  25.812  1.00  0.00    -0.352 N 
ATOM     26  C   UNL A   1      44.130  20.408  25.000  1.00  0.00     0.251 C 
ATOM     27  H   UNL A   1      43.934  18.529  25.730  1.00  0.00     0.163 HD
ATOM     28  O   UNL A   1      44.745  20.124  23.991  1.00  0.00    -0.269 OA
BRANCH  26  29
ATOM     29  C   UNL A   1      43.985  21.813  25.419  1.00  0.00     0.039 A 
ATOM     30  C   UNL A   1      43.071  22.692  24.831  1.00  0.00     0.014 A 
ATOM     31  C   UNL A   1      44.776  22.216  26.487  1.00  0.00     0.014 A 
ATOM     32  C   UNL A   1      42.923  23.962  25.386  1.00  0.00     0.010 A 
ATOM     33  C   UNL A   1      44.451  23.348  27.172  1.00  0.00     0.010 A 
ATOM     34  C   UNL A   1      43.613  24.272  26.569  1.00  0.00    -0.014 A 
BRANCH  34  35
ATOM     35  C   UNL A   1      43.433  25.533  27.271  1.00  0.00     0.031 A 
ATOM     36  C   UNL A   1      44.411  26.578  26.880  1.00  0.00     0.074 A 
ATOM     37  C   UNL A   1      42.326  25.787  28.006  1.00  0.00     0.049 A 
ATOM     38  N   UNL A   1      45.378  27.054  27.587  1.00  0.00    -0.248 NA
ATOM     39  C   UNL A   1      44.424  27.031  25.478  1.00  0.00     0.031 C 
ATOM     40  C   UNL A   1      41.124  24.951  28.161  1.00  0.00     0.029 A 
ATOM     41  N   UNL A   1      41.989  26.909  28.700  1.00  0.00    -0.354 N 
ATOM     42  C   UNL A   1      45.979  28.034  26.799  1.00  0.00     0.074 A 
ATOM     43  C   UNL A   1      45.497  27.825  25.462  1.00  0.00     0.031 C 
ATOM     44  C   UNL A   1      40.118  25.681  28.693  1.00  0.00     0.029 A 
ATOM     45  C   UNL A   1      40.655  26.964  29.095  1.00  0.00     0.049 A 
ATOM     46  H   UNL A   1      42.636  27.623  28.906  1.00  0.00     0.167 HD
ATOM     47  C   UNL A   1      46.578  29.110  27.383  1.00  0.00     0.037 A 
ATOM     48  C   UNL A   1      40.041  28.004  29.707  1.00  0.00     0.037 A 
ATOM     49  C   UNL A   1      46.746  28.877  28.797  1.00  0.00     0.049 A 
ATOM     50  C   UNL A   1      41.108  28.834  30.310  1.00  0.00     0.074 A 
ATOM     51  C   UNL A   1      47.534  28.072  29.589  1.00  0.00     0.029 A 
ATOM     52  N   UNL A   1      45.666  29.260  29.550  1.00  0.00    -0.354 N 
ATOM     53  N   UNL A   1      41.877  28.424  31.281  1.00  0.00    -0.248 NA
ATOM     54  C   UNL A   1      41.598  29.987  29.568  1.00  0.00     0.031 C 
ATOM     55  C   UNL A   1      46.745  27.778  30.744  1.00  0.00     0.029 A 
ATOM     56  C   UNL A   1      45.531  28.460  30.650  1.00  0.00     0.049 A 
ATOM     57  H   UNL A   1      45.070  30.011  29.328  1.00  0.00     0.167 HD
ATOM     58  C   UNL A   1      43.115  28.977  31.002  1.00  0.00     0.074 A 
ATOM     59  C   UNL A   1      42.843  30.048  30.048  1.00  0.00     0.031 C 
ATOM     60  C   UNL A   1      44.261  28.310  31.329  1.00  0.00     0.037 A 
BRANCH  47  61
ATOM     61  C   UNL A   1      46.550  30.528  26.837  1.00  0.00     0.064 A 
ATOM     62  C   UNL A   1      47.735  31.295  26.883  1.00  0.00     0.173 A 
ATOM     63  C   UNL A   1      45.372  31.262  26.580  1.00  0.00     0.173 A 
ATOM     64  F   UNL A   1      48.916  30.713  27.139  1.00  0.00    -0.203 F 
ATOM     65  C   UNL A   1      47.724  32.689  26.763  1.00  0.00     0.198 A 
ATOM     66  C   UNL A   1      45.372  32.646  26.409  1.00  0.00     0.198 A 
ATOM     67  F   UNL A   1      44.158  30.701  26.596  1.00  0.00    -0.203 F 
ATOM     68  F   UNL A   1      48.858  33.382  26.939  1.00  0.00    -0.200 F 
ATOM     69  C   UNL A   1      46.541  33.364  26.532  1.00  0.00     0.200 A 
ATOM     70  F   UNL A   1      44.209  33.284  26.211  1.00  0.00    -0.200 F 
ATOM     71  F   UNL A   1      46.517  34.701  26.475  1.00  0.00    -0.200 F 
ENDBRANCH  47  61
BRANCH  48  72
ATOM     72  C   UNL A   1      38.654  28.496  29.530  1.00  0.00     0.064 A 
ATOM     73  C   UNL A   1      37.836  28.787  30.634  1.00  0.00     0.173 A 
ATOM     74  C   UNL A   1      38.217  28.977  28.281  1.00  0.00     0.173 A 
ATOM     75  F   UNL A   1      38.206  28.404  31.864  1.00  0.00    -0.203 F 
ATOM     76  C   UNL A   1      36.666  29.545  30.501  1.00  0.00     0.198 A 
ATOM     77  C   UNL A   1      37.049  29.733  28.149  1.00  0.00     0.198 A 
ATOM     78  F   UNL A   1      38.969  28.810  27.183  1.00  0.00    -0.203 F 
ATOM     79  F   UNL A   1      35.946  29.860  31.586  1.00  0.00    -0.200 F 
ATOM     80  C   UNL A   1      36.282  30.029  29.261  1.00  0.00     0.200 A 
ATOM     81  F   UNL A   1      36.712  30.231  26.951  1.00  0.00    -0.200 F 
ATOM     82  F   UNL A   1      35.202  30.813  29.143  1.00  0.00    -0.200 F 
ENDBRANCH  48  72
BRANCH  60  83
ATOM     83  C   UNL A   1      44.157  27.231  32.369  1.00  0.00     0.064 A 
ATOM     84  C   UNL A   1      44.131  25.852  32.098  1.00  0.00     0.173 A 
ATOM     85  C   UNL A   1      44.184  27.621  33.714  1.00  0.00     0.173 A 
ATOM     86  F   UNL A   1      44.186  25.393  30.842  1.00  0.00    -0.203 F 
ATOM     87  C   UNL A   1      44.095  24.913  33.130  1.00  0.00     0.198 A 
ATOM     88  C   UNL A   1      44.185  26.683  34.742  1.00  0.00     0.198 A 
ATOM     89  F   UNL A   1      44.252  28.923  34.032  1.00  0.00    -0.203 F 
ATOM     90  F   UNL A   1      44.054  23.603  32.847  1.00  0.00    -0.200 F 
ATOM     91  C   UNL A   1      44.130  25.331  34.450  1.00  0.00     0.200 A 
ATOM     92  F   UNL A   1      44.264  27.094  36.014  1.00  0.00    -0.200 F 
ATOM     93  F   UNL A   1      44.132  24.430  35.443  1.00  0.00    -0.200 F 
ENDBRANCH  60  83
ENDBRANCH  34  35
ENDBRANCH  26  29
ENDBRANCH  24  25
ENDBRANCH  23  24
ENDBRANCH  22  23
ENDBRANCH   1  22
TORSDOF 15
ENDMDL
MODEL 2
REMARK VINA RESULT:     -11.9      1.682      2.700
REMARK SMILES O=C(/C=C/c1ccc(Br)cc1-n1ccnc1)NCCCCCCNC(=O)c1ccc(-c2c3nc(c(-c4c(F)c(F)c(F)c(F)c4F)c4ccc([nH]4)c(-c4c(F)c(F)c(F)c(F)c4F)c4nc(c(-c5c(F)c(F)c(F)c(F)c5F)c5ccc2[nH]5)C=C4)C=C3)cc1
REMARK SMILES IDX 20 1 19 2 18 3 17 4 1 5 2 6 3 8 4 9 5 10 6 11 11 12 7 13
REMARK SMILES IDX 10 14 8 15 9 16 12 17 13 18 16 19 14 20 15 21 21 22 22 23
REMARK SMILES IDX 23 24 24 25 25 26 26 28 27 29 28 30 89 31 29 32 88 33 30 34
REMARK SMILES IDX 31 35 32 36 82 37 33 38 87 39 81 40 83 41 34 42 86 43 80 44
REMARK SMILES IDX 79 45 35 47 67 48 47 49 66 50 48 51 51 52 65 53 84 54 49 55
REMARK SMILES IDX 50 56 64 58 85 59 52 60 36 61 37 62 45 63 38 64 39 65 43 66
REMARK SMILES IDX 46 67 40 68 41 69 44 70 42 71 68 72 69 73 77 74 70 75 71 76
REMARK SMILES IDX 75 77 78 78 72 79 73 80 76 81 74 82 53 83 54 84 62 85 55 86
REMARK SMILES IDX 56 87 60 88 63 89 57 90 58 91 61 92 59 93
REMARK H PARENT 17 7 24 27 83 46 51 57
REMARK Flexibility Score: inf
ROOT
ATOM      1  C   UNL A   1      41.577  20.115  27.469  1.00  0.00     0.002 C 
ENDROOT
BRANCH   1   2
ATOM      2  C   UNL A   1      40.753  21.409  27.538  1.00  0.00     0.021 C 
BRANCH   2   3
ATOM      3  C   UNL A   1      40.109  21.836  26.218  1.00  0.00     0.116 C 
BRANCH   3   4
ATOM      4  N   UNL A   1      38.764  22.335  26.416  1.00  0.00    -0.353 N 
ATOM      5  O   UNL A   1      37.775  21.077  24.772  1.00  0.00    -0.270 OA
ATOM      6  C   UNL A   1      37.708  21.940  25.640  1.00  0.00     0.244 C 
ATOM      7  H   UNL A   1      38.601  22.984  27.139  1.00  0.00     0.163 HD
BRANCH   6   8
ATOM      8  C   UNL A   1      36.403  22.607  25.899  1.00  0.00     0.072 C 
ATOM      9  C   UNL A   1      35.492  22.951  24.975  1.00  0.00     0.016 C 
BRANCH   9  10
ATOM     10  C   UNL A   1      34.189  23.571  25.289  1.00  0.00    -0.001 A 
ATOM     11  C   UNL A   1      34.137  24.952  25.555  1.00  0.00     0.011 A 
ATOM     12  C   UNL A   1      32.965  22.876  25.158  1.00  0.00     0.055 A 
ATOM     13  C   UNL A   1      32.916  25.613  25.716  1.00  0.00     0.016 A 
ATOM     14  C   UNL A   1      31.737  23.548  25.283  1.00  0.00     0.043 A 
ATOM     15  C   UNL A   1      31.725  24.910  25.579  1.00  0.00     0.020 A 
ATOM     16  Br  UNL A   1      30.076  25.803  25.814  1.00  0.00    -0.051 Br
BRANCH  12  17
ATOM     17  N   UNL A   1      32.923  21.480  24.928  1.00  0.00    -0.306 N 
ATOM     18  C   UNL A   1      33.316  20.480  25.789  1.00  0.00     0.113 A 
ATOM     19  C   UNL A   1      32.442  20.848  23.805  1.00  0.00     0.204 A 
ATOM     20  C   UNL A   1      33.056  19.301  25.134  1.00  0.00     0.131 A 
ATOM     21  N   UNL A   1      32.533  19.539  23.892  1.00  0.00    -0.245 NA
ENDBRANCH  12  17
ENDBRANCH   9  10
ENDBRANCH   6   8
ENDBRANCH   3   4
ENDBRANCH   2   3
ENDBRANCH   1   2
BRANCH   1  22
ATOM     22  C   UNL A   1      41.529  19.343  26.141  1.00  0.00     0.002 C 
BRANCH  22  23
ATOM     23  C   UNL A   1      42.723  18.432  25.825  1.00  0.00     0.021 C 
BRANCH  23  24
ATOM     24  C   UNL A   1      44.077  19.109  25.957  1.00  0.00     0.116 C 
BRANCH  24  25
ATOM     25  N   UNL A   1      44.613  19.595  24.682  1.00  0.00    -0.352 N 
ATOM     26  C   UNL A   1      44.564  20.888  24.175  1.00  0.00     0.251 C 
ATOM     27  H   UNL A   1      45.062  18.926  24.116  1.00  0.00     0.163 HD
ATOM     28  O   UNL A   1      44.684  21.119  22.987  1.00  0.00    -0.269 OA
BRANCH  26  29
ATOM     29  C   UNL A   1      44.382  21.989  25.138  1.00  0.00     0.039 A 
ATOM     30  C   UNL A   1      45.322  22.298  26.126  1.00  0.00     0.014 A 
ATOM     31  C   UNL A   1      43.235  22.755  24.979  1.00  0.00     0.014 A 
ATOM     32  C   UNL A   1      45.115  23.437  26.902  1.00  0.00     0.010 A 
ATOM     33  C   UNL A   1      43.167  23.986  25.558  1.00  0.00     0.010 A 
ATOM     34  C   UNL A   1      44.035  24.281  26.596  1.00  0.00    -0.014 A 
BRANCH  34  35
ATOM     35  C   UNL A   1      43.810  25.542  27.286  1.00  0.00     0.031 A 
ATOM     36  C   UNL A   1      44.762  26.612  26.901  1.00  0.00     0.074 A 
ATOM     37  C   UNL A   1      42.685  25.769  28.004  1.00  0.00     0.049 A 
ATOM     38  N   UNL A   1      45.706  27.120  27.619  1.00  0.00    -0.248 NA
ATOM     39  C   UNL A   1      44.782  27.056  25.497  1.00  0.00     0.031 C 
ATOM     40  C   UNL A   1      41.506  24.900  28.149  1.00  0.00     0.029 A 
ATOM     41  N   UNL A   1      42.307  26.886  28.687  1.00  0.00    -0.354 N 
ATOM     42  C   UNL A   1      46.289  28.111  26.832  1.00  0.00     0.074 A 
ATOM     43  C   UNL A   1      45.832  27.880  25.490  1.00  0.00     0.031 C 
ATOM     44  C   UNL A   1      40.472  25.604  28.662  1.00  0.00     0.029 A 
ATOM     45  C   UNL A   1      40.967  26.905  29.062  1.00  0.00     0.049 A 
ATOM     46  H   UNL A   1      42.930  27.619  28.896  1.00  0.00     0.167 HD
ATOM     47  C   UNL A   1      46.850  29.208  27.416  1.00  0.00     0.037 A 
ATOM     48  C   UNL A   1      40.315  27.931  29.659  1.00  0.00     0.037 A 
ATOM     49  C   UNL A   1      47.004  28.989  28.834  1.00  0.00     0.049 A 
ATOM     50  C   UNL A   1      41.350  28.795  30.271  1.00  0.00     0.074 A 
ATOM     51  C   UNL A   1      47.804  28.212  29.643  1.00  0.00     0.029 A 
ATOM     52  N   UNL A   1      45.904  29.346  29.570  1.00  0.00    -0.354 N 
ATOM     53  N   UNL A   1      42.117  28.413  31.255  1.00  0.00    -0.248 NA
ATOM     54  C   UNL A   1      41.817  29.956  29.528  1.00  0.00     0.031 C 
ATOM     55  C   UNL A   1      47.009  27.902  30.789  1.00  0.00     0.029 A 
ATOM     56  C   UNL A   1      45.777  28.550  30.674  1.00  0.00     0.049 A 
ATOM     57  H   UNL A   1      45.290  30.078  29.335  1.00  0.00     0.167 HD
ATOM     58  C   UNL A   1      43.342  28.999  30.989  1.00  0.00     0.074 A 
ATOM     59  C   UNL A   1      43.053  30.056  30.024  1.00  0.00     0.031 C 
ATOM     60  C   UNL A   1      44.502  28.367  31.336  1.00  0.00     0.037 A 
BRANCH  47  61
ATOM     61  C   UNL A   1      46.789  30.620  26.861  1.00  0.00     0.064 A 
ATOM     62  C   UNL A   1      47.956  31.415  26.900  1.00  0.00     0.173 A 
ATOM     63  C   UNL A   1      45.594  31.325  26.599  1.00  0.00     0.173 A 
ATOM     64  F   UNL A   1      49.150  30.862  27.159  1.00  0.00    -0.203 F 
ATOM     65  C   UNL A   1      47.914  32.807  26.770  1.00  0.00     0.198 A 
ATOM     66  C   UNL A   1      45.562  32.708  26.419  1.00  0.00     0.198 A 
ATOM     67  F   UNL A   1      44.393  30.737  26.621  1.00  0.00    -0.203 F 
ATOM     68  F   UNL A   1      49.031  33.527  26.940  1.00  0.00    -0.200 F 
ATOM     69  C   UNL A   1      46.715  33.454  26.535  1.00  0.00     0.200 A 
ATOM     70  F   UNL A   1      44.386  33.318  26.217  1.00  0.00    -0.200 F 
ATOM     71  F   UNL A   1      46.660  34.790  26.470  1.00  0.00    -0.200 F 
ENDBRANCH  47  61
BRANCH  48  72
ATOM     72  C   UNL A   1      38.917  28.382  29.460  1.00  0.00     0.064 A 
ATOM     73  C   UNL A   1      38.063  28.615  30.550  1.00  0.00     0.173 A 
ATOM     74  C   UNL A   1      38.496  28.884  28.213  1.00  0.00     0.173 A 
ATOM     75  F   UNL A   1      38.415  28.209  31.778  1.00  0.00    -0.203 F 
ATOM     76  C   UNL A   1      36.872  29.337  30.408  1.00  0.00     0.198 A 
ATOM     77  C   UNL A   1      37.307  29.604  28.072  1.00  0.00     0.198 A 
ATOM     78  F   UNL A   1      39.280  28.772  27.132  1.00  0.00    -0.203 F 
ATOM     79  F   UNL A   1      36.115  29.597  31.482  1.00  0.00    -0.200 F 
ATOM     80  C   UNL A   1      36.503  29.843  29.172  1.00  0.00     0.200 A 
ATOM     81  F   UNL A   1      36.984  30.125  26.880  1.00  0.00    -0.200 F 
ATOM     82  F   UNL A   1      35.401  30.595  29.048  1.00  0.00    -0.200 F 
ENDBRANCH  48  72
BRANCH  60  83
ATOM     83  C   UNL A   1      44.415  27.292  32.382  1.00  0.00     0.064 A 
ATOM     84  C   UNL A   1      44.260  27.521  33.760  1.00  0.00     0.173 A 
ATOM     85  C   UNL A   1      44.390  25.962  31.944  1.00  0.00     0.173 A 
ATOM     86  F   UNL A   1      44.193  28.764  34.251  1.00  0.00    -0.203 F 
ATOM     87  C   UNL A   1      44.126  26.461  34.658  1.00  0.00     0.198 A 
ATOM     88  C   UNL A   1      44.217  24.908  32.836  1.00  0.00     0.198 A 
ATOM     89  F   UNL A   1      44.490  25.686  30.635  1.00  0.00    -0.203 F 
ATOM     90  F   UNL A   1      43.996  26.703  35.971  1.00  0.00    -0.200 F 
ATOM     91  C   UNL A   1      44.097  25.157  34.193  1.00  0.00     0.200 A 
ATOM     92  F   UNL A   1      44.146  23.653  32.374  1.00  0.00    -0.200 F 
ATOM     93  F   UNL A   1      43.931  24.139  35.050  1.00  0.00    -0.200 F 
ENDBRANCH  60  83
ENDBRANCH  34  35
ENDBRANCH  26  29
ENDBRANCH  24  25
ENDBRANCH  23  24
ENDBRANCH  22  23
ENDBRANCH   1  22
TORSDOF 15
ENDMDL
MODEL 3
REMARK VINA RESULT:     -11.7      4.029      9.549
REMARK SMILES O=C(/C=C/c1ccc(Br)cc1-n1ccnc1)NCCCCCCNC(=O)c1ccc(-c2c3nc(c(-c4c(F)c(F)c(F)c(F)c4F)c4ccc([nH]4)c(-c4c(F)c(F)c(F)c(F)c4F)c4nc(c(-c5c(F)c(F)c(F)c(F)c5F)c5ccc2[nH]5)C=C4)C=C3)cc1
REMARK SMILES IDX 20 1 19 2 18 3 17 4 1 5 2 6 3 8 4 9 5 10 6 11 11 12 7 13
REMARK SMILES IDX 10 14 8 15 9 16 12 17 13 18 16 19 14 20 15 21 21 22 22 23
REMARK SMILES IDX 23 24 24 25 25 26 26 28 27 29 28 30 89 31 29 32 88 33 30 34
REMARK SMILES IDX 31 35 32 36 82 37 33 38 87 39 81 40 83 41 34 42 86 43 80 44
REMARK SMILES IDX 79 45 35 47 67 48 47 49 66 50 48 51 51 52 65 53 84 54 49 55
REMARK SMILES IDX 50 56 64 58 85 59 52 60 36 61 37 62 45 63 38 64 39 65 43 66
REMARK SMILES IDX 46 67 40 68 41 69 44 70 42 71 68 72 69 73 77 74 70 75 71 76
REMARK SMILES IDX 75 77 78 78 72 79 73 80 76 81 74 82 53 83 54 84 62 85 55 86
REMARK SMILES IDX 56 87 60 88 63 89 57 90 58 91 61 92 59 93
REMARK H PARENT 17 7 24 27 83 46 51 57
REMARK Flexibility Score: inf
ROOT
ATOM      1  C   UNL A   1      34.522  32.115  28.548  1.00  0.00     0.002 C 
ENDROOT
BRANCH   1   2
ATOM      2  C   UNL A   1      34.563  30.988  27.506  1.00  0.00     0.021 C 
BRANCH   2   3
ATOM      3  C   UNL A   1      33.237  30.258  27.290  1.00  0.00     0.116 C 
BRANCH   3   4
ATOM      4  N   UNL A   1      33.441  28.858  26.984  1.00  0.00    -0.353 N 
ATOM      5  O   UNL A   1      33.502  29.095  24.702  1.00  0.00    -0.270 OA
ATOM      6  C   UNL A   1      33.515  28.385  25.701  1.00  0.00     0.244 C 
ATOM      7  H   UNL A   1      33.532  28.219  27.728  1.00  0.00     0.163 HD
BRANCH   6   8
ATOM      8  C   UNL A   1      33.634  26.910  25.540  1.00  0.00     0.072 C 
ATOM      9  C   UNL A   1      32.716  25.998  25.897  1.00  0.00     0.016 C 
BRANCH   9  10
ATOM     10  C   UNL A   1      32.863  24.545  25.673  1.00  0.00    -0.001 A 
ATOM     11  C   UNL A   1      32.960  23.691  26.787  1.00  0.00     0.011 A 
ATOM     12  C   UNL A   1      32.730  23.955  24.396  1.00  0.00     0.055 A 
ATOM     13  C   UNL A   1      32.955  22.300  26.636  1.00  0.00     0.016 A 
ATOM     14  C   UNL A   1      32.689  22.558  24.247  1.00  0.00     0.043 A 
ATOM     15  C   UNL A   1      32.820  21.742  25.369  1.00  0.00     0.020 A 
ATOM     16  Br  UNL A   1      32.832  19.864  25.166  1.00  0.00    -0.051 Br
BRANCH  12  17
ATOM     17  N   UNL A   1      32.664  24.738  23.218  1.00  0.00    -0.306 N 
ATOM     18  C   UNL A   1      31.547  25.325  22.667  1.00  0.00     0.113 A 
ATOM     19  C   UNL A   1      33.720  25.095  22.412  1.00  0.00     0.204 A 
ATOM     20  C   UNL A   1      31.992  25.999  21.554  1.00  0.00     0.131 A 
ATOM     21  N   UNL A   1      33.340  25.833  21.391  1.00  0.00    -0.245 NA
ENDBRANCH  12  17
ENDBRANCH   9  10
ENDBRANCH   6   8
ENDBRANCH   3   4
ENDBRANCH   2   3
ENDBRANCH   1   2
BRANCH   1  22
ATOM     22  C   UNL A   1      35.181  33.444  28.145  1.00  0.00     0.002 C 
BRANCH  22  23
ATOM     23  C   UNL A   1      34.575  34.725  28.734  1.00  0.00     0.021 C 
BRANCH  23  24
ATOM     24  C   UNL A   1      33.289  34.507  29.514  1.00  0.00     0.116 C 
BRANCH  24  25
ATOM     25  N   UNL A   1      33.187  35.339  30.716  1.00  0.00    -0.352 N 
ATOM     26  C   UNL A   1      33.719  35.087  31.975  1.00  0.00     0.251 C 
ATOM     27  H   UNL A   1      32.682  36.179  30.620  1.00  0.00     0.163 HD
ATOM     28  O   UNL A   1      33.279  35.617  32.977  1.00  0.00    -0.269 OA
BRANCH  26  29
ATOM     29  C   UNL A   1      34.863  34.162  32.055  1.00  0.00     0.039 A 
ATOM     30  C   UNL A   1      34.717  32.772  32.070  1.00  0.00     0.014 A 
ATOM     31  C   UNL A   1      36.122  34.748  32.060  1.00  0.00     0.014 A 
ATOM     32  C   UNL A   1      35.868  31.986  32.019  1.00  0.00     0.010 A 
ATOM     33  C   UNL A   1      37.213  33.991  31.758  1.00  0.00     0.010 A 
ATOM     34  C   UNL A   1      37.113  32.613  31.849  1.00  0.00    -0.014 A 
BRANCH  34  35
ATOM     35  C   UNL A   1      38.347  31.863  31.680  1.00  0.00     0.031 A 
ATOM     36  C   UNL A   1      39.036  31.552  32.957  1.00  0.00     0.074 A 
ATOM     37  C   UNL A   1      38.679  31.295  30.497  1.00  0.00     0.049 A 
ATOM     38  N   UNL A   1      40.144  32.046  33.393  1.00  0.00    -0.248 NA
ATOM     39  C   UNL A   1      38.330  30.718  33.944  1.00  0.00     0.031 C 
ATOM     40  C   UNL A   1      37.884  31.238  29.259  1.00  0.00     0.029 A 
ATOM     41  N   UNL A   1      39.772  30.550  30.174  1.00  0.00    -0.354 N 
ATOM     42  C   UNL A   1      40.391  31.412  34.609  1.00  0.00     0.074 A 
ATOM     43  C   UNL A   1      39.157  30.781  34.990  1.00  0.00     0.031 C 
ATOM     44  C   UNL A   1      38.402  30.315  28.419  1.00  0.00     0.029 A 
ATOM     45  C   UNL A   1      39.665  29.864  28.967  1.00  0.00     0.049 A 
ATOM     46  H   UNL A   1      40.571  30.499  30.747  1.00  0.00     0.167 HD
ATOM     47  C   UNL A   1      41.672  31.213  35.031  1.00  0.00     0.037 A 
ATOM     48  C   UNL A   1      40.560  28.982  28.462  1.00  0.00     0.037 A 
ATOM     49  C   UNL A   1      42.582  32.002  34.236  1.00  0.00     0.049 A 
ATOM     50  C   UNL A   1      41.848  29.245  29.144  1.00  0.00     0.074 A 
ATOM     51  C   UNL A   1      42.888  33.338  34.099  1.00  0.00     0.029 A 
ATOM     52  N   UNL A   1      43.017  31.365  33.103  1.00  0.00    -0.354 N 
ATOM     53  N   UNL A   1      42.523  30.353  29.006  1.00  0.00    -0.248 NA
ATOM     54  C   UNL A   1      42.201  28.438  30.302  1.00  0.00     0.031 C 
ATOM     55  C   UNL A   1      43.273  33.507  32.734  1.00  0.00     0.029 A 
ATOM     56  C   UNL A   1      43.252  32.263  32.099  1.00  0.00     0.049 A 
ATOM     57  H   UNL A   1      43.143  30.393  33.023  1.00  0.00     0.167 HD
ATOM     58  C   UNL A   1      43.063  30.589  30.258  1.00  0.00     0.074 A 
ATOM     59  C   UNL A   1      42.974  29.310  30.955  1.00  0.00     0.031 C 
ATOM     60  C   UNL A   1      43.238  31.868  30.707  1.00  0.00     0.037 A 
BRANCH  47  61
ATOM     61  C   UNL A   1      42.167  29.982  35.769  1.00  0.00     0.064 A 
ATOM     62  C   UNL A   1      43.140  30.143  36.780  1.00  0.00     0.173 A 
ATOM     63  C   UNL A   1      41.982  28.655  35.324  1.00  0.00     0.173 A 
ATOM     64  F   UNL A   1      43.420  31.360  37.271  1.00  0.00    -0.203 F 
ATOM     65  C   UNL A   1      43.917  29.076  37.243  1.00  0.00     0.198 A 
ATOM     66  C   UNL A   1      42.723  27.584  35.825  1.00  0.00     0.198 A 
ATOM     67  F   UNL A   1      41.168  28.344  34.310  1.00  0.00    -0.203 F 
ATOM     68  F   UNL A   1      44.913  29.303  38.111  1.00  0.00    -0.200 F 
ATOM     69  C   UNL A   1      43.712  27.797  36.761  1.00  0.00     0.200 A 
ATOM     70  F   UNL A   1      42.524  26.357  35.325  1.00  0.00    -0.200 F 
ATOM     71  F   UNL A   1      44.491  26.784  37.156  1.00  0.00    -0.200 F 
ENDBRANCH  47  61
BRANCH  48  72
ATOM     72  C   UNL A   1      40.305  27.742  27.692  1.00  0.00     0.064 A 
ATOM     73  C   UNL A   1      41.053  27.428  26.545  1.00  0.00     0.173 A 
ATOM     74  C   UNL A   1      39.534  26.700  28.243  1.00  0.00     0.173 A 
ATOM     75  F   UNL A   1      41.848  28.353  25.987  1.00  0.00    -0.203 F 
ATOM     76  C   UNL A   1      41.056  26.139  26.000  1.00  0.00     0.198 A 
ATOM     77  C   UNL A   1      39.538  25.413  27.699  1.00  0.00     0.198 A 
ATOM     78  F   UNL A   1      38.847  26.887  29.378  1.00  0.00    -0.203 F 
ATOM     79  F   UNL A   1      41.833  25.860  24.945  1.00  0.00    -0.200 F 
ATOM     80  C   UNL A   1      40.309  25.130  26.587  1.00  0.00     0.200 A 
ATOM     81  F   UNL A   1      38.845  24.436  28.301  1.00  0.00    -0.200 F 
ATOM     82  F   UNL A   1      40.366  23.879  26.110  1.00  0.00    -0.200 F 
ENDBRANCH  48  72
BRANCH  60  83
ATOM     83  C   UNL A   1      43.265  32.962  29.677  1.00  0.00     0.064 A 
ATOM     84  C   UNL A   1      42.189  33.817  29.383  1.00  0.00     0.173 A 
ATOM     85  C   UNL A   1      44.481  33.212  29.028  1.00  0.00     0.173 A 
ATOM     86  F   UNL A   1      41.017  33.696  30.019  1.00  0.00    -0.203 F 
ATOM     87  C   UNL A   1      42.319  34.849  28.453  1.00  0.00     0.198 A 
ATOM     88  C   UNL A   1      44.619  34.265  28.130  1.00  0.00     0.198 A 
ATOM     89  F   UNL A   1      45.554  32.455  29.302  1.00  0.00    -0.203 F 
ATOM     90  F   UNL A   1      41.273  35.642  28.177  1.00  0.00    -0.200 F 
ATOM     91  C   UNL A   1      43.537  35.076  27.834  1.00  0.00     0.200 A 
ATOM     92  F   UNL A   1      45.812  34.506  27.568  1.00  0.00    -0.200 F 
ATOM     93  F   UNL A   1      43.674  36.090  26.968  1.00  0.00    -0.200 F 
ENDBRANCH  60  83
ENDBRANCH  34  35
ENDBRANCH  26  29
ENDBRANCH  24  25
ENDBRANCH  23  24
ENDBRANCH  22  23
ENDBRANCH   1  22
TORSDOF 15
ENDMDL
