MODEL 1
REMARK VINA RESULT:      -8.8      0.000      0.000
REMARK SMILES CCCCCCNC(=O)Oc1cccc(-c2ccc(CC(=O)NCCCCCCNC(=O)c3ccc(-c4c5nc(c(-c6c(F)c(F)c(F)c(F)c6F)c6ccc([nH]6)c(-c6c(F)c(F)c(F)c(F)c6F)c6nc(c(-c7c(F)c(F)c(F)c(F)c7F)c7ccc4[nH]7)C=C6)C=C5)cc3)cc2F)c1
REMARK SMILES IDX 21 1 22 2 23 3 20 5 19 6 16 7 17 8 97 9 18 10 96 11 98 12
REMARK SMILES IDX 15 13 11 14 12 15 99 16 13 17 14 18 10 19 8 20 7 21 9 23
REMARK SMILES IDX 6 24 5 25 4 26 3 27 2 28 1 29 24 30 25 31 26 32 27 33 28 34
REMARK SMILES IDX 29 35 30 36 31 37 32 39 33 40 34 41 95 42 35 43 94 44 36 45
REMARK SMILES IDX 37 46 38 47 88 48 39 49 93 50 87 51 89 52 40 53 92 54 86 55
REMARK SMILES IDX 85 56 41 58 73 59 53 60 72 61 54 62 57 63 71 64 90 65 55 66
REMARK SMILES IDX 56 67 70 69 91 70 58 71 42 72 43 73 51 74 44 75 45 76 49 77
REMARK SMILES IDX 52 78 46 79 47 80 50 81 48 82 74 83 75 84 83 85 76 86 77 87
REMARK SMILES IDX 81 88 84 89 78 90 79 91 82 92 80 93 59 94 60 95 68 96 61 97
REMARK SMILES IDX 62 98 66 99 69 100 63 101 64 102 67 103 65 104
REMARK H PARENT 23 4 7 22 30 38 89 57 57 68
REMARK Flexibility Score: inf
ROOT
ATOM      1  C   UNL A   1      33.329  34.461  28.668  1.00  0.00     0.224 C 
ATOM      2  O   UNL A   1      32.531  33.841  27.964  1.00  0.00    -0.275 OA
ATOM      3  N   UNL A   1      32.878  35.003  29.837  1.00  0.00    -0.356 N 
ATOM      4  H   UNL A   1      31.950  34.777  30.075  1.00  0.00     0.163 HD
ENDROOT
BRANCH   1   5
ATOM      5  C   UNL A   1      34.794  34.582  28.280  1.00  0.00     0.135 C 
BRANCH   5   6
ATOM      6  C   UNL A   1      35.629  33.372  28.622  1.00  0.00    -0.036 A 
ATOM      7  C   UNL A   1      37.314  31.154  29.174  1.00  0.00     0.018 A 
ATOM      8  C   UNL A   1      36.226  31.039  28.291  1.00  0.00     0.012 A 
ATOM      9  C   UNL A   1      37.503  32.393  29.801  1.00  0.00     0.131 A 
ATOM     10  C   UNL A   1      35.394  32.133  28.018  1.00  0.00     0.005 A 
ATOM     11  C   UNL A   1      36.670  33.481  29.550  1.00  0.00     0.044 A 
ATOM     12  F   UNL A   1      38.530  32.581  30.646  1.00  0.00    -0.206 F 
BRANCH   7  13
ATOM     13  C   UNL A   1      38.224  30.022  29.420  1.00  0.00    -0.012 A 
ATOM     14  C   UNL A   1      40.362  28.915  29.081  1.00  0.00     0.133 A 
ATOM     15  C   UNL A   1      39.944  27.815  29.824  1.00  0.00     0.047 A 
ATOM     16  C   UNL A   1      39.514  30.001  28.865  1.00  0.00     0.056 A 
ATOM     17  C   UNL A   1      38.670  27.819  30.386  1.00  0.00     0.004 A 
ATOM     18  C   UNL A   1      37.821  28.913  30.187  1.00  0.00     0.009 A 
BRANCH  14  19
ATOM     19  O   UNL A   1      41.616  28.828  28.456  1.00  0.00    -0.410 OA
BRANCH  19  20
ATOM     20  C   UNL A   1      41.728  28.042  27.319  1.00  0.00     0.412 C 
ATOM     21  N   UNL A   1      42.741  27.129  27.390  1.00  0.00    -0.321 N 
ATOM     22  H   UNL A   1      42.868  26.551  26.603  1.00  0.00     0.167 HD
ATOM     23  O   UNL A   1      41.023  28.119  26.316  1.00  0.00    -0.224 OA
BRANCH  21  24
ATOM     24  C   UNL A   1      43.648  26.920  28.501  1.00  0.00     0.119 C 
BRANCH  24  25
ATOM     25  C   UNL A   1      44.310  25.542  28.449  1.00  0.00     0.021 C 
BRANCH  25  26
ATOM     26  C   UNL A   1      44.035  24.646  29.663  1.00  0.00     0.002 C 
BRANCH  26  27
ATOM     27  C   UNL A   1      43.614  23.209  29.345  1.00  0.00    -0.000 C 
BRANCH  27  28
ATOM     28  C   UNL A   1      42.294  23.064  28.583  1.00  0.00    -0.003 C 
ATOM     29  C   UNL A   1      42.287  21.898  27.606  1.00  0.00     0.004 C 
ENDBRANCH  27  28
ENDBRANCH  26  27
ENDBRANCH  25  26
ENDBRANCH  24  25
ENDBRANCH  21  24
ENDBRANCH  19  20
ENDBRANCH  14  19
ENDBRANCH   7  13
ENDBRANCH   5   6
ENDBRANCH   1   5
BRANCH   3  30
ATOM     30  C   UNL A   1      33.570  35.861  30.779  1.00  0.00     0.116 C 
BRANCH  30  31
ATOM     31  C   UNL A   1      33.385  35.373  32.218  1.00  0.00     0.021 C 
BRANCH  31  32
ATOM     32  C   UNL A   1      34.588  34.597  32.774  1.00  0.00     0.002 C 
BRANCH  32  33
ATOM     33  C   UNL A   1      34.520  33.075  32.609  1.00  0.00     0.002 C 
BRANCH  33  34
ATOM     34  C   UNL A   1      35.819  32.327  32.918  1.00  0.00     0.021 C 
BRANCH  34  35
ATOM     35  C   UNL A   1      36.866  33.153  33.657  1.00  0.00     0.116 C 
BRANCH  35  36
ATOM     36  N   UNL A   1      36.935  32.815  35.072  1.00  0.00    -0.352 N 
ATOM     37  C   UNL A   1      37.760  31.919  35.707  1.00  0.00     0.251 C 
ATOM     38  H   UNL A   1      36.304  33.296  35.655  1.00  0.00     0.163 HD
ATOM     39  O   UNL A   1      37.577  31.623  36.882  1.00  0.00    -0.269 OA
BRANCH  37  40
ATOM     40  C   UNL A   1      38.867  31.293  34.954  1.00  0.00     0.039 A 
ATOM     41  C   UNL A   1      38.574  30.315  33.999  1.00  0.00     0.014 A 
ATOM     42  C   UNL A   1      40.188  31.683  35.185  1.00  0.00     0.014 A 
ATOM     43  C   UNL A   1      39.604  29.778  33.220  1.00  0.00     0.010 A 
ATOM     44  C   UNL A   1      41.203  31.192  34.370  1.00  0.00     0.010 A 
ATOM     45  C   UNL A   1      40.919  30.240  33.376  1.00  0.00    -0.014 A 
BRANCH  45  46
ATOM     46  C   UNL A   1      42.031  29.756  32.519  1.00  0.00     0.031 A 
ATOM     47  C   UNL A   1      42.768  28.502  32.898  1.00  0.00     0.074 A 
ATOM     48  C   UNL A   1      42.454  30.503  31.480  1.00  0.00     0.049 A 
ATOM     49  N   UNL A   1      43.882  28.016  32.414  1.00  0.00    -0.248 NA
ATOM     50  C   UNL A   1      42.188  27.705  33.991  1.00  0.00     0.031 C 
ATOM     51  C   UNL A   1      41.844  31.757  31.035  1.00  0.00     0.029 A 
ATOM     52  N   UNL A   1      43.521  30.335  30.632  1.00  0.00    -0.354 N 
ATOM     53  C   UNL A   1      44.157  26.883  33.168  1.00  0.00     0.074 A 
ATOM     54  C   UNL A   1      43.106  26.763  34.156  1.00  0.00     0.031 C 
ATOM     55  C   UNL A   1      42.552  32.250  30.005  1.00  0.00     0.029 A 
ATOM     56  C   UNL A   1      43.690  31.372  29.747  1.00  0.00     0.049 A 
ATOM     57  H   UNL A   1      44.110  29.545  30.656  1.00  0.00     0.167 HD
ATOM     58  C   UNL A   1      45.191  26.020  33.040  1.00  0.00     0.037 A 
ATOM     59  C   UNL A   1      44.669  31.604  28.851  1.00  0.00     0.037 A 
ATOM     60  C   UNL A   1      46.202  26.114  32.021  1.00  0.00     0.049 A 
ATOM     61  C   UNL A   1      45.796  30.614  28.718  1.00  0.00     0.074 A 
ATOM     62  C   UNL A   1      47.237  25.235  31.751  1.00  0.00     0.029 A 
ATOM     63  N   UNL A   1      46.304  27.148  31.103  1.00  0.00    -0.354 N 
ATOM     64  N   UNL A   1      46.011  29.511  29.391  1.00  0.00    -0.248 NA
ATOM     65  C   UNL A   1      46.817  30.899  27.698  1.00  0.00     0.031 C 
ATOM     66  C   UNL A   1      47.990  25.757  30.697  1.00  0.00     0.029 A 
ATOM     67  C   UNL A   1      47.396  26.939  30.280  1.00  0.00     0.049 A 
ATOM     68  H   UNL A   1      45.690  27.915  31.045  1.00  0.00     0.167 HD
ATOM     69  C   UNL A   1      47.165  28.956  28.857  1.00  0.00     0.074 A 
ATOM     70  C   UNL A   1      47.607  29.840  27.801  1.00  0.00     0.031 C 
ATOM     71  C   UNL A   1      47.804  27.815  29.213  1.00  0.00     0.037 A 
BRANCH  58  72
ATOM     72  C   UNL A   1      45.291  24.890  34.020  1.00  0.00     0.064 A 
ATOM     73  C   UNL A   1      45.900  25.053  35.272  1.00  0.00     0.173 A 
ATOM     74  C   UNL A   1      44.701  23.650  33.730  1.00  0.00     0.173 A 
ATOM     75  F   UNL A   1      46.485  26.217  35.593  1.00  0.00    -0.203 F 
ATOM     76  C   UNL A   1      45.928  24.010  36.195  1.00  0.00     0.198 A 
ATOM     77  C   UNL A   1      44.709  22.617  34.664  1.00  0.00     0.198 A 
ATOM     78  F   UNL A   1      44.100  23.446  32.548  1.00  0.00    -0.203 F 
ATOM     79  F   UNL A   1      46.542  24.177  37.374  1.00  0.00    -0.200 F 
ATOM     80  C   UNL A   1      45.325  22.797  35.894  1.00  0.00     0.200 A 
ATOM     81  F   UNL A   1      44.113  21.452  34.378  1.00  0.00    -0.200 F 
ATOM     82  F   UNL A   1      45.338  21.800  36.789  1.00  0.00    -0.200 F 
ENDBRANCH  58  72
BRANCH  59  83
ATOM     83  C   UNL A   1      44.640  32.833  28.014  1.00  0.00     0.064 A 
ATOM     84  C   UNL A   1      45.090  34.060  28.520  1.00  0.00     0.173 A 
ATOM     85  C   UNL A   1      44.138  32.812  26.704  1.00  0.00     0.173 A 
ATOM     86  F   UNL A   1      45.557  34.135  29.775  1.00  0.00    -0.203 F 
ATOM     87  C   UNL A   1      45.014  35.225  27.758  1.00  0.00     0.198 A 
ATOM     88  C   UNL A   1      44.090  33.971  25.933  1.00  0.00     0.198 A 
ATOM     89  F   UNL A   1      43.698  31.662  26.172  1.00  0.00    -0.203 F 
ATOM     90  F   UNL A   1      45.401  36.394  28.286  1.00  0.00    -0.200 F 
ATOM     91  C   UNL A   1      44.517  35.179  26.464  1.00  0.00     0.200 A 
ATOM     92  F   UNL A   1      43.622  33.920  24.680  1.00  0.00    -0.200 F 
ATOM     93  F   UNL A   1      44.442  36.299  25.734  1.00  0.00    -0.200 F 
ENDBRANCH  59  83
BRANCH  71  94
ATOM     94  C   UNL A   1      49.016  27.422  28.424  1.00  0.00     0.064 A 
ATOM     95  C   UNL A   1      48.918  26.646  27.262  1.00  0.00     0.173 A 
ATOM     96  C   UNL A   1      50.284  27.896  28.796  1.00  0.00     0.173 A 
ATOM     97  F   UNL A   1      47.729  26.159  26.874  1.00  0.00    -0.203 F 
ATOM     98  C   UNL A   1      50.047  26.349  26.503  1.00  0.00     0.198 A 
ATOM     99  C   UNL A   1      51.406  27.619  28.023  1.00  0.00     0.198 A 
ATOM    100  F   UNL A   1      50.428  28.648  29.898  1.00  0.00    -0.203 F 
ATOM    101  F   UNL A   1      49.936  25.581  25.411  1.00  0.00    -0.200 F 
ATOM    102  C   UNL A   1      51.288  26.844  26.879  1.00  0.00     0.200 A 
ATOM    103  F   UNL A   1      52.602  28.109  28.379  1.00  0.00    -0.200 F 
ATOM    104  F   UNL A   1      52.371  26.572  26.138  1.00  0.00    -0.200 F 
ENDBRANCH  71  94
ENDBRANCH  45  46
ENDBRANCH  37  40
ENDBRANCH  35  36
ENDBRANCH  34  35
ENDBRANCH  33  34
ENDBRANCH  32  33
ENDBRANCH  31  32
ENDBRANCH  30  31
ENDBRANCH   3  30
TORSDOF 22
ENDMDL
MODEL 2
REMARK VINA RESULT:      -8.7      4.296      9.648
REMARK SMILES CCCCCCNC(=O)Oc1cccc(-c2ccc(CC(=O)NCCCCCCNC(=O)c3ccc(-c4c5nc(c(-c6c(F)c(F)c(F)c(F)c6F)c6ccc([nH]6)c(-c6c(F)c(F)c(F)c(F)c6F)c6nc(c(-c7c(F)c(F)c(F)c(F)c7F)c7ccc4[nH]7)C=C6)C=C5)cc3)cc2F)c1
REMARK SMILES IDX 21 1 22 2 23 3 20 5 19 6 16 7 17 8 97 9 18 10 96 11 98 12
REMARK SMILES IDX 15 13 11 14 12 15 99 16 13 17 14 18 10 19 8 20 7 21 9 23
REMARK SMILES IDX 6 24 5 25 4 26 3 27 2 28 1 29 24 30 25 31 26 32 27 33 28 34
REMARK SMILES IDX 29 35 30 36 31 37 32 39 33 40 34 41 95 42 35 43 94 44 36 45
REMARK SMILES IDX 37 46 38 47 88 48 39 49 93 50 87 51 89 52 40 53 92 54 86 55
REMARK SMILES IDX 85 56 41 58 73 59 53 60 72 61 54 62 57 63 71 64 90 65 55 66
REMARK SMILES IDX 56 67 70 69 91 70 58 71 42 72 43 73 51 74 44 75 45 76 49 77
REMARK SMILES IDX 52 78 46 79 47 80 50 81 48 82 74 83 75 84 83 85 76 86 77 87
REMARK SMILES IDX 81 88 84 89 78 90 79 91 82 92 80 93 59 94 60 95 68 96 61 97
REMARK SMILES IDX 62 98 66 99 69 100 63 101 64 102 67 103 65 104
REMARK H PARENT 23 4 7 22 30 38 89 57 57 68
REMARK Flexibility Score: inf
ROOT
ATOM      1  C   UNL A   1      39.199  34.297  31.362  1.00  0.00     0.224 C 
ATOM      2  O   UNL A   1      39.002  34.639  32.529  1.00  0.00    -0.275 OA
ATOM      3  N   UNL A   1      39.771  35.198  30.510  1.00  0.00    -0.356 N 
ATOM      4  H   UNL A   1      40.068  36.040  30.925  1.00  0.00     0.163 HD
ENDROOT
BRANCH   1   5
ATOM      5  C   UNL A   1      38.866  32.893  30.884  1.00  0.00     0.135 C 
BRANCH   5   6
ATOM      6  C   UNL A   1      37.584  32.794  30.094  1.00  0.00    -0.036 A 
ATOM      7  C   UNL A   1      35.148  32.468  28.671  1.00  0.00     0.018 A 
ATOM      8  C   UNL A   1      36.390  32.314  28.031  1.00  0.00     0.012 A 
ATOM      9  C   UNL A   1      35.164  32.831  30.025  1.00  0.00     0.131 A 
ATOM     10  C   UNL A   1      37.593  32.476  28.731  1.00  0.00     0.005 A 
ATOM     11  C   UNL A   1      36.355  33.011  30.725  1.00  0.00     0.044 A 
ATOM     12  F   UNL A   1      34.017  32.981  30.705  1.00  0.00    -0.206 F 
BRANCH   7  13
ATOM     13  C   UNL A   1      33.882  32.244  27.951  1.00  0.00    -0.012 A 
ATOM     14  C   UNL A   1      32.346  30.765  26.784  1.00  0.00     0.133 A 
ATOM     15  C   UNL A   1      31.492  31.826  26.501  1.00  0.00     0.047 A 
ATOM     16  C   UNL A   1      33.534  30.965  27.487  1.00  0.00     0.056 A 
ATOM     17  C   UNL A   1      31.817  33.101  26.956  1.00  0.00     0.004 A 
ATOM     18  C   UNL A   1      33.000  33.306  27.676  1.00  0.00     0.009 A 
BRANCH  14  19
ATOM     19  O   UNL A   1      32.026  29.517  26.227  1.00  0.00    -0.410 OA
BRANCH  19  20
ATOM     20  C   UNL A   1      32.703  29.118  25.084  1.00  0.00     0.412 C 
ATOM     21  N   UNL A   1      31.897  29.012  23.987  1.00  0.00    -0.321 N 
ATOM     22  H   UNL A   1      32.329  28.722  23.151  1.00  0.00     0.167 HD
ATOM     23  O   UNL A   1      33.902  28.862  25.007  1.00  0.00    -0.224 OA
BRANCH  21  24
ATOM     24  C   UNL A   1      30.474  29.281  23.922  1.00  0.00     0.119 C 
BRANCH  24  25
ATOM     25  C   UNL A   1      30.033  29.703  22.520  1.00  0.00     0.021 C 
BRANCH  25  26
ATOM     26  C   UNL A   1      28.532  29.556  22.243  1.00  0.00     0.002 C 
BRANCH  26  27
ATOM     27  C   UNL A   1      27.608  30.394  23.133  1.00  0.00    -0.000 C 
BRANCH  27  28
ATOM     28  C   UNL A   1      27.769  31.911  23.003  1.00  0.00    -0.003 C 
ATOM     29  C   UNL A   1      28.401  32.340  21.689  1.00  0.00     0.004 C 
ENDBRANCH  27  28
ENDBRANCH  26  27
ENDBRANCH  25  26
ENDBRANCH  24  25
ENDBRANCH  21  24
ENDBRANCH  19  20
ENDBRANCH  14  19
ENDBRANCH   7  13
ENDBRANCH   5   6
ENDBRANCH   1   5
BRANCH   3  30
ATOM     30  C   UNL A   1      40.006  35.093  29.083  1.00  0.00     0.116 C 
BRANCH  30  31
ATOM     31  C   UNL A   1      41.493  35.229  28.751  1.00  0.00     0.021 C 
BRANCH  31  32
ATOM     32  C   UNL A   1      41.773  35.826  27.364  1.00  0.00     0.002 C 
BRANCH  32  33
ATOM     33  C   UNL A   1      42.445  37.203  27.365  1.00  0.00     0.002 C 
BRANCH  33  34
ATOM     34  C   UNL A   1      42.632  37.837  28.746  1.00  0.00     0.021 C 
BRANCH  34  35
ATOM     35  C   UNL A   1      43.806  37.280  29.545  1.00  0.00     0.116 C 
BRANCH  35  36
ATOM     36  N   UNL A   1      45.089  37.608  28.940  1.00  0.00    -0.352 N 
ATOM     37  C   UNL A   1      46.068  36.762  28.479  1.00  0.00     0.251 C 
ATOM     38  H   UNL A   1      45.282  38.569  28.849  1.00  0.00     0.163 HD
ATOM     39  O   UNL A   1      47.168  37.196  28.154  1.00  0.00    -0.269 OA
BRANCH  37  40
ATOM     40  C   UNL A   1      45.794  35.312  28.396  1.00  0.00     0.039 A 
ATOM     41  C   UNL A   1      46.151  34.489  29.468  1.00  0.00     0.014 A 
ATOM     42  C   UNL A   1      45.173  34.775  27.267  1.00  0.00     0.014 A 
ATOM     43  C   UNL A   1      45.819  33.131  29.437  1.00  0.00     0.010 A 
ATOM     44  C   UNL A   1      44.791  33.437  27.263  1.00  0.00     0.010 A 
ATOM     45  C   UNL A   1      45.105  32.604  28.351  1.00  0.00    -0.014 A 
BRANCH  45  46
ATOM     46  C   UNL A   1      44.663  31.187  28.311  1.00  0.00     0.031 A 
ATOM     47  C   UNL A   1      45.431  30.194  27.485  1.00  0.00     0.074 A 
ATOM     48  C   UNL A   1      43.512  30.825  28.911  1.00  0.00     0.049 A 
ATOM     49  N   UNL A   1      45.112  28.971  27.151  1.00  0.00    -0.248 NA
ATOM     50  C   UNL A   1      46.718  30.652  26.936  1.00  0.00     0.031 C 
ATOM     51  C   UNL A   1      42.659  31.705  29.711  1.00  0.00     0.029 A 
ATOM     52  N   UNL A   1      42.841  29.626  28.910  1.00  0.00    -0.354 N 
ATOM     53  C   UNL A   1      46.134  28.528  26.322  1.00  0.00     0.074 A 
ATOM     54  C   UNL A   1      47.075  29.620  26.185  1.00  0.00     0.031 C 
ATOM     55  C   UNL A   1      41.575  31.022  30.113  1.00  0.00     0.029 A 
ATOM     56  C   UNL A   1      41.634  29.670  29.563  1.00  0.00     0.049 A 
ATOM     57  H   UNL A   1      43.194  28.811  28.482  1.00  0.00     0.167 HD
ATOM     58  C   UNL A   1      46.275  27.317  25.735  1.00  0.00     0.037 A 
ATOM     59  C   UNL A   1      40.668  28.738  29.678  1.00  0.00     0.037 A 
ATOM     60  C   UNL A   1      45.364  26.219  25.918  1.00  0.00     0.049 A 
ATOM     61  C   UNL A   1      40.863  27.392  29.030  1.00  0.00     0.074 A 
ATOM     62  C   UNL A   1      45.471  24.923  25.440  1.00  0.00     0.029 A 
ATOM     63  N   UNL A   1      44.182  26.285  26.638  1.00  0.00    -0.354 N 
ATOM     64  N   UNL A   1      41.865  26.962  28.303  1.00  0.00    -0.248 NA
ATOM     65  C   UNL A   1      39.794  26.400  29.219  1.00  0.00     0.031 C 
ATOM     66  C   UNL A   1      44.333  24.218  25.836  1.00  0.00     0.029 A 
ATOM     67  C   UNL A   1      43.539  25.060  26.599  1.00  0.00     0.049 A 
ATOM     68  H   UNL A   1      43.850  27.084  27.107  1.00  0.00     0.167 HD
ATOM     69  C   UNL A   1      41.565  25.647  27.979  1.00  0.00     0.074 A 
ATOM     70  C   UNL A   1      40.289  25.344  28.590  1.00  0.00     0.031 C 
ATOM     71  C   UNL A   1      42.283  24.768  27.238  1.00  0.00     0.037 A 
BRANCH  58  72
ATOM     72  C   UNL A   1      47.455  27.104  24.835  1.00  0.00     0.064 A 
ATOM     73  C   UNL A   1      47.480  27.593  23.522  1.00  0.00     0.173 A 
ATOM     74  C   UNL A   1      48.606  26.465  25.322  1.00  0.00     0.173 A 
ATOM     75  F   UNL A   1      46.401  28.204  23.009  1.00  0.00    -0.203 F 
ATOM     76  C   UNL A   1      48.610  27.439  22.723  1.00  0.00     0.198 A 
ATOM     77  C   UNL A   1      49.743  26.334  24.529  1.00  0.00     0.198 A 
ATOM     78  F   UNL A   1      48.635  25.984  26.574  1.00  0.00    -0.203 F 
ATOM     79  F   UNL A   1      48.601  27.889  21.460  1.00  0.00    -0.200 F 
ATOM     80  C   UNL A   1      49.743  26.819  23.229  1.00  0.00     0.200 A 
ATOM     81  F   UNL A   1      50.841  25.748  25.024  1.00  0.00    -0.200 F 
ATOM     82  F   UNL A   1      50.835  26.686  22.464  1.00  0.00    -0.200 F 
ENDBRANCH  58  72
BRANCH  59  83
ATOM     83  C   UNL A   1      39.420  29.042  30.426  1.00  0.00     0.064 A 
ATOM     84  C   UNL A   1      38.189  29.139  29.764  1.00  0.00     0.173 A 
ATOM     85  C   UNL A   1      39.436  29.269  31.811  1.00  0.00     0.173 A 
ATOM     86  F   UNL A   1      38.126  28.954  28.438  1.00  0.00    -0.203 F 
ATOM     87  C   UNL A   1      37.025  29.478  30.453  1.00  0.00     0.198 A 
ATOM     88  C   UNL A   1      38.268  29.578  32.503  1.00  0.00     0.198 A 
ATOM     89  F   UNL A   1      40.588  29.184  32.492  1.00  0.00    -0.203 F 
ATOM     90  F   UNL A   1      35.872  29.617  29.787  1.00  0.00    -0.200 F 
ATOM     91  C   UNL A   1      37.065  29.693  31.823  1.00  0.00     0.200 A 
ATOM     92  F   UNL A   1      38.308  29.773  33.828  1.00  0.00    -0.200 F 
ATOM     93  F   UNL A   1      35.947  30.022  32.484  1.00  0.00    -0.200 F 
ENDBRANCH  59  83
BRANCH  71  94
ATOM     94  C   UNL A   1      41.740  23.379  27.089  1.00  0.00     0.064 A 
ATOM     95  C   UNL A   1      40.605  23.113  26.312  1.00  0.00     0.173 A 
ATOM     96  C   UNL A   1      42.413  22.293  27.669  1.00  0.00     0.173 A 
ATOM     97  F   UNL A   1      39.922  24.120  25.748  1.00  0.00    -0.203 F 
ATOM     98  C   UNL A   1      40.156  21.807  26.128  1.00  0.00     0.198 A 
ATOM     99  C   UNL A   1      41.977  20.988  27.463  1.00  0.00     0.198 A 
ATOM    100  F   UNL A   1      43.509  22.497  28.417  1.00  0.00    -0.203 F 
ATOM    101  F   UNL A   1      39.053  21.576  25.404  1.00  0.00    -0.200 F 
ATOM    102  C   UNL A   1      40.848  20.747  26.695  1.00  0.00     0.200 A 
ATOM    103  F   UNL A   1      42.653  19.963  28.000  1.00  0.00    -0.200 F 
ATOM    104  F   UNL A   1      40.424  19.489  26.502  1.00  0.00    -0.200 F 
ENDBRANCH  71  94
ENDBRANCH  45  46
ENDBRANCH  37  40
ENDBRANCH  35  36
ENDBRANCH  34  35
ENDBRANCH  33  34
ENDBRANCH  32  33
ENDBRANCH  31  32
ENDBRANCH  30  31
ENDBRANCH   3  30
TORSDOF 22
ENDMDL
MODEL 3
REMARK VINA RESULT:      -8.6      4.350      9.040
REMARK SMILES CCCCCCNC(=O)Oc1cccc(-c2ccc(CC(=O)NCCCCCCNC(=O)c3ccc(-c4c5nc(c(-c6c(F)c(F)c(F)c(F)c6F)c6ccc([nH]6)c(-c6c(F)c(F)c(F)c(F)c6F)c6nc(c(-c7c(F)c(F)c(F)c(F)c7F)c7ccc4[nH]7)C=C6)C=C5)cc3)cc2F)c1
REMARK SMILES IDX 21 1 22 2 23 3 20 5 19 6 16 7 17 8 97 9 18 10 96 11 98 12
REMARK SMILES IDX 15 13 11 14 12 15 99 16 13 17 14 18 10 19 8 20 7 21 9 23
REMARK SMILES IDX 6 24 5 25 4 26 3 27 2 28 1 29 24 30 25 31 26 32 27 33 28 34
REMARK SMILES IDX 29 35 30 36 31 37 32 39 33 40 34 41 95 42 35 43 94 44 36 45
REMARK SMILES IDX 37 46 38 47 88 48 39 49 93 50 87 51 89 52 40 53 92 54 86 55
REMARK SMILES IDX 85 56 41 58 73 59 53 60 72 61 54 62 57 63 71 64 90 65 55 66
REMARK SMILES IDX 56 67 70 69 91 70 58 71 42 72 43 73 51 74 44 75 45 76 49 77
REMARK SMILES IDX 52 78 46 79 47 80 50 81 48 82 74 83 75 84 83 85 76 86 77 87
REMARK SMILES IDX 81 88 84 89 78 90 79 91 82 92 80 93 59 94 60 95 68 96 61 97
REMARK SMILES IDX 62 98 66 99 69 100 63 101 64 102 67 103 65 104
REMARK H PARENT 23 4 7 22 30 38 89 57 57 68
REMARK Flexibility Score: inf
ROOT
ATOM      1  C   UNL A   1      39.022  34.335  31.290  1.00  0.00     0.224 C 
ATOM      2  O   UNL A   1      38.739  34.745  32.417  1.00  0.00    -0.275 OA
ATOM      3  N   UNL A   1      39.676  35.179  30.439  1.00  0.00    -0.356 N 
ATOM      4  H   UNL A   1      39.954  36.039  30.830  1.00  0.00     0.163 HD
ENDROOT
BRANCH   1   5
ATOM      5  C   UNL A   1      38.702  32.911  30.865  1.00  0.00     0.135 C 
BRANCH   5   6
ATOM      6  C   UNL A   1      37.430  32.773  30.065  1.00  0.00    -0.036 A 
ATOM      7  C   UNL A   1      35.015  32.371  28.626  1.00  0.00     0.018 A 
ATOM      8  C   UNL A   1      36.266  32.241  27.998  1.00  0.00     0.012 A 
ATOM      9  C   UNL A   1      35.011  32.750  29.975  1.00  0.00     0.131 A 
ATOM     10  C   UNL A   1      37.459  32.439  28.707  1.00  0.00     0.005 A 
ATOM     11  C   UNL A   1      36.191  32.966  30.683  1.00  0.00     0.044 A 
ATOM     12  F   UNL A   1      33.854  32.880  30.645  1.00  0.00    -0.206 F 
BRANCH   7  13
ATOM     13  C   UNL A   1      33.762  32.108  27.898  1.00  0.00    -0.012 A 
ATOM     14  C   UNL A   1      32.289  30.588  26.703  1.00  0.00     0.133 A 
ATOM     15  C   UNL A   1      31.394  31.620  26.433  1.00  0.00     0.047 A 
ATOM     16  C   UNL A   1      33.466  30.824  27.413  1.00  0.00     0.056 A 
ATOM     17  C   UNL A   1      31.667  32.899  26.910  1.00  0.00     0.004 A 
ATOM     18  C   UNL A   1      32.838  33.139  27.637  1.00  0.00     0.009 A 
BRANCH  14  19
ATOM     19  O   UNL A   1      32.020  29.338  26.124  1.00  0.00    -0.410 OA
BRANCH  19  20
ATOM     20  C   UNL A   1      31.879  28.245  26.965  1.00  0.00     0.412 C 
ATOM     21  N   UNL A   1      32.533  27.131  26.520  1.00  0.00    -0.321 N 
ATOM     22  H   UNL A   1      32.456  26.324  27.078  1.00  0.00     0.167 HD
ATOM     23  O   UNL A   1      31.236  28.217  28.012  1.00  0.00    -0.224 OA
BRANCH  21  24
ATOM     24  C   UNL A   1      33.328  27.013  25.314  1.00  0.00     0.119 C 
BRANCH  24  25
ATOM     25  C   UNL A   1      34.362  25.891  25.417  1.00  0.00     0.021 C 
BRANCH  25  26
ATOM     26  C   UNL A   1      33.860  24.507  24.985  1.00  0.00     0.002 C 
BRANCH  26  27
ATOM     27  C   UNL A   1      34.549  23.905  23.757  1.00  0.00    -0.000 C 
BRANCH  27  28
ATOM     28  C   UNL A   1      34.998  22.449  23.902  1.00  0.00    -0.003 C 
ATOM     29  C   UNL A   1      34.349  21.733  25.076  1.00  0.00     0.004 C 
ENDBRANCH  27  28
ENDBRANCH  26  27
ENDBRANCH  25  26
ENDBRANCH  24  25
ENDBRANCH  21  24
ENDBRANCH  19  20
ENDBRANCH  14  19
ENDBRANCH   7  13
ENDBRANCH   5   6
ENDBRANCH   1   5
BRANCH   3  30
ATOM     30  C   UNL A   1      40.022  34.990  29.043  1.00  0.00     0.116 C 
BRANCH  30  31
ATOM     31  C   UNL A   1      41.510  35.249  28.798  1.00  0.00     0.021 C 
BRANCH  31  32
ATOM     32  C   UNL A   1      41.825  35.820  27.408  1.00  0.00     0.002 C 
BRANCH  32  33
ATOM     33  C   UNL A   1      42.412  37.236  27.397  1.00  0.00     0.002 C 
BRANCH  33  34
ATOM     34  C   UNL A   1      42.612  37.869  28.776  1.00  0.00     0.021 C 
BRANCH  34  35
ATOM     35  C   UNL A   1      43.831  37.360  29.538  1.00  0.00     0.116 C 
BRANCH  35  36
ATOM     36  N   UNL A   1      45.080  37.709  28.874  1.00  0.00    -0.352 N 
ATOM     37  C   UNL A   1      46.048  36.879  28.364  1.00  0.00     0.251 C 
ATOM     38  H   UNL A   1      45.255  38.673  28.779  1.00  0.00     0.163 HD
ATOM     39  O   UNL A   1      47.124  37.329  27.989  1.00  0.00    -0.269 OA
BRANCH  37  40
ATOM     40  C   UNL A   1      45.790  35.426  28.286  1.00  0.00     0.039 A 
ATOM     41  C   UNL A   1      46.139  34.613  29.369  1.00  0.00     0.014 A 
ATOM     42  C   UNL A   1      45.192  34.874  27.151  1.00  0.00     0.014 A 
ATOM     43  C   UNL A   1      45.821  33.252  29.343  1.00  0.00     0.010 A 
ATOM     44  C   UNL A   1      44.824  33.532  27.151  1.00  0.00     0.010 A 
ATOM     45  C   UNL A   1      45.129  32.710  28.249  1.00  0.00    -0.014 A 
BRANCH  45  46
ATOM     46  C   UNL A   1      44.703  31.288  28.212  1.00  0.00     0.031 A 
ATOM     47  C   UNL A   1      45.482  30.302  27.389  1.00  0.00     0.074 A 
ATOM     48  C   UNL A   1      43.556  30.914  28.812  1.00  0.00     0.049 A 
ATOM     49  N   UNL A   1      45.177  29.074  27.056  1.00  0.00    -0.248 NA
ATOM     50  C   UNL A   1      46.764  30.773  26.839  1.00  0.00     0.031 C 
ATOM     51  C   UNL A   1      42.693  31.788  29.609  1.00  0.00     0.029 A 
ATOM     52  N   UNL A   1      42.898  29.708  28.813  1.00  0.00    -0.354 N 
ATOM     53  C   UNL A   1      46.204  28.641  26.229  1.00  0.00     0.074 A 
ATOM     54  C   UNL A   1      47.132  29.742  26.090  1.00  0.00     0.031 C 
ATOM     55  C   UNL A   1      41.616  31.093  30.013  1.00  0.00     0.029 A 
ATOM     56  C   UNL A   1      41.690  29.741  29.466  1.00  0.00     0.049 A 
ATOM     57  H   UNL A   1      43.260  28.897  28.387  1.00  0.00     0.167 HD
ATOM     58  C   UNL A   1      46.358  27.430  25.644  1.00  0.00     0.037 A 
ATOM     59  C   UNL A   1      40.734  28.798  29.582  1.00  0.00     0.037 A 
ATOM     60  C   UNL A   1      45.459  26.322  25.829  1.00  0.00     0.049 A 
ATOM     61  C   UNL A   1      40.944  27.454  28.937  1.00  0.00     0.074 A 
ATOM     62  C   UNL A   1      45.581  25.027  25.355  1.00  0.00     0.029 A 
ATOM     63  N   UNL A   1      44.276  26.378  26.549  1.00  0.00    -0.354 N 
ATOM     64  N   UNL A   1      41.951  27.033  28.212  1.00  0.00    -0.248 NA
ATOM     65  C   UNL A   1      39.886  26.451  29.128  1.00  0.00     0.031 C 
ATOM     66  C   UNL A   1      44.449  24.310  25.752  1.00  0.00     0.029 A 
ATOM     67  C   UNL A   1      43.646  25.145  26.513  1.00  0.00     0.049 A 
ATOM     68  H   UNL A   1      43.935  27.174  27.016  1.00  0.00     0.167 HD
ATOM     69  C   UNL A   1      41.666  25.714  27.890  1.00  0.00     0.074 A 
ATOM     70  C   UNL A   1      40.392  25.399  28.501  1.00  0.00     0.031 C 
ATOM     71  C   UNL A   1      42.394  24.841  27.152  1.00  0.00     0.037 A 
BRANCH  58  72
ATOM     72  C   UNL A   1      47.541  27.228  24.746  1.00  0.00     0.064 A 
ATOM     73  C   UNL A   1      47.552  27.694  23.425  1.00  0.00     0.173 A 
ATOM     74  C   UNL A   1      48.707  26.624  25.242  1.00  0.00     0.173 A 
ATOM     75  F   UNL A   1      46.459  28.271  22.903  1.00  0.00    -0.203 F 
ATOM     76  C   UNL A   1      48.683  27.552  22.625  1.00  0.00     0.198 A 
ATOM     77  C   UNL A   1      49.845  26.505  24.448  1.00  0.00     0.198 A 
ATOM     78  F   UNL A   1      48.750  26.166  26.502  1.00  0.00    -0.203 F 
ATOM     79  F   UNL A   1      48.662  27.978  21.355  1.00  0.00    -0.200 F 
ATOM     80  C   UNL A   1      49.831  26.966  23.140  1.00  0.00     0.200 A 
ATOM     81  F   UNL A   1      50.958  25.953  24.951  1.00  0.00    -0.200 F 
ATOM     82  F   UNL A   1      50.924  26.845  22.374  1.00  0.00    -0.200 F 
ENDBRANCH  58  72
BRANCH  59  83
ATOM     83  C   UNL A   1      39.482  29.091  30.329  1.00  0.00     0.064 A 
ATOM     84  C   UNL A   1      39.500  29.282  31.717  1.00  0.00     0.173 A 
ATOM     85  C   UNL A   1      38.242  29.160  29.677  1.00  0.00     0.173 A 
ATOM     86  F   UNL A   1      40.658  29.203  32.389  1.00  0.00    -0.203 F 
ATOM     87  C   UNL A   1      38.322  29.503  32.429  1.00  0.00     0.198 A 
ATOM     88  C   UNL A   1      37.069  29.410  30.385  1.00  0.00     0.198 A 
ATOM     89  F   UNL A   1      38.171  28.989  28.348  1.00  0.00    -0.203 F 
ATOM     90  F   UNL A   1      38.362  29.627  33.763  1.00  0.00    -0.200 F 
ATOM     91  C   UNL A   1      37.108  29.570  31.762  1.00  0.00     0.200 A 
ATOM     92  F   UNL A   1      35.901  29.488  29.735  1.00  0.00    -0.200 F 
ATOM     93  F   UNL A   1      35.976  29.780  32.447  1.00  0.00    -0.200 F 
ENDBRANCH  59  83
BRANCH  71  94
ATOM     94  C   UNL A   1      41.866  23.446  27.005  1.00  0.00     0.064 A 
ATOM     95  C   UNL A   1      42.500  22.352  27.609  1.00  0.00     0.173 A 
ATOM     96  C   UNL A   1      40.666  23.215  26.314  1.00  0.00     0.173 A 
ATOM     97  F   UNL A   1      43.655  22.522  28.269  1.00  0.00    -0.203 F 
ATOM     98  C   UNL A   1      41.956  21.073  27.519  1.00  0.00     0.198 A 
ATOM     99  C   UNL A   1      40.113  21.941  26.247  1.00  0.00     0.198 A 
ATOM    100  F   UNL A   1      40.019  24.232  25.723  1.00  0.00    -0.203 F 
ATOM    101  F   UNL A   1      42.593  20.036  28.081  1.00  0.00    -0.200 F 
ATOM    102  C   UNL A   1      40.759  20.871  26.847  1.00  0.00     0.200 A 
ATOM    103  F   UNL A   1      38.950  21.748  25.609  1.00  0.00    -0.200 F 
ATOM    104  F   UNL A   1      40.229  19.641  26.778  1.00  0.00    -0.200 F 
ENDBRANCH  71  94
ENDBRANCH  45  46
ENDBRANCH  37  40
ENDBRANCH  35  36
ENDBRANCH  34  35
ENDBRANCH  33  34
ENDBRANCH  32  33
ENDBRANCH  31  32
ENDBRANCH  30  31
ENDBRANCH   3  30
TORSDOF 22
ENDMDL
