MODEL 1
REMARK VINA RESULT:     -12.0      0.000      0.000
REMARK SMILES CCn1cc(CNC(=O)[C@H]2CC=CC[C@@H]2C(=O)NCCCCCCNC(=O)c2ccc(-c3c4nc(c(-c5c(F)c(F)c(F)c(F)c5F)c5ccc([nH]5)c(-c5c(F)c(F)c(F)c(F)c5F)c5nc(c(-c6c(F)c(F)c(F)c(F)c6F)c6ccc3[nH]6)C=C5)C=C4)cc2)cn1
REMARK SMILES IDX 20 1 19 2 18 3 16 4 17 5 15 7 10 8 11 9 12 10 14 11 13 12
REMARK SMILES IDX 8 13 7 14 9 16 6 17 5 18 3 19 4 20 92 21 91 22 2 23 1 24
REMARK SMILES IDX 21 25 22 26 23 27 24 28 25 29 26 30 27 32 28 33 29 34 90 35
REMARK SMILES IDX 30 36 89 37 31 38 32 39 33 40 83 41 34 42 88 43 82 44 84 45
REMARK SMILES IDX 35 46 87 47 81 48 80 49 36 51 68 52 48 53 67 54 49 55 52 56
REMARK SMILES IDX 66 57 85 58 50 59 51 60 65 62 86 63 53 64 37 65 38 66 46 67
REMARK SMILES IDX 39 68 40 69 44 70 47 71 41 72 42 73 45 74 43 75 69 76 70 77
REMARK SMILES IDX 78 78 71 79 72 80 76 81 79 82 73 83 74 84 77 85 75 86 54 87
REMARK SMILES IDX 55 88 63 89 56 90 57 91 61 92 64 93 58 94 59 95 62 96 60 97
REMARK H PARENT 18 6 7 15 25 31 84 50 52 61
REMARK Flexibility Score: inf
ROOT
ATOM      1  C   UNL A   1      32.162  28.081  27.612  1.00  0.00     0.021 C 
ENDROOT
BRANCH   1   2
ATOM      2  C   UNL A   1      31.381  27.255  26.582  1.00  0.00     0.116 C 
BRANCH   2   3
ATOM      3  N   UNL A   1      31.736  25.855  26.682  1.00  0.00    -0.356 N 
ATOM      4  C   UNL A   1      32.459  25.039  25.867  1.00  0.00     0.224 C 
ATOM      5  O   UNL A   1      32.511  23.855  26.208  1.00  0.00    -0.275 OA
ATOM      6  H   UNL A   1      31.389  25.411  27.488  1.00  0.00     0.163 HD
BRANCH   4   7
ATOM      7  C   UNL A   1      33.214  25.584  24.647  1.00  0.00     0.095 C 
ATOM      8  C   UNL A   1      32.406  25.493  23.334  1.00  0.00     0.095 C 
ATOM      9  C   UNL A   1      32.255  24.052  22.829  1.00  0.00     0.041 C 
ATOM     10  C   UNL A   1      33.479  23.209  23.003  1.00  0.00    -0.030 C 
ATOM     11  C   UNL A   1      34.583  24.872  24.518  1.00  0.00     0.041 C 
ATOM     12  C   UNL A   1      34.531  23.586  23.742  1.00  0.00    -0.030 C 
BRANCH   8  13
ATOM     13  C   UNL A   1      32.983  26.411  22.255  1.00  0.00     0.224 C 
ATOM     14  N   UNL A   1      32.858  27.763  22.373  1.00  0.00    -0.352 N 
ATOM     15  H   UNL A   1      33.171  28.273  21.591  1.00  0.00     0.163 HD
ATOM     16  O   UNL A   1      33.572  25.988  21.261  1.00  0.00    -0.275 OA
BRANCH  14  17
ATOM     17  C   UNL A   1      32.343  28.572  23.453  1.00  0.00     0.155 C 
BRANCH  17  18
ATOM     18  C   UNL A   1      30.914  28.884  23.180  1.00  0.00     0.009 A 
ATOM     19  N   UNL A   1      28.913  29.819  23.122  1.00  0.00    -0.273 N 
ATOM     20  C   UNL A   1      30.168  29.945  23.658  1.00  0.00     0.114 A 
ATOM     21  N   UNL A   1      28.802  28.764  22.298  1.00  0.00    -0.181 NA
ATOM     22  C   UNL A   1      29.999  28.178  22.364  1.00  0.00     0.140 A 
BRANCH  19  23
ATOM     23  C   UNL A   1      27.809  30.739  23.338  1.00  0.00     0.141 C 
ATOM     24  C   UNL A   1      28.114  32.209  23.092  1.00  0.00     0.029 C 
ENDBRANCH  19  23
ENDBRANCH  17  18
ENDBRANCH  14  17
ENDBRANCH   8  13
ENDBRANCH   4   7
ENDBRANCH   2   3
ENDBRANCH   1   2
BRANCH   1  25
ATOM     25  C   UNL A   1      33.507  28.617  27.101  1.00  0.00     0.002 C 
BRANCH  25  26
ATOM     26  C   UNL A   1      33.471  30.023  26.490  1.00  0.00     0.002 C 
BRANCH  26  27
ATOM     27  C   UNL A   1      33.241  31.178  27.476  1.00  0.00     0.021 C 
BRANCH  27  28
ATOM     28  C   UNL A   1      34.512  31.924  27.859  1.00  0.00     0.116 C 
BRANCH  28  29
ATOM     29  N   UNL A   1      34.455  32.434  29.226  1.00  0.00    -0.352 N 
ATOM     30  C   UNL A   1      35.172  32.037  30.333  1.00  0.00     0.251 C 
ATOM     31  H   UNL A   1      33.813  33.166  29.377  1.00  0.00     0.163 HD
ATOM     32  O   UNL A   1      34.763  32.279  31.457  1.00  0.00    -0.269 OA
BRANCH  30  33
ATOM     33  C   UNL A   1      36.442  31.310  30.152  1.00  0.00     0.039 A 
ATOM     34  C   UNL A   1      37.638  32.016  29.985  1.00  0.00     0.014 A 
ATOM     35  C   UNL A   1      36.433  29.916  30.124  1.00  0.00     0.014 A 
ATOM     36  C   UNL A   1      38.830  31.308  29.870  1.00  0.00     0.010 A 
ATOM     37  C   UNL A   1      37.619  29.219  30.130  1.00  0.00     0.010 A 
ATOM     38  C   UNL A   1      38.817  29.908  29.965  1.00  0.00    -0.014 A 
BRANCH  38  39
ATOM     39  C   UNL A   1      40.075  29.169  30.040  1.00  0.00     0.031 A 
ATOM     40  C   UNL A   1      40.588  28.980  31.426  1.00  0.00     0.074 A 
ATOM     41  C   UNL A   1      40.617  28.512  28.992  1.00  0.00     0.049 A 
ATOM     42  N   UNL A   1      41.694  29.416  31.930  1.00  0.00    -0.248 NA
ATOM     43  C   UNL A   1      39.704  28.330  32.409  1.00  0.00     0.031 C 
ATOM     44  C   UNL A   1      40.047  28.328  27.654  1.00  0.00     0.029 A 
ATOM     45  N   UNL A   1      41.755  27.764  28.937  1.00  0.00    -0.354 N 
ATOM     46  C   UNL A   1      41.738  28.941  33.240  1.00  0.00     0.074 A 
ATOM     47  C   UNL A   1      40.420  28.441  33.528  1.00  0.00     0.031 C 
ATOM     48  C   UNL A   1      40.713  27.345  27.008  1.00  0.00     0.029 A 
ATOM     49  C   UNL A   1      41.851  26.944  27.817  1.00  0.00     0.049 A 
ATOM     50  H   UNL A   1      42.452  27.800  29.632  1.00  0.00     0.167 HD
ATOM     51  C   UNL A   1      42.929  28.775  33.880  1.00  0.00     0.037 A 
ATOM     52  C   UNL A   1      42.779  25.982  27.587  1.00  0.00     0.037 A 
ATOM     53  C   UNL A   1      43.966  29.533  33.223  1.00  0.00     0.049 A 
ATOM     54  C   UNL A   1      43.918  26.240  28.499  1.00  0.00     0.074 A 
ATOM     55  C   UNL A   1      44.169  30.869  32.936  1.00  0.00     0.029 A 
ATOM     56  N   UNL A   1      44.840  28.846  32.418  1.00  0.00    -0.354 N 
ATOM     57  N   UNL A   1      44.734  27.249  28.383  1.00  0.00    -0.248 NA
ATOM     58  C   UNL A   1      43.908  25.590  29.800  1.00  0.00     0.031 C 
ATOM     59  C   UNL A   1      44.798  30.883  31.654  1.00  0.00     0.029 A 
ATOM     60  C   UNL A   1      45.006  29.561  31.264  1.00  0.00     0.049 A 
ATOM     61  H   UNL A   1      45.271  27.987  32.634  1.00  0.00     0.167 HD
ATOM     62  C   UNL A   1      44.987  27.641  29.687  1.00  0.00     0.074 A 
ATOM     63  C   UNL A   1      44.557  26.515  30.512  1.00  0.00     0.031 C 
ATOM     64  C   UNL A   1      45.247  28.948  29.980  1.00  0.00     0.037 A 
BRANCH  51  65
ATOM     65  C   UNL A   1      43.254  27.622  34.814  1.00  0.00     0.064 A 
ATOM     66  C   UNL A   1      43.626  27.917  36.145  1.00  0.00     0.173 A 
ATOM     67  C   UNL A   1      43.536  26.303  34.394  1.00  0.00     0.173 A 
ATOM     68  F   UNL A   1      43.402  29.132  36.666  1.00  0.00    -0.203 F 
ATOM     69  C   UNL A   1      44.339  27.011  36.936  1.00  0.00     0.198 A 
ATOM     70  C   UNL A   1      44.201  25.385  35.207  1.00  0.00     0.198 A 
ATOM     71  F   UNL A   1      43.281  25.868  33.157  1.00  0.00    -0.203 F 
ATOM     72  F   UNL A   1      44.804  27.397  38.133  1.00  0.00    -0.200 F 
ATOM     73  C   UNL A   1      44.640  25.751  36.460  1.00  0.00     0.200 A 
ATOM     74  F   UNL A   1      44.490  24.170  34.720  1.00  0.00    -0.200 F 
ATOM     75  F   UNL A   1      45.388  24.907  37.183  1.00  0.00    -0.200 F 
ENDBRANCH  51  65
BRANCH  52  76
ATOM     76  C   UNL A   1      42.673  24.715  26.826  1.00  0.00     0.064 A 
ATOM     77  C   UNL A   1      43.320  24.567  25.586  1.00  0.00     0.173 A 
ATOM     78  C   UNL A   1      42.196  23.535  27.426  1.00  0.00     0.173 A 
ATOM     79  F   UNL A   1      43.835  25.635  24.961  1.00  0.00    -0.203 F 
ATOM     80  C   UNL A   1      43.522  23.311  25.007  1.00  0.00     0.198 A 
ATOM     81  C   UNL A   1      42.391  22.281  26.842  1.00  0.00     0.198 A 
ATOM     82  F   UNL A   1      41.627  23.562  28.639  1.00  0.00    -0.203 F 
ATOM     83  F   UNL A   1      44.217  23.205  23.865  1.00  0.00    -0.200 F 
ATOM     84  C   UNL A   1      43.071  22.167  25.643  1.00  0.00     0.200 A 
ATOM     85  F   UNL A   1      41.980  21.179  27.486  1.00  0.00    -0.200 F 
ATOM     86  F   UNL A   1      43.331  20.957  25.128  1.00  0.00    -0.200 F 
ENDBRANCH  52  76
BRANCH  64  87
ATOM     87  C   UNL A   1      45.598  29.864  28.842  1.00  0.00     0.064 A 
ATOM     88  C   UNL A   1      44.663  30.552  28.049  1.00  0.00     0.173 A 
ATOM     89  C   UNL A   1      46.955  30.139  28.625  1.00  0.00     0.173 A 
ATOM     90  F   UNL A   1      43.347  30.421  28.259  1.00  0.00    -0.203 F 
ATOM     91  C   UNL A   1      45.076  31.433  27.050  1.00  0.00     0.198 A 
ATOM     92  C   UNL A   1      47.362  31.052  27.657  1.00  0.00     0.198 A 
ATOM     93  F   UNL A   1      47.891  29.549  29.385  1.00  0.00    -0.203 F 
ATOM     94  F   UNL A   1      44.167  32.059  26.288  1.00  0.00    -0.200 F 
ATOM     95  C   UNL A   1      46.424  31.687  26.860  1.00  0.00     0.200 A 
ATOM     96  F   UNL A   1      48.666  31.330  27.512  1.00  0.00    -0.200 F 
ATOM     97  F   UNL A   1      46.820  32.563  25.927  1.00  0.00    -0.200 F 
ENDBRANCH  64  87
ENDBRANCH  38  39
ENDBRANCH  30  33
ENDBRANCH  28  29
ENDBRANCH  27  28
ENDBRANCH  26  27
ENDBRANCH  25  26
ENDBRANCH   1  25
TORSDOF 17
ENDMDL
MODEL 2
REMARK VINA RESULT:     -12.0      1.063      2.152
REMARK SMILES CCn1cc(CNC(=O)[C@H]2CC=CC[C@@H]2C(=O)NCCCCCCNC(=O)c2ccc(-c3c4nc(c(-c5c(F)c(F)c(F)c(F)c5F)c5ccc([nH]5)c(-c5c(F)c(F)c(F)c(F)c5F)c5nc(c(-c6c(F)c(F)c(F)c(F)c6F)c6ccc3[nH]6)C=C5)C=C4)cc2)cn1
REMARK SMILES IDX 20 1 19 2 18 3 16 4 17 5 15 7 10 8 11 9 12 10 14 11 13 12
REMARK SMILES IDX 8 13 7 14 9 16 6 17 5 18 3 19 4 20 92 21 91 22 2 23 1 24
REMARK SMILES IDX 21 25 22 26 23 27 24 28 25 29 26 30 27 32 28 33 29 34 90 35
REMARK SMILES IDX 30 36 89 37 31 38 32 39 33 40 83 41 34 42 88 43 82 44 84 45
REMARK SMILES IDX 35 46 87 47 81 48 80 49 36 51 68 52 48 53 67 54 49 55 52 56
REMARK SMILES IDX 66 57 85 58 50 59 51 60 65 62 86 63 53 64 37 65 38 66 46 67
REMARK SMILES IDX 39 68 40 69 44 70 47 71 41 72 42 73 45 74 43 75 69 76 70 77
REMARK SMILES IDX 78 78 71 79 72 80 76 81 79 82 73 83 74 84 77 85 75 86 54 87
REMARK SMILES IDX 55 88 63 89 56 90 57 91 61 92 64 93 58 94 59 95 62 96 60 97
REMARK H PARENT 18 6 7 15 25 31 84 50 52 61
REMARK Flexibility Score: inf
ROOT
ATOM      1  C   UNL A   1      33.893  28.473  23.008  1.00  0.00     0.021 C 
ENDROOT
BRANCH   1   2
ATOM      2  C   UNL A   1      33.049  27.421  22.280  1.00  0.00     0.116 C 
BRANCH   2   3
ATOM      3  N   UNL A   1      33.699  26.128  22.328  1.00  0.00    -0.356 N 
ATOM      4  C   UNL A   1      33.349  24.955  22.921  1.00  0.00     0.224 C 
ATOM      5  O   UNL A   1      34.178  24.046  22.835  1.00  0.00    -0.275 OA
ATOM      6  H   UNL A   1      34.553  26.092  21.841  1.00  0.00     0.163 HD
BRANCH   4   7
ATOM      7  C   UNL A   1      31.979  24.767  23.589  1.00  0.00     0.095 C 
ATOM      8  C   UNL A   1      31.844  25.518  24.931  1.00  0.00     0.095 C 
ATOM      9  C   UNL A   1      32.681  24.887  26.051  1.00  0.00     0.041 C 
ATOM     10  C   UNL A   1      32.696  23.392  26.039  1.00  0.00    -0.030 C 
ATOM     11  C   UNL A   1      31.680  23.257  23.752  1.00  0.00     0.041 C 
ATOM     12  C   UNL A   1      32.228  22.661  25.019  1.00  0.00    -0.030 C 
BRANCH   8  13
ATOM     13  C   UNL A   1      30.377  25.671  25.342  1.00  0.00     0.224 C 
ATOM     14  N   UNL A   1      29.533  26.425  24.584  1.00  0.00    -0.352 N 
ATOM     15  H   UNL A   1      28.636  26.548  24.970  1.00  0.00     0.163 HD
ATOM     16  O   UNL A   1      29.904  25.136  26.344  1.00  0.00    -0.275 OA
BRANCH  14  17
ATOM     17  C   UNL A   1      29.734  27.073  23.308  1.00  0.00     0.155 C 
BRANCH  17  18
ATOM     18  C   UNL A   1      28.931  28.325  23.274  1.00  0.00     0.009 A 
ATOM     19  N   UNL A   1      28.280  30.436  23.226  1.00  0.00    -0.273 N 
ATOM     20  C   UNL A   1      29.386  29.629  23.286  1.00  0.00     0.114 A 
ATOM     21  N   UNL A   1      27.134  29.741  23.139  1.00  0.00    -0.181 NA
ATOM     22  C   UNL A   1      27.524  28.466  23.208  1.00  0.00     0.140 A 
BRANCH  19  23
ATOM     23  C   UNL A   1      28.297  31.888  23.188  1.00  0.00     0.141 C 
ATOM     24  C   UNL A   1      28.313  32.514  21.802  1.00  0.00     0.029 C 
ENDBRANCH  19  23
ENDBRANCH  17  18
ENDBRANCH  14  17
ENDBRANCH   8  13
ENDBRANCH   4   7
ENDBRANCH   2   3
ENDBRANCH   1   2
BRANCH   1  25
ATOM     25  C   UNL A   1      33.131  29.262  24.083  1.00  0.00     0.002 C 
BRANCH  25  26
ATOM     26  C   UNL A   1      33.286  28.745  25.519  1.00  0.00     0.002 C 
BRANCH  26  27
ATOM     27  C   UNL A   1      33.120  29.791  26.630  1.00  0.00     0.021 C 
BRANCH  27  28
ATOM     28  C   UNL A   1      34.427  30.189  27.303  1.00  0.00     0.116 C 
BRANCH  28  29
ATOM     29  N   UNL A   1      34.256  31.329  28.198  1.00  0.00    -0.352 N 
ATOM     30  C   UNL A   1      34.924  31.626  29.366  1.00  0.00     0.251 C 
ATOM     31  H   UNL A   1      33.566  31.978  27.929  1.00  0.00     0.163 HD
ATOM     32  O   UNL A   1      34.432  32.383  30.187  1.00  0.00    -0.269 OA
BRANCH  30  33
ATOM     33  C   UNL A   1      36.242  31.016  29.622  1.00  0.00     0.039 A 
ATOM     34  C   UNL A   1      36.332  29.675  30.006  1.00  0.00     0.014 A 
ATOM     35  C   UNL A   1      37.391  31.796  29.501  1.00  0.00     0.014 A 
ATOM     36  C   UNL A   1      37.589  29.107  30.190  1.00  0.00     0.010 A 
ATOM     37  C   UNL A   1      38.633  31.208  29.565  1.00  0.00     0.010 A 
ATOM     38  C   UNL A   1      38.739  29.874  29.946  1.00  0.00    -0.014 A 
BRANCH  38  39
ATOM     39  C   UNL A   1      40.054  29.239  29.946  1.00  0.00     0.031 A 
ATOM     40  C   UNL A   1      40.649  29.073  31.302  1.00  0.00     0.074 A 
ATOM     41  C   UNL A   1      40.595  28.643  28.862  1.00  0.00     0.049 A 
ATOM     42  N   UNL A   1      41.740  29.591  31.760  1.00  0.00    -0.248 NA
ATOM     43  C   UNL A   1      39.870  28.340  32.315  1.00  0.00     0.031 C 
ATOM     44  C   UNL A   1      39.975  28.432  27.550  1.00  0.00     0.029 A 
ATOM     45  N   UNL A   1      41.785  27.991  28.738  1.00  0.00    -0.354 N 
ATOM     46  C   UNL A   1      41.887  29.103  33.058  1.00  0.00     0.074 A 
ATOM     47  C   UNL A   1      40.630  28.493  33.400  1.00  0.00     0.031 C 
ATOM     48  C   UNL A   1      40.685  27.516  26.855  1.00  0.00     0.029 A 
ATOM     49  C   UNL A   1      41.890  27.198  27.600  1.00  0.00     0.049 A 
ATOM     50  H   UNL A   1      42.510  28.074  29.399  1.00  0.00     0.167 HD
ATOM     51  C   UNL A   1      43.118  29.026  33.636  1.00  0.00     0.037 A 
ATOM     52  C   UNL A   1      42.881  26.318  27.309  1.00  0.00     0.037 A 
ATOM     53  C   UNL A   1      44.056  29.874  32.943  1.00  0.00     0.049 A 
ATOM     54  C   UNL A   1      44.039  26.655  28.169  1.00  0.00     0.074 A 
ATOM     55  C   UNL A   1      44.137  31.227  32.670  1.00  0.00     0.029 A 
ATOM     56  N   UNL A   1      44.942  29.272  32.085  1.00  0.00    -0.354 N 
ATOM     57  N   UNL A   1      44.764  27.729  28.032  1.00  0.00    -0.248 NA
ATOM     58  C   UNL A   1      44.146  25.988  29.457  1.00  0.00     0.031 C 
ATOM     59  C   UNL A   1      44.698  31.310  31.360  1.00  0.00     0.029 A 
ATOM     60  C   UNL A   1      44.993  30.014  30.937  1.00  0.00     0.049 A 
ATOM     61  H   UNL A   1      45.451  28.448  32.264  1.00  0.00     0.167 HD
ATOM     62  C   UNL A   1      45.050  28.121  29.329  1.00  0.00     0.074 A 
ATOM     63  C   UNL A   1      44.753  26.953  30.153  1.00  0.00     0.031 C 
ATOM     64  C   UNL A   1      45.217  29.440  29.632  1.00  0.00     0.037 A 
BRANCH  51  65
ATOM     65  C   UNL A   1      43.581  27.890  34.532  1.00  0.00     0.064 A 
ATOM     66  C   UNL A   1      43.517  26.569  34.034  1.00  0.00     0.173 A 
ATOM     67  C   UNL A   1      43.767  27.993  35.928  1.00  0.00     0.173 A 
ATOM     68  F   UNL A   1      43.354  26.338  32.724  1.00  0.00    -0.203 F 
ATOM     69  C   UNL A   1      43.502  25.456  34.879  1.00  0.00     0.198 A 
ATOM     70  C   UNL A   1      43.805  26.876  36.763  1.00  0.00     0.198 A 
ATOM     71  F   UNL A   1      43.816  29.166  36.568  1.00  0.00    -0.203 F 
ATOM     72  F   UNL A   1      43.281  24.237  34.369  1.00  0.00    -0.200 F 
ATOM     73  C   UNL A   1      43.631  25.611  36.245  1.00  0.00     0.200 A 
ATOM     74  F   UNL A   1      43.923  27.051  38.087  1.00  0.00    -0.200 F 
ATOM     75  F   UNL A   1      43.541  24.556  37.065  1.00  0.00    -0.200 F 
ENDBRANCH  51  65
BRANCH  52  76
ATOM     76  C   UNL A   1      42.840  25.057  26.530  1.00  0.00     0.064 A 
ATOM     77  C   UNL A   1      43.664  24.881  25.406  1.00  0.00     0.173 A 
ATOM     78  C   UNL A   1      42.224  23.898  27.040  1.00  0.00     0.173 A 
ATOM     79  F   UNL A   1      44.317  25.926  24.877  1.00  0.00    -0.203 F 
ATOM     80  C   UNL A   1      43.899  23.617  24.856  1.00  0.00     0.198 A 
ATOM     81  C   UNL A   1      42.452  22.638  26.485  1.00  0.00     0.198 A 
ATOM     82  F   UNL A   1      41.474  23.950  28.150  1.00  0.00    -0.203 F 
ATOM     83  F   UNL A   1      44.759  23.481  23.836  1.00  0.00    -0.200 F 
ATOM     84  C   UNL A   1      43.305  22.495  25.406  1.00  0.00     0.200 A 
ATOM     85  F   UNL A   1      41.898  21.554  27.049  1.00  0.00    -0.200 F 
ATOM     86  F   UNL A   1      43.588  21.274  24.929  1.00  0.00    -0.200 F 
ENDBRANCH  52  76
BRANCH  64  87
ATOM     87  C   UNL A   1      45.436  30.398  28.494  1.00  0.00     0.064 A 
ATOM     88  C   UNL A   1      44.411  31.016  27.758  1.00  0.00     0.173 A 
ATOM     89  C   UNL A   1      46.754  30.789  28.219  1.00  0.00     0.173 A 
ATOM     90  F   UNL A   1      43.121  30.773  28.027  1.00  0.00    -0.203 F 
ATOM     91  C   UNL A   1      44.701  31.942  26.757  1.00  0.00     0.198 A 
ATOM     92  C   UNL A   1      47.037  31.745  27.249  1.00  0.00     0.198 A 
ATOM     93  F   UNL A   1      47.771  30.268  28.924  1.00  0.00    -0.203 F 
ATOM     94  F   UNL A   1      43.708  32.500  26.049  1.00  0.00    -0.200 F 
ATOM     95  C   UNL A   1      46.013  32.311  26.509  1.00  0.00     0.200 A 
ATOM     96  F   UNL A   1      48.305  32.133  27.048  1.00  0.00    -0.200 F 
ATOM     97  F   UNL A   1      46.289  33.229  25.573  1.00  0.00    -0.200 F 
ENDBRANCH  64  87
ENDBRANCH  38  39
ENDBRANCH  30  33
ENDBRANCH  28  29
ENDBRANCH  27  28
ENDBRANCH  26  27
ENDBRANCH  25  26
ENDBRANCH   1  25
TORSDOF 17
ENDMDL
MODEL 3
REMARK VINA RESULT:     -12.0      2.980      8.397
REMARK SMILES CCn1cc(CNC(=O)[C@H]2CC=CC[C@@H]2C(=O)NCCCCCCNC(=O)c2ccc(-c3c4nc(c(-c5c(F)c(F)c(F)c(F)c5F)c5ccc([nH]5)c(-c5c(F)c(F)c(F)c(F)c5F)c5nc(c(-c6c(F)c(F)c(F)c(F)c6F)c6ccc3[nH]6)C=C5)C=C4)cc2)cn1
REMARK SMILES IDX 20 1 19 2 18 3 16 4 17 5 15 7 10 8 11 9 12 10 14 11 13 12
REMARK SMILES IDX 8 13 7 14 9 16 6 17 5 18 3 19 4 20 92 21 91 22 2 23 1 24
REMARK SMILES IDX 21 25 22 26 23 27 24 28 25 29 26 30 27 32 28 33 29 34 90 35
REMARK SMILES IDX 30 36 89 37 31 38 32 39 33 40 83 41 34 42 88 43 82 44 84 45
REMARK SMILES IDX 35 46 87 47 81 48 80 49 36 51 68 52 48 53 67 54 49 55 52 56
REMARK SMILES IDX 66 57 85 58 50 59 51 60 65 62 86 63 53 64 37 65 38 66 46 67
REMARK SMILES IDX 39 68 40 69 44 70 47 71 41 72 42 73 45 74 43 75 69 76 70 77
REMARK SMILES IDX 78 78 71 79 72 80 76 81 79 82 73 83 74 84 77 85 75 86 54 87
REMARK SMILES IDX 55 88 63 89 56 90 57 91 61 92 64 93 58 94 59 95 62 96 60 97
REMARK H PARENT 18 6 7 15 25 31 84 50 52 61
REMARK Flexibility Score: inf
ROOT
ATOM      1  C   UNL A   1      38.800  21.717  26.121  1.00  0.00     0.021 C 
ENDROOT
BRANCH   1   2
ATOM      2  C   UNL A   1      37.973  22.945  25.719  1.00  0.00     0.116 C 
BRANCH   2   3
ATOM      3  N   UNL A   1      36.755  23.012  26.498  1.00  0.00    -0.356 N 
ATOM      4  C   UNL A   1      35.445  23.079  26.135  1.00  0.00     0.224 C 
ATOM      5  O   UNL A   1      34.641  23.205  27.062  1.00  0.00    -0.275 OA
ATOM      6  H   UNL A   1      36.901  23.008  27.471  1.00  0.00     0.163 HD
BRANCH   4   7
ATOM      7  C   UNL A   1      35.007  22.935  24.671  1.00  0.00     0.095 C 
ATOM      8  C   UNL A   1      33.639  23.587  24.373  1.00  0.00     0.095 C 
ATOM      9  C   UNL A   1      32.467  22.816  24.992  1.00  0.00     0.041 C 
ATOM     10  C   UNL A   1      32.606  21.328  24.925  1.00  0.00    -0.030 C 
ATOM     11  C   UNL A   1      35.022  21.441  24.266  1.00  0.00     0.041 C 
ATOM     12  C   UNL A   1      33.744  20.712  24.579  1.00  0.00    -0.030 C 
BRANCH   8  13
ATOM     13  C   UNL A   1      33.439  23.808  22.872  1.00  0.00     0.224 C 
ATOM     14  N   UNL A   1      32.397  24.566  22.429  1.00  0.00    -0.352 N 
ATOM     15  H   UNL A   1      32.287  24.578  21.451  1.00  0.00     0.163 HD
ATOM     16  O   UNL A   1      34.185  23.330  22.019  1.00  0.00    -0.275 OA
BRANCH  14  17
ATOM     17  C   UNL A   1      31.429  25.357  23.154  1.00  0.00     0.155 C 
BRANCH  17  18
ATOM     18  C   UNL A   1      32.035  26.674  23.484  1.00  0.00     0.009 A 
ATOM     19  N   UNL A   1      32.699  28.515  24.511  1.00  0.00    -0.273 N 
ATOM     20  C   UNL A   1      31.985  27.358  24.683  1.00  0.00     0.114 A 
ATOM     21  N   UNL A   1      33.243  28.612  23.286  1.00  0.00    -0.181 NA
ATOM     22  C   UNL A   1      32.809  27.519  22.654  1.00  0.00     0.140 A 
BRANCH  19  23
ATOM     23  C   UNL A   1      32.930  29.523  25.531  1.00  0.00     0.141 C 
ATOM     24  C   UNL A   1      31.764  30.458  25.813  1.00  0.00     0.029 C 
ENDBRANCH  19  23
ENDBRANCH  17  18
ENDBRANCH  14  17
ENDBRANCH   8  13
ENDBRANCH   4   7
ENDBRANCH   2   3
ENDBRANCH   1   2
BRANCH   1  25
ATOM     25  C   UNL A   1      40.259  22.029  26.481  1.00  0.00     0.002 C 
BRANCH  25  26
ATOM     26  C   UNL A   1      40.852  21.197  27.626  1.00  0.00     0.002 C 
BRANCH  26  27
ATOM     27  C   UNL A   1      41.942  20.191  27.228  1.00  0.00     0.021 C 
BRANCH  27  28
ATOM     28  C   UNL A   1      41.918  19.806  25.755  1.00  0.00     0.116 C 
BRANCH  28  29
ATOM     29  N   UNL A   1      43.261  19.576  25.229  1.00  0.00    -0.352 N 
ATOM     30  C   UNL A   1      44.224  20.495  24.874  1.00  0.00     0.251 C 
ATOM     31  H   UNL A   1      43.513  18.632  25.113  1.00  0.00     0.163 HD
ATOM     32  O   UNL A   1      45.127  20.185  24.113  1.00  0.00    -0.269 OA
BRANCH  30  33
ATOM     33  C   UNL A   1      44.156  21.864  25.416  1.00  0.00     0.039 A 
ATOM     34  C   UNL A   1      43.347  22.824  24.799  1.00  0.00     0.014 A 
ATOM     35  C   UNL A   1      44.922  22.196  26.533  1.00  0.00     0.014 A 
ATOM     36  C   UNL A   1      43.256  24.094  25.362  1.00  0.00     0.010 A 
ATOM     37  C   UNL A   1      44.743  23.410  27.156  1.00  0.00     0.010 A 
ATOM     38  C   UNL A   1      43.941  24.375  26.554  1.00  0.00    -0.014 A 
BRANCH  38  39
ATOM     39  C   UNL A   1      43.702  25.634  27.254  1.00  0.00     0.031 A 
ATOM     40  C   UNL A   1      44.662  26.717  26.903  1.00  0.00     0.074 A 
ATOM     41  C   UNL A   1      42.588  25.886  27.976  1.00  0.00     0.049 A 
ATOM     42  N   UNL A   1      45.497  27.323  27.680  1.00  0.00    -0.248 NA
ATOM     43  C   UNL A   1      44.798  27.088  25.484  1.00  0.00     0.031 C 
ATOM     44  C   UNL A   1      41.404  25.036  28.128  1.00  0.00     0.029 A 
ATOM     45  N   UNL A   1      42.230  27.019  28.644  1.00  0.00    -0.354 N 
ATOM     46  C   UNL A   1      46.136  28.281  26.895  1.00  0.00     0.074 A 
ATOM     47  C   UNL A   1      45.799  27.969  25.531  1.00  0.00     0.031 C 
ATOM     48  C   UNL A   1      40.384  25.765  28.633  1.00  0.00     0.029 A 
ATOM     49  C   UNL A   1      40.884  27.080  28.990  1.00  0.00     0.049 A 
ATOM     50  H   UNL A   1      42.869  27.735  28.861  1.00  0.00     0.167 HD
ATOM     51  C   UNL A   1      46.679  29.394  27.461  1.00  0.00     0.037 A 
ATOM     52  C   UNL A   1      40.222  28.147  29.503  1.00  0.00     0.037 A 
ATOM     53  C   UNL A   1      46.876  29.196  28.877  1.00  0.00     0.049 A 
ATOM     54  C   UNL A   1      41.238  29.081  30.041  1.00  0.00     0.074 A 
ATOM     55  C   UNL A   1      47.596  28.305  29.649  1.00  0.00     0.029 A 
ATOM     56  N   UNL A   1      45.973  29.779  29.730  1.00  0.00    -0.354 N 
ATOM     57  N   UNL A   1      41.961  28.846  31.099  1.00  0.00    -0.248 NA
ATOM     58  C   UNL A   1      41.744  30.118  29.156  1.00  0.00     0.031 C 
ATOM     59  C   UNL A   1      46.777  28.058  30.792  1.00  0.00     0.029 A 
ATOM     60  C   UNL A   1      45.641  28.861  30.688  1.00  0.00     0.049 A 
ATOM     61  H   UNL A   1      45.623  30.697  29.662  1.00  0.00     0.167 HD
ATOM     62  C   UNL A   1      43.209  29.358  30.787  1.00  0.00     0.074 A 
ATOM     63  C   UNL A   1      42.984  30.232  29.639  1.00  0.00     0.031 C 
ATOM     64  C   UNL A   1      44.338  28.795  31.305  1.00  0.00     0.037 A 
BRANCH  51  65
ATOM     65  C   UNL A   1      46.636  30.783  26.848  1.00  0.00     0.064 A 
ATOM     66  C   UNL A   1      47.810  31.570  26.878  1.00  0.00     0.173 A 
ATOM     67  C   UNL A   1      45.452  31.489  26.541  1.00  0.00     0.173 A 
ATOM     68  F   UNL A   1      49.000  31.015  27.147  1.00  0.00    -0.203 F 
ATOM     69  C   UNL A   1      47.776  32.961  26.747  1.00  0.00     0.198 A 
ATOM     70  C   UNL A   1      45.431  32.872  26.359  1.00  0.00     0.198 A 
ATOM     71  F   UNL A   1      44.250  30.906  26.505  1.00  0.00    -0.203 F 
ATOM     72  F   UNL A   1      48.894  33.674  26.940  1.00  0.00    -0.200 F 
ATOM     73  C   UNL A   1      46.584  33.613  26.503  1.00  0.00     0.200 A 
ATOM     74  F   UNL A   1      44.260  33.485  26.131  1.00  0.00    -0.200 F 
ATOM     75  F   UNL A   1      46.533  34.951  26.452  1.00  0.00    -0.200 F 
ENDBRANCH  51  65
BRANCH  52  76
ATOM     76  C   UNL A   1      38.804  28.553  29.355  1.00  0.00     0.064 A 
ATOM     77  C   UNL A   1      37.995  28.760  30.486  1.00  0.00     0.173 A 
ATOM     78  C   UNL A   1      38.301  29.034  28.132  1.00  0.00     0.173 A 
ATOM     79  F   UNL A   1      38.413  28.363  31.697  1.00  0.00    -0.203 F 
ATOM     80  C   UNL A   1      36.782  29.451  30.407  1.00  0.00     0.198 A 
ATOM     81  C   UNL A   1      37.086  29.716  28.052  1.00  0.00     0.198 A 
ATOM     82  F   UNL A   1      39.027  28.947  27.008  1.00  0.00    -0.203 F 
ATOM     83  F   UNL A   1      36.081  29.700  31.522  1.00  0.00    -0.200 F 
ATOM     84  C   UNL A   1      36.336  29.942  29.192  1.00  0.00     0.200 A 
ATOM     85  F   UNL A   1      36.682  30.218  26.876  1.00  0.00    -0.200 F 
ATOM     86  F   UNL A   1      35.212  30.670  29.126  1.00  0.00    -0.200 F 
ENDBRANCH  52  76
BRANCH  64  87
ATOM     87  C   UNL A   1      44.183  27.862  32.472  1.00  0.00     0.064 A 
ATOM     88  C   UNL A   1      44.030  26.468  32.370  1.00  0.00     0.173 A 
ATOM     89  C   UNL A   1      44.309  28.404  33.759  1.00  0.00     0.173 A 
ATOM     90  F   UNL A   1      44.002  25.859  31.177  1.00  0.00    -0.203 F 
ATOM     91  C   UNL A   1      43.955  25.667  33.508  1.00  0.00     0.198 A 
ATOM     92  C   UNL A   1      44.277  27.597  34.891  1.00  0.00     0.198 A 
ATOM     93  F   UNL A   1      44.505  29.723  33.916  1.00  0.00    -0.203 F 
ATOM     94  F   UNL A   1      43.784  24.341  33.388  1.00  0.00    -0.200 F 
ATOM     95  C   UNL A   1      44.085  26.230  34.767  1.00  0.00     0.200 A 
ATOM     96  F   UNL A   1      44.453  28.143  36.102  1.00  0.00    -0.200 F 
ATOM     97  F   UNL A   1      44.051  25.456  35.860  1.00  0.00    -0.200 F 
ENDBRANCH  64  87
ENDBRANCH  38  39
ENDBRANCH  30  33
ENDBRANCH  28  29
ENDBRANCH  27  28
ENDBRANCH  26  27
ENDBRANCH  25  26
ENDBRANCH   1  25
TORSDOF 17
ENDMDL
