MODEL 1
REMARK VINA RESULT:     -12.2      0.000      0.000
REMARK SMILES Cc1cc(C(=O)N[C@H]2C=C[C@@H](C(=O)NCCCCCCNC(=O)c3ccc(-c4c5nc(c(-c6c(F)c(F)c(F)c(F)c6F)c6ccc([nH]6)c(-c6c(F)c(F)c(F)c(F)c6F)c6nc(c(-c7c(F)c(F)c(F)c(F)c7F)c7ccc4[nH]7)C=C6)C=C5)cc3)C2)no1
REMARK SMILES IDX 17 1 16 2 15 3 14 4 12 5 13 6 11 8 8 9 9 10 87 11 10 12 7 13
REMARK SMILES IDX 5 14 6 15 4 17 1 18 2 19 3 20 89 21 88 22 18 23 19 24 20 25
REMARK SMILES IDX 21 26 22 27 23 29 24 30 25 31 86 32 26 33 85 34 27 35 28 36
REMARK SMILES IDX 29 37 79 38 30 39 84 40 78 41 80 42 31 43 83 44 77 45 76 46
REMARK SMILES IDX 32 48 64 49 44 50 63 51 45 52 48 53 62 54 81 55 46 56 47 57
REMARK SMILES IDX 61 59 82 60 49 61 33 62 34 63 42 64 35 65 36 66 40 67 43 68
REMARK SMILES IDX 37 69 38 70 41 71 39 72 65 73 66 74 74 75 67 76 68 77 72 78
REMARK SMILES IDX 75 79 69 80 70 81 73 82 71 83 50 84 51 85 59 86 52 87 53 88
REMARK SMILES IDX 57 89 60 90 54 91 55 92 58 93 56 94
REMARK H PARENT 14 7 7 16 21 28 80 47 48 58
REMARK Flexibility Score: inf
ROOT
ATOM      1  C   UNL A   1      31.417  30.088  25.229  1.00  0.00     0.002 C 
ENDROOT
BRANCH   1   2
ATOM      2  C   UNL A   1      31.656  28.582  25.069  1.00  0.00     0.021 C 
BRANCH   2   3
ATOM      3  C   UNL A   1      33.126  28.171  25.016  1.00  0.00     0.116 C 
BRANCH   3   4
ATOM      4  N   UNL A   1      33.709  28.449  23.716  1.00  0.00    -0.356 N 
ATOM      5  C   UNL A   1      33.796  27.693  22.589  1.00  0.00     0.227 C 
ATOM      6  O   UNL A   1      34.333  28.207  21.603  1.00  0.00    -0.274 OA
ATOM      7  H   UNL A   1      34.115  29.344  23.636  1.00  0.00     0.163 HD
BRANCH   5   8
ATOM      8  C   UNL A   1      33.257  26.263  22.504  1.00  0.00     0.103 C 
ATOM      9  C   UNL A   1      32.220  24.587  23.972  1.00  0.00     0.106 C 
ATOM     10  C   UNL A   1      31.211  25.315  23.144  1.00  0.00    -0.006 C 
ATOM     11  C   UNL A   1      33.512  25.395  23.741  1.00  0.00     0.047 C 
ATOM     12  C   UNL A   1      31.773  26.209  22.325  1.00  0.00    -0.016 C 
BRANCH   9  13
ATOM     13  N   UNL A   1      31.839  24.565  25.369  1.00  0.00    -0.344 N 
ATOM     14  C   UNL A   1      31.855  23.535  26.284  1.00  0.00     0.273 C 
ATOM     15  O   UNL A   1      31.492  23.792  27.432  1.00  0.00    -0.267 OA
ATOM     16  H   UNL A   1      31.515  25.424  25.722  1.00  0.00     0.164 HD
BRANCH  14  17
ATOM     17  C   UNL A   1      32.240  22.191  25.856  1.00  0.00     0.171 A 
ATOM     18  C   UNL A   1      34.184  19.299  24.681  1.00  0.00     0.091 C 
ATOM     19  C   UNL A   1      33.309  20.383  25.162  1.00  0.00     0.134 A 
ATOM     20  C   UNL A   1      33.532  21.612  25.732  1.00  0.00     0.082 A 
ATOM     21  O   UNL A   1      31.973  20.191  25.028  1.00  0.00    -0.361 OA
ATOM     22  N   UNL A   1      31.299  21.311  25.472  1.00  0.00    -0.074 NA
ENDBRANCH  14  17
ENDBRANCH   9  13
ENDBRANCH   5   8
ENDBRANCH   3   4
ENDBRANCH   2   3
ENDBRANCH   1   2
BRANCH   1  23
ATOM     23  C   UNL A   1      31.662  30.651  26.633  1.00  0.00     0.002 C 
BRANCH  23  24
ATOM     24  C   UNL A   1      31.472  32.163  26.789  1.00  0.00     0.021 C 
BRANCH  24  25
ATOM     25  C   UNL A   1      32.722  32.954  27.168  1.00  0.00     0.116 C 
BRANCH  25  26
ATOM     26  N   UNL A   1      32.423  34.298  27.632  1.00  0.00    -0.352 N 
ATOM     27  C   UNL A   1      33.010  35.023  28.638  1.00  0.00     0.251 C 
ATOM     28  H   UNL A   1      31.692  34.755  27.155  1.00  0.00     0.163 HD
ATOM     29  O   UNL A   1      32.550  36.113  28.964  1.00  0.00    -0.269 OA
BRANCH  27  30
ATOM     30  C   UNL A   1      34.185  34.484  29.359  1.00  0.00     0.039 A 
ATOM     31  C   UNL A   1      33.975  33.831  30.578  1.00  0.00     0.014 A 
ATOM     32  C   UNL A   1      35.481  34.638  28.857  1.00  0.00     0.014 A 
ATOM     33  C   UNL A   1      35.057  33.276  31.265  1.00  0.00     0.010 A 
ATOM     34  C   UNL A   1      36.556  34.057  29.528  1.00  0.00     0.010 A 
ATOM     35  C   UNL A   1      36.351  33.365  30.732  1.00  0.00    -0.014 A 
BRANCH  35  36
ATOM     36  C   UNL A   1      37.498  32.711  31.406  1.00  0.00     0.031 A 
ATOM     37  C   UNL A   1      38.197  31.550  30.764  1.00  0.00     0.074 A 
ATOM     38  C   UNL A   1      37.867  33.126  32.631  1.00  0.00     0.049 A 
ATOM     39  N   UNL A   1      39.165  30.807  31.236  1.00  0.00    -0.248 NA
ATOM     40  C   UNL A   1      37.737  31.162  29.422  1.00  0.00     0.031 C 
ATOM     41  C   UNL A   1      37.241  34.220  33.376  1.00  0.00     0.029 A 
ATOM     42  N   UNL A   1      38.844  32.664  33.474  1.00  0.00    -0.354 N 
ATOM     43  C   UNL A   1      39.417  29.851  30.263  1.00  0.00     0.074 A 
ATOM     44  C   UNL A   1      38.493  30.100  29.176  1.00  0.00     0.031 C 
ATOM     45  C   UNL A   1      37.848  34.342  34.567  1.00  0.00     0.029 A 
ATOM     46  C   UNL A   1      38.890  33.325  34.676  1.00  0.00     0.049 A 
ATOM     47  H   UNL A   1      39.455  31.928  33.240  1.00  0.00     0.167 HD
ATOM     48  C   UNL A   1      40.342  28.862  30.272  1.00  0.00     0.037 A 
ATOM     49  C   UNL A   1      39.675  33.124  35.751  1.00  0.00     0.037 A 
ATOM     50  C   UNL A   1      41.287  28.634  31.332  1.00  0.00     0.049 A 
ATOM     51  C   UNL A   1      40.703  32.030  35.726  1.00  0.00     0.074 A 
ATOM     52  C   UNL A   1      42.320  27.714  31.384  1.00  0.00     0.029 A 
ATOM     53  N   UNL A   1      41.314  29.335  32.527  1.00  0.00    -0.354 N 
ATOM     54  N   UNL A   1      40.971  31.171  34.776  1.00  0.00    -0.248 NA
ATOM     55  C   UNL A   1      41.537  31.880  36.929  1.00  0.00     0.031 C 
ATOM     56  C   UNL A   1      42.959  27.842  32.624  1.00  0.00     0.029 A 
ATOM     57  C   UNL A   1      42.332  28.855  33.333  1.00  0.00     0.049 A 
ATOM     58  H   UNL A   1      40.699  30.065  32.767  1.00  0.00     0.167 HD
ATOM     59  C   UNL A   1      42.005  30.383  35.257  1.00  0.00     0.074 A 
ATOM     60  C   UNL A   1      42.325  30.871  36.582  1.00  0.00     0.031 C 
ATOM     61  C   UNL A   1      42.632  29.347  34.651  1.00  0.00     0.037 A 
BRANCH  48  62
ATOM     62  C   UNL A   1      40.375  27.944  29.092  1.00  0.00     0.064 A 
ATOM     63  C   UNL A   1      39.597  26.778  29.054  1.00  0.00     0.173 A 
ATOM     64  C   UNL A   1      41.163  28.252  27.974  1.00  0.00     0.173 A 
ATOM     65  F   UNL A   1      38.838  26.439  30.107  1.00  0.00    -0.203 F 
ATOM     66  C   UNL A   1      39.616  25.945  27.940  1.00  0.00     0.198 A 
ATOM     67  C   UNL A   1      41.170  27.423  26.856  1.00  0.00     0.198 A 
ATOM     68  F   UNL A   1      41.923  29.357  27.968  1.00  0.00    -0.203 F 
ATOM     69  F   UNL A   1      38.885  24.822  27.931  1.00  0.00    -0.200 F 
ATOM     70  C   UNL A   1      40.400  26.270  26.841  1.00  0.00     0.200 A 
ATOM     71  F   UNL A   1      41.924  27.738  25.795  1.00  0.00    -0.200 F 
ATOM     72  F   UNL A   1      40.415  25.467  25.768  1.00  0.00    -0.200 F 
ENDBRANCH  48  62
BRANCH  49  73
ATOM     73  C   UNL A   1      39.518  33.990  36.941  1.00  0.00     0.064 A 
ATOM     74  C   UNL A   1      38.719  33.586  38.019  1.00  0.00     0.173 A 
ATOM     75  C   UNL A   1      40.172  35.226  37.031  1.00  0.00     0.173 A 
ATOM     76  F   UNL A   1      38.060  32.419  37.963  1.00  0.00    -0.203 F 
ATOM     77  C   UNL A   1      38.576  34.392  39.144  1.00  0.00     0.198 A 
ATOM     78  C   UNL A   1      40.038  36.025  38.163  1.00  0.00     0.198 A 
ATOM     79  F   UNL A   1      40.944  35.650  36.021  1.00  0.00    -0.203 F 
ATOM     80  F   UNL A   1      37.789  33.996  40.154  1.00  0.00    -0.200 F 
ATOM     81  C   UNL A   1      39.239  35.609  39.218  1.00  0.00     0.200 A 
ATOM     82  F   UNL A   1      40.681  37.199  38.233  1.00  0.00    -0.200 F 
ATOM     83  F   UNL A   1      39.102  36.383  40.302  1.00  0.00    -0.200 F 
ENDBRANCH  49  73
BRANCH  61  84
ATOM     84  C   UNL A   1      43.729  28.676  35.416  1.00  0.00     0.064 A 
ATOM     85  C   UNL A   1      43.467  27.571  36.237  1.00  0.00     0.173 A 
ATOM     86  C   UNL A   1      45.054  29.121  35.302  1.00  0.00     0.173 A 
ATOM     87  F   UNL A   1      42.212  27.124  36.386  1.00  0.00    -0.203 F 
ATOM     88  C   UNL A   1      44.496  26.938  36.928  1.00  0.00     0.198 A 
ATOM     89  C   UNL A   1      46.082  28.477  35.986  1.00  0.00     0.198 A 
ATOM     90  F   UNL A   1      45.349  30.176  34.529  1.00  0.00    -0.203 F 
ATOM     91  F   UNL A   1      44.224  25.898  37.729  1.00  0.00    -0.200 F 
ATOM     92  C   UNL A   1      45.802  27.389  36.799  1.00  0.00     0.200 A 
ATOM     93  F   UNL A   1      47.343  28.911  35.860  1.00  0.00    -0.200 F 
ATOM     94  F   UNL A   1      46.792  26.777  37.465  1.00  0.00    -0.200 F 
ENDBRANCH  61  84
ENDBRANCH  35  36
ENDBRANCH  27  30
ENDBRANCH  25  26
ENDBRANCH  24  25
ENDBRANCH  23  24
ENDBRANCH   1  23
TORSDOF 15
ENDMDL
MODEL 2
REMARK VINA RESULT:     -12.1      5.637     11.377
REMARK SMILES Cc1cc(C(=O)N[C@H]2C=C[C@@H](C(=O)NCCCCCCNC(=O)c3ccc(-c4c5nc(c(-c6c(F)c(F)c(F)c(F)c6F)c6ccc([nH]6)c(-c6c(F)c(F)c(F)c(F)c6F)c6nc(c(-c7c(F)c(F)c(F)c(F)c7F)c7ccc4[nH]7)C=C6)C=C5)cc3)C2)no1
REMARK SMILES IDX 17 1 16 2 15 3 14 4 12 5 13 6 11 8 8 9 9 10 87 11 10 12 7 13
REMARK SMILES IDX 5 14 6 15 4 17 1 18 2 19 3 20 89 21 88 22 18 23 19 24 20 25
REMARK SMILES IDX 21 26 22 27 23 29 24 30 25 31 86 32 26 33 85 34 27 35 28 36
REMARK SMILES IDX 29 37 79 38 30 39 84 40 78 41 80 42 31 43 83 44 77 45 76 46
REMARK SMILES IDX 32 48 64 49 44 50 63 51 45 52 48 53 62 54 81 55 46 56 47 57
REMARK SMILES IDX 61 59 82 60 49 61 33 62 34 63 42 64 35 65 36 66 40 67 43 68
REMARK SMILES IDX 37 69 38 70 41 71 39 72 65 73 66 74 74 75 67 76 68 77 72 78
REMARK SMILES IDX 75 79 69 80 70 81 73 82 71 83 50 84 51 85 59 86 52 87 53 88
REMARK SMILES IDX 57 89 60 90 54 91 55 92 58 93 56 94
REMARK H PARENT 14 7 7 16 21 28 80 47 48 58
REMARK Flexibility Score: inf
ROOT
ATOM      1  C   UNL A   1      35.869  20.685  25.106  1.00  0.00     0.002 C 
ENDROOT
BRANCH   1   2
ATOM      2  C   UNL A   1      35.433  21.760  26.108  1.00  0.00     0.021 C 
BRANCH   2   3
ATOM      3  C   UNL A   1      34.153  21.434  26.877  1.00  0.00     0.116 C 
BRANCH   3   4
ATOM      4  N   UNL A   1      33.486  20.268  26.329  1.00  0.00    -0.356 N 
ATOM      5  C   UNL A   1      32.545  20.145  25.355  1.00  0.00     0.227 C 
ATOM      6  O   UNL A   1      32.171  19.003  25.071  1.00  0.00    -0.274 OA
ATOM      7  H   UNL A   1      33.764  19.413  26.735  1.00  0.00     0.163 HD
BRANCH   5   8
ATOM      8  C   UNL A   1      31.953  21.346  24.616  1.00  0.00     0.103 C 
ATOM      9  C   UNL A   1      32.132  23.798  24.627  1.00  0.00     0.106 C 
ATOM     10  C   UNL A   1      32.949  23.176  23.541  1.00  0.00    -0.006 C 
ATOM     11  C   UNL A   1      31.703  22.587  25.480  1.00  0.00     0.047 C 
ATOM     12  C   UNL A   1      32.834  21.845  23.515  1.00  0.00    -0.016 C 
BRANCH   9  13
ATOM     13  N   UNL A   1      32.908  24.750  25.392  1.00  0.00    -0.344 N 
ATOM     14  C   UNL A   1      32.877  26.127  25.401  1.00  0.00     0.273 C 
ATOM     15  O   UNL A   1      33.642  26.706  26.173  1.00  0.00    -0.267 OA
ATOM     16  H   UNL A   1      33.565  24.349  26.005  1.00  0.00     0.164 HD
BRANCH  14  17
ATOM     17  C   UNL A   1      31.998  26.839  24.474  1.00  0.00     0.171 A 
ATOM     18  C   UNL A   1      29.057  28.422  22.936  1.00  0.00     0.091 C 
ATOM     19  C   UNL A   1      30.300  27.827  23.457  1.00  0.00     0.134 A 
ATOM     20  C   UNL A   1      30.719  27.418  24.698  1.00  0.00     0.082 A 
ATOM     21  O   UNL A   1      31.286  27.592  22.555  1.00  0.00    -0.361 OA
ATOM     22  N   UNL A   1      32.354  26.987  23.187  1.00  0.00    -0.074 NA
ENDBRANCH  14  17
ENDBRANCH   9  13
ENDBRANCH   5   8
ENDBRANCH   3   4
ENDBRANCH   2   3
ENDBRANCH   1   2
BRANCH   1  23
ATOM     23  C   UNL A   1      37.317  20.786  24.617  1.00  0.00     0.002 C 
BRANCH  23  24
ATOM     24  C   UNL A   1      38.225  19.602  24.967  1.00  0.00     0.021 C 
BRANCH  24  25
ATOM     25  C   UNL A   1      39.353  19.899  25.953  1.00  0.00     0.116 C 
BRANCH  25  26
ATOM     26  N   UNL A   1      40.427  18.922  25.894  1.00  0.00    -0.352 N 
ATOM     27  C   UNL A   1      41.780  19.106  26.034  1.00  0.00     0.251 C 
ATOM     28  H   UNL A   1      40.144  17.994  25.731  1.00  0.00     0.163 HD
ATOM     29  O   UNL A   1      42.553  18.173  25.844  1.00  0.00    -0.269 OA
BRANCH  27  30
ATOM     30  C   UNL A   1      42.320  20.439  26.384  1.00  0.00     0.039 A 
ATOM     31  C   UNL A   1      42.882  21.217  25.367  1.00  0.00     0.014 A 
ATOM     32  C   UNL A   1      42.297  20.911  27.699  1.00  0.00     0.014 A 
ATOM     33  C   UNL A   1      43.365  22.496  25.655  1.00  0.00     0.010 A 
ATOM     34  C   UNL A   1      42.751  22.199  27.981  1.00  0.00     0.010 A 
ATOM     35  C   UNL A   1      43.280  23.004  26.960  1.00  0.00    -0.014 A 
BRANCH  35  36
ATOM     36  C   UNL A   1      43.712  24.388  27.267  1.00  0.00     0.031 A 
ATOM     37  C   UNL A   1      42.727  25.399  27.773  1.00  0.00     0.074 A 
ATOM     38  C   UNL A   1      44.985  24.750  27.025  1.00  0.00     0.049 A 
ATOM     39  N   UNL A   1      42.904  26.671  28.021  1.00  0.00    -0.248 NA
ATOM     40  C   UNL A   1      41.357  24.921  28.016  1.00  0.00     0.031 C 
ATOM     41  C   UNL A   1      46.028  23.870  26.497  1.00  0.00     0.029 A 
ATOM     42  N   UNL A   1      45.613  25.961  27.172  1.00  0.00    -0.354 N 
ATOM     43  C   UNL A   1      41.668  27.152  28.428  1.00  0.00     0.074 A 
ATOM     44  C   UNL A   1      40.744  26.039  28.383  1.00  0.00     0.031 C 
ATOM     45  C   UNL A   1      47.165  24.570  26.362  1.00  0.00     0.029 A 
ATOM     46  C   UNL A   1      46.926  25.950  26.774  1.00  0.00     0.049 A 
ATOM     47  H   UNL A   1      45.163  26.761  27.529  1.00  0.00     0.167 HD
ATOM     48  C   UNL A   1      41.338  28.408  28.813  1.00  0.00     0.037 A 
ATOM     49  C   UNL A   1      47.831  26.945  26.734  1.00  0.00     0.037 A 
ATOM     50  C   UNL A   1      42.260  29.509  28.895  1.00  0.00     0.049 A 
ATOM     51  C   UNL A   1      47.441  28.324  27.182  1.00  0.00     0.074 A 
ATOM     52  C   UNL A   1      42.033  30.792  29.363  1.00  0.00     0.029 A 
ATOM     53  N   UNL A   1      43.587  29.456  28.500  1.00  0.00    -0.354 N 
ATOM     54  N   UNL A   1      46.285  28.752  27.621  1.00  0.00    -0.248 NA
ATOM     55  C   UNL A   1      48.487  29.357  27.127  1.00  0.00     0.031 C 
ATOM     56  C   UNL A   1      43.220  31.524  29.228  1.00  0.00     0.029 A 
ATOM     57  C   UNL A   1      44.187  30.688  28.693  1.00  0.00     0.049 A 
ATOM     58  H   UNL A   1      44.035  28.659  28.135  1.00  0.00     0.167 HD
ATOM     59  C   UNL A   1      46.460  30.098  27.901  1.00  0.00     0.074 A 
ATOM     60  C   UNL A   1      47.839  30.417  27.592  1.00  0.00     0.031 C 
ATOM     61  C   UNL A   1      45.557  30.990  28.373  1.00  0.00     0.037 A 
BRANCH  48  62
ATOM     62  C   UNL A   1      39.909  28.660  29.175  1.00  0.00     0.064 A 
ATOM     63  C   UNL A   1      39.444  28.468  30.483  1.00  0.00     0.173 A 
ATOM     64  C   UNL A   1      39.006  29.135  28.213  1.00  0.00     0.173 A 
ATOM     65  F   UNL A   1      40.271  28.003  31.431  1.00  0.00    -0.203 F 
ATOM     66  C   UNL A   1      38.118  28.731  30.814  1.00  0.00     0.198 A 
ATOM     67  C   UNL A   1      37.684  29.410  28.550  1.00  0.00     0.198 A 
ATOM     68  F   UNL A   1      39.408  29.334  26.949  1.00  0.00    -0.203 F 
ATOM     69  F   UNL A   1      37.685  28.518  32.064  1.00  0.00    -0.200 F 
ATOM     70  C   UNL A   1      37.241  29.205  29.848  1.00  0.00     0.200 A 
ATOM     71  F   UNL A   1      36.838  29.869  27.619  1.00  0.00    -0.200 F 
ATOM     72  F   UNL A   1      35.965  29.459  30.169  1.00  0.00    -0.200 F 
ENDBRANCH  48  62
BRANCH  49  73
ATOM     73  C   UNL A   1      49.203  26.664  26.253  1.00  0.00     0.064 A 
ATOM     74  C   UNL A   1      49.553  26.896  24.916  1.00  0.00     0.173 A 
ATOM     75  C   UNL A   1      50.189  26.175  27.119  1.00  0.00     0.173 A 
ATOM     76  F   UNL A   1      48.633  27.345  24.051  1.00  0.00    -0.203 F 
ATOM     77  C   UNL A   1      50.844  26.642  24.461  1.00  0.00     0.198 A 
ATOM     78  C   UNL A   1      51.484  25.934  26.666  1.00  0.00     0.198 A 
ATOM     79  F   UNL A   1      49.894  25.938  28.405  1.00  0.00    -0.203 F 
ATOM     80  F   UNL A   1      51.152  26.850  23.174  1.00  0.00    -0.200 F 
ATOM     81  C   UNL A   1      51.809  26.166  25.337  1.00  0.00     0.200 A 
ATOM     82  F   UNL A   1      52.415  25.476  27.513  1.00  0.00    -0.200 F 
ATOM     83  F   UNL A   1      53.053  25.924  24.899  1.00  0.00    -0.200 F 
ENDBRANCH  49  73
BRANCH  61  84
ATOM     84  C   UNL A   1      46.033  32.392  28.586  1.00  0.00     0.064 A 
ATOM     85  C   UNL A   1      45.919  33.356  27.576  1.00  0.00     0.173 A 
ATOM     86  C   UNL A   1      46.578  32.781  29.819  1.00  0.00     0.173 A 
ATOM     87  F   UNL A   1      45.419  33.022  26.378  1.00  0.00    -0.203 F 
ATOM     88  C   UNL A   1      46.344  34.665  27.790  1.00  0.00     0.198 A 
ATOM     89  C   UNL A   1      46.991  34.093  30.032  1.00  0.00     0.198 A 
ATOM     90  F   UNL A   1      46.708  31.889  30.812  1.00  0.00    -0.203 F 
ATOM     91  F   UNL A   1      46.251  35.568  26.804  1.00  0.00    -0.200 F 
ATOM     92  C   UNL A   1      46.876  35.032  29.017  1.00  0.00     0.200 A 
ATOM     93  F   UNL A   1      47.503  34.449  31.218  1.00  0.00    -0.200 F 
ATOM     94  F   UNL A   1      47.284  36.293  29.221  1.00  0.00    -0.200 F 
ENDBRANCH  61  84
ENDBRANCH  35  36
ENDBRANCH  27  30
ENDBRANCH  25  26
ENDBRANCH  24  25
ENDBRANCH  23  24
ENDBRANCH   1  23
TORSDOF 15
ENDMDL
MODEL 3
REMARK VINA RESULT:     -12.0      4.655     10.904
REMARK SMILES Cc1cc(C(=O)N[C@H]2C=C[C@@H](C(=O)NCCCCCCNC(=O)c3ccc(-c4c5nc(c(-c6c(F)c(F)c(F)c(F)c6F)c6ccc([nH]6)c(-c6c(F)c(F)c(F)c(F)c6F)c6nc(c(-c7c(F)c(F)c(F)c(F)c7F)c7ccc4[nH]7)C=C6)C=C5)cc3)C2)no1
REMARK SMILES IDX 17 1 16 2 15 3 14 4 12 5 13 6 11 8 8 9 9 10 87 11 10 12 7 13
REMARK SMILES IDX 5 14 6 15 4 17 1 18 2 19 3 20 89 21 88 22 18 23 19 24 20 25
REMARK SMILES IDX 21 26 22 27 23 29 24 30 25 31 86 32 26 33 85 34 27 35 28 36
REMARK SMILES IDX 29 37 79 38 30 39 84 40 78 41 80 42 31 43 83 44 77 45 76 46
REMARK SMILES IDX 32 48 64 49 44 50 63 51 45 52 48 53 62 54 81 55 46 56 47 57
REMARK SMILES IDX 61 59 82 60 49 61 33 62 34 63 42 64 35 65 36 66 40 67 43 68
REMARK SMILES IDX 37 69 38 70 41 71 39 72 65 73 66 74 74 75 67 76 68 77 72 78
REMARK SMILES IDX 75 79 69 80 70 81 73 82 71 83 50 84 51 85 59 86 52 87 53 88
REMARK SMILES IDX 57 89 60 90 54 91 55 92 58 93 56 94
REMARK H PARENT 14 7 7 16 21 28 80 47 48 58
REMARK Flexibility Score: inf
ROOT
ATOM      1  C   UNL A   1      36.630  32.502  31.284  1.00  0.00     0.002 C 
ENDROOT
BRANCH   1   2
ATOM      2  C   UNL A   1      37.209  33.199  32.520  1.00  0.00     0.021 C 
BRANCH   2   3
ATOM      3  C   UNL A   1      37.935  32.272  33.494  1.00  0.00     0.116 C 
BRANCH   3   4
ATOM      4  N   UNL A   1      37.451  30.908  33.391  1.00  0.00    -0.356 N 
ATOM      5  C   UNL A   1      38.109  29.718  33.382  1.00  0.00     0.227 C 
ATOM      6  O   UNL A   1      37.424  28.693  33.309  1.00  0.00    -0.274 OA
ATOM      7  H   UNL A   1      36.471  30.830  33.313  1.00  0.00     0.163 HD
BRANCH   5   8
ATOM      8  C   UNL A   1      39.633  29.611  33.463  1.00  0.00     0.103 C 
ATOM      9  C   UNL A   1      41.347  28.697  34.970  1.00  0.00     0.106 C 
ATOM     10  C   UNL A   1      41.064  27.788  33.818  1.00  0.00    -0.006 C 
ATOM     11  C   UNL A   1      40.223  29.748  34.871  1.00  0.00     0.047 C 
ATOM     12  C   UNL A   1      40.151  28.293  32.982  1.00  0.00    -0.016 C 
BRANCH   9  13
ATOM     13  N   UNL A   1      41.308  27.981  36.228  1.00  0.00    -0.344 N 
ATOM     14  C   UNL A   1      42.019  26.881  36.653  1.00  0.00     0.273 C 
ATOM     15  O   UNL A   1      41.806  26.475  37.796  1.00  0.00    -0.267 OA
ATOM     16  H   UNL A   1      40.670  28.338  36.886  1.00  0.00     0.164 HD
BRANCH  14  17
ATOM     17  C   UNL A   1      42.940  26.213  35.734  1.00  0.00     0.171 A 
ATOM     18  C   UNL A   1      44.616  23.674  33.668  1.00  0.00     0.091 C 
ATOM     19  C   UNL A   1      44.022  24.773  34.450  1.00  0.00     0.134 A 
ATOM     20  C   UNL A   1      42.813  24.961  35.072  1.00  0.00     0.082 A 
ATOM     21  O   UNL A   1      44.799  25.868  34.647  1.00  0.00    -0.361 OA
ATOM     22  N   UNL A   1      44.123  26.776  35.437  1.00  0.00    -0.074 NA
ENDBRANCH  14  17
ENDBRANCH   9  13
ENDBRANCH   5   8
ENDBRANCH   3   4
ENDBRANCH   2   3
ENDBRANCH   1   2
BRANCH   1  23
ATOM     23  C   UNL A   1      35.102  32.522  31.168  1.00  0.00     0.002 C 
BRANCH  23  24
ATOM     24  C   UNL A   1      34.529  33.381  30.037  1.00  0.00     0.021 C 
BRANCH  24  25
ATOM     25  C   UNL A   1      34.913  32.956  28.620  1.00  0.00     0.116 C 
BRANCH  25  26
ATOM     26  N   UNL A   1      34.112  31.850  28.124  1.00  0.00    -0.352 N 
ATOM     27  C   UNL A   1      34.481  30.552  27.875  1.00  0.00     0.251 C 
ATOM     28  H   UNL A   1      33.169  32.063  27.940  1.00  0.00     0.163 HD
ATOM     29  O   UNL A   1      33.690  29.776  27.350  1.00  0.00    -0.269 OA
BRANCH  27  30
ATOM     30  C   UNL A   1      35.846  30.087  28.209  1.00  0.00     0.039 A 
ATOM     31  C   UNL A   1      36.850  30.224  27.245  1.00  0.00     0.014 A 
ATOM     32  C   UNL A   1      36.133  29.499  29.445  1.00  0.00     0.014 A 
ATOM     33  C   UNL A   1      38.157  29.830  27.541  1.00  0.00     0.010 A 
ATOM     34  C   UNL A   1      37.443  29.135  29.751  1.00  0.00     0.010 A 
ATOM     35  C   UNL A   1      38.466  29.306  28.806  1.00  0.00    -0.014 A 
BRANCH  35  36
ATOM     36  C   UNL A   1      39.862  28.960  29.165  1.00  0.00     0.031 A 
ATOM     37  C   UNL A   1      40.713  29.929  29.931  1.00  0.00     0.074 A 
ATOM     38  C   UNL A   1      40.383  27.795  28.740  1.00  0.00     0.049 A 
ATOM     39  N   UNL A   1      41.974  29.833  30.267  1.00  0.00    -0.248 NA
ATOM     40  C   UNL A   1      40.067  31.177  30.363  1.00  0.00     0.031 C 
ATOM     41  C   UNL A   1      39.669  26.787  27.955  1.00  0.00     0.029 A 
ATOM     42  N   UNL A   1      41.641  27.271  28.892  1.00  0.00    -0.354 N 
ATOM     43  C   UNL A   1      42.280  31.013  30.929  1.00  0.00     0.074 A 
ATOM     44  C   UNL A   1      41.076  31.817  30.939  1.00  0.00     0.031 C 
ATOM     45  C   UNL A   1      40.501  25.768  27.691  1.00  0.00     0.029 A 
ATOM     46  C   UNL A   1      41.809  26.059  28.271  1.00  0.00     0.049 A 
ATOM     47  H   UNL A   1      42.356  27.722  29.398  1.00  0.00     0.167 HD
ATOM     48  C   UNL A   1      43.457  31.386  31.485  1.00  0.00     0.037 A 
ATOM     49  C   UNL A   1      42.900  25.277  28.170  1.00  0.00     0.037 A 
ATOM     50  C   UNL A   1      44.644  30.575  31.512  1.00  0.00     0.049 A 
ATOM     51  C   UNL A   1      44.187  25.709  28.811  1.00  0.00     0.074 A 
ATOM     52  C   UNL A   1      45.854  30.835  32.134  1.00  0.00     0.029 A 
ATOM     53  N   UNL A   1      44.772  29.345  30.886  1.00  0.00    -0.354 N 
ATOM     54  N   UNL A   1      44.447  26.800  29.485  1.00  0.00    -0.248 NA
ATOM     55  C   UNL A   1      45.332  24.796  28.674  1.00  0.00     0.031 C 
ATOM     56  C   UNL A   1      46.722  29.770  31.865  1.00  0.00     0.029 A 
ATOM     57  C   UNL A   1      46.045  28.841  31.090  1.00  0.00     0.049 A 
ATOM     58  H   UNL A   1      44.062  28.897  30.373  1.00  0.00     0.167 HD
ATOM     59  C   UNL A   1      45.778  26.707  29.859  1.00  0.00     0.074 A 
ATOM     60  C   UNL A   1      46.273  25.446  29.346  1.00  0.00     0.031 C 
ATOM     61  C   UNL A   1      46.523  27.589  30.566  1.00  0.00     0.037 A 
BRANCH  48  62
ATOM     62  C   UNL A   1      43.518  32.741  32.115  1.00  0.00     0.064 A 
ATOM     63  C   UNL A   1      43.866  33.876  31.369  1.00  0.00     0.173 A 
ATOM     64  C   UNL A   1      43.188  32.912  33.467  1.00  0.00     0.173 A 
ATOM     65  F   UNL A   1      44.201  33.756  30.076  1.00  0.00    -0.203 F 
ATOM     66  C   UNL A   1      43.895  35.135  31.960  1.00  0.00     0.198 A 
ATOM     67  C   UNL A   1      43.204  34.175  34.051  1.00  0.00     0.198 A 
ATOM     68  F   UNL A   1      42.848  31.853  34.218  1.00  0.00    -0.203 F 
ATOM     69  F   UNL A   1      44.254  36.205  31.237  1.00  0.00    -0.200 F 
ATOM     70  C   UNL A   1      43.560  35.284  33.299  1.00  0.00     0.200 A 
ATOM     71  F   UNL A   1      42.879  34.319  35.343  1.00  0.00    -0.200 F 
ATOM     72  F   UNL A   1      43.586  36.498  33.865  1.00  0.00    -0.200 F 
ENDBRANCH  48  62
BRANCH  49  73
ATOM     73  C   UNL A   1      42.813  23.997  27.431  1.00  0.00     0.064 A 
ATOM     74  C   UNL A   1      43.122  23.937  26.066  1.00  0.00     0.173 A 
ATOM     75  C   UNL A   1      42.436  22.811  28.076  1.00  0.00     0.173 A 
ATOM     76  F   UNL A   1      43.468  25.053  25.408  1.00  0.00    -0.203 F 
ATOM     77  C   UNL A   1      43.052  22.734  25.369  1.00  0.00     0.198 A 
ATOM     78  C   UNL A   1      42.379  21.606  27.380  1.00  0.00     0.198 A 
ATOM     79  F   UNL A   1      42.131  22.826  29.381  1.00  0.00    -0.203 F 
ATOM     80  F   UNL A   1      43.330  22.704  24.058  1.00  0.00    -0.200 F 
ATOM     81  C   UNL A   1      42.684  21.569  26.027  1.00  0.00     0.200 A 
ATOM     82  F   UNL A   1      42.026  20.482  28.018  1.00  0.00    -0.200 F 
ATOM     83  F   UNL A   1      42.619  20.411  25.356  1.00  0.00    -0.200 F 
ENDBRANCH  49  73
BRANCH  61  84
ATOM     84  C   UNL A   1      47.949  27.220  30.828  1.00  0.00     0.064 A 
ATOM     85  C   UNL A   1      48.980  27.690  30.005  1.00  0.00     0.173 A 
ATOM     86  C   UNL A   1      48.287  26.416  31.926  1.00  0.00     0.173 A 
ATOM     87  F   UNL A   1      48.698  28.447  28.936  1.00  0.00    -0.203 F 
ATOM     88  C   UNL A   1      50.307  27.360  30.268  1.00  0.00     0.198 A 
ATOM     89  C   UNL A   1      49.616  26.098  32.192  1.00  0.00     0.198 A 
ATOM     90  F   UNL A   1      47.331  25.942  32.738  1.00  0.00    -0.203 F 
ATOM     91  F   UNL A   1      51.279  27.798  29.456  1.00  0.00    -0.200 F 
ATOM     92  C   UNL A   1      50.623  26.568  31.362  1.00  0.00     0.200 A 
ATOM     93  F   UNL A   1      49.922  25.335  33.250  1.00  0.00    -0.200 F 
ATOM     94  F   UNL A   1      51.902  26.252  31.614  1.00  0.00    -0.200 F 
ENDBRANCH  61  84
ENDBRANCH  35  36
ENDBRANCH  27  30
ENDBRANCH  25  26
ENDBRANCH  24  25
ENDBRANCH  23  24
ENDBRANCH   1  23
TORSDOF 15
ENDMDL
