MODEL 1
REMARK VINA RESULT:     -12.6      0.000      0.000
REMARK SMILES CCOc1cc(N2CCOCC2)ccc1[C@H]([NH3+])C(=O)NCCCCCCNC(=O)c1ccc(-c2c3nc(c(-c4c(F)c(F)c(F)c(F)c4F)c4ccc([nH]4)c(-c4c(F)c(F)c(F)c(F)c4F)c4nc(c(-c5c(F)c(F)c(F)c(F)c5F)c5ccc2[nH]5)C=C4)C=C3)cc1
REMARK SMILES IDX 23 1 22 2 21 3 20 4 18 5 19 6 16 8 15 9 4 10 5 11 6 12 14 13
REMARK SMILES IDX 13 14 3 15 2 16 1 17 7 18 8 19 12 20 9 21 11 22 10 23 17 24
REMARK SMILES IDX 24 28 25 29 26 30 27 31 28 32 29 34 30 35 31 36 92 37 32 38
REMARK SMILES IDX 91 39 33 40 34 41 35 42 85 43 36 44 90 45 84 46 86 47 37 48
REMARK SMILES IDX 89 49 83 50 82 51 38 53 70 54 50 55 69 56 51 57 54 58 68 59
REMARK SMILES IDX 87 60 52 61 53 62 67 64 88 65 55 66 39 67 40 68 48 69 41 70
REMARK SMILES IDX 42 71 46 72 49 73 43 74 44 75 47 76 45 77 71 78 72 79 80 80
REMARK SMILES IDX 73 81 74 82 78 83 81 84 75 85 76 86 79 87 77 88 56 89 57 90
REMARK SMILES IDX 65 91 58 92 59 93 63 94 66 95 60 96 61 97 64 98 62 99
REMARK H PARENT 20 7 17 25 17 26 17 27 27 33 86 52 54 63
REMARK Flexibility Score: inf
ROOT
ATOM      1  C   UNL A   1      32.969  29.874  27.158  1.00  0.00     0.002 C 
ENDROOT
BRANCH   1   2
ATOM      2  C   UNL A   1      32.850  28.368  27.418  1.00  0.00     0.021 C 
BRANCH   2   3
ATOM      3  C   UNL A   1      32.319  27.599  26.213  1.00  0.00     0.116 C 
BRANCH   3   4
ATOM      4  N   UNL A   1      31.410  26.578  26.686  1.00  0.00    -0.351 N 
ATOM      5  C   UNL A   1      30.501  25.843  25.980  1.00  0.00     0.283 C 
ATOM      6  O   UNL A   1      29.541  25.370  26.596  1.00  0.00    -0.268 OA
ATOM      7  H   UNL A   1      31.453  26.385  27.650  1.00  0.00     0.163 HD
BRANCH   5   8
ATOM      8  C   UNL A   1      30.654  25.665  24.441  1.00  0.00     0.306 C 
BRANCH   8   9
ATOM      9  C   UNL A   1      29.883  26.717  23.646  1.00  0.00     0.061 A 
ATOM     10  C   UNL A   1      30.554  27.644  22.821  1.00  0.00     0.131 A 
ATOM     11  C   UNL A   1      29.896  28.792  22.352  1.00  0.00     0.072 A 
ATOM     12  C   UNL A   1      28.555  29.031  22.678  1.00  0.00     0.040 A 
ATOM     13  C   UNL A   1      28.498  26.866  23.796  1.00  0.00     0.016 A 
ATOM     14  C   UNL A   1      27.854  28.018  23.339  1.00  0.00     0.027 A 
BRANCH  10  15
ATOM     15  O   UNL A   1      31.922  27.596  22.719  1.00  0.00    -0.493 OA
BRANCH  15  16
ATOM     16  C   UNL A   1      32.577  28.868  22.726  1.00  0.00     0.226 C 
ATOM     17  C   UNL A   1      34.012  28.778  23.220  1.00  0.00     0.049 C 
ENDBRANCH  15  16
ENDBRANCH  10  15
BRANCH  12  18
ATOM     18  N   UNL A   1      27.976  30.261  22.464  1.00  0.00    -0.367 N 
ATOM     19  C   UNL A   1      27.827  30.794  21.104  1.00  0.00     0.145 C 
ATOM     20  C   UNL A   1      27.700  31.207  23.545  1.00  0.00     0.145 C 
ATOM     21  C   UNL A   1      28.608  32.107  20.963  1.00  0.00     0.181 C 
ATOM     22  C   UNL A   1      28.490  32.507  23.291  1.00  0.00     0.181 C 
ATOM     23  O   UNL A   1      28.230  33.051  21.982  1.00  0.00    -0.378 OA
ENDBRANCH  12  18
ENDBRANCH   8   9
BRANCH   8  24
ATOM     24  N   UNL A   1      30.338  24.254  24.097  1.00  0.00    -0.343 N 
ATOM     25  H   UNL A   1      30.940  23.630  24.636  1.00  0.00     0.345 HD
ATOM     26  H   UNL A   1      30.497  24.103  23.102  1.00  0.00     0.345 HD
ATOM     27  H   UNL A   1      29.362  24.060  24.319  1.00  0.00     0.345 HD
ENDBRANCH   8  24
ENDBRANCH   5   8
ENDBRANCH   3   4
ENDBRANCH   2   3
ENDBRANCH   1   2
BRANCH   1  28
ATOM     28  C   UNL A   1      31.834  30.459  26.311  1.00  0.00     0.002 C 
BRANCH  28  29
ATOM     29  C   UNL A   1      31.549  31.938  26.580  1.00  0.00     0.021 C 
BRANCH  29  30
ATOM     30  C   UNL A   1      32.626  32.634  27.404  1.00  0.00     0.116 C 
BRANCH  30  31
ATOM     31  N   UNL A   1      32.340  34.047  27.582  1.00  0.00    -0.352 N 
ATOM     32  C   UNL A   1      32.902  34.935  28.465  1.00  0.00     0.251 C 
ATOM     33  H   UNL A   1      31.649  34.419  26.987  1.00  0.00     0.163 HD
ATOM     34  O   UNL A   1      32.411  36.039  28.645  1.00  0.00    -0.269 OA
BRANCH  32  35
ATOM     35  C   UNL A   1      34.101  34.520  29.222  1.00  0.00     0.039 A 
ATOM     36  C   UNL A   1      33.936  33.977  30.496  1.00  0.00     0.014 A 
ATOM     37  C   UNL A   1      35.373  34.627  28.651  1.00  0.00     0.014 A 
ATOM     38  C   UNL A   1      35.045  33.464  31.170  1.00  0.00     0.010 A 
ATOM     39  C   UNL A   1      36.464  34.053  29.294  1.00  0.00     0.010 A 
ATOM     40  C   UNL A   1      36.307  33.454  30.552  1.00  0.00    -0.014 A 
BRANCH  40  41
ATOM     41  C   UNL A   1      37.461  32.769  31.186  1.00  0.00     0.031 A 
ATOM     42  C   UNL A   1      38.126  31.608  30.503  1.00  0.00     0.074 A 
ATOM     43  C   UNL A   1      37.857  33.153  32.416  1.00  0.00     0.049 A 
ATOM     44  N   UNL A   1      39.091  30.839  30.937  1.00  0.00    -0.248 NA
ATOM     45  C   UNL A   1      37.626  31.248  29.166  1.00  0.00     0.031 C 
ATOM     46  C   UNL A   1      37.255  34.236  33.197  1.00  0.00     0.029 A 
ATOM     47  N   UNL A   1      38.845  32.666  33.234  1.00  0.00    -0.354 N 
ATOM     48  C   UNL A   1      39.308  29.902  29.936  1.00  0.00     0.074 A 
ATOM     49  C   UNL A   1      38.345  30.170  28.890  1.00  0.00     0.031 C 
ATOM     50  C   UNL A   1      37.894  34.339  34.372  1.00  0.00     0.029 A 
ATOM     51  C   UNL A   1      38.916  33.300  34.451  1.00  0.00     0.049 A 
ATOM     52  H   UNL A   1      39.447  31.931  32.975  1.00  0.00     0.167 HD
ATOM     53  C   UNL A   1      40.238  28.920  29.892  1.00  0.00     0.037 A 
ATOM     54  C   UNL A   1      39.699  33.057  35.520  1.00  0.00     0.037 A 
ATOM     55  C   UNL A   1      41.206  28.674  30.929  1.00  0.00     0.049 A 
ATOM     56  C   UNL A   1      40.704  31.939  35.448  1.00  0.00     0.074 A 
ATOM     57  C   UNL A   1      42.242  27.755  30.939  1.00  0.00     0.029 A 
ATOM     58  N   UNL A   1      41.251  29.340  32.145  1.00  0.00    -0.354 N 
ATOM     59  N   UNL A   1      40.962  31.121  34.458  1.00  0.00    -0.248 NA
ATOM     60  C   UNL A   1      41.529  31.711  36.643  1.00  0.00     0.031 C 
ATOM     61  C   UNL A   1      42.870  27.819  32.185  1.00  0.00     0.029 A 
ATOM     62  C   UNL A   1      42.268  28.820  32.929  1.00  0.00     0.049 A 
ATOM     63  H   UNL A   1      40.650  30.073  32.411  1.00  0.00     0.167 HD
ATOM     64  C   UNL A   1      41.987  30.295  34.901  1.00  0.00     0.074 A 
ATOM     65  C   UNL A   1      42.324  30.731  36.240  1.00  0.00     0.031 C 
ATOM     66  C   UNL A   1      42.589  29.263  34.261  1.00  0.00     0.037 A 
BRANCH  53  67
ATOM     67  C   UNL A   1      40.265  28.027  28.686  1.00  0.00     0.064 A 
ATOM     68  C   UNL A   1      41.004  28.357  27.540  1.00  0.00     0.173 A 
ATOM     69  C   UNL A   1      39.613  26.784  28.711  1.00  0.00     0.173 A 
ATOM     70  F   UNL A   1      41.638  29.536  27.461  1.00  0.00    -0.203 F 
ATOM     71  C   UNL A   1      41.078  27.482  26.459  1.00  0.00     0.198 A 
ATOM     72  C   UNL A   1      39.715  25.899  27.641  1.00  0.00     0.198 A 
ATOM     73  F   UNL A   1      38.899  26.417  29.786  1.00  0.00    -0.203 F 
ATOM     74  F   UNL A   1      41.764  27.831  25.362  1.00  0.00    -0.200 F 
ATOM     75  C   UNL A   1      40.444  26.249  26.516  1.00  0.00     0.200 A 
ATOM     76  F   UNL A   1      39.113  24.703  27.704  1.00  0.00    -0.200 F 
ATOM     77  F   UNL A   1      40.535  25.399  25.484  1.00  0.00    -0.200 F 
ENDBRANCH  53  67
BRANCH  54  78
ATOM     78  C   UNL A   1      39.552  33.869  36.757  1.00  0.00     0.064 A 
ATOM     79  C   UNL A   1      38.763  33.423  37.828  1.00  0.00     0.173 A 
ATOM     80  C   UNL A   1      40.168  35.123  36.882  1.00  0.00     0.173 A 
ATOM     81  F   UNL A   1      38.137  32.240  37.749  1.00  0.00    -0.203 F 
ATOM     82  C   UNL A   1      38.568  34.214  38.959  1.00  0.00     0.198 A 
ATOM     83  C   UNL A   1      40.002  35.898  38.029  1.00  0.00     0.198 A 
ATOM     84  F   UNL A   1      40.939  35.597  35.892  1.00  0.00    -0.203 F 
ATOM     85  F   UNL A   1      37.757  33.790  39.936  1.00  0.00    -0.200 F 
ATOM     86  C   UNL A   1      39.191  35.449  39.060  1.00  0.00     0.200 A 
ATOM     87  F   UNL A   1      40.621  37.081  38.130  1.00  0.00    -0.200 F 
ATOM     88  F   UNL A   1      39.001  36.210  40.146  1.00  0.00    -0.200 F 
ENDBRANCH  54  78
BRANCH  66  89
ATOM     89  C   UNL A   1      43.683  28.541  34.996  1.00  0.00     0.064 A 
ATOM     90  C   UNL A   1      45.018  28.964  34.923  1.00  0.00     0.173 A 
ATOM     91  C   UNL A   1      43.386  27.443  35.817  1.00  0.00     0.173 A 
ATOM     92  F   UNL A   1      45.357  29.999  34.138  1.00  0.00    -0.203 F 
ATOM     93  C   UNL A   1      46.020  28.298  35.624  1.00  0.00     0.198 A 
ATOM     94  C   UNL A   1      44.384  26.801  36.545  1.00  0.00     0.198 A 
ATOM     95  F   UNL A   1      42.124  27.002  35.929  1.00  0.00    -0.203 F 
ATOM     96  F   UNL A   1      47.295  28.689  35.497  1.00  0.00    -0.200 F 
ATOM     97  C   UNL A   1      45.700  27.224  36.441  1.00  0.00     0.200 A 
ATOM     98  F   UNL A   1      44.072  25.774  37.347  1.00  0.00    -0.200 F 
ATOM     99  F   UNL A   1      46.664  26.592  37.125  1.00  0.00    -0.200 F 
ENDBRANCH  66  89
ENDBRANCH  40  41
ENDBRANCH  32  35
ENDBRANCH  30  31
ENDBRANCH  29  30
ENDBRANCH  28  29
ENDBRANCH   1  28
TORSDOF 18
ENDMDL
MODEL 2
REMARK VINA RESULT:     -12.4      0.521      7.207
REMARK SMILES CCOc1cc(N2CCOCC2)ccc1[C@H]([NH3+])C(=O)NCCCCCCNC(=O)c1ccc(-c2c3nc(c(-c4c(F)c(F)c(F)c(F)c4F)c4ccc([nH]4)c(-c4c(F)c(F)c(F)c(F)c4F)c4nc(c(-c5c(F)c(F)c(F)c(F)c5F)c5ccc2[nH]5)C=C4)C=C3)cc1
REMARK SMILES IDX 23 1 22 2 21 3 20 4 18 5 19 6 16 8 15 9 4 10 5 11 6 12 14 13
REMARK SMILES IDX 13 14 3 15 2 16 1 17 7 18 8 19 12 20 9 21 11 22 10 23 17 24
REMARK SMILES IDX 24 28 25 29 26 30 27 31 28 32 29 34 30 35 31 36 92 37 32 38
REMARK SMILES IDX 91 39 33 40 34 41 35 42 85 43 36 44 90 45 84 46 86 47 37 48
REMARK SMILES IDX 89 49 83 50 82 51 38 53 70 54 50 55 69 56 51 57 54 58 68 59
REMARK SMILES IDX 87 60 52 61 53 62 67 64 88 65 55 66 39 67 40 68 48 69 41 70
REMARK SMILES IDX 42 71 46 72 49 73 43 74 44 75 47 76 45 77 71 78 72 79 80 80
REMARK SMILES IDX 73 81 74 82 78 83 81 84 75 85 76 86 79 87 77 88 56 89 57 90
REMARK SMILES IDX 65 91 58 92 59 93 63 94 66 95 60 96 61 97 64 98 62 99
REMARK H PARENT 20 7 17 25 17 26 17 27 27 33 86 52 54 63
REMARK Flexibility Score: inf
ROOT
ATOM      1  C   UNL A   1      32.638  29.922  26.844  1.00  0.00     0.002 C 
ENDROOT
BRANCH   1   2
ATOM      2  C   UNL A   1      31.970  28.691  27.468  1.00  0.00     0.021 C 
BRANCH   2   3
ATOM      3  C   UNL A   1      32.282  27.402  26.715  1.00  0.00     0.116 C 
BRANCH   3   4
ATOM      4  N   UNL A   1      31.221  26.453  26.975  1.00  0.00    -0.351 N 
ATOM      5  C   UNL A   1      30.345  25.882  26.096  1.00  0.00     0.283 C 
ATOM      6  O   UNL A   1      29.270  25.471  26.543  1.00  0.00    -0.268 OA
ATOM      7  H   UNL A   1      31.116  26.181  27.915  1.00  0.00     0.163 HD
BRANCH   5   8
ATOM      8  C   UNL A   1      30.683  25.811  24.579  1.00  0.00     0.306 C 
BRANCH   8   9
ATOM      9  C   UNL A   1      30.033  26.937  23.777  1.00  0.00     0.061 A 
ATOM     10  C   UNL A   1      30.790  28.033  23.316  1.00  0.00     0.131 A 
ATOM     11  C   UNL A   1      30.155  29.203  22.868  1.00  0.00     0.072 A 
ATOM     12  C   UNL A   1      28.758  29.298  22.854  1.00  0.00     0.040 A 
ATOM     13  C   UNL A   1      28.647  26.971  23.569  1.00  0.00     0.016 A 
ATOM     14  C   UNL A   1      28.023  28.143  23.138  1.00  0.00     0.027 A 
BRANCH  10  15
ATOM     15  O   UNL A   1      32.136  28.089  23.579  1.00  0.00    -0.493 OA
BRANCH  15  16
ATOM     16  C   UNL A   1      32.984  27.671  22.505  1.00  0.00     0.226 C 
ATOM     17  C   UNL A   1      34.248  28.510  22.405  1.00  0.00     0.049 C 
ENDBRANCH  15  16
ENDBRANCH  10  15
BRANCH  12  18
ATOM     18  N   UNL A   1      28.125  30.508  22.682  1.00  0.00    -0.367 N 
ATOM     19  C   UNL A   1      27.655  30.929  21.357  1.00  0.00     0.145 C 
ATOM     20  C   UNL A   1      28.095  31.541  23.718  1.00  0.00     0.145 C 
ATOM     21  C   UNL A   1      28.360  32.223  20.931  1.00  0.00     0.181 C 
ATOM     22  C   UNL A   1      28.783  32.813  23.182  1.00  0.00     0.181 C 
ATOM     23  O   UNL A   1      28.217  33.248  21.931  1.00  0.00    -0.378 OA
ENDBRANCH  12  18
ENDBRANCH   8   9
BRANCH   8  24
ATOM     24  N   UNL A   1      30.388  24.437  24.095  1.00  0.00    -0.343 N 
ATOM     25  H   UNL A   1      29.743  24.485  23.306  1.00  0.00     0.345 HD
ATOM     26  H   UNL A   1      29.964  23.895  24.847  1.00  0.00     0.345 HD
ATOM     27  H   UNL A   1      31.255  23.987  23.799  1.00  0.00     0.345 HD
ENDBRANCH   8  24
ENDBRANCH   5   8
ENDBRANCH   3   4
ENDBRANCH   2   3
ENDBRANCH   1   2
BRANCH   1  28
ATOM     28  C   UNL A   1      31.701  30.781  25.989  1.00  0.00     0.002 C 
BRANCH  28  29
ATOM     29  C   UNL A   1      31.393  32.156  26.584  1.00  0.00     0.021 C 
BRANCH  29  30
ATOM     30  C   UNL A   1      32.559  32.773  27.346  1.00  0.00     0.116 C 
BRANCH  30  31
ATOM     31  N   UNL A   1      32.352  34.189  27.596  1.00  0.00    -0.352 N 
ATOM     32  C   UNL A   1      32.949  34.996  28.533  1.00  0.00     0.251 C 
ATOM     33  H   UNL A   1      31.693  34.631  27.013  1.00  0.00     0.163 HD
ATOM     34  O   UNL A   1      32.519  36.115  28.765  1.00  0.00    -0.269 OA
BRANCH  32  35
ATOM     35  C   UNL A   1      34.110  34.473  29.282  1.00  0.00     0.039 A 
ATOM     36  C   UNL A   1      33.898  33.895  30.533  1.00  0.00     0.014 A 
ATOM     37  C   UNL A   1      35.392  34.515  28.724  1.00  0.00     0.014 A 
ATOM     38  C   UNL A   1      34.963  33.285  31.195  1.00  0.00     0.010 A 
ATOM     39  C   UNL A   1      36.436  33.845  29.351  1.00  0.00     0.010 A 
ATOM     40  C   UNL A   1      36.227  33.211  30.586  1.00  0.00    -0.014 A 
BRANCH  40  41
ATOM     41  C   UNL A   1      37.327  32.427  31.201  1.00  0.00     0.031 A 
ATOM     42  C   UNL A   1      37.854  32.792  32.559  1.00  0.00     0.074 A 
ATOM     43  C   UNL A   1      37.898  31.432  30.494  1.00  0.00     0.049 A 
ATOM     44  N   UNL A   1      38.858  32.275  33.220  1.00  0.00    -0.248 NA
ATOM     45  C   UNL A   1      37.180  33.896  33.259  1.00  0.00     0.031 C 
ATOM     46  C   UNL A   1      37.502  31.019  29.145  1.00  0.00     0.029 A 
ATOM     47  N   UNL A   1      38.944  30.598  30.800  1.00  0.00    -0.354 N 
ATOM     48  C   UNL A   1      38.942  32.994  34.404  1.00  0.00     0.074 A 
ATOM     49  C   UNL A   1      37.916  34.013  34.355  1.00  0.00     0.031 C 
ATOM     50  C   UNL A   1      38.285  30.005  28.747  1.00  0.00     0.029 A 
ATOM     51  C   UNL A   1      39.269  29.727  29.788  1.00  0.00     0.049 A 
ATOM     52  H   UNL A   1      39.417  30.621  31.663  1.00  0.00     0.167 HD
ATOM     53  C   UNL A   1      39.790  32.806  35.442  1.00  0.00     0.037 A 
ATOM     54  C   UNL A   1      40.263  28.823  29.699  1.00  0.00     0.037 A 
ATOM     55  C   UNL A   1      40.795  31.776  35.491  1.00  0.00     0.049 A 
ATOM     56  C   UNL A   1      41.206  28.658  30.860  1.00  0.00     0.074 A 
ATOM     57  C   UNL A   1      41.647  31.454  36.534  1.00  0.00     0.029 A 
ATOM     58  N   UNL A   1      41.093  30.909  34.450  1.00  0.00    -0.354 N 
ATOM     59  N   UNL A   1      41.217  29.282  32.012  1.00  0.00    -0.248 NA
ATOM     60  C   UNL A   1      42.278  27.664  30.709  1.00  0.00     0.031 C 
ATOM     61  C   UNL A   1      42.504  30.439  36.100  1.00  0.00     0.029 A 
ATOM     62  C   UNL A   1      42.146  30.084  34.810  1.00  0.00     0.049 A 
ATOM     63  H   UNL A   1      40.625  30.884  33.584  1.00  0.00     0.167 HD
ATOM     64  C   UNL A   1      42.277  28.745  32.729  1.00  0.00     0.074 A 
ATOM     65  C   UNL A   1      42.871  27.723  31.892  1.00  0.00     0.031 C 
ATOM     66  C   UNL A   1      42.727  29.074  33.965  1.00  0.00     0.037 A 
BRANCH  53  67
ATOM     67  C   UNL A   1      39.681  33.730  36.619  1.00  0.00     0.064 A 
ATOM     68  C   UNL A   1      40.318  34.980  36.638  1.00  0.00     0.173 A 
ATOM     69  C   UNL A   1      38.858  33.398  37.706  1.00  0.00     0.173 A 
ATOM     70  F   UNL A   1      41.123  35.343  35.629  1.00  0.00    -0.203 F 
ATOM     71  C   UNL A   1      40.146  35.856  37.707  1.00  0.00     0.198 A 
ATOM     72  C   UNL A   1      38.664  34.288  38.759  1.00  0.00     0.198 A 
ATOM     73  F   UNL A   1      38.220  32.218  37.735  1.00  0.00    -0.203 F 
ATOM     74  F   UNL A   1      40.788  37.032  37.718  1.00  0.00    -0.200 F 
ATOM     75  C   UNL A   1      39.309  35.515  38.760  1.00  0.00     0.200 A 
ATOM     76  F   UNL A   1      37.843  33.962  39.767  1.00  0.00    -0.200 F 
ATOM     77  F   UNL A   1      39.126  36.369  39.777  1.00  0.00    -0.200 F 
ENDBRANCH  53  67
BRANCH  54  78
ATOM     78  C   UNL A   1      40.436  28.018  28.460  1.00  0.00     0.064 A 
ATOM     79  C   UNL A   1      39.872  26.740  28.340  1.00  0.00     0.173 A 
ATOM     80  C   UNL A   1      41.200  28.494  27.383  1.00  0.00     0.173 A 
ATOM     81  F   UNL A   1      39.149  26.231  29.349  1.00  0.00    -0.203 F 
ATOM     82  C   UNL A   1      40.091  25.958  27.208  1.00  0.00     0.198 A 
ATOM     83  C   UNL A   1      41.390  27.725  26.237  1.00  0.00     0.198 A 
ATOM     84  F   UNL A   1      41.759  29.713  27.441  1.00  0.00    -0.203 F 
ATOM     85  F   UNL A   1      39.593  24.716  27.149  1.00  0.00    -0.200 F 
ATOM     86  C   UNL A   1      40.847  26.453  26.155  1.00  0.00     0.200 A 
ATOM     87  F   UNL A   1      42.105  28.216  25.216  1.00  0.00    -0.200 F 
ATOM     88  F   UNL A   1      41.061  25.698  25.069  1.00  0.00    -0.200 F 
ENDBRANCH  54  78
BRANCH  66  89
ATOM     89  C   UNL A   1      43.910  28.313  34.492  1.00  0.00     0.064 A 
ATOM     90  C   UNL A   1      43.757  27.089  35.159  1.00  0.00     0.173 A 
ATOM     91  C   UNL A   1      45.213  28.792  34.290  1.00  0.00     0.173 A 
ATOM     92  F   UNL A   1      42.530  26.596  35.392  1.00  0.00    -0.203 F 
ATOM     93  C   UNL A   1      44.863  26.384  35.626  1.00  0.00     0.198 A 
ATOM     94  C   UNL A   1      46.319  28.068  34.727  1.00  0.00     0.198 A 
ATOM     95  F   UNL A   1      45.416  29.954  33.652  1.00  0.00    -0.203 F 
ATOM     96  F   UNL A   1      44.688  25.242  36.305  1.00  0.00    -0.200 F 
ATOM     97  C   UNL A   1      46.143  26.870  35.401  1.00  0.00     0.200 A 
ATOM     98  F   UNL A   1      47.555  28.530  34.494  1.00  0.00    -0.200 F 
ATOM     99  F   UNL A   1      47.207  26.184  35.841  1.00  0.00    -0.200 F 
ENDBRANCH  66  89
ENDBRANCH  40  41
ENDBRANCH  32  35
ENDBRANCH  30  31
ENDBRANCH  29  30
ENDBRANCH  28  29
ENDBRANCH   1  28
TORSDOF 18
ENDMDL
MODEL 3
REMARK VINA RESULT:     -12.0      6.317     11.716
REMARK SMILES CCOc1cc(N2CCOCC2)ccc1[C@H]([NH3+])C(=O)NCCCCCCNC(=O)c1ccc(-c2c3nc(c(-c4c(F)c(F)c(F)c(F)c4F)c4ccc([nH]4)c(-c4c(F)c(F)c(F)c(F)c4F)c4nc(c(-c5c(F)c(F)c(F)c(F)c5F)c5ccc2[nH]5)C=C4)C=C3)cc1
REMARK SMILES IDX 23 1 22 2 21 3 20 4 18 5 19 6 16 8 15 9 4 10 5 11 6 12 14 13
REMARK SMILES IDX 13 14 3 15 2 16 1 17 7 18 8 19 12 20 9 21 11 22 10 23 17 24
REMARK SMILES IDX 24 28 25 29 26 30 27 31 28 32 29 34 30 35 31 36 92 37 32 38
REMARK SMILES IDX 91 39 33 40 34 41 35 42 85 43 36 44 90 45 84 46 86 47 37 48
REMARK SMILES IDX 89 49 83 50 82 51 38 53 70 54 50 55 69 56 51 57 54 58 68 59
REMARK SMILES IDX 87 60 52 61 53 62 67 64 88 65 55 66 39 67 40 68 48 69 41 70
REMARK SMILES IDX 42 71 46 72 49 73 43 74 44 75 47 76 45 77 71 78 72 79 80 80
REMARK SMILES IDX 73 81 74 82 78 83 81 84 75 85 76 86 79 87 77 88 56 89 57 90
REMARK SMILES IDX 65 91 58 92 59 93 63 94 66 95 60 96 61 97 64 98 62 99
REMARK H PARENT 20 7 17 25 17 26 17 27 27 33 86 52 54 63
REMARK Flexibility Score: inf
ROOT
ATOM      1  C   UNL A   1      36.485  22.022  24.191  1.00  0.00     0.002 C 
ENDROOT
BRANCH   1   2
ATOM      2  C   UNL A   1      36.526  23.477  24.673  1.00  0.00     0.021 C 
BRANCH   2   3
ATOM      3  C   UNL A   1      35.648  23.721  25.896  1.00  0.00     0.116 C 
BRANCH   3   4
ATOM      4  N   UNL A   1      34.825  24.884  25.643  1.00  0.00    -0.351 N 
ATOM      5  C   UNL A   1      33.467  24.964  25.516  1.00  0.00     0.283 C 
ATOM      6  O   UNL A   1      33.006  25.915  24.878  1.00  0.00    -0.268 OA
ATOM      7  H   UNL A   1      35.310  25.735  25.551  1.00  0.00     0.163 HD
BRANCH   5   8
ATOM      8  C   UNL A   1      32.552  23.856  26.112  1.00  0.00     0.306 C 
BRANCH   8   9
ATOM      9  C   UNL A   1      32.914  22.459  25.613  1.00  0.00     0.061 A 
ATOM     10  C   UNL A   1      32.782  22.115  24.252  1.00  0.00     0.131 A 
ATOM     11  C   UNL A   1      32.804  20.769  23.849  1.00  0.00     0.072 A 
ATOM     12  C   UNL A   1      32.976  19.744  24.788  1.00  0.00     0.040 A 
ATOM     13  C   UNL A   1      33.284  21.445  26.507  1.00  0.00     0.016 A 
ATOM     14  C   UNL A   1      33.289  20.109  26.101  1.00  0.00     0.027 A 
BRANCH  10  15
ATOM     15  O   UNL A   1      32.331  23.050  23.355  1.00  0.00    -0.493 OA
BRANCH  15  16
ATOM     16  C   UNL A   1      33.248  23.380  22.307  1.00  0.00     0.226 C 
ATOM     17  C   UNL A   1      32.903  24.696  21.629  1.00  0.00     0.049 C 
ENDBRANCH  15  16
ENDBRANCH  10  15
BRANCH  12  18
ATOM     18  N   UNL A   1      32.732  18.429  24.464  1.00  0.00    -0.367 N 
ATOM     19  C   UNL A   1      32.528  17.423  25.512  1.00  0.00     0.145 C 
ATOM     20  C   UNL A   1      32.900  17.903  23.109  1.00  0.00     0.145 C 
ATOM     21  C   UNL A   1      33.609  16.338  25.422  1.00  0.00     0.181 C 
ATOM     22  C   UNL A   1      33.968  16.791  23.128  1.00  0.00     0.181 C 
ATOM     23  O   UNL A   1      33.670  15.770  24.101  1.00  0.00    -0.378 OA
ENDBRANCH  12  18
ENDBRANCH   8   9
BRANCH   8  24
ATOM     24  N   UNL A   1      31.135  24.256  25.905  1.00  0.00    -0.343 N 
ATOM     25  H   UNL A   1      31.084  24.954  25.163  1.00  0.00     0.345 HD
ATOM     26  H   UNL A   1      30.763  24.649  26.768  1.00  0.00     0.345 HD
ATOM     27  H   UNL A   1      30.586  23.437  25.639  1.00  0.00     0.345 HD
ENDBRANCH   8  24
ENDBRANCH   5   8
ENDBRANCH   3   4
ENDBRANCH   2   3
ENDBRANCH   1   2
BRANCH   1  28
ATOM     28  C   UNL A   1      36.756  20.988  25.289  1.00  0.00     0.002 C 
BRANCH  28  29
ATOM     29  C   UNL A   1      37.942  20.065  25.003  1.00  0.00     0.021 C 
BRANCH  29  30
ATOM     30  C   UNL A   1      39.198  20.413  25.791  1.00  0.00     0.116 C 
BRANCH  30  31
ATOM     31  N   UNL A   1      40.085  19.270  25.926  1.00  0.00    -0.352 N 
ATOM     32  C   UNL A   1      41.446  19.253  26.109  1.00  0.00     0.251 C 
ATOM     33  H   UNL A   1      39.652  18.388  25.879  1.00  0.00     0.163 HD
ATOM     34  O   UNL A   1      42.083  18.218  25.991  1.00  0.00    -0.269 OA
BRANCH  32  35
ATOM     35  C   UNL A   1      42.136  20.520  26.425  1.00  0.00     0.039 A 
ATOM     36  C   UNL A   1      42.604  21.310  25.375  1.00  0.00     0.014 A 
ATOM     37  C   UNL A   1      42.273  20.942  27.751  1.00  0.00     0.014 A 
ATOM     38  C   UNL A   1      43.142  22.567  25.652  1.00  0.00     0.010 A 
ATOM     39  C   UNL A   1      42.745  22.222  28.020  1.00  0.00     0.010 A 
ATOM     40  C   UNL A   1      43.170  23.052  26.971  1.00  0.00    -0.014 A 
BRANCH  40  41
ATOM     41  C   UNL A   1      43.589  24.445  27.263  1.00  0.00     0.031 A 
ATOM     42  C   UNL A   1      42.592  25.449  27.768  1.00  0.00     0.074 A 
ATOM     43  C   UNL A   1      44.856  24.818  26.999  1.00  0.00     0.049 A 
ATOM     44  N   UNL A   1      42.754  26.726  28.001  1.00  0.00    -0.248 NA
ATOM     45  C   UNL A   1      41.227  24.960  28.022  1.00  0.00     0.031 C 
ATOM     46  C   UNL A   1      45.900  23.942  26.461  1.00  0.00     0.029 A 
ATOM     47  N   UNL A   1      45.480  26.034  27.127  1.00  0.00    -0.354 N 
ATOM     48  C   UNL A   1      41.516  27.194  28.419  1.00  0.00     0.074 A 
ATOM     49  C   UNL A   1      40.600  26.076  28.367  1.00  0.00     0.031 C 
ATOM     50  C   UNL A   1      47.034  24.645  26.319  1.00  0.00     0.029 A 
ATOM     51  C   UNL A   1      46.788  26.030  26.706  1.00  0.00     0.049 A 
ATOM     52  H   UNL A   1      45.033  26.834  27.486  1.00  0.00     0.167 HD
ATOM     53  C   UNL A   1      41.183  28.442  28.825  1.00  0.00     0.037 A 
ATOM     54  C   UNL A   1      47.682  27.034  26.618  1.00  0.00     0.037 A 
ATOM     55  C   UNL A   1      42.107  29.544  28.894  1.00  0.00     0.049 A 
ATOM     56  C   UNL A   1      47.271  28.416  27.052  1.00  0.00     0.074 A 
ATOM     57  C   UNL A   1      41.884  30.825  29.371  1.00  0.00     0.029 A 
ATOM     58  N   UNL A   1      43.425  29.502  28.465  1.00  0.00    -0.354 N 
ATOM     59  N   UNL A   1      46.123  28.825  27.534  1.00  0.00    -0.248 NA
ATOM     60  C   UNL A   1      48.281  29.477  26.930  1.00  0.00     0.031 C 
ATOM     61  C   UNL A   1      43.045  31.575  29.168  1.00  0.00     0.029 A 
ATOM     62  C   UNL A   1      44.013  30.747  28.623  1.00  0.00     0.049 A 
ATOM     63  H   UNL A   1      43.876  28.705  28.102  1.00  0.00     0.167 HD
ATOM     64  C   UNL A   1      46.277  30.181  27.789  1.00  0.00     0.074 A 
ATOM     65  C   UNL A   1      47.639  30.520  27.436  1.00  0.00     0.031 C 
ATOM     66  C   UNL A   1      45.369  31.069  28.264  1.00  0.00     0.037 A 
BRANCH  53  67
ATOM     67  C   UNL A   1      39.761  28.698  29.229  1.00  0.00     0.064 A 
ATOM     68  C   UNL A   1      39.328  28.531  30.553  1.00  0.00     0.173 A 
ATOM     69  C   UNL A   1      38.839  29.198  28.296  1.00  0.00     0.173 A 
ATOM     70  F   UNL A   1      40.166  28.047  31.482  1.00  0.00    -0.203 F 
ATOM     71  C   UNL A   1      38.023  28.844  30.924  1.00  0.00     0.198 A 
ATOM     72  C   UNL A   1      37.544  29.538  28.678  1.00  0.00     0.198 A 
ATOM     73  F   UNL A   1      39.204  29.382  27.018  1.00  0.00    -0.203 F 
ATOM     74  F   UNL A   1      37.623  28.648  32.189  1.00  0.00    -0.200 F 
ATOM     75  C   UNL A   1      37.137  29.358  29.990  1.00  0.00     0.200 A 
ATOM     76  F   UNL A   1      36.695  30.049  27.776  1.00  0.00    -0.200 F 
ATOM     77  F   UNL A   1      35.887  29.680  30.354  1.00  0.00    -0.200 F 
ENDBRANCH  53  67
BRANCH  54  78
ATOM     78  C   UNL A   1      49.044  26.781  26.079  1.00  0.00     0.064 A 
ATOM     79  C   UNL A   1      49.344  27.010  24.729  1.00  0.00     0.173 A 
ATOM     80  C   UNL A   1      50.066  26.269  26.894  1.00  0.00     0.173 A 
ATOM     81  F   UNL A   1      48.397  27.480  23.904  1.00  0.00    -0.203 F 
ATOM     82  C   UNL A   1      50.601  26.707  24.207  1.00  0.00     0.198 A 
ATOM     83  C   UNL A   1      51.333  26.000  26.379  1.00  0.00     0.198 A 
ATOM     84  F   UNL A   1      49.837  26.036  28.195  1.00  0.00    -0.203 F 
ATOM     85  F   UNL A   1      50.838  26.875  22.900  1.00  0.00    -0.200 F 
ATOM     86  C   UNL A   1      51.595  26.206  25.034  1.00  0.00     0.200 A 
ATOM     87  F   UNL A   1      52.295  25.534  27.186  1.00  0.00    -0.200 F 
ATOM     88  F   UNL A   1      52.801  25.911  24.531  1.00  0.00    -0.200 F 
ENDBRANCH  54  78
BRANCH  66  89
ATOM     89  C   UNL A   1      45.824  32.490  28.442  1.00  0.00     0.064 A 
ATOM     90  C   UNL A   1      46.445  32.918  29.624  1.00  0.00     0.173 A 
ATOM     91  C   UNL A   1      45.676  33.421  27.402  1.00  0.00     0.173 A 
ATOM     92  F   UNL A   1      46.594  32.071  30.654  1.00  0.00    -0.203 F 
ATOM     93  C   UNL A   1      46.879  34.233  29.769  1.00  0.00     0.198 A 
ATOM     94  C   UNL A   1      46.143  34.725  27.537  1.00  0.00     0.198 A 
ATOM     95  F   UNL A   1      45.096  33.061  26.248  1.00  0.00    -0.203 F 
ATOM     96  F   UNL A   1      47.423  34.632  30.926  1.00  0.00    -0.200 F 
ATOM     97  C   UNL A   1      46.736  35.132  28.722  1.00  0.00     0.200 A 
ATOM     98  F   UNL A   1      46.020  35.588  26.519  1.00  0.00    -0.200 F 
ATOM     99  F   UNL A   1      47.166  36.394  28.859  1.00  0.00    -0.200 F 
ENDBRANCH  66  89
ENDBRANCH  40  41
ENDBRANCH  32  35
ENDBRANCH  30  31
ENDBRANCH  29  30
ENDBRANCH  28  29
ENDBRANCH   1  28
TORSDOF 18
ENDMDL
