MODEL 1
REMARK VINA RESULT:     -11.5      0.000      0.000
REMARK SMILES COC(=O)C[C@H](c1ccc(C(=O)NCCCCCCNC(=O)c2ccc(-c3c4nc(c(-c5c(F)c(F)c(F)c(F)c5F)c5ccc([nH]5)c(-c5c(F)c(F)c(F)c(F)c5F)c5nc(c(-c6c(F)c(F)c(F)c(F)c6F)c6ccc3[nH]6)C=C5)C=C4)cc2)cc1)c1c(O)n[nH]c1C
REMARK SMILES IDX 15 1 14 2 13 3 11 4 12 5 10 7 7 8 8 9 87 10 9 11 86 12 6 13
REMARK SMILES IDX 5 14 3 15 4 16 2 17 1 18 88 19 89 20 93 21 91 22 92 23 94 24
REMARK SMILES IDX 90 26 16 28 17 29 18 30 19 31 20 32 21 33 22 35 23 36 24 37
REMARK SMILES IDX 85 38 25 39 84 40 26 41 27 42 28 43 78 44 29 45 83 46 77 47
REMARK SMILES IDX 79 48 30 49 82 50 76 51 75 52 31 54 63 55 43 56 62 57 44 58
REMARK SMILES IDX 47 59 61 60 80 61 45 62 46 63 60 65 81 66 48 67 32 68 33 69
REMARK SMILES IDX 41 70 34 71 35 72 39 73 42 74 36 75 37 76 40 77 38 78 64 79
REMARK SMILES IDX 65 80 73 81 66 82 67 83 71 84 74 85 68 86 69 87 72 88 70 89
REMARK SMILES IDX 49 90 50 91 58 92 51 93 52 94 56 95 59 96 53 97 54 98 57 99
REMARK SMILES IDX 55 100
REMARK H PARENT 13 6 92 25 90 27 20 34 79 53 47 64
REMARK Flexibility Score: inf
ROOT
ATOM      1  C   UNL A   1      31.503  28.108  23.016  1.00  0.00     0.021 C 
ENDROOT
BRANCH   1   2
ATOM      2  C   UNL A   1      31.001  26.731  22.578  1.00  0.00     0.116 C 
BRANCH   2   3
ATOM      3  N   UNL A   1      31.737  26.285  21.412  1.00  0.00    -0.352 N 
ATOM      4  C   UNL A   1      32.841  25.484  21.293  1.00  0.00     0.251 C 
ATOM      5  O   UNL A   1      33.276  25.239  20.169  1.00  0.00    -0.269 OA
ATOM      6  H   UNL A   1      31.381  26.616  20.555  1.00  0.00     0.163 HD
BRANCH   4   7
ATOM      7  C   UNL A   1      33.467  24.843  22.474  1.00  0.00     0.039 A 
ATOM      8  C   UNL A   1      34.521  23.457  24.692  1.00  0.00    -0.040 A 
ATOM      9  C   UNL A   1      34.107  22.767  23.541  1.00  0.00     0.005 A 
ATOM     10  C   UNL A   1      34.458  24.861  24.685  1.00  0.00     0.005 A 
ATOM     11  C   UNL A   1      33.585  23.452  22.444  1.00  0.00     0.014 A 
ATOM     12  C   UNL A   1      33.952  25.549  23.576  1.00  0.00     0.014 A 
BRANCH   8  13
ATOM     13  C   UNL A   1      34.993  22.727  25.944  1.00  0.00     0.068 C 
BRANCH  13  14
ATOM     14  C   UNL A   1      34.004  21.713  26.532  1.00  0.00     0.136 C 
BRANCH  14  15
ATOM     15  C   UNL A   1      32.849  22.387  27.231  1.00  0.00     0.306 C 
ATOM     16  O   UNL A   1      32.932  22.897  28.340  1.00  0.00    -0.252 OA
BRANCH  15  17
ATOM     17  O   UNL A   1      31.728  22.383  26.458  1.00  0.00    -0.469 OA
ATOM     18  C   UNL A   1      31.177  23.681  26.230  1.00  0.00     0.282 C 
ENDBRANCH  15  17
ENDBRANCH  14  15
ENDBRANCH  13  14
BRANCH  13  19
ATOM     19  C   UNL A   1      36.332  22.110  25.635  1.00  0.00     0.044 A 
ATOM     20  C   UNL A   1      36.678  20.809  25.224  1.00  0.00     0.234 A 
ATOM     21  C   UNL A   1      37.577  22.722  25.752  1.00  0.00     0.040 A 
ATOM     22  N   UNL A   1      37.972  20.601  25.045  1.00  0.00    -0.137 NA
ATOM     23  N   UNL A   1      38.506  21.789  25.368  1.00  0.00    -0.279 N 
ATOM     24  C   UNL A   1      37.971  24.078  26.199  1.00  0.00     0.066 C 
ATOM     25  H   UNL A   1      39.472  21.973  25.333  1.00  0.00     0.190 HD
BRANCH  20  26
ATOM     26  O   UNL A   1      35.918  19.745  24.994  1.00  0.00    -0.492 OA
ATOM     27  H   UNL A   1      36.203  19.087  24.391  1.00  0.00     0.295 HD
ENDBRANCH  20  26
ENDBRANCH  13  19
ENDBRANCH   8  13
ENDBRANCH   4   7
ENDBRANCH   2   3
ENDBRANCH   1   2
BRANCH   1  28
ATOM     28  C   UNL A   1      31.121  28.463  24.460  1.00  0.00     0.002 C 
BRANCH  28  29
ATOM     29  C   UNL A   1      31.624  27.473  25.517  1.00  0.00     0.002 C 
BRANCH  29  30
ATOM     30  C   UNL A   1      32.666  28.036  26.488  1.00  0.00     0.021 C 
BRANCH  30  31
ATOM     31  C   UNL A   1      33.610  29.070  25.880  1.00  0.00     0.116 C 
BRANCH  31  32
ATOM     32  N   UNL A   1      33.275  30.421  26.298  1.00  0.00    -0.352 N 
ATOM     33  C   UNL A   1      33.841  31.202  27.271  1.00  0.00     0.251 C 
ATOM     34  H   UNL A   1      32.529  30.837  25.810  1.00  0.00     0.163 HD
ATOM     35  O   UNL A   1      33.286  32.238  27.623  1.00  0.00    -0.269 OA
BRANCH  33  36
ATOM     36  C   UNL A   1      35.115  30.803  27.909  1.00  0.00     0.039 A 
ATOM     37  C   UNL A   1      35.113  29.698  28.765  1.00  0.00     0.014 A 
ATOM     38  C   UNL A   1      36.291  31.536  27.715  1.00  0.00     0.014 A 
ATOM     39  C   UNL A   1      36.294  29.308  29.396  1.00  0.00     0.010 A 
ATOM     40  C   UNL A   1      37.483  31.107  28.296  1.00  0.00     0.010 A 
ATOM     41  C   UNL A   1      37.493  29.997  29.152  1.00  0.00    -0.014 A 
BRANCH  41  42
ATOM     42  C   UNL A   1      38.754  29.553  29.795  1.00  0.00     0.031 A 
ATOM     43  C   UNL A   1      39.179  30.114  31.122  1.00  0.00     0.074 A 
ATOM     44  C   UNL A   1      39.530  28.650  29.165  1.00  0.00     0.049 A 
ATOM     45  N   UNL A   1      40.221  29.808  31.855  1.00  0.00    -0.248 NA
ATOM     46  C   UNL A   1      38.337  31.177  31.693  1.00  0.00     0.031 C 
ATOM     47  C   UNL A   1      39.260  28.083  27.843  1.00  0.00     0.029 A 
ATOM     48  N   UNL A   1      40.698  28.046  29.554  1.00  0.00    -0.354 N 
ATOM     49  C   UNL A   1      40.162  30.640  32.965  1.00  0.00     0.074 A 
ATOM     50  C   UNL A   1      39.014  31.502  32.785  1.00  0.00     0.031 C 
ATOM     51  C   UNL A   1      40.216  27.190  27.545  1.00  0.00     0.029 A 
ATOM     52  C   UNL A   1      41.173  27.133  28.646  1.00  0.00     0.049 A 
ATOM     53  H   UNL A   1      41.154  28.249  30.404  1.00  0.00     0.167 HD
ATOM     54  C   UNL A   1      40.977  30.665  34.048  1.00  0.00     0.037 A 
ATOM     55  C   UNL A   1      42.250  26.328  28.703  1.00  0.00     0.037 A 
ATOM     56  C   UNL A   1      42.104  29.789  34.233  1.00  0.00     0.049 A 
ATOM     57  C   UNL A   1      43.115  26.346  29.933  1.00  0.00     0.074 A 
ATOM     58  C   UNL A   1      42.953  29.691  35.322  1.00  0.00     0.029 A 
ATOM     59  N   UNL A   1      42.542  28.858  33.303  1.00  0.00    -0.354 N 
ATOM     60  N   UNL A   1      43.001  27.078  31.015  1.00  0.00    -0.248 NA
ATOM     61  C   UNL A   1      44.249  25.412  29.956  1.00  0.00     0.031 C 
ATOM     62  C   UNL A   1      43.928  28.727  35.035  1.00  0.00     0.029 A 
ATOM     63  C   UNL A   1      43.659  28.194  33.784  1.00  0.00     0.049 A 
ATOM     64  H   UNL A   1      42.120  28.693  32.428  1.00  0.00     0.167 HD
ATOM     65  C   UNL A   1      44.032  26.682  31.853  1.00  0.00     0.074 A 
ATOM     66  C   UNL A   1      44.747  25.626  31.165  1.00  0.00     0.031 C 
ATOM     67  C   UNL A   1      44.363  27.152  33.081  1.00  0.00     0.037 A 
BRANCH  54  68
ATOM     68  C   UNL A   1      40.671  31.669  35.120  1.00  0.00     0.064 A 
ATOM     69  C   UNL A   1      41.344  32.899  35.189  1.00  0.00     0.173 A 
ATOM     70  C   UNL A   1      39.670  31.417  36.070  1.00  0.00     0.173 A 
ATOM     71  F   UNL A   1      42.318  33.184  34.311  1.00  0.00    -0.203 F 
ATOM     72  C   UNL A   1      41.048  33.825  36.186  1.00  0.00     0.198 A 
ATOM     73  C   UNL A   1      39.356  32.357  37.048  1.00  0.00     0.198 A 
ATOM     74  F   UNL A   1      38.991  30.260  36.047  1.00  0.00    -0.203 F 
ATOM     75  F   UNL A   1      41.738  34.971  36.260  1.00  0.00    -0.200 F 
ATOM     76  C   UNL A   1      40.049  33.556  37.110  1.00  0.00     0.200 A 
ATOM     77  F   UNL A   1      38.383  32.101  37.935  1.00  0.00    -0.200 F 
ATOM     78  F   UNL A   1      39.761  34.451  38.066  1.00  0.00    -0.200 F 
ENDBRANCH  54  68
BRANCH  55  79
ATOM     79  C   UNL A   1      42.540  25.402  27.580  1.00  0.00     0.064 A 
ATOM     80  C   UNL A   1      41.850  24.188  27.452  1.00  0.00     0.173 A 
ATOM     81  C   UNL A   1      43.504  25.711  26.610  1.00  0.00     0.173 A 
ATOM     82  F   UNL A   1      40.931  23.842  28.366  1.00  0.00    -0.203 F 
ATOM     83  C   UNL A   1      42.127  23.309  26.407  1.00  0.00     0.198 A 
ATOM     84  C   UNL A   1      43.763  24.843  25.551  1.00  0.00     0.198 A 
ATOM     85  F   UNL A   1      44.187  26.863  26.684  1.00  0.00    -0.203 F 
ATOM     86  F   UNL A   1      41.483  22.137  26.333  1.00  0.00    -0.200 F 
ATOM     87  C   UNL A   1      43.080  23.640  25.456  1.00  0.00     0.200 A 
ATOM     88  F   UNL A   1      44.675  25.171  24.626  1.00  0.00    -0.200 F 
ATOM     89  F   UNL A   1      43.344  22.796  24.448  1.00  0.00    -0.200 F 
ENDBRANCH  55  79
BRANCH  67  90
ATOM     90  C   UNL A   1      45.542  26.516  33.757  1.00  0.00     0.064 A 
ATOM     91  C   UNL A   1      46.843  27.014  33.585  1.00  0.00     0.173 A 
ATOM     92  C   UNL A   1      45.370  25.398  34.588  1.00  0.00     0.173 A 
ATOM     93  F   UNL A   1      47.059  28.072  32.788  1.00  0.00    -0.203 F 
ATOM     94  C   UNL A   1      47.932  26.396  34.192  1.00  0.00     0.198 A 
ATOM     95  C   UNL A   1      46.459  24.800  35.217  1.00  0.00     0.198 A 
ATOM     96  F   UNL A   1      44.147  24.886  34.789  1.00  0.00    -0.203 F 
ATOM     97  F   UNL A   1      49.170  26.854  33.966  1.00  0.00    -0.200 F 
ATOM     98  C   UNL A   1      47.739  25.292  35.009  1.00  0.00     0.200 A 
ATOM     99  F   UNL A   1      46.271  23.740  36.015  1.00  0.00    -0.200 F 
ATOM    100  F   UNL A   1      48.789  24.695  35.589  1.00  0.00    -0.200 F 
ENDBRANCH  67  90
ENDBRANCH  41  42
ENDBRANCH  33  36
ENDBRANCH  31  32
ENDBRANCH  30  31
ENDBRANCH  29  30
ENDBRANCH  28  29
ENDBRANCH   1  28
TORSDOF 19
ENDMDL
MODEL 2
REMARK VINA RESULT:     -11.3      2.308      3.618
REMARK SMILES COC(=O)C[C@H](c1ccc(C(=O)NCCCCCCNC(=O)c2ccc(-c3c4nc(c(-c5c(F)c(F)c(F)c(F)c5F)c5ccc([nH]5)c(-c5c(F)c(F)c(F)c(F)c5F)c5nc(c(-c6c(F)c(F)c(F)c(F)c6F)c6ccc3[nH]6)C=C5)C=C4)cc2)cc1)c1c(O)n[nH]c1C
REMARK SMILES IDX 15 1 14 2 13 3 11 4 12 5 10 7 7 8 8 9 87 10 9 11 86 12 6 13
REMARK SMILES IDX 5 14 3 15 4 16 2 17 1 18 88 19 89 20 93 21 91 22 92 23 94 24
REMARK SMILES IDX 90 26 16 28 17 29 18 30 19 31 20 32 21 33 22 35 23 36 24 37
REMARK SMILES IDX 85 38 25 39 84 40 26 41 27 42 28 43 78 44 29 45 83 46 77 47
REMARK SMILES IDX 79 48 30 49 82 50 76 51 75 52 31 54 63 55 43 56 62 57 44 58
REMARK SMILES IDX 47 59 61 60 80 61 45 62 46 63 60 65 81 66 48 67 32 68 33 69
REMARK SMILES IDX 41 70 34 71 35 72 39 73 42 74 36 75 37 76 40 77 38 78 64 79
REMARK SMILES IDX 65 80 73 81 66 82 67 83 71 84 74 85 68 86 69 87 72 88 70 89
REMARK SMILES IDX 49 90 50 91 58 92 51 93 52 94 56 95 59 96 53 97 54 98 57 99
REMARK SMILES IDX 55 100
REMARK H PARENT 13 6 92 25 90 27 20 34 79 53 47 64
REMARK Flexibility Score: inf
ROOT
ATOM      1  C   UNL A   1      31.832  28.465  25.968  1.00  0.00     0.021 C 
ENDROOT
BRANCH   1   2
ATOM      2  C   UNL A   1      31.759  28.308  24.448  1.00  0.00     0.116 C 
BRANCH   2   3
ATOM      3  N   UNL A   1      30.380  28.131  24.036  1.00  0.00    -0.352 N 
ATOM      4  C   UNL A   1      29.633  26.999  23.850  1.00  0.00     0.251 C 
ATOM      5  O   UNL A   1      28.458  27.116  23.503  1.00  0.00    -0.269 OA
ATOM      6  H   UNL A   1      29.898  28.971  23.858  1.00  0.00     0.163 HD
BRANCH   4   7
ATOM      7  C   UNL A   1      30.177  25.651  24.139  1.00  0.00     0.039 A 
ATOM      8  C   UNL A   1      31.289  23.166  24.875  1.00  0.00    -0.040 A 
ATOM      9  C   UNL A   1      30.708  24.009  25.836  1.00  0.00     0.005 A 
ATOM     10  C   UNL A   1      31.242  23.563  23.527  1.00  0.00     0.005 A 
ATOM     11  C   UNL A   1      30.159  25.238  25.472  1.00  0.00     0.014 A 
ATOM     12  C   UNL A   1      30.674  24.788  23.160  1.00  0.00     0.014 A 
BRANCH   8  13
ATOM     13  C   UNL A   1      31.991  21.869  25.258  1.00  0.00     0.068 C 
BRANCH  13  14
ATOM     14  C   UNL A   1      32.357  20.944  24.090  1.00  0.00     0.136 C 
BRANCH  14  15
ATOM     15  C   UNL A   1      32.984  19.655  24.563  1.00  0.00     0.306 C 
ATOM     16  O   UNL A   1      34.182  19.417  24.488  1.00  0.00    -0.252 OA
BRANCH  15  17
ATOM     17  O   UNL A   1      32.057  18.820  25.107  1.00  0.00    -0.469 OA
ATOM     18  C   UNL A   1      32.611  17.630  25.673  1.00  0.00     0.282 C 
ENDBRANCH  15  17
ENDBRANCH  14  15
ENDBRANCH  13  14
BRANCH  13  19
ATOM     19  C   UNL A   1      33.185  22.227  26.102  1.00  0.00     0.044 A 
ATOM     20  C   UNL A   1      33.353  22.262  27.499  1.00  0.00     0.234 A 
ATOM     21  C   UNL A   1      34.422  22.675  25.647  1.00  0.00     0.040 A 
ATOM     22  N   UNL A   1      34.554  22.634  27.912  1.00  0.00    -0.137 NA
ATOM     23  N   UNL A   1      35.197  22.877  26.760  1.00  0.00    -0.279 N 
ATOM     24  C   UNL A   1      34.933  22.941  24.282  1.00  0.00     0.066 C 
ATOM     25  H   UNL A   1      36.134  23.172  26.718  1.00  0.00     0.190 HD
BRANCH  20  26
ATOM     26  O   UNL A   1      32.499  21.992  28.479  1.00  0.00    -0.492 OA
ATOM     27  H   UNL A   1      31.595  21.838  28.283  1.00  0.00     0.295 HD
ENDBRANCH  20  26
ENDBRANCH  13  19
ENDBRANCH   8  13
ENDBRANCH   4   7
ENDBRANCH   2   3
ENDBRANCH   1   2
BRANCH   1  28
ATOM     28  C   UNL A   1      32.115  29.905  26.417  1.00  0.00     0.002 C 
BRANCH  28  29
ATOM     29  C   UNL A   1      31.243  30.970  25.742  1.00  0.00     0.002 C 
BRANCH  29  30
ATOM     30  C   UNL A   1      31.173  32.312  26.477  1.00  0.00     0.021 C 
BRANCH  30  31
ATOM     31  C   UNL A   1      32.479  32.744  27.139  1.00  0.00     0.116 C 
BRANCH  31  32
ATOM     32  N   UNL A   1      32.409  34.108  27.634  1.00  0.00    -0.352 N 
ATOM     33  C   UNL A   1      33.109  34.711  28.645  1.00  0.00     0.251 C 
ATOM     34  H   UNL A   1      31.760  34.687  27.172  1.00  0.00     0.163 HD
ATOM     35  O   UNL A   1      32.762  35.814  29.057  1.00  0.00    -0.269 OA
BRANCH  33  36
ATOM     36  C   UNL A   1      34.277  34.039  29.255  1.00  0.00     0.039 A 
ATOM     37  C   UNL A   1      35.553  34.363  28.785  1.00  0.00     0.014 A 
ATOM     38  C   UNL A   1      34.123  33.059  30.242  1.00  0.00     0.014 A 
ATOM     39  C   UNL A   1      36.672  33.734  29.328  1.00  0.00     0.010 A 
ATOM     40  C   UNL A   1      35.247  32.477  30.828  1.00  0.00     0.010 A 
ATOM     41  C   UNL A   1      36.531  32.800  30.366  1.00  0.00    -0.014 A 
BRANCH  41  42
ATOM     42  C   UNL A   1      37.729  32.162  30.967  1.00  0.00     0.031 A 
ATOM     43  C   UNL A   1      38.193  32.543  32.344  1.00  0.00     0.074 A 
ATOM     44  C   UNL A   1      38.412  31.245  30.254  1.00  0.00     0.049 A 
ATOM     45  N   UNL A   1      39.187  32.057  33.046  1.00  0.00    -0.248 NA
ATOM     46  C   UNL A   1      37.462  33.630  33.013  1.00  0.00     0.031 C 
ATOM     47  C   UNL A   1      38.101  30.842  28.882  1.00  0.00     0.029 A 
ATOM     48  N   UNL A   1      39.503  30.485  30.586  1.00  0.00    -0.354 N 
ATOM     49  C   UNL A   1      39.202  32.780  34.231  1.00  0.00     0.074 A 
ATOM     50  C   UNL A   1      38.156  33.774  34.133  1.00  0.00     0.031 C 
ATOM     51  C   UNL A   1      38.959  29.883  28.501  1.00  0.00     0.029 A 
ATOM     52  C   UNL A   1      39.890  29.618  29.594  1.00  0.00     0.049 A 
ATOM     53  H   UNL A   1      39.967  30.554  31.452  1.00  0.00     0.167 HD
ATOM     54  C   UNL A   1      40.001  32.611  35.314  1.00  0.00     0.037 A 
ATOM     55  C   UNL A   1      40.874  28.700  29.575  1.00  0.00     0.037 A 
ATOM     56  C   UNL A   1      41.025  31.605  35.416  1.00  0.00     0.049 A 
ATOM     57  C   UNL A   1      41.719  28.505  30.804  1.00  0.00     0.074 A 
ATOM     58  C   UNL A   1      41.844  31.312  36.493  1.00  0.00     0.029 A 
ATOM     59  N   UNL A   1      41.373  30.727  34.401  1.00  0.00    -0.354 N 
ATOM     60  N   UNL A   1      41.669  29.137  31.952  1.00  0.00    -0.248 NA
ATOM     61  C   UNL A   1      42.746  27.456  30.739  1.00  0.00     0.031 C 
ATOM     62  C   UNL A   1      42.714  30.281  36.116  1.00  0.00     0.029 A 
ATOM     63  C   UNL A   1      42.406  29.903  34.818  1.00  0.00     0.049 A 
ATOM     64  H   UNL A   1      40.948  30.694  33.513  1.00  0.00     0.167 HD
ATOM     65  C   UNL A   1      42.641  28.553  32.750  1.00  0.00     0.074 A 
ATOM     66  C   UNL A   1      43.248  27.498  31.965  1.00  0.00     0.031 C 
ATOM     67  C   UNL A   1      43.004  28.864  34.019  1.00  0.00     0.037 A 
BRANCH  54  68
ATOM     68  C   UNL A   1      39.790  33.535  36.478  1.00  0.00     0.064 A 
ATOM     69  C   UNL A   1      38.909  33.212  37.522  1.00  0.00     0.173 A 
ATOM     70  C   UNL A   1      40.501  34.741  36.571  1.00  0.00     0.173 A 
ATOM     71  F   UNL A   1      38.197  32.075  37.476  1.00  0.00    -0.203 F 
ATOM     72  C   UNL A   1      38.726  34.074  38.600  1.00  0.00     0.198 A 
ATOM     73  C   UNL A   1      40.337  35.587  37.664  1.00  0.00     0.198 A 
ATOM     74  F   UNL A   1      41.360  35.096  35.604  1.00  0.00    -0.203 F 
ATOM     75  F   UNL A   1      37.844  33.767  39.560  1.00  0.00    -0.200 F 
ATOM     76  C   UNL A   1      39.445  35.258  38.674  1.00  0.00     0.200 A 
ATOM     77  F   UNL A   1      41.041  36.726  37.740  1.00  0.00    -0.200 F 
ATOM     78  F   UNL A   1      39.272  36.085  39.715  1.00  0.00    -0.200 F 
ENDBRANCH  54  68
BRANCH  55  79
ATOM     79  C   UNL A   1      41.078  27.860  28.368  1.00  0.00     0.064 A 
ATOM     80  C   UNL A   1      40.410  26.636  28.222  1.00  0.00     0.173 A 
ATOM     81  C   UNL A   1      41.935  28.265  27.335  1.00  0.00     0.173 A 
ATOM     82  F   UNL A   1      39.594  26.200  29.192  1.00  0.00    -0.203 F 
ATOM     83  C   UNL A   1      40.608  25.838  27.097  1.00  0.00     0.198 A 
ATOM     84  C   UNL A   1      42.113  27.478  26.199  1.00  0.00     0.198 A 
ATOM     85  F   UNL A   1      42.591  29.431  27.425  1.00  0.00    -0.203 F 
ATOM     86  F   UNL A   1      39.990  24.654  27.003  1.00  0.00    -0.200 F 
ATOM     87  C   UNL A   1      41.455  26.263  26.085  1.00  0.00     0.200 A 
ATOM     88  F   UNL A   1      42.922  27.897  25.217  1.00  0.00    -0.200 F 
ATOM     89  F   UNL A   1      41.642  25.497  25.001  1.00  0.00    -0.200 F 
ENDBRANCH  55  79
BRANCH  67  90
ATOM     90  C   UNL A   1      44.099  28.042  34.633  1.00  0.00     0.064 A 
ATOM     91  C   UNL A   1      43.828  26.828  35.282  1.00  0.00     0.173 A 
ATOM     92  C   UNL A   1      45.434  28.469  34.569  1.00  0.00     0.173 A 
ATOM     93  F   UNL A   1      42.565  26.385  35.384  1.00  0.00    -0.203 F 
ATOM     94  C   UNL A   1      44.848  26.090  35.875  1.00  0.00     0.198 A 
ATOM     95  C   UNL A   1      46.455  27.714  35.137  1.00  0.00     0.198 A 
ATOM     96  F   UNL A   1      45.747  29.619  33.954  1.00  0.00    -0.203 F 
ATOM     97  F   UNL A   1      44.557  24.964  36.541  1.00  0.00    -0.200 F 
ATOM     98  C   UNL A   1      46.160  26.532  35.799  1.00  0.00     0.200 A 
ATOM     99  F   UNL A   1      47.725  28.135  35.054  1.00  0.00    -0.200 F 
ATOM    100  F   UNL A   1      47.141  25.823  36.375  1.00  0.00    -0.200 F 
ENDBRANCH  67  90
ENDBRANCH  41  42
ENDBRANCH  33  36
ENDBRANCH  31  32
ENDBRANCH  30  31
ENDBRANCH  29  30
ENDBRANCH  28  29
ENDBRANCH   1  28
TORSDOF 19
ENDMDL
MODEL 3
REMARK VINA RESULT:     -11.1      1.300      2.465
REMARK SMILES COC(=O)C[C@H](c1ccc(C(=O)NCCCCCCNC(=O)c2ccc(-c3c4nc(c(-c5c(F)c(F)c(F)c(F)c5F)c5ccc([nH]5)c(-c5c(F)c(F)c(F)c(F)c5F)c5nc(c(-c6c(F)c(F)c(F)c(F)c6F)c6ccc3[nH]6)C=C5)C=C4)cc2)cc1)c1c(O)n[nH]c1C
REMARK SMILES IDX 15 1 14 2 13 3 11 4 12 5 10 7 7 8 8 9 87 10 9 11 86 12 6 13
REMARK SMILES IDX 5 14 3 15 4 16 2 17 1 18 88 19 89 20 93 21 91 22 92 23 94 24
REMARK SMILES IDX 90 26 16 28 17 29 18 30 19 31 20 32 21 33 22 35 23 36 24 37
REMARK SMILES IDX 85 38 25 39 84 40 26 41 27 42 28 43 78 44 29 45 83 46 77 47
REMARK SMILES IDX 79 48 30 49 82 50 76 51 75 52 31 54 63 55 43 56 62 57 44 58
REMARK SMILES IDX 47 59 61 60 80 61 45 62 46 63 60 65 81 66 48 67 32 68 33 69
REMARK SMILES IDX 41 70 34 71 35 72 39 73 42 74 36 75 37 76 40 77 38 78 64 79
REMARK SMILES IDX 65 80 73 81 66 82 67 83 71 84 74 85 68 86 69 87 72 88 70 89
REMARK SMILES IDX 49 90 50 91 58 92 51 93 52 94 56 95 59 96 53 97 54 98 57 99
REMARK SMILES IDX 55 100
REMARK H PARENT 13 6 92 25 90 27 20 34 79 53 47 64
REMARK Flexibility Score: inf
ROOT
ATOM      1  C   UNL A   1      30.112  27.862  23.120  1.00  0.00     0.021 C 
ENDROOT
BRANCH   1   2
ATOM      2  C   UNL A   1      30.721  26.482  22.868  1.00  0.00     0.116 C 
BRANCH   2   3
ATOM      3  N   UNL A   1      31.412  26.472  21.593  1.00  0.00    -0.352 N 
ATOM      4  C   UNL A   1      32.509  25.772  21.167  1.00  0.00     0.251 C 
ATOM      5  O   UNL A   1      32.900  25.933  20.012  1.00  0.00    -0.269 OA
ATOM      6  H   UNL A   1      31.024  27.073  20.917  1.00  0.00     0.163 HD
BRANCH   4   7
ATOM      7  C   UNL A   1      33.177  24.771  22.031  1.00  0.00     0.039 A 
ATOM      8  C   UNL A   1      34.623  22.994  23.676  1.00  0.00    -0.040 A 
ATOM      9  C   UNL A   1      34.758  24.384  23.822  1.00  0.00     0.005 A 
ATOM     10  C   UNL A   1      33.698  22.512  22.734  1.00  0.00     0.005 A 
ATOM     11  C   UNL A   1      34.044  25.263  23.009  1.00  0.00     0.014 A 
ATOM     12  C   UNL A   1      32.967  23.394  21.931  1.00  0.00     0.014 A 
BRANCH   8  13
ATOM     13  C   UNL A   1      35.470  22.013  24.477  1.00  0.00     0.068 C 
BRANCH  13  14
ATOM     14  C   UNL A   1      36.827  22.545  24.954  1.00  0.00     0.136 C 
BRANCH  14  15
ATOM     15  C   UNL A   1      37.804  21.431  25.241  1.00  0.00     0.306 C 
ATOM     16  O   UNL A   1      37.581  20.253  24.996  1.00  0.00    -0.252 OA
BRANCH  15  17
ATOM     17  O   UNL A   1      38.965  21.910  25.768  1.00  0.00    -0.469 OA
ATOM     18  C   UNL A   1      38.812  23.137  26.484  1.00  0.00     0.282 C 
ENDBRANCH  15  17
ENDBRANCH  14  15
ENDBRANCH  13  14
BRANCH  13  19
ATOM     19  C   UNL A   1      34.624  21.500  25.613  1.00  0.00     0.044 A 
ATOM     20  C   UNL A   1      34.408  22.007  26.908  1.00  0.00     0.234 A 
ATOM     21  C   UNL A   1      33.882  20.322  25.632  1.00  0.00     0.040 A 
ATOM     22  N   UNL A   1      33.595  21.290  27.665  1.00  0.00    -0.137 NA
ATOM     23  N   UNL A   1      33.277  20.263  26.862  1.00  0.00    -0.279 N 
ATOM     24  C   UNL A   1      33.702  19.253  24.622  1.00  0.00     0.066 C 
ATOM     25  H   UNL A   1      32.670  19.537  27.130  1.00  0.00     0.190 HD
BRANCH  20  26
ATOM     26  O   UNL A   1      34.897  23.089  27.504  1.00  0.00    -0.492 OA
ATOM     27  H   UNL A   1      35.495  23.647  27.046  1.00  0.00     0.295 HD
ENDBRANCH  20  26
ENDBRANCH  13  19
ENDBRANCH   8  13
ENDBRANCH   4   7
ENDBRANCH   2   3
ENDBRANCH   1   2
BRANCH   1  28
ATOM     28  C   UNL A   1      30.715  28.579  24.336  1.00  0.00     0.002 C 
BRANCH  28  29
ATOM     29  C   UNL A   1      31.398  27.656  25.352  1.00  0.00     0.002 C 
BRANCH  29  30
ATOM     30  C   UNL A   1      32.180  28.372  26.456  1.00  0.00     0.021 C 
BRANCH  30  31
ATOM     31  C   UNL A   1      33.299  29.283  25.956  1.00  0.00     0.116 C 
BRANCH  31  32
ATOM     32  N   UNL A   1      33.044  30.677  26.275  1.00  0.00    -0.352 N 
ATOM     33  C   UNL A   1      33.630  31.481  27.217  1.00  0.00     0.251 C 
ATOM     34  H   UNL A   1      32.345  31.109  25.733  1.00  0.00     0.163 HD
ATOM     35  O   UNL A   1      33.136  32.573  27.482  1.00  0.00    -0.269 OA
BRANCH  33  36
ATOM     36  C   UNL A   1      34.850  31.041  27.928  1.00  0.00     0.039 A 
ATOM     37  C   UNL A   1      35.883  31.964  28.112  1.00  0.00     0.014 A 
ATOM     38  C   UNL A   1      35.006  29.721  28.364  1.00  0.00     0.014 A 
ATOM     39  C   UNL A   1      37.054  31.574  28.762  1.00  0.00     0.010 A 
ATOM     40  C   UNL A   1      36.149  29.350  29.069  1.00  0.00     0.010 A 
ATOM     41  C   UNL A   1      37.189  30.270  29.263  1.00  0.00    -0.014 A 
BRANCH  41  42
ATOM     42  C   UNL A   1      38.421  29.872  29.989  1.00  0.00     0.031 A 
ATOM     43  C   UNL A   1      38.686  30.369  31.382  1.00  0.00     0.074 A 
ATOM     44  C   UNL A   1      39.314  29.070  29.377  1.00  0.00     0.049 A 
ATOM     45  N   UNL A   1      39.682  30.087  32.185  1.00  0.00    -0.248 NA
ATOM     46  C   UNL A   1      37.720  31.328  31.939  1.00  0.00     0.031 C 
ATOM     47  C   UNL A   1      39.202  28.578  28.004  1.00  0.00     0.029 A 
ATOM     48  N   UNL A   1      40.487  28.524  29.832  1.00  0.00    -0.354 N 
ATOM     49  C   UNL A   1      39.465  30.835  33.335  1.00  0.00     0.074 A 
ATOM     50  C   UNL A   1      38.275  31.625  33.106  1.00  0.00     0.031 C 
ATOM     51  C   UNL A   1      40.244  27.776  27.739  1.00  0.00     0.029 A 
ATOM     52  C   UNL A   1      41.105  27.711  28.916  1.00  0.00     0.049 A 
ATOM     53  H   UNL A   1      40.851  28.700  30.731  1.00  0.00     0.167 HD
ATOM     54  C   UNL A   1      40.180  30.842  34.487  1.00  0.00     0.037 A 
ATOM     55  C   UNL A   1      42.231  26.982  29.020  1.00  0.00     0.037 A 
ATOM     56  C   UNL A   1      41.350  30.037  34.719  1.00  0.00     0.049 A 
ATOM     57  C   UNL A   1      42.983  26.975  30.323  1.00  0.00     0.074 A 
ATOM     58  C   UNL A   1      42.107  29.924  35.872  1.00  0.00     0.029 A 
ATOM     59  N   UNL A   1      41.935  29.205  33.775  1.00  0.00    -0.354 N 
ATOM     60  N   UNL A   1      42.722  27.621  31.433  1.00  0.00    -0.248 NA
ATOM     61  C   UNL A   1      44.178  26.123  30.390  1.00  0.00     0.031 C 
ATOM     62  C   UNL A   1      43.173  29.053  35.614  1.00  0.00     0.029 A 
ATOM     63  C   UNL A   1      43.054  28.589  34.314  1.00  0.00     0.049 A 
ATOM     64  H   UNL A   1      41.603  29.071  32.858  1.00  0.00     0.167 HD
ATOM     65  C   UNL A   1      43.704  27.242  32.335  1.00  0.00     0.074 A 
ATOM     66  C   UNL A   1      44.554  26.289  31.650  1.00  0.00     0.031 C 
ATOM     67  C   UNL A   1      43.893  27.649  33.615  1.00  0.00     0.037 A 
BRANCH  54  68
ATOM     68  C   UNL A   1      39.708  31.747  35.587  1.00  0.00     0.064 A 
ATOM     69  C   UNL A   1      40.238  33.036  35.757  1.00  0.00     0.173 A 
ATOM     70  C   UNL A   1      38.690  31.337  36.462  1.00  0.00     0.173 A 
ATOM     71  F   UNL A   1      41.220  33.472  34.953  1.00  0.00    -0.203 F 
ATOM     72  C   UNL A   1      39.788  33.868  36.779  1.00  0.00     0.198 A 
ATOM     73  C   UNL A   1      38.223  32.183  37.464  1.00  0.00     0.198 A 
ATOM     74  F   UNL A   1      38.145  30.117  36.341  1.00  0.00    -0.203 F 
ATOM     75  F   UNL A   1      40.343  35.076  36.950  1.00  0.00    -0.200 F 
ATOM     76  C   UNL A   1      38.776  33.444  37.627  1.00  0.00     0.200 A 
ATOM     77  F   UNL A   1      37.238  31.775  38.277  1.00  0.00    -0.200 F 
ATOM     78  F   UNL A   1      38.340  34.248  38.607  1.00  0.00    -0.200 F 
ENDBRANCH  54  68
BRANCH  55  79
ATOM     79  C   UNL A   1      42.686  26.157  27.873  1.00  0.00     0.064 A 
ATOM     80  C   UNL A   1      42.207  24.852  27.691  1.00  0.00     0.173 A 
ATOM     81  C   UNL A   1      43.599  26.655  26.933  1.00  0.00     0.173 A 
ATOM     82  F   UNL A   1      41.346  24.326  28.574  1.00  0.00    -0.203 F 
ATOM     83  C   UNL A   1      42.640  24.068  26.623  1.00  0.00     0.198 A 
ATOM     84  C   UNL A   1      44.012  25.880  25.851  1.00  0.00     0.198 A 
ATOM     85  F   UNL A   1      44.081  27.900  27.059  1.00  0.00    -0.203 F 
ATOM     86  F   UNL A   1      42.199  22.810  26.497  1.00  0.00    -0.200 F 
ATOM     87  C   UNL A   1      43.538  24.585  25.702  1.00  0.00     0.200 A 
ATOM     88  F   UNL A   1      44.870  26.387  24.955  1.00  0.00    -0.200 F 
ATOM     89  F   UNL A   1      43.952  23.834  24.672  1.00  0.00    -0.200 F 
ENDBRANCH  55  79
BRANCH  67  90
ATOM     90  C   UNL A   1      45.054  27.052  34.353  1.00  0.00     0.064 A 
ATOM     91  C   UNL A   1      44.914  25.883  35.117  1.00  0.00     0.173 A 
ATOM     92  C   UNL A   1      46.321  27.651  34.295  1.00  0.00     0.173 A 
ATOM     93  F   UNL A   1      43.718  25.283  35.217  1.00  0.00    -0.203 F 
ATOM     94  C   UNL A   1      45.991  25.357  35.824  1.00  0.00     0.198 A 
ATOM     95  C   UNL A   1      47.403  27.105  34.979  1.00  0.00     0.198 A 
ATOM     96  F   UNL A   1      46.509  28.766  33.574  1.00  0.00    -0.203 F 
ATOM     97  F   UNL A   1      45.819  24.274  36.594  1.00  0.00    -0.200 F 
ATOM     98  C   UNL A   1      47.235  25.966  35.751  1.00  0.00     0.200 A 
ATOM     99  F   UNL A   1      48.608  27.688  34.900  1.00  0.00    -0.200 F 
ATOM    100  F   UNL A   1      48.270  25.460  36.435  1.00  0.00    -0.200 F 
ENDBRANCH  67  90
ENDBRANCH  41  42
ENDBRANCH  33  36
ENDBRANCH  31  32
ENDBRANCH  30  31
ENDBRANCH  29  30
ENDBRANCH  28  29
ENDBRANCH   1  28
TORSDOF 19
ENDMDL
