MODEL 1
REMARK VINA RESULT:     -12.2      0.000      0.000
REMARK SMILES O=C(NCCCCCCNC(=O)c1cccc(CN2C(=O)S/C(=C/c3ccc(Cl)cc3)C2=O)c1)c1ccc(-c2c3nc(c(-c4c(F)c(F)c(F)c(F)c4F)c4ccc([nH]4)c(-c4c(F)c(F)c(F)c(F)c4F)c4nc(c(-c5c(F)c(F)c(F)c(F)c5F)c5ccc2[nH]5)C=C4)C=C3)cc1
REMARK SMILES IDX 7 1 6 2 5 3 4 4 3 5 1 6 2 7 35 9 36 10 97 11 37 12 96 13
REMARK SMILES IDX 38 14 39 15 40 16 90 17 41 18 95 19 89 20 91 21 42 22 94 23
REMARK SMILES IDX 88 24 87 25 43 27 75 28 55 29 74 30 56 31 59 32 73 33 92 34
REMARK SMILES IDX 57 35 58 36 72 38 93 39 60 40 44 41 45 42 53 43 46 44 47 45
REMARK SMILES IDX 51 46 54 47 48 48 49 49 52 50 50 51 76 52 77 53 85 54 78 55
REMARK SMILES IDX 79 56 83 57 86 58 80 59 81 60 84 61 82 62 61 63 62 64 70 65
REMARK SMILES IDX 63 66 64 67 68 68 71 69 65 70 66 71 69 72 67 73 8 74 9 75
REMARK SMILES IDX 10 76 11 77 12 79 13 80 14 81 34 82 15 83 17 84 16 85 18 86
REMARK SMILES IDX 19 87 20 88 32 89 21 90 22 91 23 92 33 93 24 94 25 95 26 96
REMARK SMILES IDX 31 97 27 98 30 99 28 100 29 101
REMARK H PARENT 3 8 91 26 59 37 10 78
REMARK Flexibility Score: inf
ROOT
ATOM      1  C   UNL A   1      35.467  33.070  27.934  1.00  0.00     0.002 C 
ENDROOT
BRANCH   1   2
ATOM      2  C   UNL A   1      34.951  33.736  29.212  1.00  0.00     0.002 C 
BRANCH   2   3
ATOM      3  C   UNL A   1      33.596  34.429  29.083  1.00  0.00     0.021 C 
BRANCH   3   4
ATOM      4  C   UNL A   1      33.578  35.881  29.544  1.00  0.00     0.116 C 
BRANCH   4   5
ATOM      5  N   UNL A   1      32.555  36.146  30.543  1.00  0.00    -0.352 N 
ATOM      6  O   UNL A   1      31.484  35.946  32.524  1.00  0.00    -0.269 OA
ATOM      7  C   UNL A   1      32.499  35.758  31.862  1.00  0.00     0.251 C 
ATOM      8  H   UNL A   1      31.791  36.681  30.230  1.00  0.00     0.163 HD
BRANCH   7   9
ATOM      9  C   UNL A   1      33.662  35.075  32.469  1.00  0.00     0.039 A 
ATOM     10  C   UNL A   1      34.884  35.736  32.592  1.00  0.00     0.014 A 
ATOM     11  C   UNL A   1      33.538  33.748  32.885  1.00  0.00     0.014 A 
ATOM     12  C   UNL A   1      36.020  35.017  32.939  1.00  0.00     0.010 A 
ATOM     13  C   UNL A   1      34.663  33.057  33.345  1.00  0.00     0.010 A 
ATOM     14  C   UNL A   1      35.925  33.671  33.327  1.00  0.00    -0.014 A 
BRANCH  14  15
ATOM     15  C   UNL A   1      37.160  32.946  33.729  1.00  0.00     0.031 A 
ATOM     16  C   UNL A   1      37.815  31.949  32.812  1.00  0.00     0.074 A 
ATOM     17  C   UNL A   1      37.718  33.232  34.922  1.00  0.00     0.049 A 
ATOM     18  N   UNL A   1      38.920  31.266  32.989  1.00  0.00    -0.248 NA
ATOM     19  C   UNL A   1      37.143  31.672  31.533  1.00  0.00     0.031 C 
ATOM     20  C   UNL A   1      37.172  34.174  35.901  1.00  0.00     0.029 A 
ATOM     21  N   UNL A   1      38.876  32.783  35.504  1.00  0.00    -0.354 N 
ATOM     22  C   UNL A   1      39.061  30.464  31.861  1.00  0.00     0.074 A 
ATOM     23  C   UNL A   1      37.912  30.722  31.019  1.00  0.00     0.031 C 
ATOM     24  C   UNL A   1      38.021  34.278  36.933  1.00  0.00     0.029 A 
ATOM     25  C   UNL A   1      39.131  33.357  36.725  1.00  0.00     0.049 A 
ATOM     26  H   UNL A   1      39.466  32.114  35.088  1.00  0.00     0.167 HD
ATOM     27  C   UNL A   1      40.060  29.601  31.556  1.00  0.00     0.037 A 
ATOM     28  C   UNL A   1      40.140  33.155  37.592  1.00  0.00     0.037 A 
ATOM     29  C   UNL A   1      41.208  29.360  32.395  1.00  0.00     0.049 A 
ATOM     30  C   UNL A   1      41.217  32.168  37.238  1.00  0.00     0.074 A 
ATOM     31  C   UNL A   1      42.295  28.535  32.155  1.00  0.00     0.029 A 
ATOM     32  N   UNL A   1      41.413  29.932  33.643  1.00  0.00    -0.354 N 
ATOM     33  N   UNL A   1      41.362  31.454  36.149  1.00  0.00    -0.248 NA
ATOM     34  C   UNL A   1      42.274  31.964  38.237  1.00  0.00     0.031 C 
ATOM     35  C   UNL A   1      43.121  28.559  33.283  1.00  0.00     0.029 A 
ATOM     36  C   UNL A   1      42.593  29.457  34.195  1.00  0.00     0.049 A 
ATOM     37  H   UNL A   1      40.810  30.582  34.072  1.00  0.00     0.167 HD
ATOM     38  C   UNL A   1      42.543  30.742  36.315  1.00  0.00     0.074 A 
ATOM     39  C   UNL A   1      43.081  31.127  37.604  1.00  0.00     0.031 C 
ATOM     40  C   UNL A   1      43.127  29.854  35.474  1.00  0.00     0.037 A 
BRANCH  27  41
ATOM     41  C   UNL A   1      39.948  28.826  30.271  1.00  0.00     0.064 A 
ATOM     42  C   UNL A   1      40.458  29.314  29.059  1.00  0.00     0.173 A 
ATOM     43  C   UNL A   1      39.360  27.550  30.264  1.00  0.00     0.173 A 
ATOM     44  F   UNL A   1      41.025  30.529  29.005  1.00  0.00    -0.203 F 
ATOM     45  C   UNL A   1      40.354  28.572  27.884  1.00  0.00     0.198 A 
ATOM     46  C   UNL A   1      39.290  26.796  29.094  1.00  0.00     0.198 A 
ATOM     47  F   UNL A   1      38.865  27.027  31.395  1.00  0.00    -0.203 F 
ATOM     48  F   UNL A   1      40.803  29.083  26.728  1.00  0.00    -0.200 F 
ATOM     49  C   UNL A   1      39.777  27.311  27.905  1.00  0.00     0.200 A 
ATOM     50  F   UNL A   1      38.748  25.570  29.122  1.00  0.00    -0.200 F 
ATOM     51  F   UNL A   1      39.686  26.595  26.776  1.00  0.00    -0.200 F 
ENDBRANCH  27  41
BRANCH  28  52
ATOM     52  C   UNL A   1      40.179  33.906  38.874  1.00  0.00     0.064 A 
ATOM     53  C   UNL A   1      39.467  33.459  39.994  1.00  0.00     0.173 A 
ATOM     54  C   UNL A   1      40.924  35.088  39.003  1.00  0.00     0.173 A 
ATOM     55  F   UNL A   1      38.726  32.343  39.917  1.00  0.00    -0.203 F 
ATOM     56  C   UNL A   1      39.475  34.180  41.187  1.00  0.00     0.198 A 
ATOM     57  C   UNL A   1      40.962  35.788  40.207  1.00  0.00     0.198 A 
ATOM     58  F   UNL A   1      41.631  35.555  37.963  1.00  0.00    -0.203 F 
ATOM     59  F   UNL A   1      38.741  33.760  42.226  1.00  0.00    -0.200 F 
ATOM     60  C   UNL A   1      40.228  35.340  41.294  1.00  0.00     0.200 A 
ATOM     61  F   UNL A   1      41.708  36.896  40.311  1.00  0.00    -0.200 F 
ATOM     62  F   UNL A   1      40.239  36.031  42.442  1.00  0.00    -0.200 F 
ENDBRANCH  28  52
BRANCH  40  63
ATOM     63  C   UNL A   1      44.452  29.283  35.895  1.00  0.00     0.064 A 
ATOM     64  C   UNL A   1      45.669  29.906  35.580  1.00  0.00     0.173 A 
ATOM     65  C   UNL A   1      44.500  28.092  36.639  1.00  0.00     0.173 A 
ATOM     66  F   UNL A   1      45.681  31.037  34.858  1.00  0.00    -0.203 F 
ATOM     67  C   UNL A   1      46.884  29.338  35.955  1.00  0.00     0.198 A 
ATOM     68  C   UNL A   1      45.715  27.548  37.046  1.00  0.00     0.198 A 
ATOM     69  F   UNL A   1      43.368  27.457  36.975  1.00  0.00    -0.203 F 
ATOM     70  F   UNL A   1      48.034  29.914  35.581  1.00  0.00    -0.200 F 
ATOM     71  C   UNL A   1      46.905  28.163  36.693  1.00  0.00     0.200 A 
ATOM     72  F   UNL A   1      45.733  26.424  37.775  1.00  0.00    -0.200 F 
ATOM     73  F   UNL A   1      48.076  27.620  37.055  1.00  0.00    -0.200 F 
ENDBRANCH  40  63
ENDBRANCH  14  15
ENDBRANCH   7   9
ENDBRANCH   4   5
ENDBRANCH   3   4
ENDBRANCH   2   3
ENDBRANCH   1   2
BRANCH   1  74
ATOM     74  C   UNL A   1      35.912  31.612  28.082  1.00  0.00     0.021 C 
BRANCH  74  75
ATOM     75  C   UNL A   1      34.811  30.576  27.862  1.00  0.00     0.116 C 
BRANCH  75  76
ATOM     76  N   UNL A   1      33.500  31.190  27.743  1.00  0.00    -0.352 N 
ATOM     77  C   UNL A   1      32.466  30.874  26.897  1.00  0.00     0.251 C 
ATOM     78  H   UNL A   1      33.327  31.938  28.359  1.00  0.00     0.163 HD
ATOM     79  O   UNL A   1      31.493  31.616  26.807  1.00  0.00    -0.269 OA
BRANCH  77  80
ATOM     80  C   UNL A   1      32.545  29.656  26.066  1.00  0.00     0.040 A 
ATOM     81  C   UNL A   1      33.304  29.703  24.895  1.00  0.00     0.014 A 
ATOM     82  C   UNL A   1      31.883  28.477  26.441  1.00  0.00     0.019 A 
ATOM     83  C   UNL A   1      33.456  28.551  24.129  1.00  0.00     0.001 A 
ATOM     84  C   UNL A   1      32.069  27.302  25.698  1.00  0.00    -0.027 A 
ATOM     85  C   UNL A   1      32.858  27.357  24.538  1.00  0.00     0.005 A 
BRANCH  84  86
ATOM     86  C   UNL A   1      31.455  25.995  26.149  1.00  0.00     0.165 C 
BRANCH  86  87
ATOM     87  N   UNL A   1      31.532  24.963  25.139  1.00  0.00    -0.264 N 
ATOM     88  C   UNL A   1      30.572  24.842  24.172  1.00  0.00     0.293 C 
ATOM     89  C   UNL A   1      32.634  24.149  25.034  1.00  0.00     0.268 C 
ATOM     90  O   UNL A   1      29.608  25.565  23.991  1.00  0.00    -0.261 OA
ATOM     91  S   UNL A   1      30.941  23.485  23.129  1.00  0.00    -0.022 SA
ATOM     92  C   UNL A   1      32.472  23.210  23.881  1.00  0.00     0.083 C 
ATOM     93  O   UNL A   1      33.616  24.210  25.759  1.00  0.00    -0.268 OA
ATOM     94  C   UNL A   1      33.347  22.312  23.406  1.00  0.00     0.029 C 
BRANCH  94  95
ATOM     95  C   UNL A   1      34.693  22.074  23.931  1.00  0.00    -0.024 A 
ATOM     96  C   UNL A   1      35.744  22.901  23.513  1.00  0.00     0.009 A 
ATOM     97  C   UNL A   1      34.947  21.047  24.846  1.00  0.00     0.009 A 
ATOM     98  C   UNL A   1      37.026  22.728  24.040  1.00  0.00     0.021 A 
ATOM     99  C   UNL A   1      36.227  20.880  25.380  1.00  0.00     0.021 A 
ATOM    100  C   UNL A   1      37.259  21.726  24.980  1.00  0.00     0.041 A 
ATOM    101  Cl  UNL A   1      38.828  21.540  25.660  1.00  0.00    -0.084 Cl
ENDBRANCH  94  95
ENDBRANCH  86  87
ENDBRANCH  84  86
ENDBRANCH  77  80
ENDBRANCH  75  76
ENDBRANCH  74  75
ENDBRANCH   1  74
TORSDOF 16
ENDMDL
MODEL 2
REMARK VINA RESULT:     -12.1      1.077      7.114
REMARK SMILES O=C(NCCCCCCNC(=O)c1cccc(CN2C(=O)S/C(=C/c3ccc(Cl)cc3)C2=O)c1)c1ccc(-c2c3nc(c(-c4c(F)c(F)c(F)c(F)c4F)c4ccc([nH]4)c(-c4c(F)c(F)c(F)c(F)c4F)c4nc(c(-c5c(F)c(F)c(F)c(F)c5F)c5ccc2[nH]5)C=C4)C=C3)cc1
REMARK SMILES IDX 7 1 6 2 5 3 4 4 3 5 1 6 2 7 35 9 36 10 97 11 37 12 96 13
REMARK SMILES IDX 38 14 39 15 40 16 90 17 41 18 95 19 89 20 91 21 42 22 94 23
REMARK SMILES IDX 88 24 87 25 43 27 75 28 55 29 74 30 56 31 59 32 73 33 92 34
REMARK SMILES IDX 57 35 58 36 72 38 93 39 60 40 44 41 45 42 53 43 46 44 47 45
REMARK SMILES IDX 51 46 54 47 48 48 49 49 52 50 50 51 76 52 77 53 85 54 78 55
REMARK SMILES IDX 79 56 83 57 86 58 80 59 81 60 84 61 82 62 61 63 62 64 70 65
REMARK SMILES IDX 63 66 64 67 68 68 71 69 65 70 66 71 69 72 67 73 8 74 9 75
REMARK SMILES IDX 10 76 11 77 12 79 13 80 14 81 34 82 15 83 17 84 16 85 18 86
REMARK SMILES IDX 19 87 20 88 32 89 21 90 22 91 23 92 33 93 24 94 25 95 26 96
REMARK SMILES IDX 31 97 27 98 30 99 28 100 29 101
REMARK H PARENT 3 8 91 26 59 37 10 78
REMARK Flexibility Score: inf
ROOT
ATOM      1  C   UNL A   1      35.108  32.391  28.002  1.00  0.00     0.002 C 
ENDROOT
BRANCH   1   2
ATOM      2  C   UNL A   1      34.440  33.094  29.186  1.00  0.00     0.002 C 
BRANCH   2   3
ATOM      3  C   UNL A   1      33.386  34.135  28.815  1.00  0.00     0.021 C 
BRANCH   3   4
ATOM      4  C   UNL A   1      33.617  35.516  29.414  1.00  0.00     0.116 C 
BRANCH   4   5
ATOM      5  N   UNL A   1      32.685  35.831  30.486  1.00  0.00    -0.352 N 
ATOM      6  O   UNL A   1      31.802  35.740  32.565  1.00  0.00    -0.269 OA
ATOM      7  C   UNL A   1      32.755  35.521  31.825  1.00  0.00     0.251 C 
ATOM      8  H   UNL A   1      31.889  36.342  30.214  1.00  0.00     0.163 HD
BRANCH   7   9
ATOM      9  C   UNL A   1      33.977  34.885  32.361  1.00  0.00     0.039 A 
ATOM     10  C   UNL A   1      35.197  35.559  32.327  1.00  0.00     0.014 A 
ATOM     11  C   UNL A   1      33.907  33.586  32.869  1.00  0.00     0.014 A 
ATOM     12  C   UNL A   1      36.369  34.869  32.610  1.00  0.00     0.010 A 
ATOM     13  C   UNL A   1      35.078  32.932  33.263  1.00  0.00     0.010 A 
ATOM     14  C   UNL A   1      36.326  33.550  33.088  1.00  0.00    -0.014 A 
BRANCH  14  15
ATOM     15  C   UNL A   1      37.601  32.859  33.417  1.00  0.00     0.031 A 
ATOM     16  C   UNL A   1      38.329  33.132  34.706  1.00  0.00     0.074 A 
ATOM     17  C   UNL A   1      38.079  31.939  32.555  1.00  0.00     0.049 A 
ATOM     18  N   UNL A   1      39.426  32.582  35.167  1.00  0.00    -0.248 NA
ATOM     19  C   UNL A   1      37.761  34.160  35.591  1.00  0.00     0.031 C 
ATOM     20  C   UNL A   1      37.468  31.593  31.271  1.00  0.00     0.029 A 
ATOM     21  N   UNL A   1      39.169  31.110  32.637  1.00  0.00    -0.354 N 
ATOM     22  C   UNL A   1      39.691  33.211  36.378  1.00  0.00     0.074 A 
ATOM     23  C   UNL A   1      38.658  34.208  36.566  1.00  0.00     0.031 C 
ATOM     24  C   UNL A   1      38.154  30.586  30.713  1.00  0.00     0.029 A 
ATOM     25  C   UNL A   1      39.294  30.265  31.562  1.00  0.00     0.049 A 
ATOM     26  H   UNL A   1      39.799  31.120  33.393  1.00  0.00     0.167 HD
ATOM     27  C   UNL A   1      40.699  32.973  37.253  1.00  0.00     0.037 A 
ATOM     28  C   UNL A   1      40.232  29.342  31.280  1.00  0.00     0.037 A 
ATOM     29  C   UNL A   1      41.717  31.969  37.063  1.00  0.00     0.049 A 
ATOM     30  C   UNL A   1      41.353  29.123  32.256  1.00  0.00     0.074 A 
ATOM     31  C   UNL A   1      42.756  31.623  37.912  1.00  0.00     0.029 A 
ATOM     32  N   UNL A   1      41.832  31.158  35.944  1.00  0.00    -0.354 N 
ATOM     33  N   UNL A   1      41.565  29.692  33.418  1.00  0.00    -0.248 NA
ATOM     34  C   UNL A   1      42.366  28.128  31.880  1.00  0.00     0.031 C 
ATOM     35  C   UNL A   1      43.536  30.651  37.276  1.00  0.00     0.029 A 
ATOM     36  C   UNL A   1      42.941  30.333  36.067  1.00  0.00     0.049 A 
ATOM     37  H   UNL A   1      41.217  31.166  35.175  1.00  0.00     0.167 HD
ATOM     38  C   UNL A   1      42.713  29.100  33.927  1.00  0.00     0.074 A 
ATOM     39  C   UNL A   1      43.140  28.117  32.954  1.00  0.00     0.031 C 
ATOM     40  C   UNL A   1      43.352  29.349  35.097  1.00  0.00     0.037 A 
BRANCH  27  41
ATOM     41  C   UNL A   1      40.774  33.832  38.486  1.00  0.00     0.064 A 
ATOM     42  C   UNL A   1      41.539  35.007  38.531  1.00  0.00     0.173 A 
ATOM     43  C   UNL A   1      40.030  33.495  39.630  1.00  0.00     0.173 A 
ATOM     44  F   UNL A   1      42.274  35.376  37.470  1.00  0.00    -0.203 F 
ATOM     45  C   UNL A   1      41.583  35.793  39.680  1.00  0.00     0.198 A 
ATOM     46  C   UNL A   1      40.049  34.302  40.765  1.00  0.00     0.198 A 
ATOM     47  F   UNL A   1      39.273  32.387  39.642  1.00  0.00    -0.203 F 
ATOM     48  F   UNL A   1      42.362  36.884  39.715  1.00  0.00    -0.200 F 
ATOM     49  C   UNL A   1      40.833  35.444  40.793  1.00  0.00     0.200 A 
ATOM     50  F   UNL A   1      39.308  33.971  41.832  1.00  0.00    -0.200 F 
ATOM     51  F   UNL A   1      40.869  36.206  41.894  1.00  0.00    -0.200 F 
ENDBRANCH  27  41
BRANCH  28  52
ATOM     52  C   UNL A   1      40.145  28.555  30.022  1.00  0.00     0.064 A 
ATOM     53  C   UNL A   1      39.489  27.318  29.989  1.00  0.00     0.173 A 
ATOM     54  C   UNL A   1      40.721  29.020  28.831  1.00  0.00     0.173 A 
ATOM     55  F   UNL A   1      38.935  26.822  31.106  1.00  0.00    -0.203 F 
ATOM     56  C   UNL A   1      39.436  26.563  28.819  1.00  0.00     0.198 A 
ATOM     57  C   UNL A   1      40.636  28.283  27.653  1.00  0.00     0.198 A 
ATOM     58  F   UNL A   1      41.354  30.203  28.807  1.00  0.00    -0.203 F 
ATOM     59  F   UNL A   1      38.850  25.358  28.828  1.00  0.00    -0.200 F 
ATOM     60  C   UNL A   1      40.003  27.049  27.650  1.00  0.00     0.200 A 
ATOM     61  F   UNL A   1      41.167  28.766  26.522  1.00  0.00    -0.200 F 
ATOM     62  F   UNL A   1      39.948  26.325  26.525  1.00  0.00    -0.200 F 
ENDBRANCH  28  52
BRANCH  40  63
ATOM     63  C   UNL A   1      44.549  28.497  35.418  1.00  0.00     0.064 A 
ATOM     64  C   UNL A   1      44.436  27.280  36.106  1.00  0.00     0.173 A 
ATOM     65  C   UNL A   1      45.831  28.907  35.017  1.00  0.00     0.173 A 
ATOM     66  F   UNL A   1      43.237  26.849  36.525  1.00  0.00    -0.203 F 
ATOM     67  C   UNL A   1      45.565  26.526  36.419  1.00  0.00     0.198 A 
ATOM     68  C   UNL A   1      46.952  28.131  35.296  1.00  0.00     0.198 A 
ATOM     69  F   UNL A   1      45.997  30.058  34.350  1.00  0.00    -0.203 F 
ATOM     70  F   UNL A   1      45.440  25.403  37.139  1.00  0.00    -0.200 F 
ATOM     71  C   UNL A   1      46.821  26.949  36.008  1.00  0.00     0.200 A 
ATOM     72  F   UNL A   1      48.162  28.532  34.883  1.00  0.00    -0.200 F 
ATOM     73  F   UNL A   1      47.906  26.221  36.307  1.00  0.00    -0.200 F 
ENDBRANCH  40  63
ENDBRANCH  14  15
ENDBRANCH   7   9
ENDBRANCH   4   5
ENDBRANCH   3   4
ENDBRANCH   2   3
ENDBRANCH   1   2
BRANCH   1  74
ATOM     74  C   UNL A   1      34.990  30.864  27.989  1.00  0.00     0.021 C 
BRANCH  74  75
ATOM     75  C   UNL A   1      33.877  30.310  27.102  1.00  0.00     0.116 C 
BRANCH  75  76
ATOM     76  N   UNL A   1      33.046  29.348  27.804  1.00  0.00    -0.352 N 
ATOM     77  C   UNL A   1      32.074  28.515  27.310  1.00  0.00     0.251 C 
ATOM     78  H   UNL A   1      33.204  29.283  28.774  1.00  0.00     0.163 HD
ATOM     79  O   UNL A   1      31.343  27.896  28.077  1.00  0.00    -0.269 OA
BRANCH  77  80
ATOM     80  C   UNL A   1      31.885  28.393  25.851  1.00  0.00     0.040 A 
ATOM     81  C   UNL A   1      31.250  29.438  25.178  1.00  0.00     0.014 A 
ATOM     82  C   UNL A   1      32.336  27.263  25.151  1.00  0.00     0.019 A 
ATOM     83  C   UNL A   1      31.122  29.386  23.793  1.00  0.00     0.001 A 
ATOM     84  C   UNL A   1      32.249  27.224  23.753  1.00  0.00    -0.027 A 
ATOM     85  C   UNL A   1      31.634  28.296  23.086  1.00  0.00     0.005 A 
BRANCH  84  86
ATOM     86  C   UNL A   1      32.830  26.065  22.973  1.00  0.00     0.165 C 
BRANCH  86  87
ATOM     87  N   UNL A   1      32.699  24.802  23.665  1.00  0.00    -0.264 N 
ATOM     88  C   UNL A   1      31.506  24.135  23.705  1.00  0.00     0.293 C 
ATOM     89  C   UNL A   1      33.793  24.162  24.196  1.00  0.00     0.268 C 
ATOM     90  O   UNL A   1      30.463  24.449  23.157  1.00  0.00    -0.261 OA
ATOM     91  S   UNL A   1      31.673  22.663  24.639  1.00  0.00    -0.022 SA
ATOM     92  C   UNL A   1      33.382  22.861  24.806  1.00  0.00     0.083 C 
ATOM     93  O   UNL A   1      34.939  24.584  24.143  1.00  0.00    -0.268 OA
ATOM     94  C   UNL A   1      34.156  21.917  25.362  1.00  0.00     0.029 C 
BRANCH  94  95
ATOM     95  C   UNL A   1      35.615  21.967  25.470  1.00  0.00    -0.024 A 
ATOM     96  C   UNL A   1      36.211  23.029  26.162  1.00  0.00     0.009 A 
ATOM     97  C   UNL A   1      36.422  20.974  24.904  1.00  0.00     0.009 A 
ATOM     98  C   UNL A   1      37.598  23.071  26.325  1.00  0.00     0.021 A 
ATOM     99  C   UNL A   1      37.807  21.011  25.074  1.00  0.00     0.021 A 
ATOM    100  C   UNL A   1      38.389  22.055  25.790  1.00  0.00     0.041 A 
ATOM    101  Cl  UNL A   1      40.093  22.085  26.025  1.00  0.00    -0.084 Cl
ENDBRANCH  94  95
ENDBRANCH  86  87
ENDBRANCH  84  86
ENDBRANCH  77  80
ENDBRANCH  75  76
ENDBRANCH  74  75
ENDBRANCH   1  74
TORSDOF 16
ENDMDL
MODEL 3
REMARK VINA RESULT:     -11.9      2.276      3.734
REMARK SMILES O=C(NCCCCCCNC(=O)c1cccc(CN2C(=O)S/C(=C/c3ccc(Cl)cc3)C2=O)c1)c1ccc(-c2c3nc(c(-c4c(F)c(F)c(F)c(F)c4F)c4ccc([nH]4)c(-c4c(F)c(F)c(F)c(F)c4F)c4nc(c(-c5c(F)c(F)c(F)c(F)c5F)c5ccc2[nH]5)C=C4)C=C3)cc1
REMARK SMILES IDX 7 1 6 2 5 3 4 4 3 5 1 6 2 7 35 9 36 10 97 11 37 12 96 13
REMARK SMILES IDX 38 14 39 15 40 16 90 17 41 18 95 19 89 20 91 21 42 22 94 23
REMARK SMILES IDX 88 24 87 25 43 27 75 28 55 29 74 30 56 31 59 32 73 33 92 34
REMARK SMILES IDX 57 35 58 36 72 38 93 39 60 40 44 41 45 42 53 43 46 44 47 45
REMARK SMILES IDX 51 46 54 47 48 48 49 49 52 50 50 51 76 52 77 53 85 54 78 55
REMARK SMILES IDX 79 56 83 57 86 58 80 59 81 60 84 61 82 62 61 63 62 64 70 65
REMARK SMILES IDX 63 66 64 67 68 68 71 69 65 70 66 71 69 72 67 73 8 74 9 75
REMARK SMILES IDX 10 76 11 77 12 79 13 80 14 81 34 82 15 83 17 84 16 85 18 86
REMARK SMILES IDX 19 87 20 88 32 89 21 90 22 91 23 92 33 93 24 94 25 95 26 96
REMARK SMILES IDX 31 97 27 98 30 99 28 100 29 101
REMARK H PARENT 3 8 91 26 59 37 10 78
REMARK Flexibility Score: inf
ROOT
ATOM      1  C   UNL A   1      31.630  30.035  25.374  1.00  0.00     0.002 C 
ENDROOT
BRANCH   1   2
ATOM      2  C   UNL A   1      31.752  30.668  26.762  1.00  0.00     0.002 C 
BRANCH   2   3
ATOM      3  C   UNL A   1      31.559  32.183  26.806  1.00  0.00     0.021 C 
BRANCH   3   4
ATOM      4  C   UNL A   1      32.786  32.968  27.249  1.00  0.00     0.116 C 
BRANCH   4   5
ATOM      5  N   UNL A   1      32.473  34.333  27.643  1.00  0.00    -0.352 N 
ATOM      6  O   UNL A   1      32.503  36.176  28.952  1.00  0.00    -0.269 OA
ATOM      7  C   UNL A   1      32.991  35.087  28.671  1.00  0.00     0.251 C 
ATOM      8  H   UNL A   1      31.793  34.784  27.093  1.00  0.00     0.163 HD
BRANCH   7   9
ATOM      9  C   UNL A   1      34.120  34.556  29.465  1.00  0.00     0.039 A 
ATOM     10  C   UNL A   1      35.416  34.575  28.950  1.00  0.00     0.014 A 
ATOM     11  C   UNL A   1      33.873  34.000  30.722  1.00  0.00     0.014 A 
ATOM     12  C   UNL A   1      36.421  33.865  29.595  1.00  0.00     0.010 A 
ATOM     13  C   UNL A   1      34.914  33.385  31.424  1.00  0.00     0.010 A 
ATOM     14  C   UNL A   1      36.186  33.267  30.843  1.00  0.00    -0.014 A 
BRANCH  14  15
ATOM     15  C   UNL A   1      37.299  32.549  31.520  1.00  0.00     0.031 A 
ATOM     16  C   UNL A   1      38.035  31.427  30.838  1.00  0.00     0.074 A 
ATOM     17  C   UNL A   1      37.675  32.951  32.750  1.00  0.00     0.049 A 
ATOM     18  N   UNL A   1      39.058  30.729  31.268  1.00  0.00    -0.248 NA
ATOM     19  C   UNL A   1      37.562  31.028  29.504  1.00  0.00     0.031 C 
ATOM     20  C   UNL A   1      37.033  34.021  33.517  1.00  0.00     0.029 A 
ATOM     21  N   UNL A   1      38.698  32.531  33.561  1.00  0.00    -0.354 N 
ATOM     22  C   UNL A   1      39.332  29.796  30.274  1.00  0.00     0.074 A 
ATOM     23  C   UNL A   1      38.349  29.996  29.230  1.00  0.00     0.031 C 
ATOM     24  C   UNL A   1      37.710  34.213  34.657  1.00  0.00     0.029 A 
ATOM     25  C   UNL A   1      38.786  33.233  34.737  1.00  0.00     0.049 A 
ATOM     26  H   UNL A   1      39.308  31.796  33.323  1.00  0.00     0.167 HD
ATOM     27  C   UNL A   1      40.318  28.867  30.234  1.00  0.00     0.037 A 
ATOM     28  C   UNL A   1      39.631  33.097  35.775  1.00  0.00     0.037 A 
ATOM     29  C   UNL A   1      41.302  28.683  31.273  1.00  0.00     0.049 A 
ATOM     30  C   UNL A   1      40.694  32.036  35.714  1.00  0.00     0.074 A 
ATOM     31  C   UNL A   1      42.366  27.796  31.306  1.00  0.00     0.029 A 
ATOM     32  N   UNL A   1      41.337  29.389  32.466  1.00  0.00    -0.354 N 
ATOM     33  N   UNL A   1      40.972  31.194  34.749  1.00  0.00    -0.248 NA
ATOM     34  C   UNL A   1      41.565  31.911  36.890  1.00  0.00     0.031 C 
ATOM     35  C   UNL A   1      43.001  27.921  32.546  1.00  0.00     0.029 A 
ATOM     36  C   UNL A   1      42.385  28.938  33.254  1.00  0.00     0.049 A 
ATOM     37  H   UNL A   1      40.710  30.106  32.716  1.00  0.00     0.167 HD
ATOM     38  C   UNL A   1      42.069  30.464  35.184  1.00  0.00     0.074 A 
ATOM     39  C   UNL A   1      42.415  30.976  36.494  1.00  0.00     0.031 C 
ATOM     40  C   UNL A   1      42.729  29.462  34.553  1.00  0.00     0.037 A 
BRANCH  27  41
ATOM     41  C   UNL A   1      40.369  27.951  29.041  1.00  0.00     0.064 A 
ATOM     42  C   UNL A   1      41.125  28.257  27.899  1.00  0.00     0.173 A 
ATOM     43  C   UNL A   1      39.686  26.724  29.061  1.00  0.00     0.173 A 
ATOM     44  F   UNL A   1      41.794  29.417  27.822  1.00  0.00    -0.203 F 
ATOM     45  C   UNL A   1      41.168  27.386  26.812  1.00  0.00     0.198 A 
ATOM     46  C   UNL A   1      39.759  25.841  27.986  1.00  0.00     0.198 A 
ATOM     47  F   UNL A   1      38.955  26.374  30.130  1.00  0.00    -0.203 F 
ATOM     48  F   UNL A   1      41.855  27.725  25.711  1.00  0.00    -0.200 F 
ATOM     49  C   UNL A   1      40.491  26.177  26.859  1.00  0.00     0.200 A 
ATOM     50  F   UNL A   1      39.119  24.664  28.043  1.00  0.00    -0.200 F 
ATOM     51  F   UNL A   1      40.541  25.338  25.816  1.00  0.00    -0.200 F 
ENDBRANCH  27  41
BRANCH  28  52
ATOM     52  C   UNL A   1      39.507  33.991  36.957  1.00  0.00     0.064 A 
ATOM     53  C   UNL A   1      40.127  35.247  36.979  1.00  0.00     0.173 A 
ATOM     54  C   UNL A   1      38.774  33.605  38.089  1.00  0.00     0.173 A 
ATOM     55  F   UNL A   1      40.853  35.655  35.927  1.00  0.00    -0.203 F 
ATOM     56  C   UNL A   1      40.040  36.072  38.098  1.00  0.00     0.198 A 
ATOM     57  C   UNL A   1      38.656  34.446  39.192  1.00  0.00     0.198 A 
ATOM     58  F   UNL A   1      38.155  32.415  38.115  1.00  0.00    -0.203 F 
ATOM     59  F   UNL A   1      40.687  37.246  38.114  1.00  0.00    -0.200 F 
ATOM     60  C   UNL A   1      39.299  35.674  39.201  1.00  0.00     0.200 A 
ATOM     61  F   UNL A   1      37.922  34.066  40.246  1.00  0.00    -0.200 F 
ATOM     62  F   UNL A   1      39.212  36.470  40.275  1.00  0.00    -0.200 F 
ENDBRANCH  28  52
BRANCH  40  63
ATOM     63  C   UNL A   1      43.937  28.895  35.247  1.00  0.00     0.064 A 
ATOM     64  C   UNL A   1      45.228  29.395  35.025  1.00  0.00     0.173 A 
ATOM     65  C   UNL A   1      43.791  27.837  36.159  1.00  0.00     0.173 A 
ATOM     66  F   UNL A   1      45.426  30.394  34.152  1.00  0.00    -0.203 F 
ATOM     67  C   UNL A   1      46.334  28.829  35.657  1.00  0.00     0.198 A 
ATOM     68  C   UNL A   1      44.893  27.301  36.819  1.00  0.00     0.198 A 
ATOM     69  F   UNL A   1      42.578  27.325  36.415  1.00  0.00    -0.203 F 
ATOM     70  F   UNL A   1      47.565  29.276  35.375  1.00  0.00    -0.200 F 
ATOM     71  C   UNL A   1      46.164  27.788  36.558  1.00  0.00     0.200 A 
ATOM     72  F   UNL A   1      44.725  26.308  37.702  1.00  0.00    -0.200 F 
ATOM     73  F   UNL A   1      47.229  27.247  37.167  1.00  0.00    -0.200 F 
ENDBRANCH  40  63
ENDBRANCH  14  15
ENDBRANCH   7   9
ENDBRANCH   4   5
ENDBRANCH   3   4
ENDBRANCH   2   3
ENDBRANCH   1   2
BRANCH   1  74
ATOM     74  C   UNL A   1      31.995  28.550  25.291  1.00  0.00     0.021 C 
BRANCH  74  75
ATOM     75  C   UNL A   1      30.966  27.671  24.585  1.00  0.00     0.116 C 
BRANCH  75  76
ATOM     76  N   UNL A   1      31.551  26.918  23.489  1.00  0.00    -0.352 N 
ATOM     77  C   UNL A   1      32.108  25.664  23.495  1.00  0.00     0.251 C 
ATOM     78  H   UNL A   1      31.544  27.372  22.615  1.00  0.00     0.163 HD
ATOM     79  O   UNL A   1      32.720  25.255  22.513  1.00  0.00    -0.269 OA
BRANCH  77  80
ATOM     80  C   UNL A   1      32.002  24.821  24.702  1.00  0.00     0.040 A 
ATOM     81  C   UNL A   1      30.730  24.436  25.130  1.00  0.00     0.014 A 
ATOM     82  C   UNL A   1      33.145  24.405  25.402  1.00  0.00     0.019 A 
ATOM     83  C   UNL A   1      30.601  23.581  26.221  1.00  0.00     0.001 A 
ATOM     84  C   UNL A   1      33.025  23.510  26.474  1.00  0.00    -0.027 A 
ATOM     85  C   UNL A   1      31.740  23.109  26.876  1.00  0.00     0.005 A 
BRANCH  84  86
ATOM     86  C   UNL A   1      34.253  22.964  27.169  1.00  0.00     0.165 C 
BRANCH  86  87
ATOM     87  N   UNL A   1      35.131  22.246  26.273  1.00  0.00    -0.264 N 
ATOM     88  C   UNL A   1      36.344  22.759  25.904  1.00  0.00     0.293 C 
ATOM     89  C   UNL A   1      34.840  20.967  25.861  1.00  0.00     0.268 C 
ATOM     90  O   UNL A   1      36.858  23.795  26.290  1.00  0.00    -0.261 OA
ATOM     91  S   UNL A   1      37.146  21.666  24.796  1.00  0.00    -0.022 SA
ATOM     92  C   UNL A   1      35.934  20.448  24.985  1.00  0.00     0.083 C 
ATOM     93  O   UNL A   1      33.846  20.339  26.194  1.00  0.00    -0.268 OA
ATOM     94  C   UNL A   1      36.061  19.229  24.441  1.00  0.00     0.029 C 
BRANCH  94  95
ATOM     95  C   UNL A   1      35.126  18.116  24.618  1.00  0.00    -0.024 A 
ATOM     96  C   UNL A   1      35.594  16.911  25.157  1.00  0.00     0.009 A 
ATOM     97  C   UNL A   1      33.776  18.236  24.269  1.00  0.00     0.009 A 
ATOM     98  C   UNL A   1      34.711  15.853  25.385  1.00  0.00     0.021 A 
ATOM     99  C   UNL A   1      32.891  17.182  24.506  1.00  0.00     0.021 A 
ATOM    100  C   UNL A   1      33.361  15.998  25.070  1.00  0.00     0.041 A 
ATOM    101  Cl  UNL A   1      32.266  14.710  25.388  1.00  0.00    -0.084 Cl
ENDBRANCH  94  95
ENDBRANCH  86  87
ENDBRANCH  84  86
ENDBRANCH  77  80
ENDBRANCH  75  76
ENDBRANCH  74  75
ENDBRANCH   1  74
TORSDOF 16
ENDMDL
