MODEL 1
REMARK VINA RESULT:     -13.1      0.000      0.000
REMARK SMILES Cc1ccc(C(=O)N2CCCC[C@@H]2C(=O)NCCCCCCNC(=O)c2ccc(-c3c4nc(c(-c5c(F)c(F)c(F)c(F)c5F)c5ccc([nH]5)c(-c5c(F)c(F)c(F)c(F)c5F)c5nc(c(-c6c(F)c(F)c(F)c(F)c6F)c6ccc3[nH]6)C=C5)C=C4)cc2)cc1S(=O)(=O)N1CCCCC1
REMARK SMILES IDX 18 1 17 2 16 3 14 4 15 5 13 7 8 8 9 9 10 10 12 11 11 12 6 13
REMARK SMILES IDX 7 14 5 15 1 16 2 17 3 18 90 19 4 20 89 21 91 22 92 23 93 24
REMARK SMILES IDX 94 25 95 26 99 27 96 28 98 29 97 30 19 31 20 32 21 33 22 34
REMARK SMILES IDX 23 35 24 36 25 38 26 39 27 40 88 41 28 42 87 43 29 44 30 45
REMARK SMILES IDX 31 46 81 47 32 48 86 49 80 50 82 51 33 52 85 53 79 54 78 55
REMARK SMILES IDX 34 57 66 58 46 59 65 60 47 61 50 62 64 63 83 64 48 65 49 66
REMARK SMILES IDX 63 68 84 69 51 70 35 71 36 72 44 73 37 74 38 75 42 76 45 77
REMARK SMILES IDX 39 78 40 79 43 80 41 81 67 82 68 83 76 84 69 85 70 86 74 87
REMARK SMILES IDX 77 88 71 89 72 90 75 91 73 92 52 93 53 94 61 95 54 96 55 97
REMARK SMILES IDX 59 98 62 99 56 100 57 101 60 102 58 103
REMARK H PARENT 16 6 23 37 82 56 50 67
REMARK Flexibility Score: inf
ROOT
ATOM      1  C   UNL A   1      34.154  29.575  27.623  1.00  0.00     0.021 C 
ENDROOT
BRANCH   1   2
ATOM      2  C   UNL A   1      33.093  29.999  26.608  1.00  0.00     0.116 C 
BRANCH   2   3
ATOM      3  N   UNL A   1      33.516  29.639  25.272  1.00  0.00    -0.354 N 
ATOM      4  C   UNL A   1      32.905  28.840  24.355  1.00  0.00     0.242 C 
ATOM      5  O   UNL A   1      33.586  28.451  23.404  1.00  0.00    -0.273 OA
ATOM      6  H   UNL A   1      34.372  30.031  24.983  1.00  0.00     0.163 HD
BRANCH   4   7
ATOM      7  C   UNL A   1      31.454  28.345  24.553  1.00  0.00     0.174 C 
ATOM      8  N   UNL A   1      31.346  26.957  25.081  1.00  0.00    -0.327 N 
ATOM      9  C   UNL A   1      30.036  26.327  24.991  1.00  0.00     0.120 C 
ATOM     10  C   UNL A   1      29.452  26.390  23.595  1.00  0.00     0.022 C 
ATOM     11  C   UNL A   1      30.738  28.506  23.190  1.00  0.00     0.035 C 
ATOM     12  C   UNL A   1      29.371  27.834  23.127  1.00  0.00     0.004 C 
BRANCH   8  13
ATOM     13  C   UNL A   1      32.215  26.349  25.994  1.00  0.00     0.254 C 
ATOM     14  O   UNL A   1      32.302  26.738  27.159  1.00  0.00    -0.269 OA
BRANCH  13  15
ATOM     15  C   UNL A   1      33.097  25.231  25.596  1.00  0.00     0.041 A 
ATOM     16  C   UNL A   1      35.632  22.200  23.878  1.00  0.00     0.046 C 
ATOM     17  C   UNL A   1      34.679  23.126  24.560  1.00  0.00    -0.031 A 
ATOM     18  C   UNL A   1      35.068  24.484  24.445  1.00  0.00     0.005 A 
ATOM     19  C   UNL A   1      33.480  22.831  25.235  1.00  0.00     0.086 A 
ATOM     20  C   UNL A   1      34.294  25.522  24.954  1.00  0.00     0.014 A 
ATOM     21  C   UNL A   1      32.690  23.902  25.713  1.00  0.00     0.035 A 
BRANCH  19  22
ATOM     22  S   UNL A   1      32.705  21.250  25.619  1.00  0.00     0.243 S 
ATOM     23  O   UNL A   1      33.278  20.841  26.893  1.00  0.00    -0.207 OA
ATOM     24  O   UNL A   1      31.285  21.490  25.504  1.00  0.00    -0.207 OA
BRANCH  22  25
ATOM     25  N   UNL A   1      33.097  20.050  24.496  1.00  0.00    -0.198 NA
ATOM     26  C   UNL A   1      34.019  18.996  24.964  1.00  0.00     0.102 C 
ATOM     27  C   UNL A   1      32.157  19.853  23.374  1.00  0.00     0.102 C 
ATOM     28  C   UNL A   1      34.312  17.916  23.936  1.00  0.00     0.017 C 
ATOM     29  C   UNL A   1      32.514  18.709  22.437  1.00  0.00     0.017 C 
ATOM     30  C   UNL A   1      33.086  17.496  23.147  1.00  0.00     0.003 C 
ENDBRANCH  22  25
ENDBRANCH  19  22
ENDBRANCH  13  15
ENDBRANCH   8  13
ENDBRANCH   4   7
ENDBRANCH   2   3
ENDBRANCH   1   2
BRANCH   1  31
ATOM     31  C   UNL A   1      35.355  30.528  27.709  1.00  0.00     0.002 C 
BRANCH  31  32
ATOM     32  C   UNL A   1      35.010  31.994  28.001  1.00  0.00     0.002 C 
BRANCH  32  33
ATOM     33  C   UNL A   1      34.778  32.327  29.473  1.00  0.00     0.021 C 
BRANCH  33  34
ATOM     34  C   UNL A   1      34.836  33.812  29.777  1.00  0.00     0.116 C 
BRANCH  34  35
ATOM     35  N   UNL A   1      33.875  34.214  30.792  1.00  0.00    -0.352 N 
ATOM     36  C   UNL A   1      33.936  34.116  32.167  1.00  0.00     0.251 C 
ATOM     37  H   UNL A   1      33.049  34.621  30.442  1.00  0.00     0.163 HD
ATOM     38  O   UNL A   1      32.923  34.293  32.837  1.00  0.00    -0.269 OA
BRANCH  36  39
ATOM     39  C   UNL A   1      35.255  34.037  32.839  1.00  0.00     0.039 A 
ATOM     40  C   UNL A   1      36.264  34.835  32.278  1.00  0.00     0.014 A 
ATOM     41  C   UNL A   1      35.581  32.944  33.629  1.00  0.00     0.014 A 
ATOM     42  C   UNL A   1      37.557  34.345  32.223  1.00  0.00     0.010 A 
ATOM     43  C   UNL A   1      36.809  32.373  33.434  1.00  0.00     0.010 A 
ATOM     44  C   UNL A   1      37.764  33.050  32.672  1.00  0.00    -0.014 A 
BRANCH  44  45
ATOM     45  C   UNL A   1      38.979  32.301  32.474  1.00  0.00     0.031 A 
ATOM     46  C   UNL A   1      38.860  31.052  31.717  1.00  0.00     0.074 A 
ATOM     47  C   UNL A   1      40.150  32.896  32.779  1.00  0.00     0.049 A 
ATOM     48  N   UNL A   1      39.766  30.148  31.674  1.00  0.00    -0.248 NA
ATOM     49  C   UNL A   1      37.663  30.703  30.955  1.00  0.00     0.031 C 
ATOM     50  C   UNL A   1      41.494  32.537  32.346  1.00  0.00     0.029 A 
ATOM     51  N   UNL A   1      40.359  33.903  33.738  1.00  0.00    -0.354 N 
ATOM     52  C   UNL A   1      39.433  29.282  30.659  1.00  0.00     0.074 A 
ATOM     53  C   UNL A   1      38.070  29.603  30.318  1.00  0.00     0.031 C 
ATOM     54  C   UNL A   1      42.379  33.044  33.224  1.00  0.00     0.029 A 
ATOM     55  C   UNL A   1      41.611  33.596  34.327  1.00  0.00     0.049 A 
ATOM     56  H   UNL A   1      39.764  34.658  33.953  1.00  0.00     0.167 HD
ATOM     57  C   UNL A   1      40.426  28.507  30.141  1.00  0.00     0.037 A 
ATOM     58  C   UNL A   1      41.648  33.139  35.618  1.00  0.00     0.037 A 
ATOM     59  C   UNL A   1      41.664  28.717  30.897  1.00  0.00     0.049 A 
ATOM     60  C   UNL A   1      42.122  31.700  35.742  1.00  0.00     0.074 A 
ATOM     61  C   UNL A   1      42.787  29.507  30.714  1.00  0.00     0.029 A 
ATOM     62  N   UNL A   1      41.671  28.362  32.231  1.00  0.00    -0.354 N 
ATOM     63  N   UNL A   1      42.295  30.892  34.730  1.00  0.00    -0.248 NA
ATOM     64  C   UNL A   1      42.365  31.037  37.020  1.00  0.00     0.031 C 
ATOM     65  C   UNL A   1      43.463  29.614  31.968  1.00  0.00     0.029 A 
ATOM     66  C   UNL A   1      42.759  28.875  32.903  1.00  0.00     0.049 A 
ATOM     67  H   UNL A   1      40.978  27.805  32.654  1.00  0.00     0.167 HD
ATOM     68  C   UNL A   1      42.643  29.645  35.177  1.00  0.00     0.074 A 
ATOM     69  C   UNL A   1      42.643  29.781  36.625  1.00  0.00     0.031 C 
ATOM     70  C   UNL A   1      42.882  28.599  34.326  1.00  0.00     0.037 A 
BRANCH  57  71
ATOM     71  C   UNL A   1      40.367  27.753  28.835  1.00  0.00     0.064 A 
ATOM     72  C   UNL A   1      39.647  26.540  28.759  1.00  0.00     0.173 A 
ATOM     73  C   UNL A   1      41.003  28.131  27.637  1.00  0.00     0.173 A 
ATOM     74  F   UNL A   1      38.922  26.090  29.792  1.00  0.00    -0.203 F 
ATOM     75  C   UNL A   1      39.644  25.735  27.619  1.00  0.00     0.198 A 
ATOM     76  C   UNL A   1      41.033  27.307  26.506  1.00  0.00     0.198 A 
ATOM     77  F   UNL A   1      41.573  29.331  27.487  1.00  0.00    -0.203 F 
ATOM     78  F   UNL A   1      38.946  24.591  27.619  1.00  0.00    -0.200 F 
ATOM     79  C   UNL A   1      40.358  26.105  26.500  1.00  0.00     0.200 A 
ATOM     80  F   UNL A   1      41.715  27.694  25.419  1.00  0.00    -0.200 F 
ATOM     81  F   UNL A   1      40.374  25.320  25.415  1.00  0.00    -0.200 F 
ENDBRANCH  57  71
BRANCH  58  82
ATOM     82  C   UNL A   1      40.585  33.787  36.451  1.00  0.00     0.064 A 
ATOM     83  C   UNL A   1      39.422  33.032  36.722  1.00  0.00     0.173 A 
ATOM     84  C   UNL A   1      40.889  34.836  37.326  1.00  0.00     0.173 A 
ATOM     85  F   UNL A   1      39.067  32.028  35.904  1.00  0.00    -0.203 F 
ATOM     86  C   UNL A   1      38.721  33.188  37.918  1.00  0.00     0.198 A 
ATOM     87  C   UNL A   1      40.154  35.017  38.501  1.00  0.00     0.198 A 
ATOM     88  F   UNL A   1      41.971  35.601  37.121  1.00  0.00    -0.203 F 
ATOM     89  F   UNL A   1      37.735  32.335  38.230  1.00  0.00    -0.200 F 
ATOM     90  C   UNL A   1      39.113  34.158  38.823  1.00  0.00     0.200 A 
ATOM     91  F   UNL A   1      40.528  35.960  39.378  1.00  0.00    -0.200 F 
ATOM     92  F   UNL A   1      38.518  34.236  40.021  1.00  0.00    -0.200 F 
ENDBRANCH  58  82
BRANCH  70  93
ATOM     93  C   UNL A   1      43.224  27.194  34.767  1.00  0.00     0.064 A 
ATOM     94  C   UNL A   1      44.543  26.747  34.921  1.00  0.00     0.173 A 
ATOM     95  C   UNL A   1      42.225  26.206  34.967  1.00  0.00     0.173 A 
ATOM     96  F   UNL A   1      45.579  27.543  34.619  1.00  0.00    -0.203 F 
ATOM     97  C   UNL A   1      44.836  25.452  35.358  1.00  0.00     0.198 A 
ATOM     98  C   UNL A   1      42.522  24.898  35.337  1.00  0.00     0.198 A 
ATOM     99  F   UNL A   1      40.919  26.470  34.840  1.00  0.00    -0.203 F 
ATOM    100  F   UNL A   1      46.111  25.099  35.574  1.00  0.00    -0.200 F 
ATOM    101  C   UNL A   1      43.827  24.529  35.566  1.00  0.00     0.200 A 
ATOM    102  F   UNL A   1      41.529  24.010  35.484  1.00  0.00    -0.200 F 
ATOM    103  F   UNL A   1      44.111  23.287  35.980  1.00  0.00    -0.200 F 
ENDBRANCH  70  93
ENDBRANCH  44  45
ENDBRANCH  36  39
ENDBRANCH  34  35
ENDBRANCH  33  34
ENDBRANCH  32  33
ENDBRANCH  31  32
ENDBRANCH   1  31
TORSDOF 17
ENDMDL
MODEL 2
REMARK VINA RESULT:     -12.8      1.808      2.518
REMARK SMILES Cc1ccc(C(=O)N2CCCC[C@@H]2C(=O)NCCCCCCNC(=O)c2ccc(-c3c4nc(c(-c5c(F)c(F)c(F)c(F)c5F)c5ccc([nH]5)c(-c5c(F)c(F)c(F)c(F)c5F)c5nc(c(-c6c(F)c(F)c(F)c(F)c6F)c6ccc3[nH]6)C=C5)C=C4)cc2)cc1S(=O)(=O)N1CCCCC1
REMARK SMILES IDX 18 1 17 2 16 3 14 4 15 5 13 7 8 8 9 9 10 10 12 11 11 12 6 13
REMARK SMILES IDX 7 14 5 15 1 16 2 17 3 18 90 19 4 20 89 21 91 22 92 23 93 24
REMARK SMILES IDX 94 25 95 26 99 27 96 28 98 29 97 30 19 31 20 32 21 33 22 34
REMARK SMILES IDX 23 35 24 36 25 38 26 39 27 40 88 41 28 42 87 43 29 44 30 45
REMARK SMILES IDX 31 46 81 47 32 48 86 49 80 50 82 51 33 52 85 53 79 54 78 55
REMARK SMILES IDX 34 57 66 58 46 59 65 60 47 61 50 62 64 63 83 64 48 65 49 66
REMARK SMILES IDX 63 68 84 69 51 70 35 71 36 72 44 73 37 74 38 75 42 76 45 77
REMARK SMILES IDX 39 78 40 79 43 80 41 81 67 82 68 83 76 84 69 85 70 86 74 87
REMARK SMILES IDX 77 88 71 89 72 90 75 91 73 92 52 93 53 94 61 95 54 96 55 97
REMARK SMILES IDX 59 98 62 99 56 100 57 101 60 102 58 103
REMARK H PARENT 16 6 23 37 82 56 50 67
REMARK Flexibility Score: inf
ROOT
ATOM      1  C   UNL A   1      33.127  28.203  27.266  1.00  0.00     0.021 C 
ENDROOT
BRANCH   1   2
ATOM      2  C   UNL A   1      32.958  27.438  25.954  1.00  0.00     0.116 C 
BRANCH   2   3
ATOM      3  N   UNL A   1      33.355  28.273  24.840  1.00  0.00    -0.354 N 
ATOM      4  C   UNL A   1      32.593  28.845  23.870  1.00  0.00     0.242 C 
ATOM      5  O   UNL A   1      33.177  29.270  22.871  1.00  0.00    -0.273 OA
ATOM      6  H   UNL A   1      34.322  28.453  24.776  1.00  0.00     0.163 HD
BRANCH   4   7
ATOM      7  C   UNL A   1      31.049  28.860  23.959  1.00  0.00     0.174 C 
ATOM      8  N   UNL A   1      30.369  27.968  22.981  1.00  0.00    -0.327 N 
ATOM      9  C   UNL A   1      28.938  28.171  22.799  1.00  0.00     0.120 C 
ATOM     10  C   UNL A   1      28.587  29.614  22.504  1.00  0.00     0.022 C 
ATOM     11  C   UNL A   1      30.609  30.337  23.802  1.00  0.00     0.035 C 
ATOM     12  C   UNL A   1      29.107  30.516  23.612  1.00  0.00     0.004 C 
BRANCH   8  13
ATOM     13  C   UNL A   1      30.836  26.727  22.530  1.00  0.00     0.254 C 
ATOM     14  O   UNL A   1      31.057  26.516  21.337  1.00  0.00    -0.269 OA
BRANCH  13  15
ATOM     15  C   UNL A   1      31.054  25.598  23.459  1.00  0.00     0.041 A 
ATOM     16  C   UNL A   1      31.798  22.729  26.585  1.00  0.00     0.046 C 
ATOM     17  C   UNL A   1      31.632  23.623  25.401  1.00  0.00    -0.031 A 
ATOM     18  C   UNL A   1      30.591  24.569  25.579  1.00  0.00     0.005 A 
ATOM     19  C   UNL A   1      32.374  23.666  24.207  1.00  0.00     0.086 A 
ATOM     20  C   UNL A   1      30.303  25.540  24.626  1.00  0.00     0.014 A 
ATOM     21  C   UNL A   1      32.089  24.684  23.267  1.00  0.00     0.035 A 
BRANCH  19  22
ATOM     22  S   UNL A   1      33.711  22.612  23.615  1.00  0.00     0.243 S 
ATOM     23  O   UNL A   1      33.167  21.262  23.620  1.00  0.00    -0.207 OA
ATOM     24  O   UNL A   1      34.146  23.216  22.376  1.00  0.00    -0.207 OA
BRANCH  22  25
ATOM     25  N   UNL A   1      35.041  22.609  24.657  1.00  0.00    -0.198 NA
ATOM     26  C   UNL A   1      35.880  21.395  24.640  1.00  0.00     0.102 C 
ATOM     27  C   UNL A   1      35.543  23.925  25.102  1.00  0.00     0.102 C 
ATOM     28  C   UNL A   1      37.086  21.451  25.562  1.00  0.00     0.017 C 
ATOM     29  C   UNL A   1      36.789  23.870  25.973  1.00  0.00     0.017 C 
ATOM     30  C   UNL A   1      37.780  22.800  25.553  1.00  0.00     0.003 C 
ENDBRANCH  22  25
ENDBRANCH  19  22
ENDBRANCH  13  15
ENDBRANCH   8  13
ENDBRANCH   4   7
ENDBRANCH   2   3
ENDBRANCH   1   2
BRANCH   1  31
ATOM     31  C   UNL A   1      32.462  29.587  27.275  1.00  0.00     0.002 C 
BRANCH  31  32
ATOM     32  C   UNL A   1      33.428  30.779  27.275  1.00  0.00     0.002 C 
BRANCH  32  33
ATOM     33  C   UNL A   1      34.889  30.432  27.552  1.00  0.00     0.021 C 
BRANCH  33  34
ATOM     34  C   UNL A   1      35.497  31.229  28.690  1.00  0.00     0.116 C 
BRANCH  34  35
ATOM     35  N   UNL A   1      34.662  32.347  29.102  1.00  0.00    -0.352 N 
ATOM     36  C   UNL A   1      34.801  33.221  30.160  1.00  0.00     0.251 C 
ATOM     37  H   UNL A   1      33.873  32.504  28.535  1.00  0.00     0.163 HD
ATOM     38  O   UNL A   1      33.864  33.947  30.479  1.00  0.00    -0.269 OA
BRANCH  36  39
ATOM     39  C   UNL A   1      36.142  33.452  30.750  1.00  0.00     0.039 A 
ATOM     40  C   UNL A   1      37.116  33.930  29.860  1.00  0.00     0.014 A 
ATOM     41  C   UNL A   1      36.515  32.818  31.926  1.00  0.00     0.014 A 
ATOM     42  C   UNL A   1      38.416  33.472  29.977  1.00  0.00     0.010 A 
ATOM     43  C   UNL A   1      37.748  32.227  31.956  1.00  0.00     0.010 A 
ATOM     44  C   UNL A   1      38.665  32.507  30.940  1.00  0.00    -0.014 A 
BRANCH  44  45
ATOM     45  C   UNL A   1      39.889  31.754  31.045  1.00  0.00     0.031 A 
ATOM     46  C   UNL A   1      39.930  30.471  30.337  1.00  0.00     0.074 A 
ATOM     47  C   UNL A   1      40.969  32.367  31.571  1.00  0.00     0.049 A 
ATOM     48  N   UNL A   1      40.818  29.570  30.534  1.00  0.00    -0.248 NA
ATOM     49  C   UNL A   1      38.926  30.084  29.349  1.00  0.00     0.031 C 
ATOM     50  C   UNL A   1      42.373  31.993  31.458  1.00  0.00     0.029 A 
ATOM     51  N   UNL A   1      40.971  33.416  32.506  1.00  0.00    -0.354 N 
ATOM     52  C   UNL A   1      40.709  28.657  29.510  1.00  0.00     0.074 A 
ATOM     53  C   UNL A   1      39.455  28.958  28.866  1.00  0.00     0.031 C 
ATOM     54  C   UNL A   1      43.049  32.542  32.484  1.00  0.00     0.029 A 
ATOM     55  C   UNL A   1      42.062  33.141  33.367  1.00  0.00     0.049 A 
ATOM     56  H   UNL A   1      40.348  34.178  32.552  1.00  0.00     0.167 HD
ATOM     57  C   UNL A   1      41.786  27.863  29.257  1.00  0.00     0.037 A 
ATOM     58  C   UNL A   1      41.814  32.743  34.654  1.00  0.00     0.037 A 
ATOM     59  C   UNL A   1      42.831  28.112  30.254  1.00  0.00     0.049 A 
ATOM     60  C   UNL A   1      42.240  31.313  34.943  1.00  0.00     0.074 A 
ATOM     61  C   UNL A   1      43.971  28.897  30.284  1.00  0.00     0.029 A 
ATOM     62  N   UNL A   1      42.545  27.818  31.572  1.00  0.00    -0.354 N 
ATOM     63  N   UNL A   1      42.625  30.461  34.030  1.00  0.00    -0.248 NA
ATOM     64  C   UNL A   1      42.195  30.709  36.272  1.00  0.00     0.031 C 
ATOM     65  C   UNL A   1      44.358  29.063  31.650  1.00  0.00     0.029 A 
ATOM     66  C   UNL A   1      43.463  28.365  32.441  1.00  0.00     0.049 A 
ATOM     67  H   UNL A   1      41.773  27.278  31.859  1.00  0.00     0.167 HD
ATOM     68  C   UNL A   1      42.860  29.237  34.598  1.00  0.00     0.074 A 
ATOM     69  C   UNL A   1      42.544  29.438  36.003  1.00  0.00     0.031 C 
ATOM     70  C   UNL A   1      43.272  28.154  33.868  1.00  0.00     0.037 A 
BRANCH  57  71
ATOM     71  C   UNL A   1      42.008  27.052  28.004  1.00  0.00     0.064 A 
ATOM     72  C   UNL A   1      41.284  25.855  27.809  1.00  0.00     0.173 A 
ATOM     73  C   UNL A   1      42.921  27.357  26.976  1.00  0.00     0.173 A 
ATOM     74  F   UNL A   1      40.321  25.472  28.658  1.00  0.00    -0.203 F 
ATOM     75  C   UNL A   1      41.520  24.998  26.732  1.00  0.00     0.198 A 
ATOM     76  C   UNL A   1      43.185  26.480  25.917  1.00  0.00     0.198 A 
ATOM     77  F   UNL A   1      43.551  28.534  26.917  1.00  0.00    -0.203 F 
ATOM     78  F   UNL A   1      40.801  23.872  26.614  1.00  0.00    -0.200 F 
ATOM     79  C   UNL A   1      42.489  25.297  25.800  1.00  0.00     0.200 A 
ATOM     80  F   UNL A   1      44.116  26.799  25.007  1.00  0.00    -0.200 F 
ATOM     81  F   UNL A   1      42.732  24.462  24.781  1.00  0.00    -0.200 F 
ENDBRANCH  57  71
BRANCH  58  82
ATOM     82  C   UNL A   1      40.599  33.424  35.205  1.00  0.00     0.064 A 
ATOM     83  C   UNL A   1      39.438  32.639  35.383  1.00  0.00     0.173 A 
ATOM     84  C   UNL A   1      40.706  34.593  35.967  1.00  0.00     0.173 A 
ATOM     85  F   UNL A   1      39.270  31.518  34.663  1.00  0.00    -0.203 F 
ATOM     86  C   UNL A   1      38.538  32.902  36.415  1.00  0.00     0.198 A 
ATOM     87  C   UNL A   1      39.776  34.876  36.970  1.00  0.00     0.198 A 
ATOM     88  F   UNL A   1      41.776  35.393  35.839  1.00  0.00    -0.203 F 
ATOM     89  F   UNL A   1      37.548  32.035  36.676  1.00  0.00    -0.200 F 
ATOM     90  C   UNL A   1      38.730  34.002  37.231  1.00  0.00     0.200 A 
ATOM     91  F   UNL A   1      39.955  35.945  37.760  1.00  0.00    -0.200 F 
ATOM     92  F   UNL A   1      37.937  34.195  38.293  1.00  0.00    -0.200 F 
ENDBRANCH  58  82
BRANCH  70  93
ATOM     93  C   UNL A   1      43.501  26.771  34.435  1.00  0.00     0.064 A 
ATOM     94  C   UNL A   1      44.773  26.190  34.526  1.00  0.00     0.173 A 
ATOM     95  C   UNL A   1      42.425  25.934  34.830  1.00  0.00     0.173 A 
ATOM     96  F   UNL A   1      45.854  26.823  34.050  1.00  0.00    -0.203 F 
ATOM     97  C   UNL A   1      44.965  24.922  35.082  1.00  0.00     0.198 A 
ATOM     98  C   UNL A   1      42.613  24.646  35.320  1.00  0.00     0.198 A 
ATOM     99  F   UNL A   1      41.148  26.336  34.786  1.00  0.00    -0.203 F 
ATOM    100  F   UNL A   1      46.209  24.445  35.228  1.00  0.00    -0.200 F 
ATOM    101  C   UNL A   1      43.887  24.151  35.478  1.00  0.00     0.200 A 
ATOM    102  F   UNL A   1      41.549  23.901  35.651  1.00  0.00    -0.200 F 
ATOM    103  F   UNL A   1      44.074  22.934  36.005  1.00  0.00    -0.200 F 
ENDBRANCH  70  93
ENDBRANCH  44  45
ENDBRANCH  36  39
ENDBRANCH  34  35
ENDBRANCH  33  34
ENDBRANCH  32  33
ENDBRANCH  31  32
ENDBRANCH   1  31
TORSDOF 17
ENDMDL
MODEL 3
REMARK VINA RESULT:     -12.4      2.555      4.004
REMARK SMILES Cc1ccc(C(=O)N2CCCC[C@@H]2C(=O)NCCCCCCNC(=O)c2ccc(-c3c4nc(c(-c5c(F)c(F)c(F)c(F)c5F)c5ccc([nH]5)c(-c5c(F)c(F)c(F)c(F)c5F)c5nc(c(-c6c(F)c(F)c(F)c(F)c6F)c6ccc3[nH]6)C=C5)C=C4)cc2)cc1S(=O)(=O)N1CCCCC1
REMARK SMILES IDX 18 1 17 2 16 3 14 4 15 5 13 7 8 8 9 9 10 10 12 11 11 12 6 13
REMARK SMILES IDX 7 14 5 15 1 16 2 17 3 18 90 19 4 20 89 21 91 22 92 23 93 24
REMARK SMILES IDX 94 25 95 26 99 27 96 28 98 29 97 30 19 31 20 32 21 33 22 34
REMARK SMILES IDX 23 35 24 36 25 38 26 39 27 40 88 41 28 42 87 43 29 44 30 45
REMARK SMILES IDX 31 46 81 47 32 48 86 49 80 50 82 51 33 52 85 53 79 54 78 55
REMARK SMILES IDX 34 57 66 58 46 59 65 60 47 61 50 62 64 63 83 64 48 65 49 66
REMARK SMILES IDX 63 68 84 69 51 70 35 71 36 72 44 73 37 74 38 75 42 76 45 77
REMARK SMILES IDX 39 78 40 79 43 80 41 81 67 82 68 83 76 84 69 85 70 86 74 87
REMARK SMILES IDX 77 88 71 89 72 90 75 91 73 92 52 93 53 94 61 95 54 96 55 97
REMARK SMILES IDX 59 98 62 99 56 100 57 101 60 102 58 103
REMARK H PARENT 16 6 23 37 82 56 50 67
REMARK Flexibility Score: inf
ROOT
ATOM      1  C   UNL A   1      33.920  30.660  27.732  1.00  0.00     0.021 C 
ENDROOT
BRANCH   1   2
ATOM      2  C   UNL A   1      32.740  30.259  26.848  1.00  0.00     0.116 C 
BRANCH   2   3
ATOM      3  N   UNL A   1      33.191  30.039  25.491  1.00  0.00    -0.354 N 
ATOM      4  C   UNL A   1      32.634  29.287  24.504  1.00  0.00     0.242 C 
ATOM      5  O   UNL A   1      33.342  29.020  23.530  1.00  0.00    -0.273 OA
ATOM      6  H   UNL A   1      34.025  30.503  25.246  1.00  0.00     0.163 HD
BRANCH   4   7
ATOM      7  C   UNL A   1      31.214  28.693  24.643  1.00  0.00     0.174 C 
ATOM      8  N   UNL A   1      31.184  27.246  24.989  1.00  0.00    -0.327 N 
ATOM      9  C   UNL A   1      29.908  26.562  24.826  1.00  0.00     0.120 C 
ATOM     10  C   UNL A   1      29.307  26.772  23.452  1.00  0.00     0.022 C 
ATOM     11  C   UNL A   1      30.475  28.988  23.314  1.00  0.00     0.035 C 
ATOM     12  C   UNL A   1      29.145  28.257  23.173  1.00  0.00     0.004 C 
BRANCH   8  13
ATOM     13  C   UNL A   1      32.095  26.574  25.813  1.00  0.00     0.254 C 
ATOM     14  O   UNL A   1      32.128  26.766  27.029  1.00  0.00    -0.269 OA
BRANCH  13  15
ATOM     15  C   UNL A   1      33.085  25.625  25.260  1.00  0.00     0.041 A 
ATOM     16  C   UNL A   1      35.698  22.952  23.117  1.00  0.00     0.046 C 
ATOM     17  C   UNL A   1      34.788  23.762  23.982  1.00  0.00    -0.031 A 
ATOM     18  C   UNL A   1      34.717  25.117  23.574  1.00  0.00     0.005 A 
ATOM     19  C   UNL A   1      33.999  23.352  25.073  1.00  0.00     0.086 A 
ATOM     20  C   UNL A   1      33.883  26.037  24.201  1.00  0.00     0.014 A 
ATOM     21  C   UNL A   1      33.130  24.294  25.672  1.00  0.00     0.035 A 
BRANCH  19  22
ATOM     22  S   UNL A   1      33.868  21.754  25.895  1.00  0.00     0.243 S 
ATOM     23  O   UNL A   1      35.167  21.533  26.513  1.00  0.00    -0.207 OA
ATOM     24  O   UNL A   1      32.680  21.848  26.712  1.00  0.00    -0.207 OA
BRANCH  22  25
ATOM     25  N   UNL A   1      33.620  20.487  24.806  1.00  0.00    -0.198 NA
ATOM     26  C   UNL A   1      34.243  19.195  25.156  1.00  0.00     0.102 C 
ATOM     27  C   UNL A   1      32.453  20.596  23.907  1.00  0.00     0.102 C 
ATOM     28  C   UNL A   1      33.962  18.073  24.170  1.00  0.00     0.017 C 
ATOM     29  C   UNL A   1      32.229  19.393  23.003  1.00  0.00     0.017 C 
ATOM     30  C   UNL A   1      32.530  18.064  23.671  1.00  0.00     0.003 C 
ENDBRANCH  22  25
ENDBRANCH  19  22
ENDBRANCH  13  15
ENDBRANCH   8  13
ENDBRANCH   4   7
ENDBRANCH   2   3
ENDBRANCH   1   2
BRANCH   1  31
ATOM     31  C   UNL A   1      34.027  32.170  27.987  1.00  0.00     0.002 C 
BRANCH  31  32
ATOM     32  C   UNL A   1      35.381  32.801  27.633  1.00  0.00     0.002 C 
BRANCH  32  33
ATOM     33  C   UNL A   1      35.874  33.871  28.604  1.00  0.00     0.021 C 
BRANCH  33  34
ATOM     34  C   UNL A   1      36.995  33.400  29.509  1.00  0.00     0.116 C 
BRANCH  34  35
ATOM     35  N   UNL A   1      36.509  32.684  30.678  1.00  0.00    -0.352 N 
ATOM     36  C   UNL A   1      36.353  31.330  30.894  1.00  0.00     0.251 C 
ATOM     37  H   UNL A   1      36.250  33.257  31.436  1.00  0.00     0.163 HD
ATOM     38  O   UNL A   1      35.705  30.937  31.858  1.00  0.00    -0.269 OA
BRANCH  36  39
ATOM     39  C   UNL A   1      37.161  30.365  30.110  1.00  0.00     0.039 A 
ATOM     40  C   UNL A   1      37.176  29.052  30.605  1.00  0.00     0.014 A 
ATOM     41  C   UNL A   1      38.167  30.809  29.263  1.00  0.00     0.014 A 
ATOM     42  C   UNL A   1      38.348  28.320  30.536  1.00  0.00     0.010 A 
ATOM     43  C   UNL A   1      39.374  30.171  29.336  1.00  0.00     0.010 A 
ATOM     44  C   UNL A   1      39.468  28.963  30.033  1.00  0.00    -0.014 A 
BRANCH  44  45
ATOM     45  C   UNL A   1      40.811  28.444  30.105  1.00  0.00     0.031 A 
ATOM     46  C   UNL A   1      41.039  27.136  29.485  1.00  0.00     0.074 A 
ATOM     47  C   UNL A   1      41.793  29.274  30.512  1.00  0.00     0.049 A 
ATOM     48  N   UNL A   1      42.083  26.420  29.681  1.00  0.00    -0.248 NA
ATOM     49  C   UNL A   1      40.066  26.504  28.598  1.00  0.00     0.031 C 
ATOM     50  C   UNL A   1      43.232  29.141  30.327  1.00  0.00     0.029 A 
ATOM     51  N   UNL A   1      41.660  30.379  31.370  1.00  0.00    -0.354 N 
ATOM     52  C   UNL A   1      42.080  25.424  28.733  1.00  0.00     0.074 A 
ATOM     53  C   UNL A   1      40.758  25.451  28.158  1.00  0.00     0.031 C 
ATOM     54  C   UNL A   1      43.856  29.879  31.264  1.00  0.00     0.029 A 
ATOM     55  C   UNL A   1      42.830  30.366  32.171  1.00  0.00     0.049 A 
ATOM     56  H   UNL A   1      40.916  31.023  31.407  1.00  0.00     0.167 HD
ATOM     57  C   UNL A   1      43.265  24.810  28.460  1.00  0.00     0.037 A 
ATOM     58  C   UNL A   1      42.729  30.035  33.496  1.00  0.00     0.037 A 
ATOM     59  C   UNL A   1      44.303  25.315  29.363  1.00  0.00     0.049 A 
ATOM     60  C   UNL A   1      43.418  28.728  33.851  1.00  0.00     0.074 A 
ATOM     61  C   UNL A   1      45.286  26.285  29.261  1.00  0.00     0.029 A 
ATOM     62  N   UNL A   1      44.148  25.081  30.715  1.00  0.00    -0.354 N 
ATOM     63  N   UNL A   1      43.896  27.885  32.975  1.00  0.00    -0.248 NA
ATOM     64  C   UNL A   1      43.555  28.232  35.219  1.00  0.00     0.031 C 
ATOM     65  C   UNL A   1      45.714  26.623  30.581  1.00  0.00     0.029 A 
ATOM     66  C   UNL A   1      45.003  25.845  31.478  1.00  0.00     0.049 A 
ATOM     67  H   UNL A   1      43.502  24.440  31.090  1.00  0.00     0.167 HD
ATOM     68  C   UNL A   1      44.376  26.769  33.608  1.00  0.00     0.074 A 
ATOM     69  C   UNL A   1      44.109  27.023  35.014  1.00  0.00     0.031 C 
ATOM     70  C   UNL A   1      44.932  25.719  32.927  1.00  0.00     0.037 A 
BRANCH  57  71
ATOM     71  C   UNL A   1      43.557  23.952  27.253  1.00  0.00     0.064 A 
ATOM     72  C   UNL A   1      42.988  22.663  27.158  1.00  0.00     0.173 A 
ATOM     73  C   UNL A   1      44.396  24.302  26.177  1.00  0.00     0.173 A 
ATOM     74  F   UNL A   1      42.105  22.218  28.062  1.00  0.00    -0.203 F 
ATOM     75  C   UNL A   1      43.304  21.773  26.130  1.00  0.00     0.198 A 
ATOM     76  C   UNL A   1      44.743  23.398  25.167  1.00  0.00     0.198 A 
ATOM     77  F   UNL A   1      44.868  25.543  26.024  1.00  0.00    -0.203 F 
ATOM     78  F   UNL A   1      42.734  20.560  26.106  1.00  0.00    -0.200 F 
ATOM     79  C   UNL A   1      44.202  22.130  25.148  1.00  0.00     0.200 A 
ATOM     80  F   UNL A   1      45.601  23.771  24.208  1.00  0.00    -0.200 F 
ATOM     81  F   UNL A   1      44.523  21.268  24.175  1.00  0.00    -0.200 F 
ENDBRANCH  57  71
BRANCH  58  82
ATOM     82  C   UNL A   1      41.446  30.537  34.082  1.00  0.00     0.064 A 
ATOM     83  C   UNL A   1      41.350  31.922  34.348  1.00  0.00     0.173 A 
ATOM     84  C   UNL A   1      40.248  29.832  33.918  1.00  0.00     0.173 A 
ATOM     85  F   UNL A   1      42.465  32.647  34.538  1.00  0.00    -0.203 F 
ATOM     86  C   UNL A   1      40.134  32.596  34.249  1.00  0.00     0.198 A 
ATOM     87  C   UNL A   1      39.027  30.506  33.865  1.00  0.00     0.198 A 
ATOM     88  F   UNL A   1      40.264  28.512  33.675  1.00  0.00    -0.203 F 
ATOM     89  F   UNL A   1      40.103  33.934  34.324  1.00  0.00    -0.200 F 
ATOM     90  C   UNL A   1      38.978  31.889  33.970  1.00  0.00     0.200 A 
ATOM     91  F   UNL A   1      37.902  29.824  33.600  1.00  0.00    -0.200 F 
ATOM     92  F   UNL A   1      37.827  32.543  33.758  1.00  0.00    -0.200 F 
ENDBRANCH  58  82
BRANCH  70  93
ATOM     93  C   UNL A   1      45.434  24.446  33.569  1.00  0.00     0.064 A 
ATOM     94  C   UNL A   1      46.787  24.228  33.863  1.00  0.00     0.173 A 
ATOM     95  C   UNL A   1      44.574  23.350  33.836  1.00  0.00     0.173 A 
ATOM     96  F   UNL A   1      47.719  25.129  33.524  1.00  0.00    -0.203 F 
ATOM     97  C   UNL A   1      47.225  23.055  34.485  1.00  0.00     0.198 A 
ATOM     98  C   UNL A   1      45.023  22.157  34.394  1.00  0.00     0.198 A 
ATOM     99  F   UNL A   1      43.257  23.394  33.595  1.00  0.00    -0.203 F 
ATOM    100  F   UNL A   1      48.516  22.929  34.825  1.00  0.00    -0.200 F 
ATOM    101  C   UNL A   1      46.345  22.021  34.750  1.00  0.00     0.200 A 
ATOM    102  F   UNL A   1      44.159  21.153  34.595  1.00  0.00    -0.200 F 
ATOM    103  F   UNL A   1      46.769  20.897  35.342  1.00  0.00    -0.200 F 
ENDBRANCH  70  93
ENDBRANCH  44  45
ENDBRANCH  36  39
ENDBRANCH  34  35
ENDBRANCH  33  34
ENDBRANCH  32  33
ENDBRANCH  31  32
ENDBRANCH   1  31
TORSDOF 17
ENDMDL
