MODEL 1
REMARK VINA RESULT:     -11.1      0.000      0.000
REMARK SMILES COC(=O)c1cc(CSc2csc(C(=O)NCCCCCCNC(=O)c3ccc(-c4c5nc(c(-c6c(F)c(F)c(F)c(F)c6F)c6ccc([nH]6)c(-c6c(F)c(F)c(F)c(F)c6F)c6nc(c(-c7c(F)c(F)c(F)c(F)c7F)c7ccc4[nH]7)C=C6)C=C5)cc3)c2)oc1C
REMARK SMILES IDX 18 1 17 2 16 3 14 4 15 5 13 7 10 8 11 9 89 10 12 11 9 12
REMARK SMILES IDX 8 13 7 14 5 15 6 16 91 17 90 18 92 19 3 20 4 21 2 22 1 23
REMARK SMILES IDX 19 24 20 25 21 26 22 27 23 28 24 29 25 31 26 32 27 33 88 34
REMARK SMILES IDX 28 35 87 36 29 37 30 38 31 39 81 40 32 41 86 42 80 43 82 44
REMARK SMILES IDX 33 45 85 46 79 47 78 48 34 50 66 51 46 52 65 53 47 54 50 55
REMARK SMILES IDX 64 56 83 57 48 58 49 59 63 61 84 62 51 63 35 64 36 65 44 66
REMARK SMILES IDX 37 67 38 68 42 69 45 70 39 71 40 72 43 73 41 74 67 75 68 76
REMARK SMILES IDX 76 77 69 78 70 79 74 80 77 81 71 82 72 83 75 84 73 85 52 86
REMARK SMILES IDX 53 87 61 88 54 89 55 90 59 91 62 92 56 93 57 94 60 95 58 96
REMARK H PARENT 16 6 23 30 82 49 50 60
REMARK Flexibility Score: inf
ROOT
ATOM      1  C   UNL A   1      32.730  29.554  24.792  1.00  0.00     0.021 C 
ENDROOT
BRANCH   1   2
ATOM      2  C   UNL A   1      33.669  28.348  24.807  1.00  0.00     0.116 C 
BRANCH   2   3
ATOM      3  N   UNL A   1      33.893  27.881  23.458  1.00  0.00    -0.351 N 
ATOM      4  C   UNL A   1      33.403  26.816  22.745  1.00  0.00     0.261 C 
ATOM      5  O   UNL A   1      33.879  26.704  21.610  1.00  0.00    -0.268 OA
ATOM      6  H   UNL A   1      34.524  28.439  22.949  1.00  0.00     0.163 HD
BRANCH   4   7
ATOM      7  C   UNL A   1      32.374  25.929  23.273  1.00  0.00     0.093 A 
ATOM      8  C   UNL A   1      31.154  24.246  24.380  1.00  0.00     0.019 A 
ATOM      9  C   UNL A   1      30.181  25.186  24.165  1.00  0.00     0.080 A 
ATOM     10  C   UNL A   1      32.385  24.634  23.764  1.00  0.00     0.040 A 
ATOM     11  S   UNL A   1      30.766  26.553  23.327  1.00  0.00    -0.137 S 
BRANCH   8  12
ATOM     12  S   UNL A   1      31.085  22.766  25.328  1.00  0.00    -0.117 SA
BRANCH  12  13
ATOM     13  C   UNL A   1      32.704  21.972  25.191  1.00  0.00     0.150 C 
BRANCH  13  14
ATOM     14  C   UNL A   1      32.674  20.542  24.794  1.00  0.00     0.115 A 
ATOM     15  C   UNL A   1      32.924  18.318  24.531  1.00  0.00     0.101 A 
ATOM     16  C   UNL A   1      32.960  19.381  25.481  1.00  0.00     0.062 A 
ATOM     17  C   UNL A   1      32.500  18.898  23.347  1.00  0.00     0.115 A 
ATOM     18  O   UNL A   1      32.337  20.243  23.508  1.00  0.00    -0.465 OA
ATOM     19  C   UNL A   1      32.197  18.379  21.995  1.00  0.00     0.088 C 
BRANCH  15  20
ATOM     20  C   UNL A   1      33.265  16.920  24.722  1.00  0.00     0.341 C 
ATOM     21  O   UNL A   1      34.150  16.345  24.106  1.00  0.00    -0.246 OA
BRANCH  20  22
ATOM     22  O   UNL A   1      32.478  16.331  25.670  1.00  0.00    -0.465 OA
ATOM     23  C   UNL A   1      32.481  14.905  25.620  1.00  0.00     0.282 C 
ENDBRANCH  20  22
ENDBRANCH  15  20
ENDBRANCH  13  14
ENDBRANCH  12  13
ENDBRANCH   8  12
ENDBRANCH   4   7
ENDBRANCH   2   3
ENDBRANCH   1   2
BRANCH   1  24
ATOM     24  C   UNL A   1      31.666  29.486  25.897  1.00  0.00     0.002 C 
BRANCH  24  25
ATOM     25  C   UNL A   1      31.957  30.376  27.114  1.00  0.00     0.002 C 
BRANCH  25  26
ATOM     26  C   UNL A   1      31.650  31.861  26.904  1.00  0.00     0.021 C 
BRANCH  26  27
ATOM     27  C   UNL A   1      32.890  32.746  26.866  1.00  0.00     0.116 C 
BRANCH  27  28
ATOM     28  N   UNL A   1      32.656  34.012  27.541  1.00  0.00    -0.352 N 
ATOM     29  C   UNL A   1      33.179  34.482  28.716  1.00  0.00     0.251 C 
ATOM     30  H   UNL A   1      32.030  34.621  27.087  1.00  0.00     0.163 HD
ATOM     31  O   UNL A   1      32.675  35.454  29.269  1.00  0.00    -0.269 OA
BRANCH  29  32
ATOM     32  C   UNL A   1      34.351  33.817  29.320  1.00  0.00     0.039 A 
ATOM     33  C   UNL A   1      35.628  34.282  28.999  1.00  0.00     0.014 A 
ATOM     34  C   UNL A   1      34.196  32.713  30.164  1.00  0.00     0.014 A 
ATOM     35  C   UNL A   1      36.748  33.658  29.548  1.00  0.00     0.010 A 
ATOM     36  C   UNL A   1      35.308  32.147  30.778  1.00  0.00     0.010 A 
ATOM     37  C   UNL A   1      36.596  32.600  30.459  1.00  0.00    -0.014 A 
BRANCH  37  38
ATOM     38  C   UNL A   1      37.782  31.944  31.067  1.00  0.00     0.031 A 
ATOM     39  C   UNL A   1      38.234  32.330  32.448  1.00  0.00     0.074 A 
ATOM     40  C   UNL A   1      38.467  31.027  30.358  1.00  0.00     0.049 A 
ATOM     41  N   UNL A   1      39.255  31.886  33.138  1.00  0.00    -0.248 NA
ATOM     42  C   UNL A   1      37.454  33.370  33.137  1.00  0.00     0.031 C 
ATOM     43  C   UNL A   1      38.151  30.607  28.992  1.00  0.00     0.029 A 
ATOM     44  N   UNL A   1      39.573  30.285  30.687  1.00  0.00    -0.354 N 
ATOM     45  C   UNL A   1      39.242  32.598  34.331  1.00  0.00     0.074 A 
ATOM     46  C   UNL A   1      38.154  33.546  34.247  1.00  0.00     0.031 C 
ATOM     47  C   UNL A   1      39.021  29.659  28.612  1.00  0.00     0.029 A 
ATOM     48  C   UNL A   1      39.982  29.435  29.688  1.00  0.00     0.049 A 
ATOM     49  H   UNL A   1      40.031  30.356  31.555  1.00  0.00     0.167 HD
ATOM     50  C   UNL A   1      40.047  32.452  35.410  1.00  0.00     0.037 A 
ATOM     51  C   UNL A   1      41.016  28.575  29.646  1.00  0.00     0.037 A 
ATOM     52  C   UNL A   1      41.120  31.494  35.491  1.00  0.00     0.049 A 
ATOM     53  C   UNL A   1      41.906  28.445  30.853  1.00  0.00     0.074 A 
ATOM     54  C   UNL A   1      41.962  31.231  36.557  1.00  0.00     0.029 A 
ATOM     55  N   UNL A   1      41.499  30.644  34.462  1.00  0.00    -0.354 N 
ATOM     56  N   UNL A   1      41.841  29.071  32.003  1.00  0.00    -0.248 NA
ATOM     57  C   UNL A   1      43.008  27.478  30.759  1.00  0.00     0.031 C 
ATOM     58  C   UNL A   1      42.891  30.267  36.151  1.00  0.00     0.029 A 
ATOM     59  C   UNL A   1      42.581  29.875  34.859  1.00  0.00     0.049 A 
ATOM     60  H   UNL A   1      41.063  30.595  33.580  1.00  0.00     0.167 HD
ATOM     61  C   UNL A   1      42.865  28.549  32.781  1.00  0.00     0.074 A 
ATOM     62  C   UNL A   1      43.529  27.545  31.976  1.00  0.00     0.031 C 
ATOM     63  C   UNL A   1      43.224  28.870  34.049  1.00  0.00     0.037 A 
BRANCH  50  64
ATOM     64  C   UNL A   1      39.804  33.353  36.588  1.00  0.00     0.064 A 
ATOM     65  C   UNL A   1      40.441  34.597  36.711  1.00  0.00     0.173 A 
ATOM     66  C   UNL A   1      38.893  32.984  37.591  1.00  0.00     0.173 A 
ATOM     67  F   UNL A   1      41.329  34.996  35.788  1.00  0.00    -0.203 F 
ATOM     68  C   UNL A   1      40.201  35.423  37.807  1.00  0.00     0.198 A 
ATOM     69  C   UNL A   1      38.628  33.828  38.666  1.00  0.00     0.198 A 
ATOM     70  F   UNL A   1      38.250  31.809  37.522  1.00  0.00    -0.203 F 
ATOM     71  F   UNL A   1      40.865  36.581  37.930  1.00  0.00    -0.200 F 
ATOM     72  C   UNL A   1      39.289  35.041  38.779  1.00  0.00     0.200 A 
ATOM     73  F   UNL A   1      37.734  33.464  39.596  1.00  0.00    -0.200 F 
ATOM     74  F   UNL A   1      39.051  35.840  39.828  1.00  0.00    -0.200 F 
ENDBRANCH  50  64
BRANCH  51  75
ATOM     75  C   UNL A   1      41.251  27.753  28.429  1.00  0.00     0.064 A 
ATOM     76  C   UNL A   1      42.118  28.189  27.419  1.00  0.00     0.173 A 
ATOM     77  C   UNL A   1      40.609  26.519  28.248  1.00  0.00     0.173 A 
ATOM     78  F   UNL A   1      42.745  29.370  27.537  1.00  0.00    -0.203 F 
ATOM     79  C   UNL A   1      42.314  27.437  26.261  1.00  0.00     0.198 A 
ATOM     80  C   UNL A   1      40.831  25.752  27.106  1.00  0.00     0.198 A 
ATOM     81  F   UNL A   1      39.774  26.050  29.188  1.00  0.00    -0.203 F 
ATOM     82  F   UNL A   1      43.106  27.905  25.287  1.00  0.00    -0.200 F 
ATOM     83  C   UNL A   1      41.674  26.218  26.109  1.00  0.00     0.200 A 
ATOM     84  F   UNL A   1      40.224  24.565  26.972  1.00  0.00    -0.200 F 
ATOM     85  F   UNL A   1      41.864  25.493  24.998  1.00  0.00    -0.200 F 
ENDBRANCH  51  75
BRANCH  63  86
ATOM     86  C   UNL A   1      44.350  28.092  34.667  1.00  0.00     0.064 A 
ATOM     87  C   UNL A   1      45.680  28.532  34.605  1.00  0.00     0.173 A 
ATOM     88  C   UNL A   1      44.086  26.902  35.365  1.00  0.00     0.173 A 
ATOM     89  F   UNL A   1      45.990  29.655  33.938  1.00  0.00    -0.203 F 
ATOM     90  C   UNL A   1      46.707  27.793  35.188  1.00  0.00     0.198 A 
ATOM     91  C   UNL A   1      45.109  26.187  35.979  1.00  0.00     0.198 A 
ATOM     92  F   UNL A   1      42.830  26.441  35.463  1.00  0.00    -0.203 F 
ATOM     93  F   UNL A   1      47.977  28.203  35.066  1.00  0.00    -0.200 F 
ATOM     94  C   UNL A   1      46.419  26.627  35.882  1.00  0.00     0.200 A 
ATOM     95  F   UNL A   1      44.827  25.071  36.665  1.00  0.00    -0.200 F 
ATOM     96  F   UNL A   1      47.408  25.923  36.450  1.00  0.00    -0.200 F 
ENDBRANCH  63  86
ENDBRANCH  37  38
ENDBRANCH  29  32
ENDBRANCH  27  28
ENDBRANCH  26  27
ENDBRANCH  25  26
ENDBRANCH  24  25
ENDBRANCH   1  24
TORSDOF 18
ENDMDL
MODEL 2
REMARK VINA RESULT:     -10.7      2.354      4.133
REMARK SMILES COC(=O)c1cc(CSc2csc(C(=O)NCCCCCCNC(=O)c3ccc(-c4c5nc(c(-c6c(F)c(F)c(F)c(F)c6F)c6ccc([nH]6)c(-c6c(F)c(F)c(F)c(F)c6F)c6nc(c(-c7c(F)c(F)c(F)c(F)c7F)c7ccc4[nH]7)C=C6)C=C5)cc3)c2)oc1C
REMARK SMILES IDX 18 1 17 2 16 3 14 4 15 5 13 7 10 8 11 9 89 10 12 11 9 12
REMARK SMILES IDX 8 13 7 14 5 15 6 16 91 17 90 18 92 19 3 20 4 21 2 22 1 23
REMARK SMILES IDX 19 24 20 25 21 26 22 27 23 28 24 29 25 31 26 32 27 33 88 34
REMARK SMILES IDX 28 35 87 36 29 37 30 38 31 39 81 40 32 41 86 42 80 43 82 44
REMARK SMILES IDX 33 45 85 46 79 47 78 48 34 50 66 51 46 52 65 53 47 54 50 55
REMARK SMILES IDX 64 56 83 57 48 58 49 59 63 61 84 62 51 63 35 64 36 65 44 66
REMARK SMILES IDX 37 67 38 68 42 69 45 70 39 71 40 72 43 73 41 74 67 75 68 76
REMARK SMILES IDX 76 77 69 78 70 79 74 80 77 81 71 82 72 83 75 84 73 85 52 86
REMARK SMILES IDX 53 87 61 88 54 89 55 90 59 91 62 92 56 93 57 94 60 95 58 96
REMARK H PARENT 16 6 23 30 82 49 50 60
REMARK Flexibility Score: inf
ROOT
ATOM      1  C   UNL A   1      29.877  26.146  24.744  1.00  0.00     0.021 C 
ENDROOT
BRANCH   1   2
ATOM      2  C   UNL A   1      30.791  25.180  25.497  1.00  0.00     0.116 C 
BRANCH   2   3
ATOM      3  N   UNL A   1      30.002  24.296  26.325  1.00  0.00    -0.351 N 
ATOM      4  C   UNL A   1      30.247  23.063  26.872  1.00  0.00     0.261 C 
ATOM      5  O   UNL A   1      29.290  22.582  27.488  1.00  0.00    -0.268 OA
ATOM      6  H   UNL A   1      29.109  24.651  26.538  1.00  0.00     0.163 HD
BRANCH   4   7
ATOM      7  C   UNL A   1      31.546  22.407  26.772  1.00  0.00     0.093 A 
ATOM      8  C   UNL A   1      33.517  21.335  26.057  1.00  0.00     0.019 A 
ATOM      9  C   UNL A   1      33.920  21.869  27.252  1.00  0.00     0.080 A 
ATOM     10  C   UNL A   1      32.120  21.555  25.844  1.00  0.00     0.040 A 
ATOM     11  S   UNL A   1      32.666  22.705  28.052  1.00  0.00    -0.137 S 
BRANCH   8  12
ATOM     12  S   UNL A   1      34.472  20.542  24.810  1.00  0.00    -0.117 SA
BRANCH  12  13
ATOM     13  C   UNL A   1      35.469  21.821  24.010  1.00  0.00     0.150 C 
BRANCH  13  14
ATOM     14  C   UNL A   1      34.760  23.095  23.735  1.00  0.00     0.115 A 
ATOM     15  C   UNL A   1      33.757  24.924  22.882  1.00  0.00     0.101 A 
ATOM     16  C   UNL A   1      34.070  23.555  22.633  1.00  0.00     0.062 A 
ATOM     17  C   UNL A   1      34.179  25.167  24.178  1.00  0.00     0.115 A 
ATOM     18  O   UNL A   1      34.776  24.057  24.700  1.00  0.00    -0.465 OA
ATOM     19  C   UNL A   1      34.117  26.338  25.080  1.00  0.00     0.088 C 
BRANCH  15  20
ATOM     20  C   UNL A   1      33.141  25.889  21.990  1.00  0.00     0.341 C 
ATOM     21  O   UNL A   1      31.969  25.847  21.646  1.00  0.00    -0.246 OA
BRANCH  20  22
ATOM     22  O   UNL A   1      34.029  26.844  21.585  1.00  0.00    -0.465 OA
ATOM     23  C   UNL A   1      33.689  28.166  22.004  1.00  0.00     0.282 C 
ENDBRANCH  20  22
ENDBRANCH  15  20
ENDBRANCH  13  14
ENDBRANCH  12  13
ENDBRANCH   8  12
ENDBRANCH   4   7
ENDBRANCH   2   3
ENDBRANCH   1   2
BRANCH   1  24
ATOM     24  C   UNL A   1      30.631  27.364  24.194  1.00  0.00     0.002 C 
BRANCH  24  25
ATOM     25  C   UNL A   1      30.930  28.451  25.236  1.00  0.00     0.002 C 
BRANCH  25  26
ATOM     26  C   UNL A   1      32.117  29.355  24.891  1.00  0.00     0.021 C 
BRANCH  26  27
ATOM     27  C   UNL A   1      32.929  29.792  26.104  1.00  0.00     0.116 C 
BRANCH  27  28
ATOM     28  N   UNL A   1      32.785  31.218  26.350  1.00  0.00    -0.352 N 
ATOM     29  C   UNL A   1      33.410  32.010  27.275  1.00  0.00     0.251 C 
ATOM     30  H   UNL A   1      32.144  31.682  25.765  1.00  0.00     0.163 HD
ATOM     31  O   UNL A   1      32.979  33.132  27.517  1.00  0.00    -0.269 OA
BRANCH  29  32
ATOM     32  C   UNL A   1      34.606  31.511  27.984  1.00  0.00     0.039 A 
ATOM     33  C   UNL A   1      35.674  32.385  28.197  1.00  0.00     0.014 A 
ATOM     34  C   UNL A   1      34.692  30.179  28.400  1.00  0.00     0.014 A 
ATOM     35  C   UNL A   1      36.818  31.929  28.854  1.00  0.00     0.010 A 
ATOM     36  C   UNL A   1      35.795  29.750  29.130  1.00  0.00     0.010 A 
ATOM     37  C   UNL A   1      36.878  30.614  29.344  1.00  0.00    -0.014 A 
BRANCH  37  38
ATOM     38  C   UNL A   1      38.082  30.125  30.064  1.00  0.00     0.031 A 
ATOM     39  C   UNL A   1      38.355  30.577  31.472  1.00  0.00     0.074 A 
ATOM     40  C   UNL A   1      38.942  29.304  29.433  1.00  0.00     0.049 A 
ATOM     41  N   UNL A   1      39.361  30.278  32.256  1.00  0.00    -0.248 NA
ATOM     42  C   UNL A   1      37.387  31.508  32.072  1.00  0.00     0.031 C 
ATOM     43  C   UNL A   1      38.806  28.838  28.053  1.00  0.00     0.029 A 
ATOM     44  N   UNL A   1      40.104  28.719  29.870  1.00  0.00    -0.354 N 
ATOM     45  C   UNL A   1      39.149  30.988  33.430  1.00  0.00     0.074 A 
ATOM     46  C   UNL A   1      37.956  31.783  33.235  1.00  0.00     0.031 C 
ATOM     47  C   UNL A   1      39.825  28.011  27.767  1.00  0.00     0.029 A 
ATOM     48  C   UNL A   1      40.708  27.924  28.925  1.00  0.00     0.049 A 
ATOM     49  H   UNL A   1      40.470  28.855  30.774  1.00  0.00     0.167 HD
ATOM     50  C   UNL A   1      39.868  30.958  34.577  1.00  0.00     0.037 A 
ATOM     51  C   UNL A   1      41.846  27.210  28.989  1.00  0.00     0.037 A 
ATOM     52  C   UNL A   1      41.046  30.153  34.768  1.00  0.00     0.049 A 
ATOM     53  C   UNL A   1      42.636  27.207  30.270  1.00  0.00     0.074 A 
ATOM     54  C   UNL A   1      41.819  30.011  35.907  1.00  0.00     0.029 A 
ATOM     55  N   UNL A   1      41.624  29.354  33.791  1.00  0.00    -0.354 N 
ATOM     56  N   UNL A   1      42.387  27.826  31.399  1.00  0.00    -0.248 NA
ATOM     57  C   UNL A   1      43.861  26.395  30.289  1.00  0.00     0.031 C 
ATOM     58  C   UNL A   1      42.899  29.177  35.600  1.00  0.00     0.029 A 
ATOM     59  C   UNL A   1      42.760  28.739  34.294  1.00  0.00     0.049 A 
ATOM     60  H   UNL A   1      41.278  29.242  32.876  1.00  0.00     0.167 HD
ATOM     61  C   UNL A   1      43.399  27.450  32.272  1.00  0.00     0.074 A 
ATOM     62  C   UNL A   1      44.259  26.540  31.546  1.00  0.00     0.031 C 
ATOM     63  C   UNL A   1      43.598  27.825  33.561  1.00  0.00     0.037 A 
BRANCH  50  64
ATOM     64  C   UNL A   1      39.404  31.825  35.714  1.00  0.00     0.064 A 
ATOM     65  C   UNL A   1      39.884  33.133  35.889  1.00  0.00     0.173 A 
ATOM     66  C   UNL A   1      38.439  31.357  36.620  1.00  0.00     0.173 A 
ATOM     67  F   UNL A   1      40.814  33.629  35.059  1.00  0.00    -0.203 F 
ATOM     68  C   UNL A   1      39.440  33.927  36.945  1.00  0.00     0.198 A 
ATOM     69  C   UNL A   1      37.972  32.166  37.652  1.00  0.00     0.198 A 
ATOM     70  F   UNL A   1      37.941  30.118  36.497  1.00  0.00    -0.203 F 
ATOM     71  F   UNL A   1      39.955  35.150  37.123  1.00  0.00    -0.200 F 
ATOM     72  C   UNL A   1      38.479  33.445  37.820  1.00  0.00     0.200 A 
ATOM     73  F   UNL A   1      37.031  31.705  38.488  1.00  0.00    -0.200 F 
ATOM     74  F   UNL A   1      38.046  34.212  38.830  1.00  0.00    -0.200 F 
ENDBRANCH  50  64
BRANCH  51  75
ATOM     75  C   UNL A   1      42.295  26.419  27.812  1.00  0.00     0.064 A 
ATOM     76  C   UNL A   1      41.767  25.146  27.554  1.00  0.00     0.173 A 
ATOM     77  C   UNL A   1      43.263  26.914  26.926  1.00  0.00     0.173 A 
ATOM     78  F   UNL A   1      40.850  24.621  28.380  1.00  0.00    -0.203 F 
ATOM     79  C   UNL A   1      42.210  24.388  26.472  1.00  0.00     0.198 A 
ATOM     80  C   UNL A   1      43.681  26.168  25.826  1.00  0.00     0.198 A 
ATOM     81  F   UNL A   1      43.795  28.130  27.122  1.00  0.00    -0.203 F 
ATOM     82  F   UNL A   1      41.728  23.152  26.281  1.00  0.00    -0.200 F 
ATOM     83  C   UNL A   1      43.162  24.902  25.606  1.00  0.00     0.200 A 
ATOM     84  F   UNL A   1      44.588  26.678  24.981  1.00  0.00    -0.200 F 
ATOM     85  F   UNL A   1      43.586  24.174  24.564  1.00  0.00    -0.200 F 
ENDBRANCH  51  75
BRANCH  63  86
ATOM     86  C   UNL A   1      44.759  27.207  34.287  1.00  0.00     0.064 A 
ATOM     87  C   UNL A   1      44.658  25.963  34.927  1.00  0.00     0.173 A 
ATOM     88  C   UNL A   1      46.004  27.857  34.311  1.00  0.00     0.173 A 
ATOM     89  F   UNL A   1      43.488  25.306  34.948  1.00  0.00    -0.203 F 
ATOM     90  C   UNL A   1      45.750  25.409  35.593  1.00  0.00     0.198 A 
ATOM     91  C   UNL A   1      47.102  27.283  34.943  1.00  0.00     0.198 A 
ATOM     92  F   UNL A   1      46.158  29.044  33.705  1.00  0.00    -0.203 F 
ATOM     93  F   UNL A   1      45.615  24.247  36.246  1.00  0.00    -0.200 F 
ATOM     94  C   UNL A   1      46.972  26.065  35.591  1.00  0.00     0.200 A 
ATOM     95  F   UNL A   1      48.286  27.909  34.925  1.00  0.00    -0.200 F 
ATOM     96  F   UNL A   1      48.024  25.526  36.224  1.00  0.00    -0.200 F 
ENDBRANCH  63  86
ENDBRANCH  37  38
ENDBRANCH  29  32
ENDBRANCH  27  28
ENDBRANCH  26  27
ENDBRANCH  25  26
ENDBRANCH  24  25
ENDBRANCH   1  24
TORSDOF 18
ENDMDL
MODEL 3
REMARK VINA RESULT:     -10.6      6.276     12.594
REMARK SMILES COC(=O)c1cc(CSc2csc(C(=O)NCCCCCCNC(=O)c3ccc(-c4c5nc(c(-c6c(F)c(F)c(F)c(F)c6F)c6ccc([nH]6)c(-c6c(F)c(F)c(F)c(F)c6F)c6nc(c(-c7c(F)c(F)c(F)c(F)c7F)c7ccc4[nH]7)C=C6)C=C5)cc3)c2)oc1C
REMARK SMILES IDX 18 1 17 2 16 3 14 4 15 5 13 7 10 8 11 9 89 10 12 11 9 12
REMARK SMILES IDX 8 13 7 14 5 15 6 16 91 17 90 18 92 19 3 20 4 21 2 22 1 23
REMARK SMILES IDX 19 24 20 25 21 26 22 27 23 28 24 29 25 31 26 32 27 33 88 34
REMARK SMILES IDX 28 35 87 36 29 37 30 38 31 39 81 40 32 41 86 42 80 43 82 44
REMARK SMILES IDX 33 45 85 46 79 47 78 48 34 50 66 51 46 52 65 53 47 54 50 55
REMARK SMILES IDX 64 56 83 57 48 58 49 59 63 61 84 62 51 63 35 64 36 65 44 66
REMARK SMILES IDX 37 67 38 68 42 69 45 70 39 71 40 72 43 73 41 74 67 75 68 76
REMARK SMILES IDX 76 77 69 78 70 79 74 80 77 81 71 82 72 83 75 84 73 85 52 86
REMARK SMILES IDX 53 87 61 88 54 89 55 90 59 91 62 92 56 93 57 94 60 95 58 96
REMARK H PARENT 16 6 23 30 82 49 50 60
REMARK Flexibility Score: inf
ROOT
ATOM      1  C   UNL A   1      43.388  34.644  32.728  1.00  0.00     0.021 C 
ENDROOT
BRANCH   1   2
ATOM      2  C   UNL A   1      41.958  34.157  32.961  1.00  0.00     0.116 C 
BRANCH   2   3
ATOM      3  N   UNL A   1      41.175  34.333  31.759  1.00  0.00    -0.351 N 
ATOM      4  C   UNL A   1      39.831  34.243  31.498  1.00  0.00     0.261 C 
ATOM      5  O   UNL A   1      39.533  34.407  30.311  1.00  0.00    -0.268 OA
ATOM      6  H   UNL A   1      41.714  34.562  30.969  1.00  0.00     0.163 HD
BRANCH   4   7
ATOM      7  C   UNL A   1      38.844  34.023  32.549  1.00  0.00     0.093 A 
ATOM      8  C   UNL A   1      36.922  33.980  33.908  1.00  0.00     0.019 A 
ATOM      9  C   UNL A   1      37.588  32.870  34.351  1.00  0.00     0.080 A 
ATOM     10  C   UNL A   1      37.705  34.698  32.951  1.00  0.00     0.040 A 
ATOM     11  S   UNL A   1      39.081  32.641  33.557  1.00  0.00    -0.137 S 
BRANCH   8  12
ATOM     12  S   UNL A   1      35.297  34.535  34.294  1.00  0.00    -0.117 SA
BRANCH  12  13
ATOM     13  C   UNL A   1      34.145  33.464  33.403  1.00  0.00     0.150 C 
BRANCH  13  14
ATOM     14  C   UNL A   1      34.194  33.575  31.923  1.00  0.00     0.115 A 
ATOM     15  C   UNL A   1      34.644  33.491  29.717  1.00  0.00     0.101 A 
ATOM     16  C   UNL A   1      34.780  32.791  30.952  1.00  0.00     0.062 A 
ATOM     17  C   UNL A   1      33.875  34.605  30.009  1.00  0.00     0.115 A 
ATOM     18  O   UNL A   1      33.593  34.652  31.343  1.00  0.00    -0.465 OA
ATOM     19  C   UNL A   1      33.317  35.713  29.203  1.00  0.00     0.088 C 
BRANCH  15  20
ATOM     20  C   UNL A   1      35.190  33.149  28.417  1.00  0.00     0.341 C 
ATOM     21  O   UNL A   1      36.382  33.182  28.149  1.00  0.00    -0.246 OA
BRANCH  20  22
ATOM     22  O   UNL A   1      34.212  32.788  27.534  1.00  0.00    -0.465 OA
ATOM     23  C   UNL A   1      33.896  31.396  27.558  1.00  0.00     0.282 C 
ENDBRANCH  20  22
ENDBRANCH  15  20
ENDBRANCH  13  14
ENDBRANCH  12  13
ENDBRANCH   8  12
ENDBRANCH   4   7
ENDBRANCH   2   3
ENDBRANCH   1   2
BRANCH   1  24
ATOM     24  C   UNL A   1      43.470  35.743  31.659  1.00  0.00     0.002 C 
BRANCH  24  25
ATOM     25  C   UNL A   1      44.170  37.028  32.121  1.00  0.00     0.002 C 
BRANCH  25  26
ATOM     26  C   UNL A   1      44.188  38.152  31.082  1.00  0.00     0.021 C 
BRANCH  26  27
ATOM     27  C   UNL A   1      44.494  37.677  29.666  1.00  0.00     0.116 C 
BRANCH  27  28
ATOM     28  N   UNL A   1      45.925  37.664  29.412  1.00  0.00    -0.352 N 
ATOM     29  C   UNL A   1      46.773  36.600  29.257  1.00  0.00     0.251 C 
ATOM     30  H   UNL A   1      46.347  38.551  29.339  1.00  0.00     0.163 HD
ATOM     31  O   UNL A   1      47.987  36.767  29.310  1.00  0.00    -0.269 OA
BRANCH  29  32
ATOM     32  C   UNL A   1      46.225  35.248  29.027  1.00  0.00     0.039 A 
ATOM     33  C   UNL A   1      45.519  35.001  27.848  1.00  0.00     0.014 A 
ATOM     34  C   UNL A   1      46.368  34.241  29.987  1.00  0.00     0.014 A 
ATOM     35  C   UNL A   1      44.982  33.733  27.618  1.00  0.00     0.010 A 
ATOM     36  C   UNL A   1      45.907  32.957  29.718  1.00  0.00     0.010 A 
ATOM     37  C   UNL A   1      45.191  32.696  28.542  1.00  0.00    -0.014 A 
BRANCH  37  38
ATOM     38  C   UNL A   1      44.642  31.338  28.296  1.00  0.00     0.031 A 
ATOM     39  C   UNL A   1      45.412  30.352  27.461  1.00  0.00     0.074 A 
ATOM     40  C   UNL A   1      43.437  31.010  28.798  1.00  0.00     0.049 A 
ATOM     41  N   UNL A   1      45.090  29.129  27.119  1.00  0.00    -0.248 NA
ATOM     42  C   UNL A   1      46.701  30.805  26.916  1.00  0.00     0.031 C 
ATOM     43  C   UNL A   1      42.578  31.900  29.582  1.00  0.00     0.029 A 
ATOM     44  N   UNL A   1      42.723  29.841  28.720  1.00  0.00    -0.354 N 
ATOM     45  C   UNL A   1      46.129  28.677  26.316  1.00  0.00     0.074 A 
ATOM     46  C   UNL A   1      47.059  29.773  26.167  1.00  0.00     0.031 C 
ATOM     47  C   UNL A   1      41.470  31.234  29.941  1.00  0.00     0.029 A 
ATOM     48  C   UNL A   1      41.518  29.888  29.379  1.00  0.00     0.049 A 
ATOM     49  H   UNL A   1      43.043  29.045  28.239  1.00  0.00     0.167 HD
ATOM     50  C   UNL A   1      46.304  27.447  25.774  1.00  0.00     0.037 A 
ATOM     51  C   UNL A   1      40.561  28.952  29.509  1.00  0.00     0.037 A 
ATOM     52  C   UNL A   1      45.379  26.356  25.939  1.00  0.00     0.049 A 
ATOM     53  C   UNL A   1      40.773  27.599  28.884  1.00  0.00     0.074 A 
ATOM     54  C   UNL A   1      45.487  25.057  25.475  1.00  0.00     0.029 A 
ATOM     55  N   UNL A   1      44.173  26.438  26.620  1.00  0.00    -0.354 N 
ATOM     56  N   UNL A   1      41.793  27.158  28.187  1.00  0.00    -0.248 NA
ATOM     57  C   UNL A   1      39.704  26.608  29.074  1.00  0.00     0.031 C 
ATOM     58  C   UNL A   1      44.317  24.372  25.821  1.00  0.00     0.029 A 
ATOM     59  C   UNL A   1      43.514  25.221  26.564  1.00  0.00     0.049 A 
ATOM     60  H   UNL A   1      43.835  27.244  27.075  1.00  0.00     0.167 HD
ATOM     61  C   UNL A   1      41.507  25.832  27.889  1.00  0.00     0.074 A 
ATOM     62  C   UNL A   1      40.224  25.537  28.491  1.00  0.00     0.031 C 
ATOM     63  C   UNL A   1      42.242  24.939  27.180  1.00  0.00     0.037 A 
BRANCH  50  64
ATOM     64  C   UNL A   1      47.539  27.219  24.949  1.00  0.00     0.064 A 
ATOM     65  C   UNL A   1      47.619  27.631  23.610  1.00  0.00     0.173 A 
ATOM     66  C   UNL A   1      48.672  26.612  25.514  1.00  0.00     0.173 A 
ATOM     67  F   UNL A   1      46.563  28.207  23.015  1.00  0.00    -0.203 F 
ATOM     68  C   UNL A   1      48.772  27.416  22.859  1.00  0.00     0.198 A 
ATOM     69  C   UNL A   1      49.835  26.432  24.772  1.00  0.00     0.198 A 
ATOM     70  F   UNL A   1      48.654  26.204  26.792  1.00  0.00    -0.203 F 
ATOM     71  F   UNL A   1      48.804  27.768  21.566  1.00  0.00    -0.200 F 
ATOM     72  C   UNL A   1      49.882  26.824  23.443  1.00  0.00     0.200 A 
ATOM     73  F   UNL A   1      50.913  25.875  25.342  1.00  0.00    -0.200 F 
ATOM     74  F   UNL A   1      50.995  26.627  22.722  1.00  0.00    -0.200 F 
ENDBRANCH  50  64
BRANCH  51  75
ATOM     75  C   UNL A   1      39.328  29.251  30.284  1.00  0.00     0.064 A 
ATOM     76  C   UNL A   1      39.333  29.235  31.686  1.00  0.00     0.173 A 
ATOM     77  C   UNL A   1      38.117  29.553  29.642  1.00  0.00     0.173 A 
ATOM     78  F   UNL A   1      40.461  28.936  32.348  1.00  0.00    -0.203 F 
ATOM     79  C   UNL A   1      38.171  29.481  32.415  1.00  0.00     0.198 A 
ATOM     80  C   UNL A   1      36.964  29.832  30.372  1.00  0.00     0.198 A 
ATOM     81  F   UNL A   1      38.058  29.591  28.302  1.00  0.00    -0.203 F 
ATOM     82  F   UNL A   1      38.193  29.404  33.753  1.00  0.00    -0.200 F 
ATOM     83  C   UNL A   1      36.989  29.784  31.757  1.00  0.00     0.200 A 
ATOM     84  F   UNL A   1      35.829  30.144  29.732  1.00  0.00    -0.200 F 
ATOM     85  F   UNL A   1      35.872  30.024  32.458  1.00  0.00    -0.200 F 
ENDBRANCH  51  75
BRANCH  63  86
ATOM     86  C   UNL A   1      41.705  23.541  27.065  1.00  0.00     0.064 A 
ATOM     87  C   UNL A   1      40.545  23.248  26.332  1.00  0.00     0.173 A 
ATOM     88  C   UNL A   1      42.385  22.471  27.669  1.00  0.00     0.173 A 
ATOM     89  F   UNL A   1      39.849  24.234  25.746  1.00  0.00    -0.203 F 
ATOM     90  C   UNL A   1      40.068  21.943  26.237  1.00  0.00     0.198 A 
ATOM     91  C   UNL A   1      41.927  21.164  27.541  1.00  0.00     0.198 A 
ATOM     92  F   UNL A   1      43.505  22.694  28.374  1.00  0.00    -0.203 F 
ATOM     93  F   UNL A   1      38.927  21.695  25.580  1.00  0.00    -0.200 F 
ATOM     94  C   UNL A   1      40.765  20.902  26.834  1.00  0.00     0.200 A 
ATOM     95  F   UNL A   1      42.611  20.158  28.101  1.00  0.00    -0.200 F 
ATOM     96  F   UNL A   1      40.309  19.645  26.733  1.00  0.00    -0.200 F 
ENDBRANCH  63  86
ENDBRANCH  37  38
ENDBRANCH  29  32
ENDBRANCH  27  28
ENDBRANCH  26  27
ENDBRANCH  25  26
ENDBRANCH  24  25
ENDBRANCH   1  24
TORSDOF 18
ENDMDL
