MODEL 1
REMARK VINA RESULT:     -13.2      0.000      0.000
REMARK SMILES COc1ccc2c(c1C)OC(=O)[C@@H](CC(=O)N[C@@H](CC1=c3ccccc3=NC1)C(=O)NCCCCCCNC(=O)c1ccc(-c3c4nc(c(-c5c(F)c(F)c(F)c(F)c5F)c5ccc([nH]5)c(-c5c(F)c(F)c(F)c(F)c5F)c5nc(c(-c6c(F)c(F)c(F)c(F)c6F)c6ccc3[nH]6)C=C5)C=C4)cc1)[C@H]2C
REMARK SMILES IDX 33 1 32 2 31 3 29 4 30 5 18 7 17 8 15 9 16 10 14 12 13 13
REMARK SMILES IDX 3 14 4 15 8 16 5 17 7 18 9 19 6 20 10 21 104 22 11 23 105 24
REMARK SMILES IDX 12 25 2 26 1 27 19 28 20 29 21 30 28 31 22 32 26 33 27 34
REMARK SMILES IDX 23 35 25 36 24 37 34 38 35 39 36 40 37 41 38 42 39 43 40 45
REMARK SMILES IDX 41 46 42 47 103 48 43 49 102 50 44 51 45 52 46 53 96 54
REMARK SMILES IDX 47 55 101 56 95 57 97 58 48 59 100 60 94 61 93 62 49 64
REMARK SMILES IDX 81 65 61 66 80 67 62 68 65 69 79 70 98 71 63 72 64 73 78 75
REMARK SMILES IDX 99 76 66 77 50 78 51 79 59 80 52 81 53 82 57 83 60 84 54 85
REMARK SMILES IDX 55 86 58 87 56 88 82 89 83 90 91 91 84 92 85 93 89 94 92 95
REMARK SMILES IDX 86 96 87 97 90 98 88 99 67 100 68 101 76 102 69 103 70 104
REMARK SMILES IDX 74 105 77 106 71 107 72 108 75 109 73 110
REMARK H PARENT 31 6 17 11 38 44 97 63 65 74
REMARK Flexibility Score: inf
ROOT
ATOM      1  C   UNL A   1      34.567  31.142  27.626  1.00  0.00     0.021 C 
ENDROOT
BRANCH   1   2
ATOM      2  C   UNL A   1      34.030  29.773  27.274  1.00  0.00     0.116 C 
BRANCH   2   3
ATOM      3  N   UNL A   1      34.504  29.277  26.014  1.00  0.00    -0.354 N 
ATOM      4  C   UNL A   1      33.784  28.722  25.009  1.00  0.00     0.242 C 
ATOM      5  O   UNL A   1      34.303  28.699  23.888  1.00  0.00    -0.273 OA
ATOM      6  H   UNL A   1      35.474  29.350  25.859  1.00  0.00     0.163 HD
BRANCH   4   7
ATOM      7  C   UNL A   1      32.333  28.234  25.192  1.00  0.00     0.175 C 
BRANCH   7   8
ATOM      8  N   UNL A   1      32.054  27.271  26.252  1.00  0.00    -0.344 N 
ATOM      9  C   UNL A   1      31.745  25.947  26.185  1.00  0.00     0.221 C 
ATOM     10  O   UNL A   1      31.369  25.408  27.227  1.00  0.00    -0.275 OA
ATOM     11  H   UNL A   1      32.097  27.639  27.165  1.00  0.00     0.164 HD
BRANCH   9  12
ATOM     12  C   UNL A   1      31.925  25.135  24.911  1.00  0.00     0.116 C 
BRANCH  12  13
ATOM     13  C   UNL A   1      32.672  23.788  25.038  1.00  0.00     0.116 C 
ATOM     14  C   UNL A   1      34.288  19.031  24.626  1.00  0.00     0.125 A 
ATOM     15  C   UNL A   1      32.899  18.976  24.468  1.00  0.00     0.047 A 
ATOM     16  C   UNL A   1      34.953  20.263  24.746  1.00  0.00     0.034 A 
ATOM     17  C   UNL A   1      32.172  20.148  24.334  1.00  0.00     0.012 A 
ATOM     18  C   UNL A   1      34.193  21.434  24.610  1.00  0.00     0.140 A 
ATOM     19  C   UNL A   1      36.429  20.348  25.001  1.00  0.00     0.052 C 
ATOM     20  C   UNL A   1      32.825  21.384  24.379  1.00  0.00    -0.001 A 
ATOM     21  O   UNL A   1      34.845  22.685  24.654  1.00  0.00    -0.426 OA
ATOM     22  C   UNL A   1      32.046  22.650  24.207  1.00  0.00     0.035 C 
ATOM     23  C   UNL A   1      34.148  23.897  24.662  1.00  0.00     0.315 C 
ATOM     24  C   UNL A   1      31.789  22.964  22.732  1.00  0.00     0.014 C 
ATOM     25  O   UNL A   1      34.734  24.955  24.462  1.00  0.00    -0.251 OA
BRANCH  14  26
ATOM     26  O   UNL A   1      35.015  17.871  24.693  1.00  0.00    -0.496 OA
ATOM     27  C   UNL A   1      34.401  16.824  23.934  1.00  0.00     0.278 C 
ENDBRANCH  14  26
ENDBRANCH  12  13
ENDBRANCH   9  12
ENDBRANCH   7   8
BRANCH   7  28
ATOM     28  C   UNL A   1      31.275  29.386  25.086  1.00  0.00     0.068 C 
BRANCH  28  29
ATOM     29  C   UNL A   1      30.382  29.424  23.875  1.00  0.00    -0.037 C 
ATOM     30  C   UNL A   1      29.519  30.367  23.501  1.00  0.00     0.001 A 
ATOM     31  C   UNL A   1      30.466  28.359  22.816  1.00  0.00     0.174 C 
ATOM     32  C   UNL A   1      29.032  31.578  24.075  1.00  0.00     0.010 A 
ATOM     33  C   UNL A   1      29.318  30.060  22.074  1.00  0.00     0.065 A 
ATOM     34  N   UNL A   1      29.793  28.938  21.626  1.00  0.00    -0.280 NA
ATOM     35  C   UNL A   1      28.536  32.527  23.267  1.00  0.00     0.001 A 
ATOM     36  C   UNL A   1      28.728  31.142  21.249  1.00  0.00     0.028 A 
ATOM     37  C   UNL A   1      28.427  32.314  21.834  1.00  0.00     0.002 A 
ENDBRANCH  28  29
ENDBRANCH   7  28
ENDBRANCH   4   7
ENDBRANCH   2   3
ENDBRANCH   1   2
BRANCH   1  38
ATOM     38  C   UNL A   1      33.488  32.213  27.759  1.00  0.00     0.002 C 
BRANCH  38  39
ATOM     39  C   UNL A   1      33.942  33.534  28.393  1.00  0.00     0.002 C 
BRANCH  39  40
ATOM     40  C   UNL A   1      32.898  34.654  28.411  1.00  0.00     0.021 C 
BRANCH  40  41
ATOM     41  C   UNL A   1      33.362  35.946  29.067  1.00  0.00     0.116 C 
BRANCH  41  42
ATOM     42  N   UNL A   1      32.584  36.256  30.251  1.00  0.00    -0.352 N 
ATOM     43  C   UNL A   1      32.683  35.720  31.507  1.00  0.00     0.251 C 
ATOM     44  H   UNL A   1      31.890  36.945  30.136  1.00  0.00     0.163 HD
ATOM     45  O   UNL A   1      31.819  35.925  32.348  1.00  0.00    -0.269 OA
BRANCH  43  46
ATOM     46  C   UNL A   1      33.855  34.887  31.834  1.00  0.00     0.039 A 
ATOM     47  C   UNL A   1      33.652  33.617  32.373  1.00  0.00     0.014 A 
ATOM     48  C   UNL A   1      35.147  35.379  31.622  1.00  0.00     0.014 A 
ATOM     49  C   UNL A   1      34.754  32.820  32.684  1.00  0.00     0.010 A 
ATOM     50  C   UNL A   1      36.242  34.566  31.882  1.00  0.00     0.010 A 
ATOM     51  C   UNL A   1      36.053  33.290  32.436  1.00  0.00    -0.014 A 
BRANCH  51  52
ATOM     52  C   UNL A   1      37.242  32.509  32.837  1.00  0.00     0.031 A 
ATOM     53  C   UNL A   1      37.908  32.825  34.146  1.00  0.00     0.074 A 
ATOM     54  C   UNL A   1      37.741  31.563  32.021  1.00  0.00     0.049 A 
ATOM     55  N   UNL A   1      39.023  32.354  34.643  1.00  0.00    -0.248 NA
ATOM     56  C   UNL A   1      37.237  33.817  35.003  1.00  0.00     0.031 C 
ATOM     57  C   UNL A   1      37.170  31.169  30.734  1.00  0.00     0.029 A 
ATOM     58  N   UNL A   1      38.855  30.772  32.152  1.00  0.00    -0.354 N 
ATOM     59  C   UNL A   1      39.183  32.988  35.867  1.00  0.00     0.074 A 
ATOM     60  C   UNL A   1      38.086  33.917  36.016  1.00  0.00     0.031 C 
ATOM     61  C   UNL A   1      37.934  30.203  30.196  1.00  0.00     0.029 A 
ATOM     62  C   UNL A   1      39.069  29.943  31.079  1.00  0.00     0.049 A 
ATOM     63  H   UNL A   1      39.444  30.798  32.940  1.00  0.00     0.167 HD
ATOM     64  C   UNL A   1      40.148  32.791  36.794  1.00  0.00     0.037 A 
ATOM     65  C   UNL A   1      40.077  29.084  30.837  1.00  0.00     0.037 A 
ATOM     66  C   UNL A   1      41.231  31.857  36.644  1.00  0.00     0.049 A 
ATOM     67  C   UNL A   1      41.178  28.941  31.857  1.00  0.00     0.074 A 
ATOM     68  C   UNL A   1      42.256  31.577  37.530  1.00  0.00     0.029 A 
ATOM     69  N   UNL A   1      41.426  31.046  35.535  1.00  0.00    -0.354 N 
ATOM     70  N   UNL A   1      41.312  29.527  33.022  1.00  0.00    -0.248 NA
ATOM     71  C   UNL A   1      42.269  28.013  31.528  1.00  0.00     0.031 C 
ATOM     72  C   UNL A   1      43.097  30.631  36.939  1.00  0.00     0.029 A 
ATOM     73  C   UNL A   1      42.565  30.278  35.709  1.00  0.00     0.049 A 
ATOM     74  H   UNL A   1      40.842  31.019  34.743  1.00  0.00     0.167 HD
ATOM     75  C   UNL A   1      42.478  29.015  33.576  1.00  0.00     0.074 A 
ATOM     76  C   UNL A   1      43.004  28.056  32.629  1.00  0.00     0.031 C 
ATOM     77  C   UNL A   1      43.065  29.316  34.761  1.00  0.00     0.037 A 
BRANCH  64  78
ATOM     78  C   UNL A   1      40.074  33.582  38.065  1.00  0.00     0.064 A 
ATOM     79  C   UNL A   1      39.249  33.179  39.126  1.00  0.00     0.173 A 
ATOM     80  C   UNL A   1      40.901  34.698  38.261  1.00  0.00     0.173 A 
ATOM     81  F   UNL A   1      38.428  32.129  38.982  1.00  0.00    -0.203 F 
ATOM     82  C   UNL A   1      39.255  33.866  40.337  1.00  0.00     0.198 A 
ATOM     83  C   UNL A   1      40.925  35.365  39.482  1.00  0.00     0.198 A 
ATOM     84  F   UNL A   1      41.707  35.124  37.276  1.00  0.00    -0.203 F 
ATOM     85  F   UNL A   1      38.444  33.477  41.330  1.00  0.00    -0.200 F 
ATOM     86  C   UNL A   1      40.103  34.948  40.519  1.00  0.00     0.200 A 
ATOM     87  F   UNL A   1      41.754  36.403  39.661  1.00  0.00    -0.200 F 
ATOM     88  F   UNL A   1      40.129  35.590  41.695  1.00  0.00    -0.200 F 
ENDBRANCH  64  78
BRANCH  65  89
ATOM     89  C   UNL A   1      40.094  28.278  29.587  1.00  0.00     0.064 A 
ATOM     90  C   UNL A   1      39.436  27.042  29.521  1.00  0.00     0.173 A 
ATOM     91  C   UNL A   1      40.789  28.706  28.446  1.00  0.00     0.173 A 
ATOM     92  F   UNL A   1      38.777  26.577  30.594  1.00  0.00    -0.203 F 
ATOM     93  C   UNL A   1      39.494  26.253  28.374  1.00  0.00     0.198 A 
ATOM     94  C   UNL A   1      40.820  27.932  27.288  1.00  0.00     0.198 A 
ATOM     95  F   UNL A   1      41.437  29.881  28.454  1.00  0.00    -0.203 F 
ATOM     96  F   UNL A   1      38.904  25.050  28.361  1.00  0.00    -0.200 F 
ATOM     97  C   UNL A   1      40.181  26.701  27.256  1.00  0.00     0.200 A 
ATOM     98  F   UNL A   1      41.475  28.374  26.206  1.00  0.00    -0.200 F 
ATOM     99  F   UNL A   1      40.238  25.942  26.154  1.00  0.00    -0.200 F 
ENDBRANCH  65  89
BRANCH  77 100
ATOM    100  C   UNL A   1      44.321  28.575  35.123  1.00  0.00     0.064 A 
ATOM    101  C   UNL A   1      45.591  29.108  34.859  1.00  0.00     0.173 A 
ATOM    102  C   UNL A   1      44.251  27.344  35.794  1.00  0.00     0.173 A 
ATOM    103  F   UNL A   1      45.712  30.276  34.211  1.00  0.00    -0.203 F 
ATOM    104  C   UNL A   1      46.745  28.424  35.231  1.00  0.00     0.198 A 
ATOM    105  C   UNL A   1      45.407  26.680  36.195  1.00  0.00     0.198 A 
ATOM    106  F   UNL A   1      43.062  26.796  36.081  1.00  0.00    -0.203 F 
ATOM    107  F   UNL A   1      47.948  28.930  34.924  1.00  0.00    -0.200 F 
ATOM    108  C   UNL A   1      46.652  27.217  35.906  1.00  0.00     0.200 A 
ATOM    109  F   UNL A   1      45.315  25.524  36.866  1.00  0.00    -0.200 F 
ATOM    110  F   UNL A   1      47.764  26.566  36.274  1.00  0.00    -0.200 F 
ENDBRANCH  77 100
ENDBRANCH  51  52
ENDBRANCH  43  46
ENDBRANCH  41  42
ENDBRANCH  40  41
ENDBRANCH  39  40
ENDBRANCH  38  39
ENDBRANCH   1  38
TORSDOF 19
ENDMDL
MODEL 2
REMARK VINA RESULT:     -13.1      1.644      7.180
REMARK SMILES COc1ccc2c(c1C)OC(=O)[C@@H](CC(=O)N[C@@H](CC1=c3ccccc3=NC1)C(=O)NCCCCCCNC(=O)c1ccc(-c3c4nc(c(-c5c(F)c(F)c(F)c(F)c5F)c5ccc([nH]5)c(-c5c(F)c(F)c(F)c(F)c5F)c5nc(c(-c6c(F)c(F)c(F)c(F)c6F)c6ccc3[nH]6)C=C5)C=C4)cc1)[C@H]2C
REMARK SMILES IDX 33 1 32 2 31 3 29 4 30 5 18 7 17 8 15 9 16 10 14 12 13 13
REMARK SMILES IDX 3 14 4 15 8 16 5 17 7 18 9 19 6 20 10 21 104 22 11 23 105 24
REMARK SMILES IDX 12 25 2 26 1 27 19 28 20 29 21 30 28 31 22 32 26 33 27 34
REMARK SMILES IDX 23 35 25 36 24 37 34 38 35 39 36 40 37 41 38 42 39 43 40 45
REMARK SMILES IDX 41 46 42 47 103 48 43 49 102 50 44 51 45 52 46 53 96 54
REMARK SMILES IDX 47 55 101 56 95 57 97 58 48 59 100 60 94 61 93 62 49 64
REMARK SMILES IDX 81 65 61 66 80 67 62 68 65 69 79 70 98 71 63 72 64 73 78 75
REMARK SMILES IDX 99 76 66 77 50 78 51 79 59 80 52 81 53 82 57 83 60 84 54 85
REMARK SMILES IDX 55 86 58 87 56 88 82 89 83 90 91 91 84 92 85 93 89 94 92 95
REMARK SMILES IDX 86 96 87 97 90 98 88 99 67 100 68 101 76 102 69 103 70 104
REMARK SMILES IDX 74 105 77 106 71 107 72 108 75 109 73 110
REMARK H PARENT 31 6 17 11 38 44 97 63 65 74
REMARK Flexibility Score: inf
ROOT
ATOM      1  C   UNL A   1      33.850  28.925  26.442  1.00  0.00     0.021 C 
ENDROOT
BRANCH   1   2
ATOM      2  C   UNL A   1      33.736  27.510  25.919  1.00  0.00     0.116 C 
BRANCH   2   3
ATOM      3  N   UNL A   1      32.600  26.798  26.432  1.00  0.00    -0.354 N 
ATOM      4  C   UNL A   1      31.563  26.270  25.738  1.00  0.00     0.242 C 
ATOM      5  O   UNL A   1      30.892  25.397  26.301  1.00  0.00    -0.273 OA
ATOM      6  H   UNL A   1      32.572  26.677  27.408  1.00  0.00     0.163 HD
BRANCH   4   7
ATOM      7  C   UNL A   1      31.269  26.632  24.268  1.00  0.00     0.175 C 
BRANCH   7   8
ATOM      8  N   UNL A   1      32.269  26.300  23.260  1.00  0.00    -0.344 N 
ATOM      9  C   UNL A   1      33.048  25.193  23.118  1.00  0.00     0.221 C 
ATOM     10  O   UNL A   1      33.951  25.249  22.282  1.00  0.00    -0.275 OA
ATOM     11  H   UNL A   1      32.404  26.990  22.570  1.00  0.00     0.164 HD
BRANCH   9  12
ATOM     12  C   UNL A   1      32.781  23.908  23.890  1.00  0.00     0.116 C 
BRANCH  12  13
ATOM     13  C   UNL A   1      33.960  22.918  24.032  1.00  0.00     0.116 C 
ATOM     14  C   UNL A   1      38.150  20.460  25.375  1.00  0.00     0.125 A 
ATOM     15  C   UNL A   1      38.438  21.819  25.536  1.00  0.00     0.047 A 
ATOM     16  C   UNL A   1      36.861  20.033  25.017  1.00  0.00     0.034 A 
ATOM     17  C   UNL A   1      37.423  22.757  25.436  1.00  0.00     0.012 A 
ATOM     18  C   UNL A   1      35.853  21.003  24.918  1.00  0.00     0.140 A 
ATOM     19  C   UNL A   1      36.546  18.589  24.755  1.00  0.00     0.052 C 
ATOM     20  C   UNL A   1      36.117  22.345  25.150  1.00  0.00    -0.001 A 
ATOM     21  O   UNL A   1      34.532  20.594  24.631  1.00  0.00    -0.426 OA
ATOM     22  C   UNL A   1      35.015  23.353  25.068  1.00  0.00     0.035 C 
ATOM     23  C   UNL A   1      33.500  21.505  24.383  1.00  0.00     0.315 C 
ATOM     24  C   UNL A   1      34.478  23.724  26.451  1.00  0.00     0.014 C 
ATOM     25  O   UNL A   1      32.331  21.136  24.373  1.00  0.00    -0.251 OA
BRANCH  14  26
ATOM     26  O   UNL A   1      39.141  19.527  25.539  1.00  0.00    -0.496 OA
ATOM     27  C   UNL A   1      40.283  20.087  26.195  1.00  0.00     0.278 C 
ENDBRANCH  14  26
ENDBRANCH  12  13
ENDBRANCH   9  12
ENDBRANCH   7   8
BRANCH   7  28
ATOM     28  C   UNL A   1      29.798  26.308  23.835  1.00  0.00     0.068 C 
BRANCH  28  29
ATOM     29  C   UNL A   1      28.841  27.455  23.649  1.00  0.00    -0.037 C 
ATOM     30  C   UNL A   1      29.064  28.651  23.106  1.00  0.00     0.001 A 
ATOM     31  C   UNL A   1      27.383  27.310  23.985  1.00  0.00     0.174 C 
ATOM     32  C   UNL A   1      30.209  29.340  22.612  1.00  0.00     0.010 A 
ATOM     33  C   UNL A   1      27.699  29.117  22.802  1.00  0.00     0.065 A 
ATOM     34  N   UNL A   1      26.708  28.433  23.288  1.00  0.00    -0.280 NA
ATOM     35  C   UNL A   1      30.039  30.325  21.716  1.00  0.00     0.001 A 
ATOM     36  C   UNL A   1      27.589  30.234  21.835  1.00  0.00     0.028 A 
ATOM     37  C   UNL A   1      28.713  30.739  21.296  1.00  0.00     0.002 A 
ENDBRANCH  28  29
ENDBRANCH   7  28
ENDBRANCH   4   7
ENDBRANCH   2   3
ENDBRANCH   1   2
BRANCH   1  38
ATOM     38  C   UNL A   1      32.550  29.471  27.028  1.00  0.00     0.002 C 
BRANCH  38  39
ATOM     39  C   UNL A   1      31.722  30.355  26.086  1.00  0.00     0.002 C 
BRANCH  39  40
ATOM     40  C   UNL A   1      31.505  31.797  26.551  1.00  0.00     0.021 C 
BRANCH  40  41
ATOM     41  C   UNL A   1      32.698  32.426  27.256  1.00  0.00     0.116 C 
BRANCH  41  42
ATOM     42  N   UNL A   1      32.473  33.829  27.543  1.00  0.00    -0.352 N 
ATOM     43  C   UNL A   1      33.056  34.612  28.503  1.00  0.00     0.251 C 
ATOM     44  H   UNL A   1      31.811  34.281  26.970  1.00  0.00     0.163 HD
ATOM     45  O   UNL A   1      32.611  35.721  28.765  1.00  0.00    -0.269 OA
BRANCH  43  46
ATOM     46  C   UNL A   1      34.235  34.097  29.222  1.00  0.00     0.039 A 
ATOM     47  C   UNL A   1      35.507  34.365  28.715  1.00  0.00     0.014 A 
ATOM     48  C   UNL A   1      34.071  33.333  30.383  1.00  0.00     0.014 A 
ATOM     49  C   UNL A   1      36.629  33.882  29.389  1.00  0.00     0.010 A 
ATOM     50  C   UNL A   1      35.189  32.899  31.081  1.00  0.00     0.010 A 
ATOM     51  C   UNL A   1      36.474  33.151  30.577  1.00  0.00    -0.014 A 
BRANCH  51  52
ATOM     52  C   UNL A   1      37.636  32.550  31.265  1.00  0.00     0.031 A 
ATOM     53  C   UNL A   1      38.356  31.408  30.607  1.00  0.00     0.074 A 
ATOM     54  C   UNL A   1      38.011  32.992  32.479  1.00  0.00     0.049 A 
ATOM     55  N   UNL A   1      39.319  30.656  31.075  1.00  0.00    -0.248 NA
ATOM     56  C   UNL A   1      37.923  31.054  29.244  1.00  0.00     0.031 C 
ATOM     57  C   UNL A   1      37.390  34.099  33.205  1.00  0.00     0.029 A 
ATOM     58  N   UNL A   1      39.000  32.550  33.321  1.00  0.00    -0.354 N 
ATOM     59  C   UNL A   1      39.606  29.747  30.066  1.00  0.00     0.074 A 
ATOM     60  C   UNL A   1      38.683  30.001  28.983  1.00  0.00     0.031 C 
ATOM     61  C   UNL A   1      38.018  34.254  34.384  1.00  0.00     0.029 A 
ATOM     62  C   UNL A   1      39.055  33.233  34.511  1.00  0.00     0.049 A 
ATOM     63  H   UNL A   1      39.611  31.812  33.094  1.00  0.00     0.167 HD
ATOM     64  C   UNL A   1      40.573  28.802  30.039  1.00  0.00     0.037 A 
ATOM     65  C   UNL A   1      39.845  33.040  35.584  1.00  0.00     0.037 A 
ATOM     66  C   UNL A   1      41.496  28.562  31.116  1.00  0.00     0.049 A 
ATOM     67  C   UNL A   1      40.864  31.929  35.552  1.00  0.00     0.074 A 
ATOM     68  C   UNL A   1      42.519  27.632  31.182  1.00  0.00     0.029 A 
ATOM     69  N   UNL A   1      41.511  29.262  32.314  1.00  0.00    -0.354 N 
ATOM     70  N   UNL A   1      41.146  31.088  34.587  1.00  0.00    -0.248 NA
ATOM     71  C   UNL A   1      41.679  31.744  36.761  1.00  0.00     0.031 C 
ATOM     72  C   UNL A   1      43.123  27.738  32.437  1.00  0.00     0.029 A 
ATOM     73  C   UNL A   1      42.515  28.772  33.132  1.00  0.00     0.049 A 
ATOM     74  H   UNL A   1      40.900  29.997  32.547  1.00  0.00     0.167 HD
ATOM     75  C   UNL A   1      42.188  30.299  35.058  1.00  0.00     0.074 A 
ATOM     76  C   UNL A   1      42.502  30.776  36.388  1.00  0.00     0.031 C 
ATOM     77  C   UNL A   1      42.824  29.269  34.447  1.00  0.00     0.037 A 
BRANCH  64  78
ATOM     78  C   UNL A   1      40.704  27.964  28.803  1.00  0.00     0.064 A 
ATOM     79  C   UNL A   1      39.968  26.780  28.644  1.00  0.00     0.173 A 
ATOM     80  C   UNL A   1      41.501  28.393  27.731  1.00  0.00     0.173 A 
ATOM     81  F   UNL A   1      39.205  26.320  29.647  1.00  0.00    -0.203 F 
ATOM     82  C   UNL A   1      40.024  26.057  27.457  1.00  0.00     0.198 A 
ATOM     83  C   UNL A   1      41.533  27.682  26.535  1.00  0.00     0.198 A 
ATOM     84  F   UNL A   1      42.225  29.517  27.833  1.00  0.00    -0.203 F 
ATOM     85  F   UNL A   1      39.329  24.918  27.334  1.00  0.00    -0.200 F 
ATOM     86  C   UNL A   1      40.794  26.515  26.398  1.00  0.00     0.200 A 
ATOM     87  F   UNL A   1      42.267  28.133  25.509  1.00  0.00    -0.200 F 
ATOM     88  F   UNL A   1      40.825  25.833  25.245  1.00  0.00    -0.200 F 
ENDBRANCH  64  78
BRANCH  65  89
ATOM     89  C   UNL A   1      39.722  33.921  36.776  1.00  0.00     0.064 A 
ATOM     90  C   UNL A   1      38.924  33.545  37.866  1.00  0.00     0.173 A 
ATOM     91  C   UNL A   1      40.370  35.164  36.842  1.00  0.00     0.173 A 
ATOM     92  F   UNL A   1      38.264  32.377  37.841  1.00  0.00    -0.203 F 
ATOM     93  C   UNL A   1      38.756  34.388  38.962  1.00  0.00     0.198 A 
ATOM     94  C   UNL A   1      40.228  35.992  37.953  1.00  0.00     0.198 A 
ATOM     95  F   UNL A   1      41.145  35.573  35.827  1.00  0.00    -0.203 F 
ATOM     96  F   UNL A   1      37.941  34.027  39.963  1.00  0.00    -0.200 F 
ATOM     97  C   UNL A   1      39.412  35.609  39.008  1.00  0.00     0.200 A 
ATOM     98  F   UNL A   1      40.873  37.165  37.998  1.00  0.00    -0.200 F 
ATOM     99  F   UNL A   1      39.250  36.419  40.061  1.00  0.00    -0.200 F 
ENDBRANCH  65  89
BRANCH  77 100
ATOM    100  C   UNL A   1      43.951  28.610  35.190  1.00  0.00     0.064 A 
ATOM    101  C   UNL A   1      43.726  27.543  36.072  1.00  0.00     0.173 A 
ATOM    102  C   UNL A   1      45.278  29.013  34.972  1.00  0.00     0.173 A 
ATOM    103  F   UNL A   1      42.476  27.127  36.323  1.00  0.00    -0.203 F 
ATOM    104  C   UNL A   1      44.785  26.921  36.727  1.00  0.00     0.198 A 
ATOM    105  C   UNL A   1      46.337  28.365  35.602  1.00  0.00     0.198 A 
ATOM    106  F   UNL A   1      45.550  30.020  34.129  1.00  0.00    -0.203 F 
ATOM    107  F   UNL A   1      44.541  25.936  37.603  1.00  0.00    -0.200 F 
ATOM    108  C   UNL A   1      46.088  27.325  36.485  1.00  0.00     0.200 A 
ATOM    109  F   UNL A   1      47.597  28.743  35.350  1.00  0.00    -0.200 F 
ATOM    110  F   UNL A   1      47.107  26.716  37.107  1.00  0.00    -0.200 F 
ENDBRANCH  77 100
ENDBRANCH  51  52
ENDBRANCH  43  46
ENDBRANCH  41  42
ENDBRANCH  40  41
ENDBRANCH  39  40
ENDBRANCH  38  39
ENDBRANCH   1  38
TORSDOF 19
ENDMDL
MODEL 3
REMARK VINA RESULT:     -12.9      0.513      6.829
REMARK SMILES COc1ccc2c(c1C)OC(=O)[C@@H](CC(=O)N[C@@H](CC1=c3ccccc3=NC1)C(=O)NCCCCCCNC(=O)c1ccc(-c3c4nc(c(-c5c(F)c(F)c(F)c(F)c5F)c5ccc([nH]5)c(-c5c(F)c(F)c(F)c(F)c5F)c5nc(c(-c6c(F)c(F)c(F)c(F)c6F)c6ccc3[nH]6)C=C5)C=C4)cc1)[C@H]2C
REMARK SMILES IDX 33 1 32 2 31 3 29 4 30 5 18 7 17 8 15 9 16 10 14 12 13 13
REMARK SMILES IDX 3 14 4 15 8 16 5 17 7 18 9 19 6 20 10 21 104 22 11 23 105 24
REMARK SMILES IDX 12 25 2 26 1 27 19 28 20 29 21 30 28 31 22 32 26 33 27 34
REMARK SMILES IDX 23 35 25 36 24 37 34 38 35 39 36 40 37 41 38 42 39 43 40 45
REMARK SMILES IDX 41 46 42 47 103 48 43 49 102 50 44 51 45 52 46 53 96 54
REMARK SMILES IDX 47 55 101 56 95 57 97 58 48 59 100 60 94 61 93 62 49 64
REMARK SMILES IDX 81 65 61 66 80 67 62 68 65 69 79 70 98 71 63 72 64 73 78 75
REMARK SMILES IDX 99 76 66 77 50 78 51 79 59 80 52 81 53 82 57 83 60 84 54 85
REMARK SMILES IDX 55 86 58 87 56 88 82 89 83 90 91 91 84 92 85 93 89 94 92 95
REMARK SMILES IDX 86 96 87 97 90 98 88 99 67 100 68 101 76 102 69 103 70 104
REMARK SMILES IDX 74 105 77 106 71 107 72 108 75 109 73 110
REMARK H PARENT 31 6 17 11 38 44 97 63 65 74
REMARK Flexibility Score: inf
ROOT
ATOM      1  C   UNL A   1      34.461  31.107  27.965  1.00  0.00     0.021 C 
ENDROOT
BRANCH   1   2
ATOM      2  C   UNL A   1      33.694  29.932  27.404  1.00  0.00     0.116 C 
BRANCH   2   3
ATOM      3  N   UNL A   1      34.322  29.327  26.264  1.00  0.00    -0.354 N 
ATOM      4  C   UNL A   1      33.730  28.738  25.197  1.00  0.00     0.242 C 
ATOM      5  O   UNL A   1      34.408  28.613  24.171  1.00  0.00    -0.273 OA
ATOM      6  H   UNL A   1      35.307  29.344  26.255  1.00  0.00     0.163 HD
BRANCH   4   7
ATOM      7  C   UNL A   1      32.242  28.332  25.185  1.00  0.00     0.175 C 
BRANCH   7   8
ATOM      8  N   UNL A   1      31.791  27.330  26.144  1.00  0.00    -0.344 N 
ATOM      9  C   UNL A   1      31.483  26.015  25.970  1.00  0.00     0.221 C 
ATOM     10  O   UNL A   1      30.942  25.439  26.915  1.00  0.00    -0.275 OA
ATOM     11  H   UNL A   1      31.693  27.657  27.068  1.00  0.00     0.164 HD
BRANCH   9  12
ATOM     12  C   UNL A   1      31.852  25.255  24.704  1.00  0.00     0.116 C 
BRANCH  12  13
ATOM     13  C   UNL A   1      32.615  23.923  24.884  1.00  0.00     0.116 C 
ATOM     14  C   UNL A   1      34.390  19.217  24.550  1.00  0.00     0.125 A 
ATOM     15  C   UNL A   1      33.030  19.134  24.236  1.00  0.00     0.047 A 
ATOM     16  C   UNL A   1      35.006  20.461  24.771  1.00  0.00     0.034 A 
ATOM     17  C   UNL A   1      32.292  20.292  24.047  1.00  0.00     0.012 A 
ATOM     18  C   UNL A   1      34.235  21.617  24.577  1.00  0.00     0.140 A 
ATOM     19  C   UNL A   1      36.442  20.574  25.191  1.00  0.00     0.052 C 
ATOM     20  C   UNL A   1      32.904  21.541  24.193  1.00  0.00    -0.001 A 
ATOM     21  O   UNL A   1      34.846  22.881  24.721  1.00  0.00    -0.426 OA
ATOM     22  C   UNL A   1      32.116  22.792  23.963  1.00  0.00     0.035 C 
ATOM     23  C   UNL A   1      34.121  24.076  24.679  1.00  0.00     0.315 C 
ATOM     24  C   UNL A   1      32.017  23.137  22.477  1.00  0.00     0.014 C 
ATOM     25  O   UNL A   1      34.698  25.152  24.569  1.00  0.00    -0.251 OA
BRANCH  14  26
ATOM     26  O   UNL A   1      35.135  18.073  24.672  1.00  0.00    -0.496 OA
ATOM     27  C   UNL A   1      34.439  16.937  24.149  1.00  0.00     0.278 C 
ENDBRANCH  14  26
ENDBRANCH  12  13
ENDBRANCH   9  12
ENDBRANCH   7   8
BRANCH   7  28
ATOM     28  C   UNL A   1      31.270  29.552  25.036  1.00  0.00     0.068 C 
BRANCH  28  29
ATOM     29  C   UNL A   1      30.267  29.530  23.915  1.00  0.00    -0.037 C 
ATOM     30  C   UNL A   1      29.453  30.500  23.500  1.00  0.00     0.001 A 
ATOM     31  C   UNL A   1      30.153  28.342  22.999  1.00  0.00     0.174 C 
ATOM     32  C   UNL A   1      29.131  31.812  23.954  1.00  0.00     0.010 A 
ATOM     33  C   UNL A   1      29.085  30.044  22.148  1.00  0.00     0.065 A 
ATOM     34  N   UNL A   1      29.416  28.836  21.809  1.00  0.00    -0.280 NA
ATOM     35  C   UNL A   1      28.638  32.700  23.077  1.00  0.00     0.001 A 
ATOM     36  C   UNL A   1      28.509  31.070  21.246  1.00  0.00     0.028 A 
ATOM     37  C   UNL A   1      28.369  32.328  21.700  1.00  0.00     0.002 A 
ENDBRANCH  28  29
ENDBRANCH   7  28
ENDBRANCH   4   7
ENDBRANCH   2   3
ENDBRANCH   1   2
BRANCH   1  38
ATOM     38  C   UNL A   1      33.837  32.462  27.641  1.00  0.00     0.002 C 
BRANCH  38  39
ATOM     39  C   UNL A   1      34.085  33.568  28.676  1.00  0.00     0.002 C 
BRANCH  39  40
ATOM     40  C   UNL A   1      33.039  34.685  28.715  1.00  0.00     0.021 C 
BRANCH  40  41
ATOM     41  C   UNL A   1      33.416  35.880  29.577  1.00  0.00     0.116 C 
BRANCH  41  42
ATOM     42  N   UNL A   1      32.567  35.987  30.748  1.00  0.00    -0.352 N 
ATOM     43  C   UNL A   1      32.709  35.382  31.968  1.00  0.00     0.251 C 
ATOM     44  H   UNL A   1      31.781  36.573  30.652  1.00  0.00     0.163 HD
ATOM     45  O   UNL A   1      31.800  35.397  32.787  1.00  0.00    -0.269 OA
BRANCH  43  46
ATOM     46  C   UNL A   1      33.981  34.708  32.284  1.00  0.00     0.039 A 
ATOM     47  C   UNL A   1      33.963  33.358  32.635  1.00  0.00     0.014 A 
ATOM     48  C   UNL A   1      35.182  35.425  32.250  1.00  0.00     0.014 A 
ATOM     49  C   UNL A   1      35.163  32.712  32.934  1.00  0.00     0.010 A 
ATOM     50  C   UNL A   1      36.380  34.769  32.496  1.00  0.00     0.010 A 
ATOM     51  C   UNL A   1      36.375  33.413  32.862  1.00  0.00    -0.014 A 
BRANCH  51  52
ATOM     52  C   UNL A   1      37.652  32.782  33.260  1.00  0.00     0.031 A 
ATOM     53  C   UNL A   1      38.247  31.729  32.370  1.00  0.00     0.074 A 
ATOM     54  C   UNL A   1      38.244  33.118  34.420  1.00  0.00     0.049 A 
ATOM     55  N   UNL A   1      39.287  30.963  32.574  1.00  0.00    -0.248 NA
ATOM     56  C   UNL A   1      37.568  31.493  31.084  1.00  0.00     0.031 C 
ATOM     57  C   UNL A   1      37.760  34.133  35.355  1.00  0.00     0.029 A 
ATOM     58  N   UNL A   1      39.377  32.625  35.016  1.00  0.00    -0.354 N 
ATOM     59  C   UNL A   1      39.389  30.162  31.446  1.00  0.00     0.074 A 
ATOM     60  C   UNL A   1      38.275  30.491  30.583  1.00  0.00     0.031 C 
ATOM     61  C   UNL A   1      38.596  34.193  36.405  1.00  0.00     0.029 A 
ATOM     62  C   UNL A   1      39.648  33.194  36.236  1.00  0.00     0.049 A 
ATOM     63  H   UNL A   1      39.942  31.930  34.607  1.00  0.00     0.167 HD
ATOM     64  C   UNL A   1      40.342  29.251  31.146  1.00  0.00     0.037 A 
ATOM     65  C   UNL A   1      40.628  32.922  37.119  1.00  0.00     0.037 A 
ATOM     66  C   UNL A   1      41.453  28.936  32.003  1.00  0.00     0.049 A 
ATOM     67  C   UNL A   1      41.634  31.848  36.789  1.00  0.00     0.074 A 
ATOM     68  C   UNL A   1      42.479  28.033  31.786  1.00  0.00     0.029 A 
ATOM     69  N   UNL A   1      41.686  29.519  33.241  1.00  0.00    -0.354 N 
ATOM     70  N   UNL A   1      41.737  31.110  35.711  1.00  0.00    -0.248 NA
ATOM     71  C   UNL A   1      42.663  31.572  37.801  1.00  0.00     0.031 C 
ATOM     72  C   UNL A   1      43.307  28.036  32.911  1.00  0.00     0.029 A 
ATOM     73  C   UNL A   1      42.831  28.982  33.805  1.00  0.00     0.049 A 
ATOM     74  H   UNL A   1      41.123  30.212  33.654  1.00  0.00     0.167 HD
ATOM     75  C   UNL A   1      42.856  30.310  35.899  1.00  0.00     0.074 A 
ATOM     76  C   UNL A   1      43.411  30.667  37.188  1.00  0.00     0.031 C 
ATOM     77  C   UNL A   1      43.377  29.361  35.082  1.00  0.00     0.037 A 
BRANCH  64  78
ATOM     78  C   UNL A   1      40.247  28.538  29.831  1.00  0.00     0.064 A 
ATOM     79  C   UNL A   1      40.916  29.016  28.693  1.00  0.00     0.173 A 
ATOM     80  C   UNL A   1      39.557  27.322  29.726  1.00  0.00     0.173 A 
ATOM     81  F   UNL A   1      41.574  30.183  28.738  1.00  0.00    -0.203 F 
ATOM     82  C   UNL A   1      40.898  28.300  27.500  1.00  0.00     0.198 A 
ATOM     83  C   UNL A   1      39.565  26.595  28.539  1.00  0.00     0.198 A 
ATOM     84  F   UNL A   1      38.900  26.823  30.784  1.00  0.00    -0.203 F 
ATOM     85  F   UNL A   1      41.526  28.785  26.420  1.00  0.00    -0.200 F 
ATOM     86  C   UNL A   1      40.236  27.084  27.428  1.00  0.00     0.200 A 
ATOM     87  F   UNL A   1      38.935  25.414  28.475  1.00  0.00    -0.200 F 
ATOM     88  F   UNL A   1      40.243  26.382  26.286  1.00  0.00    -0.200 F 
ENDBRANCH  64  78
BRANCH  65  89
ATOM     89  C   UNL A   1      40.723  33.682  38.394  1.00  0.00     0.064 A 
ATOM     90  C   UNL A   1      41.622  34.750  38.527  1.00  0.00     0.173 A 
ATOM     91  C   UNL A   1      39.945  33.342  39.512  1.00  0.00     0.173 A 
ATOM     92  F   UNL A   1      42.405  35.098  37.495  1.00  0.00    -0.203 F 
ATOM     93  C   UNL A   1      41.759  35.431  39.735  1.00  0.00     0.198 A 
ATOM     94  C   UNL A   1      40.060  34.045  40.709  1.00  0.00     0.198 A 
ATOM     95  F   UNL A   1      39.070  32.329  39.439  1.00  0.00    -0.203 F 
ATOM     96  F   UNL A   1      42.668  36.409  39.850  1.00  0.00    -0.200 F 
ATOM     97  C   UNL A   1      40.975  35.082  40.824  1.00  0.00     0.200 A 
ATOM     98  F   UNL A   1      39.292  33.712  41.755  1.00  0.00    -0.200 F 
ATOM     99  F   UNL A   1      41.108  35.735  41.985  1.00  0.00    -0.200 F 
ENDBRANCH  65  89
BRANCH  77 100
ATOM    100  C   UNL A   1      44.630  28.666  35.534  1.00  0.00     0.064 A 
ATOM    101  C   UNL A   1      45.902  29.169  35.225  1.00  0.00     0.173 A 
ATOM    102  C   UNL A   1      44.555  27.516  36.336  1.00  0.00     0.173 A 
ATOM    103  F   UNL A   1      46.028  30.259  34.454  1.00  0.00    -0.203 F 
ATOM    104  C   UNL A   1      47.053  28.531  35.681  1.00  0.00     0.198 A 
ATOM    105  C   UNL A   1      45.707  26.902  36.819  1.00  0.00     0.198 A 
ATOM    106  F   UNL A   1      43.363  27.001  36.671  1.00  0.00    -0.203 F 
ATOM    107  F   UNL A   1      48.259  29.002  35.331  1.00  0.00    -0.200 F 
ATOM    108  C   UNL A   1      46.955  27.406  36.483  1.00  0.00     0.200 A 
ATOM    109  F   UNL A   1      45.610  25.827  37.612  1.00  0.00    -0.200 F 
ATOM    110  F   UNL A   1      48.064  26.802  36.931  1.00  0.00    -0.200 F 
ENDBRANCH  77 100
ENDBRANCH  51  52
ENDBRANCH  43  46
ENDBRANCH  41  42
ENDBRANCH  40  41
ENDBRANCH  39  40
ENDBRANCH  38  39
ENDBRANCH   1  38
TORSDOF 19
ENDMDL
