MODEL 1
REMARK VINA RESULT:     -11.5      0.000      0.000
REMARK SMILES CCCn1cc(Br)cc1C(=O)NC[C@H]1CC[C@@H](C(=O)NCCCCCCNC(=O)c2ccc(-c3c4nc(c(-c5c(F)c(F)c(F)c(F)c5F)c5ccc([nH]5)c(-c5c(F)c(F)c(F)c(F)c5F)c5nc(c(-c6c(F)c(F)c(F)c(F)c6F)c6ccc3[nH]6)C=C5)C=C4)cc2)O1
REMARK SMILES IDX 22 1 21 2 20 3 18 4 19 5 17 7 14 8 15 9 93 10 16 11 13 12
REMARK SMILES IDX 12 13 10 14 11 15 9 17 4 18 5 19 6 20 8 21 7 22 3 23 2 24
REMARK SMILES IDX 1 25 23 26 24 27 25 28 26 29 27 30 28 31 29 33 30 34 31 35
REMARK SMILES IDX 92 36 32 37 91 38 33 39 34 40 35 41 85 42 36 43 90 44 84 45
REMARK SMILES IDX 86 46 37 47 89 48 83 49 82 50 38 52 70 53 50 54 69 55 51 56
REMARK SMILES IDX 54 57 68 58 87 59 52 60 53 61 67 63 88 64 55 65 39 66 40 67
REMARK SMILES IDX 48 68 41 69 42 70 46 71 49 72 43 73 44 74 47 75 45 76 71 77
REMARK SMILES IDX 72 78 80 79 73 80 74 81 78 82 81 83 75 84 76 85 79 86 77 87
REMARK SMILES IDX 56 88 57 89 65 90 58 91 59 92 63 93 66 94 60 95 61 96 64 97
REMARK SMILES IDX 62 98
REMARK H PARENT 20 6 12 16 27 32 86 51 54 62
REMARK Flexibility Score: inf
ROOT
ATOM      1  C   UNL A   1      39.780  21.864  25.825  1.00  0.00     0.021 C 
ENDROOT
BRANCH   1   2
ATOM      2  C   UNL A   1      38.277  22.149  25.845  1.00  0.00     0.116 C 
BRANCH   2   3
ATOM      3  N   UNL A   1      37.769  22.438  24.518  1.00  0.00    -0.354 N 
ATOM      4  C   UNL A   1      36.540  22.913  24.160  1.00  0.00     0.249 C 
ATOM      5  O   UNL A   1      36.318  23.093  22.960  1.00  0.00    -0.272 OA
ATOM      6  H   UNL A   1      38.394  22.269  23.776  1.00  0.00     0.163 HD
BRANCH   4   7
ATOM      7  C   UNL A   1      35.489  23.196  25.252  1.00  0.00     0.207 C 
ATOM      8  C   UNL A   1      33.289  24.045  25.139  1.00  0.00     0.138 C 
ATOM      9  C   UNL A   1      33.282  22.755  25.949  1.00  0.00     0.037 C 
ATOM     10  O   UNL A   1      34.692  24.372  24.982  1.00  0.00    -0.363 OA
ATOM     11  C   UNL A   1      34.506  22.046  25.428  1.00  0.00     0.045 C 
BRANCH   8  12
ATOM     12  C   UNL A   1      32.662  23.817  23.756  1.00  0.00     0.148 C 
BRANCH  12  13
ATOM     13  N   UNL A   1      33.003  24.769  22.729  1.00  0.00    -0.348 N 
ATOM     14  C   UNL A   1      33.233  26.119  22.713  1.00  0.00     0.268 C 
ATOM     15  O   UNL A   1      33.975  26.448  21.777  1.00  0.00    -0.268 OA
ATOM     16  H   UNL A   1      33.091  24.356  21.839  1.00  0.00     0.163 HD
BRANCH  14  17
ATOM     17  C   UNL A   1      32.632  27.151  23.563  1.00  0.00     0.108 A 
ATOM     18  N   UNL A   1      31.387  27.762  23.703  1.00  0.00    -0.342 N 
ATOM     19  C   UNL A   1      31.483  28.834  24.577  1.00  0.00     0.102 A 
ATOM     20  C   UNL A   1      32.712  28.796  25.158  1.00  0.00     0.036 A 
ATOM     21  C   UNL A   1      33.419  27.749  24.566  1.00  0.00     0.049 A 
ATOM     22  Br  UNL A   1      33.373  29.928  26.488  1.00  0.00    -0.049 Br
BRANCH  18  23
ATOM     23  C   UNL A   1      30.088  27.446  23.135  1.00  0.00     0.122 C 
BRANCH  23  24
ATOM     24  C   UNL A   1      29.269  28.652  22.666  1.00  0.00     0.018 C 
ATOM     25  C   UNL A   1      27.806  28.565  23.055  1.00  0.00     0.006 C 
ENDBRANCH  23  24
ENDBRANCH  18  23
ENDBRANCH  14  17
ENDBRANCH  12  13
ENDBRANCH   8  12
ENDBRANCH   4   7
ENDBRANCH   2   3
ENDBRANCH   1   2
BRANCH   1  26
ATOM     26  C   UNL A   1      40.482  21.966  27.187  1.00  0.00     0.002 C 
BRANCH  26  27
ATOM     27  C   UNL A   1      40.996  20.649  27.790  1.00  0.00     0.002 C 
BRANCH  27  28
ATOM     28  C   UNL A   1      42.314  20.099  27.225  1.00  0.00     0.021 C 
BRANCH  28  29
ATOM     29  C   UNL A   1      42.247  19.696  25.759  1.00  0.00     0.116 C 
BRANCH  29  30
ATOM     30  N   UNL A   1      43.566  19.484  25.160  1.00  0.00    -0.352 N 
ATOM     31  C   UNL A   1      44.449  20.440  24.701  1.00  0.00     0.251 C 
ATOM     32  H   UNL A   1      43.858  18.548  25.074  1.00  0.00     0.163 HD
ATOM     33  O   UNL A   1      45.324  20.154  23.882  1.00  0.00    -0.269 OA
BRANCH  31  34
ATOM     34  C   UNL A   1      44.343  21.816  25.212  1.00  0.00     0.039 A 
ATOM     35  C   UNL A   1      43.381  22.708  24.732  1.00  0.00     0.014 A 
ATOM     36  C   UNL A   1      45.235  22.203  26.211  1.00  0.00     0.014 A 
ATOM     37  C   UNL A   1      43.278  23.966  25.320  1.00  0.00     0.010 A 
ATOM     38  C   UNL A   1      45.028  23.370  26.897  1.00  0.00     0.010 A 
ATOM     39  C   UNL A   1      44.095  24.281  26.418  1.00  0.00    -0.014 A 
BRANCH  39  40
ATOM     40  C   UNL A   1      43.904  25.513  27.174  1.00  0.00     0.031 A 
ATOM     41  C   UNL A   1      44.864  26.591  26.819  1.00  0.00     0.074 A 
ATOM     42  C   UNL A   1      42.815  25.736  27.943  1.00  0.00     0.049 A 
ATOM     43  N   UNL A   1      45.761  27.121  27.582  1.00  0.00    -0.248 NA
ATOM     44  C   UNL A   1      44.938  27.039  25.417  1.00  0.00     0.031 C 
ATOM     45  C   UNL A   1      41.642  24.875  28.126  1.00  0.00     0.029 A 
ATOM     46  N   UNL A   1      42.471  26.849  28.645  1.00  0.00    -0.354 N 
ATOM     47  C   UNL A   1      46.378  28.111  26.823  1.00  0.00     0.074 A 
ATOM     48  C   UNL A   1      45.971  27.885  25.461  1.00  0.00     0.031 C 
ATOM     49  C   UNL A   1      40.634  25.590  28.674  1.00  0.00     0.029 A 
ATOM     50  C   UNL A   1      41.132  26.906  29.025  1.00  0.00     0.049 A 
ATOM     51  H   UNL A   1      43.117  27.558  28.869  1.00  0.00     0.167 HD
ATOM     52  C   UNL A   1      46.959  29.183  27.429  1.00  0.00     0.037 A 
ATOM     53  C   UNL A   1      40.482  27.978  29.547  1.00  0.00     0.037 A 
ATOM     54  C   UNL A   1      47.182  28.918  28.831  1.00  0.00     0.049 A 
ATOM     55  C   UNL A   1      41.517  28.908  30.072  1.00  0.00     0.074 A 
ATOM     56  C   UNL A   1      47.875  27.948  29.533  1.00  0.00     0.029 A 
ATOM     57  N   UNL A   1      46.316  29.480  29.738  1.00  0.00    -0.354 N 
ATOM     58  N   UNL A   1      42.259  28.646  31.111  1.00  0.00    -0.248 NA
ATOM     59  C   UNL A   1      42.057  29.895  29.149  1.00  0.00     0.031 C 
ATOM     60  C   UNL A   1      47.037  27.634  30.645  1.00  0.00     0.029 A 
ATOM     61  C   UNL A   1      45.939  28.492  30.611  1.00  0.00     0.049 A 
ATOM     62  H   UNL A   1      46.020  30.418  29.756  1.00  0.00     0.167 HD
ATOM     63  C   UNL A   1      43.529  29.061  30.743  1.00  0.00     0.074 A 
ATOM     64  C   UNL A   1      43.330  29.893  29.556  1.00  0.00     0.031 C 
ATOM     65  C   UNL A   1      44.643  28.448  31.242  1.00  0.00     0.037 A 
BRANCH  52  66
ATOM     66  C   UNL A   1      46.955  30.589  26.873  1.00  0.00     0.064 A 
ATOM     67  C   UNL A   1      48.147  31.342  26.928  1.00  0.00     0.173 A 
ATOM     68  C   UNL A   1      45.786  31.328  26.591  1.00  0.00     0.173 A 
ATOM     69  F   UNL A   1      49.320  30.747  27.197  1.00  0.00    -0.203 F 
ATOM     70  C   UNL A   1      48.149  32.735  26.818  1.00  0.00     0.198 A 
ATOM     71  C   UNL A   1      45.800  32.712  26.426  1.00  0.00     0.198 A 
ATOM     72  F   UNL A   1      44.571  30.773  26.579  1.00  0.00    -0.203 F 
ATOM     73  F   UNL A   1      49.283  33.416  27.023  1.00  0.00    -0.200 F 
ATOM     74  C   UNL A   1      46.972  33.419  26.577  1.00  0.00     0.200 A 
ATOM     75  F   UNL A   1      44.645  33.359  26.210  1.00  0.00    -0.200 F 
ATOM     76  F   UNL A   1      46.958  34.758  26.540  1.00  0.00    -0.200 F 
ENDBRANCH  52  66
BRANCH  53  77
ATOM     77  C   UNL A   1      39.068  28.395  29.366  1.00  0.00     0.064 A 
ATOM     78  C   UNL A   1      38.206  28.535  30.467  1.00  0.00     0.173 A 
ATOM     79  C   UNL A   1      38.613  28.941  28.150  1.00  0.00     0.173 A 
ATOM     80  F   UNL A   1      38.575  28.082  31.676  1.00  0.00    -0.203 F 
ATOM     81  C   UNL A   1      36.982  29.208  30.366  1.00  0.00     0.198 A 
ATOM     82  C   UNL A   1      37.389  29.606  28.048  1.00  0.00     0.198 A 
ATOM     83  F   UNL A   1      39.388  28.929  27.056  1.00  0.00    -0.203 F 
ATOM     84  F   UNL A   1      36.221  29.381  31.456  1.00  0.00    -0.200 F 
ATOM     85  C   UNL A   1      36.582  29.755  29.159  1.00  0.00     0.200 A 
ATOM     86  F   UNL A   1      37.032  30.163  26.882  1.00  0.00    -0.200 F 
ATOM     87  F   UNL A   1      35.444  30.458  29.075  1.00  0.00    -0.200 F 
ENDBRANCH  53  77
BRANCH  65  88
ATOM     88  C   UNL A   1      44.473  27.497  32.395  1.00  0.00     0.064 A 
ATOM     89  C   UNL A   1      44.258  26.113  32.264  1.00  0.00     0.173 A 
ATOM     90  C   UNL A   1      44.658  27.996  33.691  1.00  0.00     0.173 A 
ATOM     91  F   UNL A   1      44.183  25.532  31.061  1.00  0.00    -0.203 F 
ATOM     92  C   UNL A   1      44.172  25.284  33.383  1.00  0.00     0.198 A 
ATOM     93  C   UNL A   1      44.616  27.160  34.804  1.00  0.00     0.198 A 
ATOM     94  F   UNL A   1      44.924  29.299  33.878  1.00  0.00    -0.203 F 
ATOM     95  F   UNL A   1      43.941  23.971  33.232  1.00  0.00    -0.200 F 
ATOM     96  C   UNL A   1      44.356  25.809  34.651  1.00  0.00     0.200 A 
ATOM     97  F   UNL A   1      44.847  27.666  36.023  1.00  0.00    -0.200 F 
ATOM     98  F   UNL A   1      44.307  25.009  35.726  1.00  0.00    -0.200 F 
ENDBRANCH  65  88
ENDBRANCH  39  40
ENDBRANCH  31  34
ENDBRANCH  29  30
ENDBRANCH  28  29
ENDBRANCH  27  28
ENDBRANCH  26  27
ENDBRANCH   1  26
TORSDOF 18
ENDMDL
MODEL 2
REMARK VINA RESULT:     -11.5      4.033      9.794
REMARK SMILES CCCn1cc(Br)cc1C(=O)NC[C@H]1CC[C@@H](C(=O)NCCCCCCNC(=O)c2ccc(-c3c4nc(c(-c5c(F)c(F)c(F)c(F)c5F)c5ccc([nH]5)c(-c5c(F)c(F)c(F)c(F)c5F)c5nc(c(-c6c(F)c(F)c(F)c(F)c6F)c6ccc3[nH]6)C=C5)C=C4)cc2)O1
REMARK SMILES IDX 22 1 21 2 20 3 18 4 19 5 17 7 14 8 15 9 93 10 16 11 13 12
REMARK SMILES IDX 12 13 10 14 11 15 9 17 4 18 5 19 6 20 8 21 7 22 3 23 2 24
REMARK SMILES IDX 1 25 23 26 24 27 25 28 26 29 27 30 28 31 29 33 30 34 31 35
REMARK SMILES IDX 92 36 32 37 91 38 33 39 34 40 35 41 85 42 36 43 90 44 84 45
REMARK SMILES IDX 86 46 37 47 89 48 83 49 82 50 38 52 70 53 50 54 69 55 51 56
REMARK SMILES IDX 54 57 68 58 87 59 52 60 53 61 67 63 88 64 55 65 39 66 40 67
REMARK SMILES IDX 48 68 41 69 42 70 46 71 49 72 43 73 44 74 47 75 45 76 71 77
REMARK SMILES IDX 72 78 80 79 73 80 74 81 78 82 81 83 75 84 76 85 79 86 77 87
REMARK SMILES IDX 56 88 57 89 65 90 58 91 59 92 63 93 66 94 60 95 61 96 64 97
REMARK SMILES IDX 62 98
REMARK H PARENT 20 6 12 16 27 32 86 51 54 62
REMARK Flexibility Score: inf
ROOT
ATOM      1  C   UNL A   1      33.709  31.625  27.424  1.00  0.00     0.021 C 
ENDROOT
BRANCH   1   2
ATOM      2  C   UNL A   1      34.006  30.137  27.219  1.00  0.00     0.116 C 
BRANCH   2   3
ATOM      3  N   UNL A   1      32.908  29.306  27.670  1.00  0.00    -0.354 N 
ATOM      4  C   UNL A   1      32.495  28.099  27.183  1.00  0.00     0.249 C 
ATOM      5  O   UNL A   1      31.529  27.557  27.725  1.00  0.00    -0.272 OA
ATOM      6  H   UNL A   1      32.390  29.658  28.430  1.00  0.00     0.163 HD
BRANCH   4   7
ATOM      7  C   UNL A   1      33.237  27.472  25.985  1.00  0.00     0.207 C 
ATOM      8  C   UNL A   1      33.172  25.305  25.051  1.00  0.00     0.138 C 
ATOM      9  C   UNL A   1      32.960  26.329  23.944  1.00  0.00     0.037 C 
ATOM     10  O   UNL A   1      33.589  26.086  26.199  1.00  0.00    -0.363 OA
ATOM     11  C   UNL A   1      32.414  27.511  24.704  1.00  0.00     0.045 C 
BRANCH   8  12
ATOM     12  C   UNL A   1      31.856  24.583  25.378  1.00  0.00     0.148 C 
BRANCH  12  13
ATOM     13  N   UNL A   1      31.878  23.683  26.504  1.00  0.00    -0.348 N 
ATOM     14  C   UNL A   1      32.792  22.791  26.999  1.00  0.00     0.268 C 
ATOM     15  O   UNL A   1      32.647  22.612  28.217  1.00  0.00    -0.268 OA
ATOM     16  H   UNL A   1      31.050  23.717  27.037  1.00  0.00     0.163 HD
BRANCH  14  17
ATOM     17  C   UNL A   1      33.774  21.995  26.258  1.00  0.00     0.108 A 
ATOM     18  N   UNL A   1      33.794  20.790  25.558  1.00  0.00    -0.342 N 
ATOM     19  C   UNL A   1      35.098  20.456  25.229  1.00  0.00     0.102 A 
ATOM     20  C   UNL A   1      35.892  21.521  25.522  1.00  0.00     0.036 A 
ATOM     21  C   UNL A   1      35.087  22.486  26.128  1.00  0.00     0.049 A 
ATOM     22  Br  UNL A   1      37.726  21.690  25.205  1.00  0.00    -0.049 Br
BRANCH  18  23
ATOM     23  C   UNL A   1      32.724  19.909  25.123  1.00  0.00     0.122 C 
BRANCH  23  24
ATOM     24  C   UNL A   1      33.164  18.503  24.704  1.00  0.00     0.018 C 
ATOM     25  C   UNL A   1      32.619  17.415  25.608  1.00  0.00     0.006 C 
ENDBRANCH  23  24
ENDBRANCH  18  23
ENDBRANCH  14  17
ENDBRANCH  12  13
ENDBRANCH   8  12
ENDBRANCH   4   7
ENDBRANCH   2   3
ENDBRANCH   1   2
BRANCH   1  26
ATOM     26  C   UNL A   1      34.596  32.332  28.458  1.00  0.00     0.002 C 
BRANCH  26  27
ATOM     27  C   UNL A   1      35.127  33.720  28.068  1.00  0.00     0.002 C 
BRANCH  27  28
ATOM     28  C   UNL A   1      34.532  34.922  28.817  1.00  0.00     0.021 C 
BRANCH  28  29
ATOM     29  C   UNL A   1      33.218  34.630  29.526  1.00  0.00     0.116 C 
BRANCH  29  30
ATOM     30  N   UNL A   1      33.061  35.377  30.774  1.00  0.00    -0.352 N 
ATOM     31  C   UNL A   1      33.604  35.084  32.009  1.00  0.00     0.251 C 
ATOM     32  H   UNL A   1      32.500  36.184  30.729  1.00  0.00     0.163 HD
ATOM     33  O   UNL A   1      33.106  35.532  33.043  1.00  0.00    -0.269 OA
BRANCH  31  34
ATOM     34  C   UNL A   1      34.802  34.234  32.079  1.00  0.00     0.039 A 
ATOM     35  C   UNL A   1      34.721  32.840  32.010  1.00  0.00     0.014 A 
ATOM     36  C   UNL A   1      36.037  34.867  32.206  1.00  0.00     0.014 A 
ATOM     37  C   UNL A   1      35.900  32.099  31.993  1.00  0.00     0.010 A 
ATOM     38  C   UNL A   1      37.192  34.155  32.025  1.00  0.00     0.010 A 
ATOM     39  C   UNL A   1      37.134  32.768  31.981  1.00  0.00    -0.014 A 
BRANCH  39  40
ATOM     40  C   UNL A   1      38.385  32.045  31.789  1.00  0.00     0.031 A 
ATOM     41  C   UNL A   1      39.109  31.748  33.053  1.00  0.00     0.074 A 
ATOM     42  C   UNL A   1      38.732  31.488  30.608  1.00  0.00     0.049 A 
ATOM     43  N   UNL A   1      40.266  32.192  33.415  1.00  0.00    -0.248 NA
ATOM     44  C   UNL A   1      38.412  30.985  34.104  1.00  0.00     0.031 C 
ATOM     45  C   UNL A   1      37.956  31.440  29.364  1.00  0.00     0.029 A 
ATOM     46  N   UNL A   1      39.823  30.736  30.298  1.00  0.00    -0.354 N 
ATOM     47  C   UNL A   1      40.538  31.605  34.647  1.00  0.00     0.074 A 
ATOM     48  C   UNL A   1      39.296  31.036  35.104  1.00  0.00     0.031 C 
ATOM     49  C   UNL A   1      38.479  30.508  28.537  1.00  0.00     0.029 A 
ATOM     50  C   UNL A   1      39.710  30.006  29.117  1.00  0.00     0.049 A 
ATOM     51  H   UNL A   1      40.629  30.710  30.864  1.00  0.00     0.167 HD
ATOM     52  C   UNL A   1      41.824  31.416  35.052  1.00  0.00     0.037 A 
ATOM     53  C   UNL A   1      40.550  29.032  28.681  1.00  0.00     0.037 A 
ATOM     54  C   UNL A   1      42.729  32.232  34.277  1.00  0.00     0.049 A 
ATOM     55  C   UNL A   1      41.831  29.194  29.418  1.00  0.00     0.074 A 
ATOM     56  C   UNL A   1      42.839  33.589  34.034  1.00  0.00     0.029 A 
ATOM     57  N   UNL A   1      43.456  31.620  33.283  1.00  0.00    -0.354 N 
ATOM     58  N   UNL A   1      42.641  30.200  29.239  1.00  0.00    -0.248 NA
ATOM     59  C   UNL A   1      41.960  28.505  30.693  1.00  0.00     0.031 C 
ATOM     60  C   UNL A   1      43.173  33.687  32.650  1.00  0.00     0.029 A 
ATOM     61  C   UNL A   1      43.342  32.393  32.157  1.00  0.00     0.049 A 
ATOM     62  H   UNL A   1      43.964  30.781  33.366  1.00  0.00     0.167 HD
ATOM     63  C   UNL A   1      43.037  30.557  30.519  1.00  0.00     0.074 A 
ATOM     64  C   UNL A   1      42.648  29.430  31.368  1.00  0.00     0.031 C 
ATOM     65  C   UNL A   1      43.358  31.849  30.821  1.00  0.00     0.037 A 
BRANCH  52  66
ATOM     66  C   UNL A   1      42.306  30.225  35.848  1.00  0.00     0.064 A 
ATOM     67  C   UNL A   1      43.261  30.433  36.866  1.00  0.00     0.173 A 
ATOM     68  C   UNL A   1      42.125  28.881  35.456  1.00  0.00     0.173 A 
ATOM     69  F   UNL A   1      43.524  31.670  37.315  1.00  0.00    -0.203 F 
ATOM     70  C   UNL A   1      44.045  29.392  37.370  1.00  0.00     0.198 A 
ATOM     71  C   UNL A   1      42.871  27.837  36.001  1.00  0.00     0.198 A 
ATOM     72  F   UNL A   1      41.313  28.529  34.455  1.00  0.00    -0.203 F 
ATOM     73  F   UNL A   1      45.037  29.662  38.228  1.00  0.00    -0.200 F 
ATOM     74  C   UNL A   1      43.855  28.095  36.929  1.00  0.00     0.200 A 
ATOM     75  F   UNL A   1      42.682  26.590  35.547  1.00  0.00    -0.200 F 
ATOM     76  F   UNL A   1      44.650  27.107  37.357  1.00  0.00    -0.200 F 
ENDBRANCH  52  66
BRANCH  53  77
ATOM     77  C   UNL A   1      40.238  27.805  27.905  1.00  0.00     0.064 A 
ATOM     78  C   UNL A   1      40.902  27.522  26.698  1.00  0.00     0.173 A 
ATOM     79  C   UNL A   1      39.498  26.747  28.467  1.00  0.00     0.173 A 
ATOM     80  F   UNL A   1      41.665  28.457  26.111  1.00  0.00    -0.203 F 
ATOM     81  C   UNL A   1      40.856  26.252  26.110  1.00  0.00     0.198 A 
ATOM     82  C   UNL A   1      39.446  25.482  27.877  1.00  0.00     0.198 A 
ATOM     83  F   UNL A   1      38.889  26.887  29.653  1.00  0.00    -0.203 F 
ATOM     84  F   UNL A   1      41.559  26.003  24.996  1.00  0.00    -0.200 F 
ATOM     85  C   UNL A   1      40.139  25.230  26.708  1.00  0.00     0.200 A 
ATOM     86  F   UNL A   1      38.779  24.492  28.487  1.00  0.00    -0.200 F 
ATOM     87  F   UNL A   1      40.148  23.996  26.185  1.00  0.00    -0.200 F 
ENDBRANCH  53  77
BRANCH  65  88
ATOM     88  C   UNL A   1      43.532  32.822  29.687  1.00  0.00     0.064 A 
ATOM     89  C   UNL A   1      42.549  33.730  29.254  1.00  0.00     0.173 A 
ATOM     90  C   UNL A   1      44.797  32.918  29.092  1.00  0.00     0.173 A 
ATOM     91  F   UNL A   1      41.349  33.786  29.843  1.00  0.00    -0.203 F 
ATOM     92  C   UNL A   1      42.807  34.646  28.234  1.00  0.00     0.198 A 
ATOM     93  C   UNL A   1      45.066  33.861  28.104  1.00  0.00     0.198 A 
ATOM     94  F   UNL A   1      45.794  32.117  29.501  1.00  0.00    -0.203 F 
ATOM     95  F   UNL A   1      41.843  35.484  27.823  1.00  0.00    -0.200 F 
ATOM     96  C   UNL A   1      44.066  34.713  27.663  1.00  0.00     0.200 A 
ATOM     97  F   UNL A   1      46.301  33.956  27.594  1.00  0.00    -0.200 F 
ATOM     98  F   UNL A   1      44.326  35.614  26.706  1.00  0.00    -0.200 F 
ENDBRANCH  65  88
ENDBRANCH  39  40
ENDBRANCH  31  34
ENDBRANCH  29  30
ENDBRANCH  28  29
ENDBRANCH  27  28
ENDBRANCH  26  27
ENDBRANCH   1  26
TORSDOF 18
ENDMDL
MODEL 3
REMARK VINA RESULT:     -11.4      3.180      8.893
REMARK SMILES CCCn1cc(Br)cc1C(=O)NC[C@H]1CC[C@@H](C(=O)NCCCCCCNC(=O)c2ccc(-c3c4nc(c(-c5c(F)c(F)c(F)c(F)c5F)c5ccc([nH]5)c(-c5c(F)c(F)c(F)c(F)c5F)c5nc(c(-c6c(F)c(F)c(F)c(F)c6F)c6ccc3[nH]6)C=C5)C=C4)cc2)O1
REMARK SMILES IDX 22 1 21 2 20 3 18 4 19 5 17 7 14 8 15 9 93 10 16 11 13 12
REMARK SMILES IDX 12 13 10 14 11 15 9 17 4 18 5 19 6 20 8 21 7 22 3 23 2 24
REMARK SMILES IDX 1 25 23 26 24 27 25 28 26 29 27 30 28 31 29 33 30 34 31 35
REMARK SMILES IDX 92 36 32 37 91 38 33 39 34 40 35 41 85 42 36 43 90 44 84 45
REMARK SMILES IDX 86 46 37 47 89 48 83 49 82 50 38 52 70 53 50 54 69 55 51 56
REMARK SMILES IDX 54 57 68 58 87 59 52 60 53 61 67 63 88 64 55 65 39 66 40 67
REMARK SMILES IDX 48 68 41 69 42 70 46 71 49 72 43 73 44 74 47 75 45 76 71 77
REMARK SMILES IDX 72 78 80 79 73 80 74 81 78 82 81 83 75 84 76 85 79 86 77 87
REMARK SMILES IDX 56 88 57 89 65 90 58 91 59 92 63 93 66 94 60 95 61 96 64 97
REMARK SMILES IDX 62 98
REMARK H PARENT 20 6 12 16 27 32 86 51 54 62
REMARK Flexibility Score: inf
ROOT
ATOM      1  C   UNL A   1      30.263  29.614  23.731  1.00  0.00     0.021 C 
ENDROOT
BRANCH   1   2
ATOM      2  C   UNL A   1      31.270  29.278  22.630  1.00  0.00     0.116 C 
BRANCH   2   3
ATOM      3  N   UNL A   1      31.108  27.920  22.151  1.00  0.00    -0.354 N 
ATOM      4  C   UNL A   1      31.627  26.766  22.664  1.00  0.00     0.249 C 
ATOM      5  O   UNL A   1      31.355  25.706  22.094  1.00  0.00    -0.272 OA
ATOM      6  H   UNL A   1      30.548  27.815  21.347  1.00  0.00     0.163 HD
BRANCH   4   7
ATOM      7  C   UNL A   1      32.527  26.831  23.914  1.00  0.00     0.207 C 
ATOM      8  C   UNL A   1      32.475  25.647  25.956  1.00  0.00     0.138 C 
ATOM      9  C   UNL A   1      33.879  25.567  25.372  1.00  0.00     0.037 C 
ATOM     10  O   UNL A   1      31.798  26.642  25.148  1.00  0.00    -0.363 OA
ATOM     11  C   UNL A   1      33.623  25.773  23.900  1.00  0.00     0.045 C 
BRANCH   8  12
ATOM     12  C   UNL A   1      31.752  24.299  25.814  1.00  0.00     0.148 C 
BRANCH  12  13
ATOM     13  N   UNL A   1      31.941  23.351  26.883  1.00  0.00    -0.348 N 
ATOM     14  C   UNL A   1      32.934  22.468  27.214  1.00  0.00     0.268 C 
ATOM     15  O   UNL A   1      32.951  22.230  28.430  1.00  0.00    -0.268 OA
ATOM     16  H   UNL A   1      31.188  23.334  27.517  1.00  0.00     0.163 HD
BRANCH  14  17
ATOM     17  C   UNL A   1      33.835  21.738  26.318  1.00  0.00     0.108 A 
ATOM     18  N   UNL A   1      33.742  20.682  25.413  1.00  0.00    -0.342 N 
ATOM     19  C   UNL A   1      35.008  20.303  24.996  1.00  0.00     0.102 A 
ATOM     20  C   UNL A   1      35.896  21.227  25.453  1.00  0.00     0.036 A 
ATOM     21  C   UNL A   1      35.185  22.131  26.243  1.00  0.00     0.049 A 
ATOM     22  Br  UNL A   1      37.733  21.294  25.124  1.00  0.00    -0.049 Br
BRANCH  18  23
ATOM     23  C   UNL A   1      32.593  19.988  24.855  1.00  0.00     0.122 C 
BRANCH  23  24
ATOM     24  C   UNL A   1      32.370  20.194  23.354  1.00  0.00     0.018 C 
ATOM     25  C   UNL A   1      32.225  21.654  22.970  1.00  0.00     0.006 C 
ENDBRANCH  23  24
ENDBRANCH  18  23
ENDBRANCH  14  17
ENDBRANCH  12  13
ENDBRANCH   8  12
ENDBRANCH   4   7
ENDBRANCH   2   3
ENDBRANCH   1   2
BRANCH   1  26
ATOM     26  C   UNL A   1      30.839  30.370  24.937  1.00  0.00     0.002 C 
BRANCH  26  27
ATOM     27  C   UNL A   1      32.236  29.937  25.410  1.00  0.00     0.002 C 
BRANCH  27  28
ATOM     28  C   UNL A   1      32.363  29.503  26.877  1.00  0.00     0.021 C 
BRANCH  28  29
ATOM     29  C   UNL A   1      33.689  29.871  27.527  1.00  0.00     0.116 C 
BRANCH  29  30
ATOM     30  N   UNL A   1      34.103  31.246  27.249  1.00  0.00    -0.352 N 
ATOM     31  C   UNL A   1      35.234  31.896  27.698  1.00  0.00     0.251 C 
ATOM     32  H   UNL A   1      33.503  31.771  26.672  1.00  0.00     0.163 HD
ATOM     33  O   UNL A   1      35.287  33.127  27.735  1.00  0.00    -0.269 OA
BRANCH  31  34
ATOM     34  C   UNL A   1      36.394  31.099  28.127  1.00  0.00     0.039 A 
ATOM     35  C   UNL A   1      36.558  29.768  27.734  1.00  0.00     0.014 A 
ATOM     36  C   UNL A   1      37.341  31.722  28.938  1.00  0.00     0.014 A 
ATOM     37  C   UNL A   1      37.722  29.097  28.103  1.00  0.00     0.010 A 
ATOM     38  C   UNL A   1      38.551  31.121  29.160  1.00  0.00     0.010 A 
ATOM     39  C   UNL A   1      38.724  29.791  28.801  1.00  0.00    -0.014 A 
BRANCH  39  40
ATOM     40  C   UNL A   1      40.026  29.186  29.056  1.00  0.00     0.031 A 
ATOM     41  C   UNL A   1      40.318  28.971  30.497  1.00  0.00     0.074 A 
ATOM     42  C   UNL A   1      40.786  28.651  28.075  1.00  0.00     0.049 A 
ATOM     43  N   UNL A   1      41.251  29.525  31.196  1.00  0.00    -0.248 NA
ATOM     44  C   UNL A   1      39.383  28.159  31.295  1.00  0.00     0.031 C 
ATOM     45  C   UNL A   1      40.466  28.516  26.649  1.00  0.00     0.029 A 
ATOM     46  N   UNL A   1      41.978  28.000  28.167  1.00  0.00    -0.354 N 
ATOM     47  C   UNL A   1      41.154  28.980  32.473  1.00  0.00     0.074 A 
ATOM     48  C   UNL A   1      39.885  28.303  32.525  1.00  0.00     0.031 C 
ATOM     49  C   UNL A   1      41.307  27.628  26.076  1.00  0.00     0.029 A 
ATOM     50  C   UNL A   1      42.319  27.250  27.044  1.00  0.00     0.049 A 
ATOM     51  H   UNL A   1      42.553  28.056  28.964  1.00  0.00     0.167 HD
ATOM     52  C   UNL A   1      42.248  28.917  33.281  1.00  0.00     0.037 A 
ATOM     53  C   UNL A   1      43.335  26.354  26.945  1.00  0.00     0.037 A 
ATOM     54  C   UNL A   1      43.284  29.805  32.809  1.00  0.00     0.049 A 
ATOM     55  C   UNL A   1      44.286  26.644  28.050  1.00  0.00     0.074 A 
ATOM     56  C   UNL A   1      43.353  31.163  32.560  1.00  0.00     0.029 A 
ATOM     57  N   UNL A   1      44.345  29.253  32.131  1.00  0.00    -0.354 N 
ATOM     58  N   UNL A   1      45.022  27.718  28.103  1.00  0.00    -0.248 NA
ATOM     59  C   UNL A   1      44.049  25.983  29.326  1.00  0.00     0.031 C 
ATOM     60  C   UNL A   1      44.111  31.277  31.356  1.00  0.00     0.029 A 
ATOM     61  C   UNL A   1      44.541  30.000  30.998  1.00  0.00     0.049 A 
ATOM     62  H   UNL A   1      44.868  28.466  32.409  1.00  0.00     0.167 HD
ATOM     63  C   UNL A   1      44.945  28.125  29.426  1.00  0.00     0.074 A 
ATOM     64  C   UNL A   1      44.397  26.976  30.148  1.00  0.00     0.031 C 
ATOM     65  C   UNL A   1      45.039  29.445  29.763  1.00  0.00     0.037 A 
BRANCH  52  66
ATOM     66  C   UNL A   1      42.543  27.785  34.238  1.00  0.00     0.064 A 
ATOM     67  C   UNL A   1      43.101  26.594  33.727  1.00  0.00     0.173 A 
ATOM     68  C   UNL A   1      42.019  27.693  35.546  1.00  0.00     0.173 A 
ATOM     69  F   UNL A   1      43.623  26.559  32.491  1.00  0.00    -0.203 F 
ATOM     70  C   UNL A   1      43.040  25.387  34.428  1.00  0.00     0.198 A 
ATOM     71  C   UNL A   1      42.009  26.498  36.264  1.00  0.00     0.198 A 
ATOM     72  F   UNL A   1      41.391  28.711  36.141  1.00  0.00    -0.203 F 
ATOM     73  F   UNL A   1      43.451  24.256  33.840  1.00  0.00    -0.200 F 
ATOM     74  C   UNL A   1      42.484  25.339  35.693  1.00  0.00     0.200 A 
ATOM     75  F   UNL A   1      41.451  26.470  37.483  1.00  0.00    -0.200 F 
ATOM     76  F   UNL A   1      42.360  24.172  36.338  1.00  0.00    -0.200 F 
ENDBRANCH  52  66
BRANCH  53  77
ATOM     77  C   UNL A   1      43.399  25.095  26.160  1.00  0.00     0.064 A 
ATOM     78  C   UNL A   1      44.449  24.857  25.255  1.00  0.00     0.173 A 
ATOM     79  C   UNL A   1      42.600  23.982  26.487  1.00  0.00     0.173 A 
ATOM     80  F   UNL A   1      45.288  25.849  24.917  1.00  0.00    -0.203 F 
ATOM     81  C   UNL A   1      44.703  23.580  24.739  1.00  0.00     0.198 A 
ATOM     82  C   UNL A   1      42.850  22.711  25.967  1.00  0.00     0.198 A 
ATOM     83  F   UNL A   1      41.620  24.082  27.397  1.00  0.00    -0.203 F 
ATOM     84  F   UNL A   1      45.756  23.382  23.933  1.00  0.00    -0.200 F 
ATOM     85  C   UNL A   1      43.911  22.507  25.106  1.00  0.00     0.200 A 
ATOM     86  F   UNL A   1      42.098  21.673  26.360  1.00  0.00    -0.200 F 
ATOM     87  F   UNL A   1      44.193  21.272  24.667  1.00  0.00    -0.200 F 
ENDBRANCH  53  77
BRANCH  65  88
ATOM     88  C   UNL A   1      45.492  30.417  28.708  1.00  0.00     0.064 A 
ATOM     89  C   UNL A   1      44.642  31.030  27.769  1.00  0.00     0.173 A 
ATOM     90  C   UNL A   1      46.828  30.836  28.730  1.00  0.00     0.173 A 
ATOM     91  F   UNL A   1      43.329  30.774  27.750  1.00  0.00    -0.203 F 
ATOM     92  C   UNL A   1      45.127  31.970  26.859  1.00  0.00     0.198 A 
ATOM     93  C   UNL A   1      47.300  31.807  27.851  1.00  0.00     0.198 A 
ATOM     94  F   UNL A   1      47.676  30.330  29.641  1.00  0.00    -0.203 F 
ATOM     95  F   UNL A   1      44.301  32.521  25.957  1.00  0.00    -0.200 F 
ATOM     96  C   UNL A   1      46.454  32.361  26.905  1.00  0.00     0.200 A 
ATOM     97  F   UNL A   1      48.573  32.217  27.936  1.00  0.00    -0.200 F 
ATOM     98  F   UNL A   1      46.914  33.288  26.054  1.00  0.00    -0.200 F 
ENDBRANCH  65  88
ENDBRANCH  39  40
ENDBRANCH  31  34
ENDBRANCH  29  30
ENDBRANCH  28  29
ENDBRANCH  27  28
ENDBRANCH  26  27
ENDBRANCH   1  26
TORSDOF 18
ENDMDL
