MODEL 1
REMARK VINA RESULT:     -11.9      0.000      0.000
REMARK SMILES C[C@H]1[C@H](C(=O)NCCCCCCNC(=O)c2ccc(-c3c4nc(c(-c5c(F)c(F)c(F)c(F)c5F)c5ccc([nH]5)c(-c5c(F)c(F)c(F)c(F)c5F)c5nc(c(-c6c(F)c(F)c(F)c(F)c6F)c6ccc3[nH]6)C=C5)C=C4)cc2)CCN1S(=O)(=O)C(F)(F)F
REMARK SMILES IDX 9 1 8 2 7 3 6 4 4 5 5 6 3 8 1 9 2 10 81 11 79 12 80 13 82 14
REMARK SMILES IDX 83 15 84 16 85 17 86 18 87 19 88 20 10 21 11 22 12 23 13 24
REMARK SMILES IDX 14 25 15 27 16 28 17 29 78 30 18 31 77 32 19 33 20 34 21 35
REMARK SMILES IDX 71 36 22 37 76 38 70 39 72 40 23 41 75 42 69 43 68 44 24 46
REMARK SMILES IDX 56 47 36 48 55 49 37 50 40 51 54 52 73 53 38 54 39 55 53 57
REMARK SMILES IDX 74 58 41 59 25 60 26 61 34 62 27 63 28 64 32 65 35 66 29 67
REMARK SMILES IDX 30 68 33 69 31 70 57 71 58 72 66 73 59 74 60 75 64 76 67 77
REMARK SMILES IDX 61 78 62 79 65 80 63 81 42 82 43 83 51 84 44 85 45 86 49 87
REMARK SMILES IDX 52 88 46 89 47 90 50 91 48 92
REMARK H PARENT 6 7 13 26 72 45 40 56
REMARK Flexibility Score: inf
ROOT
ATOM      1  C   UNL A   1      32.377  29.594  26.805  1.00  0.00     0.002 C 
ENDROOT
BRANCH   1   2
ATOM      2  C   UNL A   1      31.603  28.358  27.264  1.00  0.00     0.021 C 
BRANCH   2   3
ATOM      3  C   UNL A   1      31.722  27.164  26.318  1.00  0.00     0.116 C 
BRANCH   3   4
ATOM      4  N   UNL A   1      31.249  25.934  26.918  1.00  0.00    -0.356 N 
ATOM      5  C   UNL A   1      31.466  24.637  26.564  1.00  0.00     0.224 C 
ATOM      6  O   UNL A   1      30.951  23.765  27.270  1.00  0.00    -0.275 OA
ATOM      7  H   UNL A   1      30.679  26.054  27.711  1.00  0.00     0.163 HD
BRANCH   5   8
ATOM      8  C   UNL A   1      32.290  24.234  25.345  1.00  0.00     0.098 C 
ATOM      9  C   UNL A   1      34.702  24.977  25.388  1.00  0.00     0.026 C 
ATOM     10  C   UNL A   1      33.730  23.836  25.694  1.00  0.00     0.082 C 
ATOM     11  N   UNL A   1      34.085  22.692  24.800  1.00  0.00    -0.190 NA
ATOM     12  C   UNL A   1      31.728  23.087  24.523  1.00  0.00     0.032 C 
ATOM     13  C   UNL A   1      32.951  22.474  23.857  1.00  0.00     0.104 C 
BRANCH  11  14
ATOM     14  S   UNL A   1      34.770  21.262  25.448  1.00  0.00     0.314 S 
ATOM     15  O   UNL A   1      34.646  21.377  26.894  1.00  0.00    -0.203 OA
ATOM     16  O   UNL A   1      34.075  20.171  24.788  1.00  0.00    -0.203 OA
BRANCH  14  17
ATOM     17  C   UNL A   1      36.590  21.247  24.984  1.00  0.00     0.511 C 
ATOM     18  F   UNL A   1      37.072  19.990  24.793  1.00  0.00    -0.155 F 
ATOM     19  F   UNL A   1      36.839  21.946  23.839  1.00  0.00    -0.155 F 
ATOM     20  F   UNL A   1      37.355  21.831  25.953  1.00  0.00    -0.155 F 
ENDBRANCH  14  17
ENDBRANCH  11  14
ENDBRANCH   5   8
ENDBRANCH   3   4
ENDBRANCH   2   3
ENDBRANCH   1   2
BRANCH   1  21
ATOM     21  C   UNL A   1      31.567  30.597  25.973  1.00  0.00     0.002 C 
BRANCH  21  22
ATOM     22  C   UNL A   1      31.399  31.989  26.591  1.00  0.00     0.021 C 
BRANCH  22  23
ATOM     23  C   UNL A   1      32.664  32.576  27.211  1.00  0.00     0.116 C 
BRANCH  23  24
ATOM     24  N   UNL A   1      32.491  33.970  27.587  1.00  0.00    -0.352 N 
ATOM     25  C   UNL A   1      33.089  34.699  28.582  1.00  0.00     0.251 C 
ATOM     26  H   UNL A   1      31.841  34.470  27.041  1.00  0.00     0.163 HD
ATOM     27  O   UNL A   1      32.653  35.807  28.877  1.00  0.00    -0.269 OA
BRANCH  25  28
ATOM     28  C   UNL A   1      34.253  34.155  29.313  1.00  0.00     0.039 A 
ATOM     29  C   UNL A   1      34.033  33.421  30.482  1.00  0.00     0.014 A 
ATOM     30  C   UNL A   1      35.558  34.401  28.877  1.00  0.00     0.014 A 
ATOM     31  C   UNL A   1      35.116  32.887  31.183  1.00  0.00     0.010 A 
ATOM     32  C   UNL A   1      36.634  33.813  29.538  1.00  0.00     0.010 A 
ATOM     33  C   UNL A   1      36.424  33.055  30.701  1.00  0.00    -0.014 A 
BRANCH  33  34
ATOM     34  C   UNL A   1      37.582  32.441  31.396  1.00  0.00     0.031 A 
ATOM     35  C   UNL A   1      38.319  31.290  30.771  1.00  0.00     0.074 A 
ATOM     36  C   UNL A   1      37.931  32.881  32.620  1.00  0.00     0.049 A 
ATOM     37  N   UNL A   1      39.310  30.580  31.251  1.00  0.00    -0.248 NA
ATOM     38  C   UNL A   1      37.866  30.861  29.439  1.00  0.00     0.031 C 
ATOM     39  C   UNL A   1      37.267  33.961  33.349  1.00  0.00     0.029 A 
ATOM     40  N   UNL A   1      38.925  32.467  33.471  1.00  0.00    -0.354 N 
ATOM     41  C   UNL A   1      39.588  29.619  30.289  1.00  0.00     0.074 A 
ATOM     42  C   UNL A   1      38.630  29.801  29.220  1.00  0.00     0.031 C 
ATOM     43  C   UNL A   1      37.882  34.137  34.530  1.00  0.00     0.029 A 
ATOM     44  C   UNL A   1      38.959  33.160  34.656  1.00  0.00     0.049 A 
ATOM     45  H   UNL A   1      39.554  31.740  33.253  1.00  0.00     0.167 HD
ATOM     46  C   UNL A   1      40.568  28.683  30.288  1.00  0.00     0.037 A 
ATOM     47  C   UNL A   1      39.762  33.018  35.726  1.00  0.00     0.037 A 
ATOM     48  C   UNL A   1      41.533  28.519  31.345  1.00  0.00     0.049 A 
ATOM     49  C   UNL A   1      40.835  31.963  35.705  1.00  0.00     0.074 A 
ATOM     50  C   UNL A   1      42.601  27.643  31.409  1.00  0.00     0.029 A 
ATOM     51  N   UNL A   1      41.543  29.248  32.525  1.00  0.00    -0.354 N 
ATOM     52  N   UNL A   1      41.134  31.105  34.760  1.00  0.00    -0.248 NA
ATOM     53  C   UNL A   1      41.686  31.861  36.898  1.00  0.00     0.031 C 
ATOM     54  C   UNL A   1      43.230  27.808  32.647  1.00  0.00     0.029 A 
ATOM     55  C   UNL A   1      42.584  28.823  33.334  1.00  0.00     0.049 A 
ATOM     56  H   UNL A   1      40.904  29.962  32.753  1.00  0.00     0.167 HD
ATOM     57  C   UNL A   1      42.219  30.380  35.232  1.00  0.00     0.074 A 
ATOM     58  C   UNL A   1      42.538  30.910  36.541  1.00  0.00     0.031 C 
ATOM     59  C   UNL A   1      42.891  29.365  34.634  1.00  0.00     0.037 A 
BRANCH  46  60
ATOM     60  C   UNL A   1      40.646  27.762  29.105  1.00  0.00     0.064 A 
ATOM     61  C   UNL A   1      39.818  26.635  28.994  1.00  0.00     0.173 A 
ATOM     62  C   UNL A   1      41.535  28.028  28.052  1.00  0.00     0.173 A 
ATOM     63  F   UNL A   1      38.958  26.331  29.978  1.00  0.00    -0.203 F 
ATOM     64  C   UNL A   1      39.898  25.791  27.889  1.00  0.00     0.198 A 
ATOM     65  C   UNL A   1      41.590  27.199  26.934  1.00  0.00     0.198 A 
ATOM     66  F   UNL A   1      42.344  29.096  28.103  1.00  0.00    -0.203 F 
ATOM     67  F   UNL A   1      39.133  24.692  27.831  1.00  0.00    -0.200 F 
ATOM     68  C   UNL A   1      40.779  26.077  26.858  1.00  0.00     0.200 A 
ATOM     69  F   UNL A   1      42.433  27.483  25.931  1.00  0.00    -0.200 F 
ATOM     70  F   UNL A   1      40.850  25.267  25.793  1.00  0.00    -0.200 F 
ENDBRANCH  46  60
BRANCH  47  71
ATOM     71  C   UNL A   1      39.598  33.913  36.900  1.00  0.00     0.064 A 
ATOM     72  C   UNL A   1      40.222  35.168  36.939  1.00  0.00     0.173 A 
ATOM     73  C   UNL A   1      38.818  33.537  38.004  1.00  0.00     0.173 A 
ATOM     74  F   UNL A   1      40.995  35.562  35.916  1.00  0.00    -0.203 F 
ATOM     75  C   UNL A   1      40.088  36.005  38.044  1.00  0.00     0.198 A 
ATOM     76  C   UNL A   1      38.663  34.387  39.097  1.00  0.00     0.198 A 
ATOM     77  F   UNL A   1      38.198  32.349  38.014  1.00  0.00    -0.203 F 
ATOM     78  F   UNL A   1      40.731  37.180  38.073  1.00  0.00    -0.200 F 
ATOM     79  C   UNL A   1      39.304  35.617  39.119  1.00  0.00     0.200 A 
ATOM     80  F   UNL A   1      37.892  34.014  40.128  1.00  0.00    -0.200 F 
ATOM     81  F   UNL A   1      39.170  36.424  40.181  1.00  0.00    -0.200 F 
ENDBRANCH  47  71
BRANCH  59  82
ATOM     82  C   UNL A   1      44.056  28.781  35.379  1.00  0.00     0.064 A 
ATOM     83  C   UNL A   1      43.893  27.726  36.288  1.00  0.00     0.173 A 
ATOM     84  C   UNL A   1      45.356  29.258  35.149  1.00  0.00     0.173 A 
ATOM     85  F   UNL A   1      42.670  27.246  36.554  1.00  0.00    -0.203 F 
ATOM     86  C   UNL A   1      44.988  27.186  36.960  1.00  0.00     0.198 A 
ATOM     87  C   UNL A   1      46.450  28.695  35.800  1.00  0.00     0.198 A 
ATOM     88  F   UNL A   1      45.565  30.261  34.283  1.00  0.00    -0.203 F 
ATOM     89  F   UNL A   1      44.803  26.211  37.861  1.00  0.00    -0.200 F 
ATOM     90  C   UNL A   1      46.265  27.665  36.710  1.00  0.00     0.200 A 
ATOM     91  F   UNL A   1      47.685  29.151  35.547  1.00  0.00    -0.200 F 
ATOM     92  F   UNL A   1      47.317  27.141  37.352  1.00  0.00    -0.200 F 
ENDBRANCH  59  82
ENDBRANCH  33  34
ENDBRANCH  25  28
ENDBRANCH  23  24
ENDBRANCH  22  23
ENDBRANCH  21  22
ENDBRANCH   1  21
TORSDOF 15
ENDMDL
MODEL 2
REMARK VINA RESULT:     -11.9      0.509      2.032
REMARK SMILES C[C@H]1[C@H](C(=O)NCCCCCCNC(=O)c2ccc(-c3c4nc(c(-c5c(F)c(F)c(F)c(F)c5F)c5ccc([nH]5)c(-c5c(F)c(F)c(F)c(F)c5F)c5nc(c(-c6c(F)c(F)c(F)c(F)c6F)c6ccc3[nH]6)C=C5)C=C4)cc2)CCN1S(=O)(=O)C(F)(F)F
REMARK SMILES IDX 9 1 8 2 7 3 6 4 4 5 5 6 3 8 1 9 2 10 81 11 79 12 80 13 82 14
REMARK SMILES IDX 83 15 84 16 85 17 86 18 87 19 88 20 10 21 11 22 12 23 13 24
REMARK SMILES IDX 14 25 15 27 16 28 17 29 78 30 18 31 77 32 19 33 20 34 21 35
REMARK SMILES IDX 71 36 22 37 76 38 70 39 72 40 23 41 75 42 69 43 68 44 24 46
REMARK SMILES IDX 56 47 36 48 55 49 37 50 40 51 54 52 73 53 38 54 39 55 53 57
REMARK SMILES IDX 74 58 41 59 25 60 26 61 34 62 27 63 28 64 32 65 35 66 29 67
REMARK SMILES IDX 30 68 33 69 31 70 57 71 58 72 66 73 59 74 60 75 64 76 67 77
REMARK SMILES IDX 61 78 62 79 65 80 63 81 42 82 43 83 51 84 44 85 45 86 49 87
REMARK SMILES IDX 52 88 46 89 47 90 50 91 48 92
REMARK H PARENT 6 7 13 26 72 45 40 56
REMARK Flexibility Score: inf
ROOT
ATOM      1  C   UNL A   1      32.394  29.897  26.596  1.00  0.00     0.002 C 
ENDROOT
BRANCH   1   2
ATOM      2  C   UNL A   1      31.776  28.653  27.237  1.00  0.00     0.021 C 
BRANCH   2   3
ATOM      3  C   UNL A   1      31.422  27.552  26.237  1.00  0.00     0.116 C 
BRANCH   3   4
ATOM      4  N   UNL A   1      31.130  26.290  26.886  1.00  0.00    -0.356 N 
ATOM      5  C   UNL A   1      31.369  25.013  26.481  1.00  0.00     0.224 C 
ATOM      6  O   UNL A   1      31.030  24.105  27.246  1.00  0.00    -0.275 OA
ATOM      7  H   UNL A   1      30.687  26.370  27.761  1.00  0.00     0.163 HD
BRANCH   5   8
ATOM      8  C   UNL A   1      32.012  24.671  25.141  1.00  0.00     0.098 C 
ATOM      9  C   UNL A   1      34.193  25.849  24.666  1.00  0.00     0.026 C 
ATOM     10  C   UNL A   1      33.542  24.576  25.211  1.00  0.00     0.082 C 
ATOM     11  N   UNL A   1      33.941  23.448  24.316  1.00  0.00    -0.190 NA
ATOM     12  C   UNL A   1      31.544  23.375  24.500  1.00  0.00     0.032 C 
ATOM     13  C   UNL A   1      32.716  22.948  23.630  1.00  0.00     0.104 C 
BRANCH  11  14
ATOM     14  S   UNL A   1      35.005  22.228  24.876  1.00  0.00     0.314 S 
ATOM     15  O   UNL A   1      35.171  22.464  26.303  1.00  0.00    -0.203 OA
ATOM     16  O   UNL A   1      34.405  20.974  24.456  1.00  0.00    -0.203 OA
BRANCH  14  17
ATOM     17  C   UNL A   1      36.655  22.478  24.013  1.00  0.00     0.511 C 
ATOM     18  F   UNL A   1      37.472  21.396  24.120  1.00  0.00    -0.155 F 
ATOM     19  F   UNL A   1      36.510  22.734  22.681  1.00  0.00    -0.155 F 
ATOM     20  F   UNL A   1      37.329  23.547  24.530  1.00  0.00    -0.155 F 
ENDBRANCH  14  17
ENDBRANCH  11  14
ENDBRANCH   5   8
ENDBRANCH   3   4
ENDBRANCH   2   3
ENDBRANCH   1   2
BRANCH   1  21
ATOM     21  C   UNL A   1      31.398  30.832  25.897  1.00  0.00     0.002 C 
BRANCH  21  22
ATOM     22  C   UNL A   1      31.246  32.225  26.518  1.00  0.00     0.021 C 
BRANCH  22  23
ATOM     23  C   UNL A   1      32.495  32.759  27.216  1.00  0.00     0.116 C 
BRANCH  23  24
ATOM     24  N   UNL A   1      32.351  34.154  27.597  1.00  0.00    -0.352 N 
ATOM     25  C   UNL A   1      32.986  34.873  28.576  1.00  0.00     0.251 C 
ATOM     26  H   UNL A   1      31.695  34.664  27.069  1.00  0.00     0.163 HD
ATOM     27  O   UNL A   1      32.573  35.988  28.884  1.00  0.00    -0.269 OA
BRANCH  25  28
ATOM     28  C   UNL A   1      34.162  34.313  29.275  1.00  0.00     0.039 A 
ATOM     29  C   UNL A   1      33.964  33.593  30.458  1.00  0.00     0.014 A 
ATOM     30  C   UNL A   1      35.457  34.528  28.797  1.00  0.00     0.014 A 
ATOM     31  C   UNL A   1      35.057  33.044  31.130  1.00  0.00     0.010 A 
ATOM     32  C   UNL A   1      36.541  33.924  29.430  1.00  0.00     0.010 A 
ATOM     33  C   UNL A   1      36.352  33.181  30.605  1.00  0.00    -0.014 A 
BRANCH  33  34
ATOM     34  C   UNL A   1      37.519  32.549  31.270  1.00  0.00     0.031 A 
ATOM     35  C   UNL A   1      38.249  31.416  30.606  1.00  0.00     0.074 A 
ATOM     36  C   UNL A   1      37.884  32.958  32.500  1.00  0.00     0.049 A 
ATOM     37  N   UNL A   1      39.246  30.694  31.054  1.00  0.00    -0.248 NA
ATOM     38  C   UNL A   1      37.779  31.022  29.269  1.00  0.00     0.031 C 
ATOM     39  C   UNL A   1      37.228  34.019  33.266  1.00  0.00     0.029 A 
ATOM     40  N   UNL A   1      38.889  32.522  33.328  1.00  0.00    -0.354 N 
ATOM     41  C   UNL A   1      39.512  29.759  30.064  1.00  0.00     0.074 A 
ATOM     42  C   UNL A   1      38.540  29.968  29.013  1.00  0.00     0.031 C 
ATOM     43  C   UNL A   1      37.858  34.164  34.443  1.00  0.00     0.029 A 
ATOM     44  C   UNL A   1      38.936  33.185  34.530  1.00  0.00     0.049 A 
ATOM     45  H   UNL A   1      39.514  31.802  33.083  1.00  0.00     0.167 HD
ATOM     46  C   UNL A   1      40.492  28.824  30.027  1.00  0.00     0.037 A 
ATOM     47  C   UNL A   1      39.754  33.014  35.586  1.00  0.00     0.037 A 
ATOM     48  C   UNL A   1      41.470  28.633  31.067  1.00  0.00     0.049 A 
ATOM     49  C   UNL A   1      40.826  31.961  35.524  1.00  0.00     0.074 A 
ATOM     50  C   UNL A   1      42.539  27.755  31.094  1.00  0.00     0.029 A 
ATOM     51  N   UNL A   1      41.494  29.331  32.265  1.00  0.00    -0.354 N 
ATOM     52  N   UNL A   1      41.113  31.128  34.553  1.00  0.00    -0.248 NA
ATOM     53  C   UNL A   1      41.692  31.828  36.703  1.00  0.00     0.031 C 
ATOM     54  C   UNL A   1      43.184  27.889  32.329  1.00  0.00     0.029 A 
ATOM     55  C   UNL A   1      42.546  28.885  33.050  1.00  0.00     0.049 A 
ATOM     56  H   UNL A   1      40.858  30.038  32.520  1.00  0.00     0.167 HD
ATOM     57  C   UNL A   1      42.204  30.392  34.992  1.00  0.00     0.074 A 
ATOM     58  C   UNL A   1      42.539  30.888  36.311  1.00  0.00     0.031 C 
ATOM     59  C   UNL A   1      42.869  29.393  34.359  1.00  0.00     0.037 A 
BRANCH  46  60
ATOM     60  C   UNL A   1      40.555  27.934  28.819  1.00  0.00     0.064 A 
ATOM     61  C   UNL A   1      41.353  28.255  27.710  1.00  0.00     0.173 A 
ATOM     62  C   UNL A   1      39.837  26.729  28.783  1.00  0.00     0.173 A 
ATOM     63  F   UNL A   1      42.051  29.400  27.690  1.00  0.00    -0.203 F 
ATOM     64  C   UNL A   1      41.405  27.419  26.597  1.00  0.00     0.198 A 
ATOM     65  C   UNL A   1      39.916  25.880  27.681  1.00  0.00     0.198 A 
ATOM     66  F   UNL A   1      39.065  26.370  29.819  1.00  0.00    -0.203 F 
ATOM     67  F   UNL A   1      42.134  27.772  25.530  1.00  0.00    -0.200 F 
ATOM     68  C   UNL A   1      40.692  26.230  26.587  1.00  0.00     0.200 A 
ATOM     69  F   UNL A   1      39.238  24.724  27.677  1.00  0.00    -0.200 F 
ATOM     70  F   UNL A   1      40.749  25.424  25.518  1.00  0.00    -0.200 F 
ENDBRANCH  46  60
BRANCH  47  71
ATOM     71  C   UNL A   1      39.604  33.879  36.785  1.00  0.00     0.064 A 
ATOM     72  C   UNL A   1      38.829  33.464  37.877  1.00  0.00     0.173 A 
ATOM     73  C   UNL A   1      40.228  35.132  36.865  1.00  0.00     0.173 A 
ATOM     74  F   UNL A   1      38.196  32.283  37.837  1.00  0.00    -0.203 F 
ATOM     75  C   UNL A   1      38.670  34.277  38.997  1.00  0.00     0.198 A 
ATOM     76  C   UNL A   1      40.090  35.933  37.998  1.00  0.00     0.198 A 
ATOM     77  F   UNL A   1      40.983  35.573  35.849  1.00  0.00    -0.203 F 
ATOM     78  F   UNL A   1      37.888  33.875  40.008  1.00  0.00    -0.200 F 
ATOM     79  C   UNL A   1      39.305  35.508  39.059  1.00  0.00     0.200 A 
ATOM     80  F   UNL A   1      40.717  37.115  38.059  1.00  0.00    -0.200 F 
ATOM     81  F   UNL A   1      39.155  36.288  40.138  1.00  0.00    -0.200 F 
ENDBRANCH  47  71
BRANCH  59  82
ATOM     82  C   UNL A   1      44.044  28.790  35.074  1.00  0.00     0.064 A 
ATOM     83  C   UNL A   1      45.343  29.289  34.903  1.00  0.00     0.173 A 
ATOM     84  C   UNL A   1      43.859  27.727  35.971  1.00  0.00     0.173 A 
ATOM     85  F   UNL A   1      45.574  30.293  34.045  1.00  0.00    -0.203 F 
ATOM     86  C   UNL A   1      46.420  28.727  35.585  1.00  0.00     0.198 A 
ATOM     87  C   UNL A   1      44.933  27.189  36.673  1.00  0.00     0.198 A 
ATOM     88  F   UNL A   1      42.635  27.219  36.175  1.00  0.00    -0.203 F 
ATOM     89  F   UNL A   1      47.660  29.188  35.369  1.00  0.00    -0.200 F 
ATOM     90  C   UNL A   1      46.214  27.684  36.475  1.00  0.00     0.200 A 
ATOM     91  F   UNL A   1      44.730  26.188  37.543  1.00  0.00    -0.200 F 
ATOM     92  F   UNL A   1      47.250  27.149  37.135  1.00  0.00    -0.200 F 
ENDBRANCH  59  82
ENDBRANCH  33  34
ENDBRANCH  25  28
ENDBRANCH  23  24
ENDBRANCH  22  23
ENDBRANCH  21  22
ENDBRANCH   1  21
TORSDOF 15
ENDMDL
MODEL 3
REMARK VINA RESULT:     -11.8      5.688     11.105
REMARK SMILES C[C@H]1[C@H](C(=O)NCCCCCCNC(=O)c2ccc(-c3c4nc(c(-c5c(F)c(F)c(F)c(F)c5F)c5ccc([nH]5)c(-c5c(F)c(F)c(F)c(F)c5F)c5nc(c(-c6c(F)c(F)c(F)c(F)c6F)c6ccc3[nH]6)C=C5)C=C4)cc2)CCN1S(=O)(=O)C(F)(F)F
REMARK SMILES IDX 9 1 8 2 7 3 6 4 4 5 5 6 3 8 1 9 2 10 81 11 79 12 80 13 82 14
REMARK SMILES IDX 83 15 84 16 85 17 86 18 87 19 88 20 10 21 11 22 12 23 13 24
REMARK SMILES IDX 14 25 15 27 16 28 17 29 78 30 18 31 77 32 19 33 20 34 21 35
REMARK SMILES IDX 71 36 22 37 76 38 70 39 72 40 23 41 75 42 69 43 68 44 24 46
REMARK SMILES IDX 56 47 36 48 55 49 37 50 40 51 54 52 73 53 38 54 39 55 53 57
REMARK SMILES IDX 74 58 41 59 25 60 26 61 34 62 27 63 28 64 32 65 35 66 29 67
REMARK SMILES IDX 30 68 33 69 31 70 57 71 58 72 66 73 59 74 60 75 64 76 67 77
REMARK SMILES IDX 61 78 62 79 65 80 63 81 42 82 43 83 51 84 44 85 45 86 49 87
REMARK SMILES IDX 52 88 46 89 47 90 50 91 48 92
REMARK H PARENT 6 7 13 26 72 45 40 56
REMARK Flexibility Score: inf
ROOT
ATOM      1  C   UNL A   1      36.871  21.879  24.463  1.00  0.00     0.002 C 
ENDROOT
BRANCH   1   2
ATOM      2  C   UNL A   1      35.650  22.791  24.592  1.00  0.00     0.021 C 
BRANCH   2   3
ATOM      3  C   UNL A   1      35.535  23.486  25.948  1.00  0.00     0.116 C 
BRANCH   3   4
ATOM      4  N   UNL A   1      34.162  23.607  26.393  1.00  0.00    -0.356 N 
ATOM      5  C   UNL A   1      33.232  24.568  26.137  1.00  0.00     0.224 C 
ATOM      6  O   UNL A   1      32.113  24.417  26.635  1.00  0.00    -0.275 OA
ATOM      7  H   UNL A   1      33.851  22.877  26.975  1.00  0.00     0.163 HD
BRANCH   5   8
ATOM      8  C   UNL A   1      33.522  25.802  25.289  1.00  0.00     0.098 C 
ATOM      9  C   UNL A   1      33.598  25.399  22.799  1.00  0.00     0.026 C 
ATOM     10  C   UNL A   1      32.726  25.835  23.978  1.00  0.00     0.082 C 
ATOM     11  N   UNL A   1      32.341  27.261  23.749  1.00  0.00    -0.190 NA
ATOM     12  C   UNL A   1      33.266  27.138  25.966  1.00  0.00     0.032 C 
ATOM     13  C   UNL A   1      32.977  28.088  24.813  1.00  0.00     0.104 C 
BRANCH  11  14
ATOM     14  S   UNL A   1      30.719  27.676  23.384  1.00  0.00     0.314 S 
ATOM     15  O   UNL A   1      30.485  28.968  24.012  1.00  0.00    -0.203 OA
ATOM     16  O   UNL A   1      30.618  27.591  21.938  1.00  0.00    -0.203 OA
BRANCH  14  17
ATOM     17  C   UNL A   1      29.613  26.389  24.190  1.00  0.00     0.511 C 
ATOM     18  F   UNL A   1      28.291  26.676  24.055  1.00  0.00    -0.155 F 
ATOM     19  F   UNL A   1      29.803  25.142  23.668  1.00  0.00    -0.155 F 
ATOM     20  F   UNL A   1      29.869  26.279  25.526  1.00  0.00    -0.155 F 
ENDBRANCH  14  17
ENDBRANCH  11  14
ENDBRANCH   5   8
ENDBRANCH   3   4
ENDBRANCH   2   3
ENDBRANCH   1   2
BRANCH   1  21
ATOM     21  C   UNL A   1      36.663  20.440  24.953  1.00  0.00     0.002 C 
BRANCH  21  22
ATOM     22  C   UNL A   1      37.912  19.552  24.954  1.00  0.00     0.021 C 
BRANCH  22  23
ATOM     23  C   UNL A   1      39.104  20.116  25.724  1.00  0.00     0.116 C 
BRANCH  23  24
ATOM     24  N   UNL A   1      40.164  19.134  25.884  1.00  0.00    -0.352 N 
ATOM     25  C   UNL A   1      41.509  19.309  26.084  1.00  0.00     0.251 C 
ATOM     26  H   UNL A   1      39.870  18.195  25.842  1.00  0.00     0.163 HD
ATOM     27  O   UNL A   1      42.273  18.354  25.981  1.00  0.00    -0.269 OA
BRANCH  25  28
ATOM     28  C   UNL A   1      42.050  20.645  26.413  1.00  0.00     0.039 A 
ATOM     29  C   UNL A   1      42.344  21.529  25.370  1.00  0.00     0.014 A 
ATOM     30  C   UNL A   1      42.310  21.013  27.736  1.00  0.00     0.014 A 
ATOM     31  C   UNL A   1      42.846  22.800  25.657  1.00  0.00     0.010 A 
ATOM     32  C   UNL A   1      42.746  22.304  28.025  1.00  0.00     0.010 A 
ATOM     33  C   UNL A   1      43.024  23.208  26.988  1.00  0.00    -0.014 A 
BRANCH  33  34
ATOM     34  C   UNL A   1      43.494  24.577  27.314  1.00  0.00     0.031 A 
ATOM     35  C   UNL A   1      42.535  25.598  27.859  1.00  0.00     0.074 A 
ATOM     36  C   UNL A   1      44.772  24.918  27.061  1.00  0.00     0.049 A 
ATOM     37  N   UNL A   1      42.740  26.861  28.143  1.00  0.00    -0.248 NA
ATOM     38  C   UNL A   1      41.155  25.149  28.094  1.00  0.00     0.031 C 
ATOM     39  C   UNL A   1      45.785  24.029  26.494  1.00  0.00     0.029 A 
ATOM     40  N   UNL A   1      45.434  26.107  27.239  1.00  0.00    -0.354 N 
ATOM     41  C   UNL A   1      41.518  27.355  28.574  1.00  0.00     0.074 A 
ATOM     42  C   UNL A   1      40.563  26.274  28.468  1.00  0.00     0.031 C 
ATOM     43  C   UNL A   1      46.945  24.697  26.387  1.00  0.00     0.029 A 
ATOM     44  C   UNL A   1      46.748  26.069  26.843  1.00  0.00     0.049 A 
ATOM     45  H   UNL A   1      45.006  26.911  27.614  1.00  0.00     0.167 HD
ATOM     46  C   UNL A   1      41.223  28.595  29.037  1.00  0.00     0.037 A 
ATOM     47  C   UNL A   1      47.685  27.036  26.840  1.00  0.00     0.037 A 
ATOM     48  C   UNL A   1      42.182  29.662  29.161  1.00  0.00     0.049 A 
ATOM     49  C   UNL A   1      47.330  28.406  27.349  1.00  0.00     0.074 A 
ATOM     50  C   UNL A   1      41.996  30.932  29.676  1.00  0.00     0.029 A 
ATOM     51  N   UNL A   1      43.507  29.583  28.760  1.00  0.00    -0.354 N 
ATOM     52  N   UNL A   1      46.187  28.844  27.820  1.00  0.00    -0.248 NA
ATOM     53  C   UNL A   1      48.396  29.416  27.330  1.00  0.00     0.031 C 
ATOM     54  C   UNL A   1      43.197  31.639  29.545  1.00  0.00     0.029 A 
ATOM     55  C   UNL A   1      44.145  30.791  28.994  1.00  0.00     0.049 A 
ATOM     56  H   UNL A   1      43.932  28.786  28.367  1.00  0.00     0.167 HD
ATOM     57  C   UNL A   1      46.403  30.168  28.176  1.00  0.00     0.074 A 
ATOM     58  C   UNL A   1      47.790  30.458  27.882  1.00  0.00     0.031 C 
ATOM     59  C   UNL A   1      45.529  31.063  28.699  1.00  0.00     0.037 A 
BRANCH  46  60
ATOM     60  C   UNL A   1      39.803  28.862  29.447  1.00  0.00     0.064 A 
ATOM     61  C   UNL A   1      38.856  29.352  28.536  1.00  0.00     0.173 A 
ATOM     62  C   UNL A   1      39.377  28.594  30.756  1.00  0.00     0.173 A 
ATOM     63  F   UNL A   1      39.215  29.635  27.274  1.00  0.00    -0.203 F 
ATOM     64  C   UNL A   1      37.541  29.593  28.928  1.00  0.00     0.198 A 
ATOM     65  C   UNL A   1      38.054  28.807  31.136  1.00  0.00     0.198 A 
ATOM     66  F   UNL A   1      40.240  28.118  31.665  1.00  0.00    -0.203 F 
ATOM     67  F   UNL A   1      36.666  30.109  28.053  1.00  0.00    -0.200 F 
ATOM     68  C   UNL A   1      37.140  29.314  30.226  1.00  0.00     0.200 A 
ATOM     69  F   UNL A   1      37.664  28.524  32.387  1.00  0.00    -0.200 F 
ATOM     70  F   UNL A   1      35.873  29.541  30.599  1.00  0.00    -0.200 F 
ENDBRANCH  46  60
BRANCH  47  71
ATOM     71  C   UNL A   1      49.058  26.734  26.361  1.00  0.00     0.064 A 
ATOM     72  C   UNL A   1      49.417  26.954  25.024  1.00  0.00     0.173 A 
ATOM     73  C   UNL A   1      50.038  26.222  27.224  1.00  0.00     0.173 A 
ATOM     74  F   UNL A   1      48.507  27.423  24.157  1.00  0.00    -0.203 F 
ATOM     75  C   UNL A   1      50.697  26.656  24.563  1.00  0.00     0.198 A 
ATOM     76  C   UNL A   1      51.327  25.950  26.768  1.00  0.00     0.198 A 
ATOM     77  F   UNL A   1      49.747  25.998  28.513  1.00  0.00    -0.203 F 
ATOM     78  F   UNL A   1      50.999  26.835  23.270  1.00  0.00    -0.200 F 
ATOM     79  C   UNL A   1      51.653  26.160  25.436  1.00  0.00     0.200 A 
ATOM     80  F   UNL A   1      52.251  25.484  27.619  1.00  0.00    -0.200 F 
ATOM     81  F   UNL A   1      52.886  25.878  24.994  1.00  0.00    -0.200 F 
ENDBRANCH  47  71
BRANCH  59  82
ATOM     82  C   UNL A   1      46.056  32.433  29.014  1.00  0.00     0.064 A 
ATOM     83  C   UNL A   1      46.640  32.729  30.254  1.00  0.00     0.173 A 
ATOM     84  C   UNL A   1      46.011  33.450  28.047  1.00  0.00     0.173 A 
ATOM     85  F   UNL A   1      46.692  31.797  31.216  1.00  0.00    -0.203 F 
ATOM     86  C   UNL A   1      47.137  34.002  30.524  1.00  0.00     0.198 A 
ATOM     87  C   UNL A   1      46.537  34.711  28.311  1.00  0.00     0.198 A 
ATOM     88  F   UNL A   1      45.469  33.215  26.843  1.00  0.00    -0.203 F 
ATOM     89  F   UNL A   1      47.647  34.277  31.732  1.00  0.00    -0.200 F 
ATOM     90  C   UNL A   1      47.092  34.989  29.551  1.00  0.00     0.200 A 
ATOM     91  F   UNL A   1      46.504  35.660  27.364  1.00  0.00    -0.200 F 
ATOM     92  F   UNL A   1      47.577  36.211  29.810  1.00  0.00    -0.200 F 
ENDBRANCH  59  82
ENDBRANCH  33  34
ENDBRANCH  25  28
ENDBRANCH  23  24
ENDBRANCH  22  23
ENDBRANCH  21  22
ENDBRANCH   1  21
TORSDOF 15
ENDMDL
