MODEL 1
REMARK VINA RESULT:     -12.2      0.000      0.000
REMARK SMILES CC[N@@H+]1C/C(=C\c2ccccc2C)c2nc3ccccc3c(C(=O)NCCCCCCNC(=O)c3ccc(-c4c5nc(c(-c6c(F)c(F)c(F)c(F)c6F)c6ccc([nH]6)c(-c6c(F)c(F)c(F)c(F)c6F)c6nc(c(-c7c(F)c(F)c(F)c(F)c7F)c7ccc4[nH]7)C=C6)C=C5)cc3)c2C1
REMARK SMILES IDX 29 1 28 2 27 3 26 4 25 5 23 6 24 7 22 9 3 10 4 11 99 12 5 14
REMARK SMILES IDX 98 15 6 16 14 17 15 18 21 19 16 20 20 21 17 22 19 23 18 24
REMARK SMILES IDX 2 25 1 26 7 27 8 28 12 29 9 30 11 31 13 32 10 33 30 34 31 35
REMARK SMILES IDX 32 36 33 37 34 39 35 40 36 41 97 42 37 43 96 44 38 45 39 46
REMARK SMILES IDX 40 47 90 48 41 49 95 50 89 51 91 52 42 53 94 54 88 55 87 56
REMARK SMILES IDX 43 58 75 59 55 60 74 61 56 62 59 63 73 64 92 65 57 66 58 67
REMARK SMILES IDX 72 69 93 70 60 71 44 72 45 73 53 74 46 75 47 76 51 77 54 78
REMARK SMILES IDX 48 79 49 80 52 81 50 82 76 83 77 84 85 85 78 86 79 87 83 88
REMARK SMILES IDX 86 89 80 90 81 91 84 92 82 93 61 94 62 95 70 96 63 97 64 98
REMARK SMILES IDX 68 99 71 100 65 101 66 102 69 103 67 104
REMARK H PARENT 25 8 3 13 32 38 91 57 59 68
REMARK Flexibility Score: inf
ROOT
ATOM      1  C   UNL A   1      34.123  31.336  28.407  1.00  0.00     0.002 C 
ENDROOT
BRANCH   1   2
ATOM      2  C   UNL A   1      34.937  30.753  27.250  1.00  0.00     0.002 C 
BRANCH   2   3
ATOM      3  C   UNL A   1      35.157  29.238  27.311  1.00  0.00     0.021 C 
BRANCH   3   4
ATOM      4  C   UNL A   1      34.071  28.401  26.613  1.00  0.00     0.116 C 
BRANCH   4   5
ATOM      5  N   UNL A   1      34.005  28.797  25.219  1.00  0.00    -0.352 N 
ATOM      6  C   UNL A   1      33.806  28.084  24.060  1.00  0.00     0.252 C 
ATOM      7  O   UNL A   1      34.403  28.517  23.075  1.00  0.00    -0.269 OA
ATOM      8  H   UNL A   1      34.127  29.763  25.075  1.00  0.00     0.163 HD
BRANCH   6   9
ATOM      9  C   UNL A   1      32.809  26.968  23.898  1.00  0.00     0.060 A 
ATOM     10  N   UNL A   1      35.110  23.889  24.226  1.00  0.00    -0.328 N 
ATOM     11  C   UNL A   1      34.331  23.051  23.311  1.00  0.00     0.301 C 
ATOM     12  C   UNL A   1      34.801  25.317  24.022  1.00  0.00     0.302 C 
ATOM     13  H   UNL A   1      34.842  23.669  25.186  1.00  0.00     0.348 HD
ATOM     14  C   UNL A   1      32.876  23.211  23.644  1.00  0.00     0.033 C 
ATOM     15  C   UNL A   1      33.330  25.648  23.843  1.00  0.00     0.046 A 
ATOM     16  C   UNL A   1      32.029  22.238  24.041  1.00  0.00     0.020 C 
ATOM     17  C   UNL A   1      32.431  24.616  23.591  1.00  0.00     0.082 A 
ATOM     18  N   UNL A   1      31.130  24.819  23.291  1.00  0.00    -0.247 NA
ATOM     19  C   UNL A   1      31.398  27.153  23.815  1.00  0.00     0.013 A 
ATOM     20  C   UNL A   1      30.631  26.048  23.402  1.00  0.00     0.072 A 
ATOM     21  C   UNL A   1      30.680  28.321  24.163  1.00  0.00     0.011 A 
ATOM     22  C   UNL A   1      29.279  26.207  23.126  1.00  0.00     0.029 A 
ATOM     23  C   UNL A   1      29.319  28.470  23.895  1.00  0.00     0.001 A 
ATOM     24  C   UNL A   1      28.622  27.417  23.331  1.00  0.00     0.002 A 
BRANCH  10  25
ATOM     25  C   UNL A   1      36.544  23.592  24.109  1.00  0.00     0.259 C 
ATOM     26  C   UNL A   1      37.240  23.351  25.445  1.00  0.00     0.071 C 
ENDBRANCH  10  25
BRANCH  16  27
ATOM     27  C   UNL A   1      32.391  20.824  24.196  1.00  0.00    -0.022 A 
ATOM     28  C   UNL A   1      32.153  19.942  23.128  1.00  0.00     0.008 A 
ATOM     29  C   UNL A   1      32.953  20.334  25.388  1.00  0.00    -0.044 A 
ATOM     30  C   UNL A   1      32.402  18.577  23.261  1.00  0.00     0.001 A 
ATOM     31  C   UNL A   1      33.188  18.953  25.510  1.00  0.00     0.004 A 
ATOM     32  C   UNL A   1      33.283  21.215  26.562  1.00  0.00     0.045 C 
ATOM     33  C   UNL A   1      32.906  18.080  24.458  1.00  0.00     0.000 A 
ENDBRANCH  16  27
ENDBRANCH   6   9
ENDBRANCH   4   5
ENDBRANCH   3   4
ENDBRANCH   2   3
ENDBRANCH   1   2
BRANCH   1  34
ATOM     34  C   UNL A   1      32.908  32.168  27.995  1.00  0.00     0.021 C 
BRANCH  34  35
ATOM     35  C   UNL A   1      33.239  33.458  27.250  1.00  0.00     0.116 C 
BRANCH  35  36
ATOM     36  N   UNL A   1      32.665  34.632  27.891  1.00  0.00    -0.352 N 
ATOM     37  C   UNL A   1      32.994  35.202  29.098  1.00  0.00     0.251 C 
ATOM     38  H   UNL A   1      31.944  35.079  27.391  1.00  0.00     0.163 HD
ATOM     39  O   UNL A   1      32.298  36.082  29.591  1.00  0.00    -0.269 OA
BRANCH  37  40
ATOM     40  C   UNL A   1      34.190  34.714  29.815  1.00  0.00     0.039 A 
ATOM     41  C   UNL A   1      35.444  34.781  29.207  1.00  0.00     0.014 A 
ATOM     42  C   UNL A   1      34.042  34.134  31.077  1.00  0.00     0.014 A 
ATOM     43  C   UNL A   1      36.521  34.119  29.786  1.00  0.00     0.010 A 
ATOM     44  C   UNL A   1      35.146  33.538  31.694  1.00  0.00     0.010 A 
ATOM     45  C   UNL A   1      36.381  33.481  31.030  1.00  0.00    -0.014 A 
BRANCH  45  46
ATOM     46  C   UNL A   1      37.535  32.743  31.604  1.00  0.00     0.031 A 
ATOM     47  C   UNL A   1      38.044  33.065  32.982  1.00  0.00     0.074 A 
ATOM     48  C   UNL A   1      38.085  31.734  30.901  1.00  0.00     0.049 A 
ATOM     49  N   UNL A   1      39.032  32.519  33.646  1.00  0.00    -0.248 NA
ATOM     50  C   UNL A   1      37.354  34.138  33.716  1.00  0.00     0.031 C 
ATOM     51  C   UNL A   1      37.664  31.317  29.562  1.00  0.00     0.029 A 
ATOM     52  N   UNL A   1      39.095  30.863  31.220  1.00  0.00    -0.354 N 
ATOM     53  C   UNL A   1      39.096  33.192  34.860  1.00  0.00     0.074 A 
ATOM     54  C   UNL A   1      38.062  34.204  34.835  1.00  0.00     0.031 C 
ATOM     55  C   UNL A   1      38.369  30.237  29.198  1.00  0.00     0.029 A 
ATOM     56  C   UNL A   1      39.336  29.925  30.247  1.00  0.00     0.049 A 
ATOM     57  H   UNL A   1      39.598  30.905  32.065  1.00  0.00     0.167 HD
ATOM     58  C   UNL A   1      39.932  32.975  35.903  1.00  0.00     0.037 A 
ATOM     59  C   UNL A   1      40.244  28.933  30.196  1.00  0.00     0.037 A 
ATOM     60  C   UNL A   1      40.944  31.950  35.934  1.00  0.00     0.049 A 
ATOM     61  C   UNL A   1      41.188  28.744  31.349  1.00  0.00     0.074 A 
ATOM     62  C   UNL A   1      41.830  31.645  36.953  1.00  0.00     0.029 A 
ATOM     63  N   UNL A   1      41.200  31.061  34.901  1.00  0.00    -0.354 N 
ATOM     64  N   UNL A   1      41.243  29.394  32.485  1.00  0.00    -0.248 NA
ATOM     65  C   UNL A   1      42.204  27.693  31.206  1.00  0.00     0.031 C 
ATOM     66  C   UNL A   1      42.648  30.596  36.521  1.00  0.00     0.029 A 
ATOM     67  C   UNL A   1      42.242  30.218  35.252  1.00  0.00     0.049 A 
ATOM     68  H   UNL A   1      40.713  31.033  34.046  1.00  0.00     0.167 HD
ATOM     69  C   UNL A   1      42.293  28.831  33.196  1.00  0.00     0.074 A 
ATOM     70  C   UNL A   1      42.832  27.768  32.372  1.00  0.00     0.031 C 
ATOM     71  C   UNL A   1      42.772  29.170  34.417  1.00  0.00     0.037 A 
BRANCH  58  72
ATOM     72  C   UNL A   1      39.802  33.866  37.104  1.00  0.00     0.064 A 
ATOM     73  C   UNL A   1      38.969  33.528  38.181  1.00  0.00     0.173 A 
ATOM     74  C   UNL A   1      40.570  35.035  37.209  1.00  0.00     0.173 A 
ATOM     75  F   UNL A   1      38.204  32.428  38.125  1.00  0.00    -0.203 F 
ATOM     76  C   UNL A   1      38.903  34.335  39.315  1.00  0.00     0.198 A 
ATOM     77  C   UNL A   1      40.520  35.826  38.354  1.00  0.00     0.198 A 
ATOM     78  F   UNL A   1      41.386  35.399  36.209  1.00  0.00    -0.203 F 
ATOM     79  F   UNL A   1      38.077  34.010  40.320  1.00  0.00    -0.200 F 
ATOM     80  C   UNL A   1      39.684  35.478  39.404  1.00  0.00     0.200 A 
ATOM     81  F   UNL A   1      41.284  36.923  38.444  1.00  0.00    -0.200 F 
ATOM     82  F   UNL A   1      39.629  36.245  40.502  1.00  0.00    -0.200 F 
ENDBRANCH  58  72
BRANCH  59  83
ATOM     83  C   UNL A   1      40.292  28.046  29.007  1.00  0.00     0.064 A 
ATOM     84  C   UNL A   1      41.037  28.400  27.876  1.00  0.00     0.173 A 
ATOM     85  C   UNL A   1      39.626  26.811  28.992  1.00  0.00     0.173 A 
ATOM     86  F   UNL A   1      41.674  29.579  27.836  1.00  0.00    -0.203 F 
ATOM     87  C   UNL A   1      41.114  27.554  26.771  1.00  0.00     0.198 A 
ATOM     88  C   UNL A   1      39.726  25.953  27.899  1.00  0.00     0.198 A 
ATOM     89  F   UNL A   1      38.902  26.426  30.054  1.00  0.00    -0.203 F 
ATOM     90  F   UNL A   1      41.811  27.927  25.691  1.00  0.00    -0.200 F 
ATOM     91  C   UNL A   1      40.467  26.327  26.789  1.00  0.00     0.200 A 
ATOM     92  F   UNL A   1      39.112  24.762  27.928  1.00  0.00    -0.200 F 
ATOM     93  F   UNL A   1      40.555  25.505  25.734  1.00  0.00    -0.200 F 
ENDBRANCH  59  83
BRANCH  71  94
ATOM     94  C   UNL A   1      43.933  28.381  34.942  1.00  0.00     0.064 A 
ATOM     95  C   UNL A   1      45.254  28.809  34.747  1.00  0.00     0.173 A 
ATOM     96  C   UNL A   1      43.722  27.216  35.696  1.00  0.00     0.173 A 
ATOM     97  F   UNL A   1      45.505  29.908  34.021  1.00  0.00    -0.203 F 
ATOM     98  C   UNL A   1      46.323  28.091  35.272  1.00  0.00     0.198 A 
ATOM     99  C   UNL A   1      44.792  26.515  36.242  1.00  0.00     0.198 A 
ATOM    100  F   UNL A   1      42.476  26.769  35.916  1.00  0.00    -0.203 F 
ATOM    101  F   UNL A   1      47.579  28.498  35.043  1.00  0.00    -0.200 F 
ATOM    102  C   UNL A   1      46.092  26.949  36.026  1.00  0.00     0.200 A 
ATOM    103  F   UNL A   1      44.568  25.419  36.980  1.00  0.00    -0.200 F 
ATOM    104  F   UNL A   1      47.123  26.264  36.539  1.00  0.00    -0.200 F 
ENDBRANCH  71  94
ENDBRANCH  45  46
ENDBRANCH  37  40
ENDBRANCH  35  36
ENDBRANCH  34  35
ENDBRANCH   1  34
TORSDOF 15
ENDMDL
MODEL 2
REMARK VINA RESULT:     -12.2      0.699      7.075
REMARK SMILES CC[N@@H+]1C/C(=C\c2ccccc2C)c2nc3ccccc3c(C(=O)NCCCCCCNC(=O)c3ccc(-c4c5nc(c(-c6c(F)c(F)c(F)c(F)c6F)c6ccc([nH]6)c(-c6c(F)c(F)c(F)c(F)c6F)c6nc(c(-c7c(F)c(F)c(F)c(F)c7F)c7ccc4[nH]7)C=C6)C=C5)cc3)c2C1
REMARK SMILES IDX 29 1 28 2 27 3 26 4 25 5 23 6 24 7 22 9 3 10 4 11 99 12 5 14
REMARK SMILES IDX 98 15 6 16 14 17 15 18 21 19 16 20 20 21 17 22 19 23 18 24
REMARK SMILES IDX 2 25 1 26 7 27 8 28 12 29 9 30 11 31 13 32 10 33 30 34 31 35
REMARK SMILES IDX 32 36 33 37 34 39 35 40 36 41 97 42 37 43 96 44 38 45 39 46
REMARK SMILES IDX 40 47 90 48 41 49 95 50 89 51 91 52 42 53 94 54 88 55 87 56
REMARK SMILES IDX 43 58 75 59 55 60 74 61 56 62 59 63 73 64 92 65 57 66 58 67
REMARK SMILES IDX 72 69 93 70 60 71 44 72 45 73 53 74 46 75 47 76 51 77 54 78
REMARK SMILES IDX 48 79 49 80 52 81 50 82 76 83 77 84 85 85 78 86 79 87 83 88
REMARK SMILES IDX 86 89 80 90 81 91 84 92 82 93 61 94 62 95 70 96 63 97 64 98
REMARK SMILES IDX 68 99 71 100 65 101 66 102 69 103 67 104
REMARK H PARENT 25 8 3 13 32 38 91 57 59 68
REMARK Flexibility Score: inf
ROOT
ATOM      1  C   UNL A   1      34.673  31.585  28.442  1.00  0.00     0.002 C 
ENDROOT
BRANCH   1   2
ATOM      2  C   UNL A   1      35.334  30.689  27.393  1.00  0.00     0.002 C 
BRANCH   2   3
ATOM      3  C   UNL A   1      35.216  29.185  27.657  1.00  0.00     0.021 C 
BRANCH   3   4
ATOM      4  C   UNL A   1      34.078  28.485  26.892  1.00  0.00     0.116 C 
BRANCH   4   5
ATOM      5  N   UNL A   1      34.097  28.939  25.515  1.00  0.00    -0.352 N 
ATOM      6  C   UNL A   1      33.927  28.283  24.318  1.00  0.00     0.252 C 
ATOM      7  O   UNL A   1      34.589  28.730  23.382  1.00  0.00    -0.269 OA
ATOM      8  H   UNL A   1      34.264  29.905  25.418  1.00  0.00     0.163 HD
BRANCH   6   9
ATOM      9  C   UNL A   1      32.896  27.217  24.061  1.00  0.00     0.060 A 
ATOM     10  N   UNL A   1      35.024  24.030  24.505  1.00  0.00    -0.328 N 
ATOM     11  C   UNL A   1      34.280  23.243  23.519  1.00  0.00     0.301 C 
ATOM     12  C   UNL A   1      34.797  25.474  24.305  1.00  0.00     0.302 C 
ATOM     13  H   UNL A   1      34.675  23.808  25.438  1.00  0.00     0.348 HD
ATOM     14  C   UNL A   1      32.813  23.465  23.745  1.00  0.00     0.033 C 
ATOM     15  C   UNL A   1      33.360  25.875  24.021  1.00  0.00     0.046 A 
ATOM     16  C   UNL A   1      31.896  22.527  24.059  1.00  0.00     0.020 C 
ATOM     17  C   UNL A   1      32.437  24.889  23.684  1.00  0.00     0.082 A 
ATOM     18  N   UNL A   1      31.172  25.157  23.291  1.00  0.00    -0.247 NA
ATOM     19  C   UNL A   1      31.505  27.468  23.877  1.00  0.00     0.013 A 
ATOM     20  C   UNL A   1      30.722  26.406  23.387  1.00  0.00     0.072 A 
ATOM     21  C   UNL A   1      30.817  28.663  24.191  1.00  0.00     0.011 A 
ATOM     22  C   UNL A   1      29.404  26.631  23.013  1.00  0.00     0.029 A 
ATOM     23  C   UNL A   1      29.488  28.878  23.825  1.00  0.00     0.001 A 
ATOM     24  C   UNL A   1      28.789  27.868  23.191  1.00  0.00     0.002 A 
BRANCH  10  25
ATOM     25  C   UNL A   1      36.448  23.669  24.490  1.00  0.00     0.259 C 
ATOM     26  C   UNL A   1      36.794  22.541  23.523  1.00  0.00     0.071 C 
ENDBRANCH  10  25
BRANCH  16  27
ATOM     27  C   UNL A   1      32.180  21.095  24.215  1.00  0.00    -0.022 A 
ATOM     28  C   UNL A   1      32.487  20.600  25.495  1.00  0.00     0.008 A 
ATOM     29  C   UNL A   1      32.168  20.217  23.117  1.00  0.00    -0.044 A 
ATOM     30  C   UNL A   1      32.845  19.265  25.677  1.00  0.00     0.001 A 
ATOM     31  C   UNL A   1      32.544  18.877  23.315  1.00  0.00     0.004 A 
ATOM     32  C   UNL A   1      31.807  20.653  21.723  1.00  0.00     0.045 C 
ATOM     33  C   UNL A   1      32.888  18.407  24.583  1.00  0.00     0.000 A 
ENDBRANCH  16  27
ENDBRANCH   6   9
ENDBRANCH   4   5
ENDBRANCH   3   4
ENDBRANCH   2   3
ENDBRANCH   1   2
BRANCH   1  34
ATOM     34  C   UNL A   1      33.548  32.480  27.920  1.00  0.00     0.021 C 
BRANCH  34  35
ATOM     35  C   UNL A   1      33.910  33.957  27.799  1.00  0.00     0.116 C 
BRANCH  35  36
ATOM     36  N   UNL A   1      33.091  34.801  28.655  1.00  0.00    -0.352 N 
ATOM     37  C   UNL A   1      33.159  34.969  30.019  1.00  0.00     0.251 C 
ATOM     38  H   UNL A   1      32.394  35.324  28.196  1.00  0.00     0.163 HD
ATOM     39  O   UNL A   1      32.283  35.575  30.624  1.00  0.00    -0.269 OA
BRANCH  37  40
ATOM     40  C   UNL A   1      34.295  34.377  30.755  1.00  0.00     0.039 A 
ATOM     41  C   UNL A   1      35.584  34.879  30.569  1.00  0.00     0.014 A 
ATOM     42  C   UNL A   1      34.073  33.278  31.588  1.00  0.00     0.014 A 
ATOM     43  C   UNL A   1      36.671  34.180  31.082  1.00  0.00     0.010 A 
ATOM     44  C   UNL A   1      35.164  32.624  32.169  1.00  0.00     0.010 A 
ATOM     45  C   UNL A   1      36.473  33.039  31.878  1.00  0.00    -0.014 A 
BRANCH  45  46
ATOM     46  C   UNL A   1      37.652  32.285  32.376  1.00  0.00     0.031 A 
ATOM     47  C   UNL A   1      38.296  31.220  31.531  1.00  0.00     0.074 A 
ATOM     48  C   UNL A   1      38.181  32.609  33.572  1.00  0.00     0.049 A 
ATOM     49  N   UNL A   1      39.335  30.470  31.800  1.00  0.00    -0.248 NA
ATOM     50  C   UNL A   1      37.700  30.963  30.211  1.00  0.00     0.031 C 
ATOM     51  C   UNL A   1      37.656  33.638  34.471  1.00  0.00     0.029 A 
ATOM     52  N   UNL A   1      39.288  32.129  34.224  1.00  0.00    -0.354 N 
ATOM     53  C   UNL A   1      39.504  29.641  30.697  1.00  0.00     0.074 A 
ATOM     54  C   UNL A   1      38.446  29.963  29.763  1.00  0.00     0.031 C 
ATOM     55  C   UNL A   1      38.470  33.751  35.529  1.00  0.00     0.029 A 
ATOM     56  C   UNL A   1      39.536  32.760  35.417  1.00  0.00     0.049 A 
ATOM     57  H   UNL A   1      39.850  31.402  33.871  1.00  0.00     0.167 HD
ATOM     58  C   UNL A   1      40.461  28.708  30.481  1.00  0.00     0.037 A 
ATOM     59  C   UNL A   1      40.506  32.556  36.328  1.00  0.00     0.037 A 
ATOM     60  C   UNL A   1      41.526  28.407  31.402  1.00  0.00     0.049 A 
ATOM     61  C   UNL A   1      41.528  31.484  36.082  1.00  0.00     0.074 A 
ATOM     62  C   UNL A   1      42.552  27.488  31.264  1.00  0.00     0.029 A 
ATOM     63  N   UNL A   1      41.706  29.024  32.631  1.00  0.00    -0.354 N 
ATOM     64  N   UNL A   1      41.668  30.702  35.041  1.00  0.00    -0.248 NA
ATOM     65  C   UNL A   1      42.516  31.257  37.144  1.00  0.00     0.031 C 
ATOM     66  C   UNL A   1      43.329  27.522  32.426  1.00  0.00     0.029 A 
ATOM     67  C   UNL A   1      42.815  28.493  33.268  1.00  0.00     0.049 A 
ATOM     68  H   UNL A   1      41.130  29.735  32.996  1.00  0.00     0.167 HD
ATOM     69  C   UNL A   1      42.762  29.894  35.315  1.00  0.00     0.074 A 
ATOM     70  C   UNL A   1      43.264  30.298  36.613  1.00  0.00     0.031 C 
ATOM     71  C   UNL A   1      43.297  28.901  34.563  1.00  0.00     0.037 A 
BRANCH  58  72
ATOM     72  C   UNL A   1      40.405  27.929  29.199  1.00  0.00     0.064 A 
ATOM     73  C   UNL A   1      41.164  28.301  28.080  1.00  0.00     0.173 A 
ATOM     74  C   UNL A   1      39.635  26.758  29.111  1.00  0.00     0.173 A 
ATOM     75  F   UNL A   1      41.906  29.418  28.109  1.00  0.00    -0.203 F 
ATOM     76  C   UNL A   1      41.147  27.535  26.916  1.00  0.00     0.198 A 
ATOM     77  C   UNL A   1      39.640  25.983  27.955  1.00  0.00     0.198 A 
ATOM     78  F   UNL A   1      38.895  26.357  30.154  1.00  0.00    -0.203 F 
ATOM     79  F   UNL A   1      41.857  27.926  25.848  1.00  0.00    -0.200 F 
ATOM     80  C   UNL A   1      40.392  26.373  26.858  1.00  0.00     0.200 A 
ATOM     81  F   UNL A   1      38.919  24.854  27.903  1.00  0.00    -0.200 F 
ATOM     82  F   UNL A   1      40.389  25.631  25.741  1.00  0.00    -0.200 F 
ENDBRANCH  58  72
BRANCH  59  83
ATOM     83  C   UNL A   1      40.546  33.393  37.554  1.00  0.00     0.064 A 
ATOM     84  C   UNL A   1      41.448  34.458  37.666  1.00  0.00     0.173 A 
ATOM     85  C   UNL A   1      39.662  33.168  38.619  1.00  0.00     0.173 A 
ATOM     86  F   UNL A   1      42.326  34.699  36.682  1.00  0.00    -0.203 F 
ATOM     87  C   UNL A   1      41.465  35.269  38.799  1.00  0.00     0.198 A 
ATOM     88  C   UNL A   1      39.660  33.996  39.739  1.00  0.00     0.198 A 
ATOM     89  F   UNL A   1      38.778  32.162  38.557  1.00  0.00    -0.203 F 
ATOM     90  F   UNL A   1      42.354  36.266  38.894  1.00  0.00    -0.200 F 
ATOM     91  C   UNL A   1      40.564  35.043  39.830  1.00  0.00     0.200 A 
ATOM     92  F   UNL A   1      38.777  33.783  40.725  1.00  0.00    -0.200 F 
ATOM     93  F   UNL A   1      40.569  35.833  40.912  1.00  0.00    -0.200 F 
ENDBRANCH  59  83
BRANCH  71  94
ATOM     94  C   UNL A   1      44.490  28.186  35.120  1.00  0.00     0.064 A 
ATOM     95  C   UNL A   1      44.347  27.054  35.936  1.00  0.00     0.173 A 
ATOM     96  C   UNL A   1      45.789  28.600  34.791  1.00  0.00     0.173 A 
ATOM     97  F   UNL A   1      43.125  26.629  36.290  1.00  0.00    -0.203 F 
ATOM     98  C   UNL A   1      45.461  26.373  36.416  1.00  0.00     0.198 A 
ATOM     99  C   UNL A   1      46.901  27.901  35.250  1.00  0.00     0.198 A 
ATOM    100  F   UNL A   1      45.978  29.673  34.008  1.00  0.00    -0.203 F 
ATOM    101  F   UNL A   1      45.302  25.315  37.223  1.00  0.00    -0.200 F 
ATOM    102  C   UNL A   1      46.737  26.792  36.066  1.00  0.00     0.200 A 
ATOM    103  F   UNL A   1      48.133  28.299  34.902  1.00  0.00    -0.200 F 
ATOM    104  F   UNL A   1      47.809  26.128  36.521  1.00  0.00    -0.200 F 
ENDBRANCH  71  94
ENDBRANCH  45  46
ENDBRANCH  37  40
ENDBRANCH  35  36
ENDBRANCH  34  35
ENDBRANCH   1  34
TORSDOF 15
ENDMDL
MODEL 3
REMARK VINA RESULT:     -12.2      0.268      7.015
REMARK SMILES CC[N@@H+]1C/C(=C\c2ccccc2C)c2nc3ccccc3c(C(=O)NCCCCCCNC(=O)c3ccc(-c4c5nc(c(-c6c(F)c(F)c(F)c(F)c6F)c6ccc([nH]6)c(-c6c(F)c(F)c(F)c(F)c6F)c6nc(c(-c7c(F)c(F)c(F)c(F)c7F)c7ccc4[nH]7)C=C6)C=C5)cc3)c2C1
REMARK SMILES IDX 29 1 28 2 27 3 26 4 25 5 23 6 24 7 22 9 3 10 4 11 99 12 5 14
REMARK SMILES IDX 98 15 6 16 14 17 15 18 21 19 16 20 20 21 17 22 19 23 18 24
REMARK SMILES IDX 2 25 1 26 7 27 8 28 12 29 9 30 11 31 13 32 10 33 30 34 31 35
REMARK SMILES IDX 32 36 33 37 34 39 35 40 36 41 97 42 37 43 96 44 38 45 39 46
REMARK SMILES IDX 40 47 90 48 41 49 95 50 89 51 91 52 42 53 94 54 88 55 87 56
REMARK SMILES IDX 43 58 75 59 55 60 74 61 56 62 59 63 73 64 92 65 57 66 58 67
REMARK SMILES IDX 72 69 93 70 60 71 44 72 45 73 53 74 46 75 47 76 51 77 54 78
REMARK SMILES IDX 48 79 49 80 52 81 50 82 76 83 77 84 85 85 78 86 79 87 83 88
REMARK SMILES IDX 86 89 80 90 81 91 84 92 82 93 61 94 62 95 70 96 63 97 64 98
REMARK SMILES IDX 68 99 71 100 65 101 66 102 69 103 67 104
REMARK H PARENT 25 8 3 13 32 38 91 57 59 68
REMARK Flexibility Score: inf
ROOT
ATOM      1  C   UNL A   1      34.236  31.332  28.396  1.00  0.00     0.002 C 
ENDROOT
BRANCH   1   2
ATOM      2  C   UNL A   1      35.095  30.719  27.287  1.00  0.00     0.002 C 
BRANCH   2   3
ATOM      3  C   UNL A   1      35.198  29.192  27.316  1.00  0.00     0.021 C 
BRANCH   3   4
ATOM      4  C   UNL A   1      34.029  28.454  26.640  1.00  0.00     0.116 C 
BRANCH   4   5
ATOM      5  N   UNL A   1      33.979  28.845  25.245  1.00  0.00    -0.352 N 
ATOM      6  C   UNL A   1      33.793  28.129  24.085  1.00  0.00     0.252 C 
ATOM      7  O   UNL A   1      34.402  28.558  23.106  1.00  0.00    -0.269 OA
ATOM      8  H   UNL A   1      34.103  29.811  25.099  1.00  0.00     0.163 HD
BRANCH   6   9
ATOM      9  C   UNL A   1      32.799  27.012  23.915  1.00  0.00     0.060 A 
ATOM     10  N   UNL A   1      35.103  23.935  24.242  1.00  0.00    -0.328 N 
ATOM     11  C   UNL A   1      34.329  23.099  23.321  1.00  0.00     0.301 C 
ATOM     12  C   UNL A   1      34.793  25.364  24.042  1.00  0.00     0.302 C 
ATOM     13  H   UNL A   1      34.832  23.711  25.200  1.00  0.00     0.348 HD
ATOM     14  C   UNL A   1      32.874  23.255  23.648  1.00  0.00     0.033 C 
ATOM     15  C   UNL A   1      33.323  25.693  23.858  1.00  0.00     0.046 A 
ATOM     16  C   UNL A   1      32.026  22.280  24.038  1.00  0.00     0.020 C 
ATOM     17  C   UNL A   1      32.426  24.660  23.598  1.00  0.00     0.082 A 
ATOM     18  N   UNL A   1      31.126  24.863  23.294  1.00  0.00    -0.247 NA
ATOM     19  C   UNL A   1      31.389  27.195  23.827  1.00  0.00     0.013 A 
ATOM     20  C   UNL A   1      30.625  26.090  23.408  1.00  0.00     0.072 A 
ATOM     21  C   UNL A   1      30.668  28.361  24.176  1.00  0.00     0.011 A 
ATOM     22  C   UNL A   1      29.273  26.248  23.126  1.00  0.00     0.029 A 
ATOM     23  C   UNL A   1      29.308  28.508  23.904  1.00  0.00     0.001 A 
ATOM     24  C   UNL A   1      28.614  27.457  23.333  1.00  0.00     0.002 A 
BRANCH  10  25
ATOM     25  C   UNL A   1      36.538  23.641  24.130  1.00  0.00     0.259 C 
ATOM     26  C   UNL A   1      37.213  23.320  25.460  1.00  0.00     0.071 C 
ENDBRANCH  10  25
BRANCH  16  27
ATOM     27  C   UNL A   1      32.389  20.866  24.190  1.00  0.00    -0.022 A 
ATOM     28  C   UNL A   1      32.153  19.986  23.120  1.00  0.00     0.008 A 
ATOM     29  C   UNL A   1      32.951  20.373  25.381  1.00  0.00    -0.044 A 
ATOM     30  C   UNL A   1      32.404  18.621  23.249  1.00  0.00     0.001 A 
ATOM     31  C   UNL A   1      33.188  18.993  25.500  1.00  0.00     0.004 A 
ATOM     32  C   UNL A   1      33.279  21.252  26.558  1.00  0.00     0.045 C 
ATOM     33  C   UNL A   1      32.908  18.122  24.445  1.00  0.00     0.000 A 
ENDBRANCH  16  27
ENDBRANCH   6   9
ENDBRANCH   4   5
ENDBRANCH   3   4
ENDBRANCH   2   3
ENDBRANCH   1   2
BRANCH   1  34
ATOM     34  C   UNL A   1      33.081  32.212  27.915  1.00  0.00     0.021 C 
BRANCH  34  35
ATOM     35  C   UNL A   1      33.506  33.536  27.286  1.00  0.00     0.116 C 
BRANCH  35  36
ATOM     36  N   UNL A   1      32.893  34.683  27.940  1.00  0.00    -0.352 N 
ATOM     37  C   UNL A   1      33.136  35.190  29.195  1.00  0.00     0.251 C 
ATOM     38  H   UNL A   1      32.213  35.160  27.411  1.00  0.00     0.163 HD
ATOM     39  O   UNL A   1      32.411  36.052  29.677  1.00  0.00    -0.269 OA
BRANCH  37  40
ATOM     40  C   UNL A   1      34.273  34.657  29.972  1.00  0.00     0.039 A 
ATOM     41  C   UNL A   1      35.571  34.759  29.470  1.00  0.00     0.014 A 
ATOM     42  C   UNL A   1      34.028  34.002  31.181  1.00  0.00     0.014 A 
ATOM     43  C   UNL A   1      36.601  34.061  30.089  1.00  0.00     0.010 A 
ATOM     44  C   UNL A   1      35.082  33.368  31.846  1.00  0.00     0.010 A 
ATOM     45  C   UNL A   1      36.366  33.348  31.278  1.00  0.00    -0.014 A 
BRANCH  45  46
ATOM     46  C   UNL A   1      37.473  32.574  31.895  1.00  0.00     0.031 A 
ATOM     47  C   UNL A   1      38.137  31.452  31.145  1.00  0.00     0.074 A 
ATOM     48  C   UNL A   1      37.923  32.930  33.114  1.00  0.00     0.049 A 
ATOM     49  N   UNL A   1      39.122  30.676  31.522  1.00  0.00    -0.248 NA
ATOM     50  C   UNL A   1      37.632  31.160  29.794  1.00  0.00     0.031 C 
ATOM     51  C   UNL A   1      37.373  34.015  33.928  1.00  0.00     0.029 A 
ATOM     52  N   UNL A   1      38.958  32.439  33.867  1.00  0.00    -0.354 N 
ATOM     53  C   UNL A   1      39.341  29.796  30.470  1.00  0.00     0.074 A 
ATOM     54  C   UNL A   1      38.370  30.115  29.445  1.00  0.00     0.031 C 
ATOM     55  C   UNL A   1      38.108  34.144  35.041  1.00  0.00     0.029 A 
ATOM     56  C   UNL A   1      39.140  33.111  35.051  1.00  0.00     0.049 A 
ATOM     57  H   UNL A   1      39.517  31.678  33.588  1.00  0.00     0.167 HD
ATOM     58  C   UNL A   1      40.274  28.820  30.365  1.00  0.00     0.037 A 
ATOM     59  C   UNL A   1      40.030  32.911  36.041  1.00  0.00     0.037 A 
ATOM     60  C   UNL A   1      41.254  28.521  31.377  1.00  0.00     0.049 A 
ATOM     61  C   UNL A   1      41.025  31.793  35.917  1.00  0.00     0.074 A 
ATOM     62  C   UNL A   1      42.251  27.560  31.354  1.00  0.00     0.029 A 
ATOM     63  N   UNL A   1      41.365  29.184  32.590  1.00  0.00    -0.354 N 
ATOM     64  N   UNL A   1      41.212  30.963  34.921  1.00  0.00    -0.248 NA
ATOM     65  C   UNL A   1      41.921  31.576  37.059  1.00  0.00     0.031 C 
ATOM     66  C   UNL A   1      42.939  27.616  32.570  1.00  0.00     0.029 A 
ATOM     67  C   UNL A   1      42.402  28.640  33.332  1.00  0.00     0.049 A 
ATOM     68  H   UNL A   1      40.792  29.930  32.881  1.00  0.00     0.167 HD
ATOM     69  C   UNL A   1      42.250  30.128  35.311  1.00  0.00     0.074 A 
ATOM     70  C   UNL A   1      42.668  30.569  36.626  1.00  0.00     0.031 C 
ATOM     71  C   UNL A   1      42.801  29.086  34.643  1.00  0.00     0.037 A 
BRANCH  58  72
ATOM     72  C   UNL A   1      40.284  27.990  29.115  1.00  0.00     0.064 A 
ATOM     73  C   UNL A   1      41.015  28.377  27.982  1.00  0.00     0.173 A 
ATOM     74  C   UNL A   1      39.611  26.759  29.073  1.00  0.00     0.173 A 
ATOM     75  F   UNL A   1      41.664  29.551  27.967  1.00  0.00    -0.203 F 
ATOM     76  C   UNL A   1      41.062  27.568  26.849  1.00  0.00     0.198 A 
ATOM     77  C   UNL A   1      39.681  25.941  27.948  1.00  0.00     0.198 A 
ATOM     78  F   UNL A   1      38.903  26.340  30.132  1.00  0.00    -0.203 F 
ATOM     79  F   UNL A   1      41.742  27.972  25.767  1.00  0.00    -0.200 F 
ATOM     80  C   UNL A   1      40.403  26.347  26.837  1.00  0.00     0.200 A 
ATOM     81  F   UNL A   1      39.054  24.757  27.941  1.00  0.00    -0.200 F 
ATOM     82  F   UNL A   1      40.462  25.564  25.750  1.00  0.00    -0.200 F 
ENDBRANCH  58  72
BRANCH  59  83
ATOM     83  C   UNL A   1      40.011  33.798  37.231  1.00  0.00     0.064 A 
ATOM     84  C   UNL A   1      39.250  33.470  38.360  1.00  0.00     0.173 A 
ATOM     85  C   UNL A   1      40.781  34.970  37.277  1.00  0.00     0.173 A 
ATOM     86  F   UNL A   1      38.484  32.370  38.354  1.00  0.00    -0.203 F 
ATOM     87  C   UNL A   1      39.258  34.281  39.492  1.00  0.00     0.198 A 
ATOM     88  C   UNL A   1      40.810  35.766  38.420  1.00  0.00     0.198 A 
ATOM     89  F   UNL A   1      41.528  35.325  36.222  1.00  0.00    -0.203 F 
ATOM     90  F   UNL A   1      38.502  33.960  40.550  1.00  0.00    -0.200 F 
ATOM     91  C   UNL A   1      40.046  35.423  39.525  1.00  0.00     0.200 A 
ATOM     92  F   UNL A   1      41.585  36.858  38.452  1.00  0.00    -0.200 F 
ATOM     93  F   UNL A   1      40.067  36.194  40.621  1.00  0.00    -0.200 F 
ENDBRANCH  59  83
BRANCH  71  94
ATOM     94  C   UNL A   1      43.919  28.352  35.317  1.00  0.00     0.064 A 
ATOM     95  C   UNL A   1      45.250  28.778  35.196  1.00  0.00     0.173 A 
ATOM     96  C   UNL A   1      43.654  27.245  36.137  1.00  0.00     0.173 A 
ATOM     97  F   UNL A   1      45.553  29.823  34.411  1.00  0.00    -0.203 F 
ATOM     98  C   UNL A   1      46.277  28.113  35.859  1.00  0.00     0.198 A 
ATOM     99  C   UNL A   1      44.680  26.598  36.819  1.00  0.00     0.198 A 
ATOM    100  F   UNL A   1      42.397  26.802  36.291  1.00  0.00    -0.203 F 
ATOM    101  F   UNL A   1      47.545  28.516  35.701  1.00  0.00    -0.200 F 
ATOM    102  C   UNL A   1      45.991  27.029  36.676  1.00  0.00     0.200 A 
ATOM    103  F   UNL A   1      44.402  25.558  37.618  1.00  0.00    -0.200 F 
ATOM    104  F   UNL A   1      46.980  26.396  37.321  1.00  0.00    -0.200 F 
ENDBRANCH  71  94
ENDBRANCH  45  46
ENDBRANCH  37  40
ENDBRANCH  35  36
ENDBRANCH  34  35
ENDBRANCH   1  34
TORSDOF 15
ENDMDL
