MODEL 1
REMARK VINA RESULT:     -13.4      0.000      0.000
REMARK SMILES C[C@@H]1Cc2ccccc2N1S(=O)(=O)c1cccc(C(=O)NCCCCCCNC(=O)c2ccc(-c3c4nc(c(-c5c(F)c(F)c(F)c(F)c5F)c5ccc([nH]5)c(-c5c(F)c(F)c(F)c(F)c5F)c5nc(c(-c6c(F)c(F)c(F)c(F)c6F)c6ccc3[nH]6)C=C5)C=C4)cc2)c1
REMARK SMILES IDX 24 1 23 2 22 3 21 4 19 5 20 6 18 8 14 9 15 10 94 11 16 12
REMARK SMILES IDX 17 13 11 14 12 15 13 16 10 17 1 18 2 19 3 20 4 21 9 22 5 23
REMARK SMILES IDX 8 24 6 25 7 26 25 27 26 28 27 29 28 30 29 31 30 33 31 34
REMARK SMILES IDX 32 35 93 36 33 37 92 38 34 39 35 40 36 41 86 42 37 43 91 44
REMARK SMILES IDX 85 45 87 46 38 47 90 48 84 49 83 50 39 52 71 53 51 54 70 55
REMARK SMILES IDX 52 56 55 57 69 58 88 59 53 60 54 61 68 63 89 64 56 65 40 66
REMARK SMILES IDX 41 67 49 68 42 69 43 70 47 71 50 72 44 73 45 74 48 75 46 76
REMARK SMILES IDX 72 77 73 78 81 79 74 80 75 81 79 82 82 83 76 84 77 85 80 86
REMARK SMILES IDX 78 87 57 88 58 89 66 90 59 91 60 92 64 93 67 94 61 95 62 96
REMARK SMILES IDX 65 97 63 98
REMARK H PARENT 21 7 28 32 87 51 55 62
REMARK Flexibility Score: inf
ROOT
ATOM      1  C   UNL A   1      31.932  29.456  26.888  1.00  0.00     0.002 C 
ENDROOT
BRANCH   1   2
ATOM      2  C   UNL A   1      33.345  29.038  27.291  1.00  0.00     0.021 C 
BRANCH   2   3
ATOM      3  C   UNL A   1      34.153  28.231  26.282  1.00  0.00     0.116 C 
BRANCH   3   4
ATOM      4  N   UNL A   1      34.117  28.742  24.926  1.00  0.00    -0.352 N 
ATOM      5  C   UNL A   1      33.465  28.296  23.799  1.00  0.00     0.251 C 
ATOM      6  O   UNL A   1      33.589  28.960  22.770  1.00  0.00    -0.269 OA
ATOM      7  H   UNL A   1      34.655  29.554  24.787  1.00  0.00     0.163 HD
BRANCH   5   8
ATOM      8  C   UNL A   1      32.690  27.018  23.744  1.00  0.00     0.041 A 
ATOM      9  C   UNL A   1      32.470  24.643  23.388  1.00  0.00     0.088 A 
ATOM     10  C   UNL A   1      31.077  24.741  23.352  1.00  0.00     0.022 A 
ATOM     11  C   UNL A   1      33.264  25.747  23.710  1.00  0.00     0.036 A 
ATOM     12  C   UNL A   1      30.483  25.989  23.503  1.00  0.00     0.002 A 
ATOM     13  C   UNL A   1      31.288  27.123  23.661  1.00  0.00     0.014 A 
BRANCH   9  14
ATOM     14  S   UNL A   1      33.233  23.111  22.920  1.00  0.00     0.264 S 
ATOM     15  O   UNL A   1      34.356  23.440  22.069  1.00  0.00    -0.201 OA
ATOM     16  O   UNL A   1      32.178  22.239  22.431  1.00  0.00    -0.201 OA
BRANCH  14  17
ATOM     17  N   UNL A   1      33.837  22.384  24.373  1.00  0.00    -0.263 N 
ATOM     18  C   UNL A   1      32.367  20.552  25.229  1.00  0.00     0.032 C 
ATOM     19  C   UNL A   1      33.580  20.875  24.370  1.00  0.00     0.101 C 
ATOM     20  C   UNL A   1      34.866  20.194  24.889  1.00  0.00     0.063 C 
ATOM     21  C   UNL A   1      35.832  21.323  24.989  1.00  0.00    -0.021 A 
ATOM     22  C   UNL A   1      35.219  22.544  24.739  1.00  0.00     0.055 A 
ATOM     23  C   UNL A   1      37.166  21.244  25.379  1.00  0.00     0.006 A 
ATOM     24  C   UNL A   1      35.895  23.718  25.032  1.00  0.00     0.027 A 
ATOM     25  C   UNL A   1      37.880  22.428  25.561  1.00  0.00     0.000 A 
ATOM     26  C   UNL A   1      37.241  23.661  25.408  1.00  0.00     0.002 A 
ENDBRANCH  14  17
ENDBRANCH   9  14
ENDBRANCH   5   8
ENDBRANCH   3   4
ENDBRANCH   2   3
ENDBRANCH   1   2
BRANCH   1  27
ATOM     27  C   UNL A   1      31.788  30.759  26.099  1.00  0.00     0.002 C 
BRANCH  27  28
ATOM     28  C   UNL A   1      31.457  32.015  26.901  1.00  0.00     0.021 C 
BRANCH  28  29
ATOM     29  C   UNL A   1      32.644  32.841  27.376  1.00  0.00     0.116 C 
BRANCH  29  30
ATOM     30  N   UNL A   1      32.316  34.230  27.661  1.00  0.00    -0.352 N 
ATOM     31  C   UNL A   1      32.901  35.092  28.560  1.00  0.00     0.251 C 
ATOM     32  H   UNL A   1      31.572  34.605  27.138  1.00  0.00     0.163 HD
ATOM     33  O   UNL A   1      32.436  36.213  28.743  1.00  0.00    -0.269 OA
BRANCH  31  34
ATOM     34  C   UNL A   1      34.071  34.643  29.348  1.00  0.00     0.039 A 
ATOM     35  C   UNL A   1      35.343  34.604  28.776  1.00  0.00     0.014 A 
ATOM     36  C   UNL A   1      33.878  34.197  30.659  1.00  0.00     0.014 A 
ATOM     37  C   UNL A   1      36.373  33.942  29.435  1.00  0.00     0.010 A 
ATOM     38  C   UNL A   1      34.941  33.616  31.358  1.00  0.00     0.010 A 
ATOM     39  C   UNL A   1      36.182  33.428  30.729  1.00  0.00    -0.014 A 
BRANCH  39  40
ATOM     40  C   UNL A   1      37.286  32.682  31.391  1.00  0.00     0.031 A 
ATOM     41  C   UNL A   1      37.967  31.532  30.693  1.00  0.00     0.074 A 
ATOM     42  C   UNL A   1      37.714  33.078  32.605  1.00  0.00     0.049 A 
ATOM     43  N   UNL A   1      38.944  30.770  31.120  1.00  0.00    -0.248 NA
ATOM     44  C   UNL A   1      37.490  31.185  29.346  1.00  0.00     0.031 C 
ATOM     45  C   UNL A   1      37.142  34.180  33.380  1.00  0.00     0.029 A 
ATOM     46  N   UNL A   1      38.736  32.613  33.396  1.00  0.00    -0.354 N 
ATOM     47  C   UNL A   1      39.180  29.847  30.110  1.00  0.00     0.074 A 
ATOM     48  C   UNL A   1      38.230  30.123  29.055  1.00  0.00     0.031 C 
ATOM     49  C   UNL A   1      37.844  34.334  34.511  1.00  0.00     0.029 A 
ATOM     50  C   UNL A   1      38.872  33.301  34.577  1.00  0.00     0.049 A 
ATOM     51  H   UNL A   1      39.316  31.860  33.141  1.00  0.00     0.167 HD
ATOM     52  C   UNL A   1      40.115  28.868  30.062  1.00  0.00     0.037 A 
ATOM     53  C   UNL A   1      39.714  33.109  35.611  1.00  0.00     0.037 A 
ATOM     54  C   UNL A   1      41.089  28.622  31.095  1.00  0.00     0.049 A 
ATOM     55  C   UNL A   1      40.721  31.996  35.540  1.00  0.00     0.074 A 
ATOM     56  C   UNL A   1      42.107  27.685  31.110  1.00  0.00     0.029 A 
ATOM     57  N   UNL A   1      41.168  29.318  32.292  1.00  0.00    -0.354 N 
ATOM     58  N   UNL A   1      40.948  31.150  34.567  1.00  0.00    -0.248 NA
ATOM     59  C   UNL A   1      41.585  31.807  36.715  1.00  0.00     0.031 C 
ATOM     60  C   UNL A   1      42.768  27.776  32.338  1.00  0.00     0.029 A 
ATOM     61  C   UNL A   1      42.199  28.809  33.065  1.00  0.00     0.049 A 
ATOM     62  H   UNL A   1      40.580  30.063  32.554  1.00  0.00     0.167 HD
ATOM     63  C   UNL A   1      41.985  30.337  35.003  1.00  0.00     0.074 A 
ATOM     64  C   UNL A   1      42.362  30.809  36.319  1.00  0.00     0.031 C 
ATOM     65  C   UNL A   1      42.566  29.289  34.372  1.00  0.00     0.037 A 
BRANCH  52  66
ATOM     66  C   UNL A   1      40.151  27.971  28.859  1.00  0.00     0.064 A 
ATOM     67  C   UNL A   1      40.879  28.308  27.710  1.00  0.00     0.173 A 
ATOM     68  C   UNL A   1      39.546  26.704  28.904  1.00  0.00     0.173 A 
ATOM     69  F   UNL A   1      41.470  29.510  27.614  1.00  0.00    -0.203 F 
ATOM     70  C   UNL A   1      41.000  27.412  26.651  1.00  0.00     0.198 A 
ATOM     71  C   UNL A   1      39.691  25.801  27.855  1.00  0.00     0.198 A 
ATOM     72  F   UNL A   1      38.846  26.328  29.985  1.00  0.00    -0.203 F 
ATOM     73  F   UNL A   1      41.689  27.762  25.555  1.00  0.00    -0.200 F 
ATOM     74  C   UNL A   1      40.418  26.156  26.729  1.00  0.00     0.200 A 
ATOM     75  F   UNL A   1      39.144  24.581  27.942  1.00  0.00    -0.200 F 
ATOM     76  F   UNL A   1      40.562  25.284  25.721  1.00  0.00    -0.200 F 
ENDBRANCH  52  66
BRANCH  53  77
ATOM     77  C   UNL A   1      39.619  33.988  36.807  1.00  0.00     0.064 A 
ATOM     78  C   UNL A   1      40.289  35.217  36.859  1.00  0.00     0.173 A 
ATOM     79  C   UNL A   1      38.845  33.619  37.918  1.00  0.00     0.173 A 
ATOM     80  F   UNL A   1      41.059  35.604  35.831  1.00  0.00    -0.203 F 
ATOM     81  C   UNL A   1      40.197  36.039  37.980  1.00  0.00     0.198 A 
ATOM     82  C   UNL A   1      38.726  34.457  39.023  1.00  0.00     0.198 A 
ATOM     83  F   UNL A   1      38.181  32.454  37.917  1.00  0.00    -0.203 F 
ATOM     84  F   UNL A   1      40.879  37.191  38.021  1.00  0.00    -0.200 F 
ATOM     85  C   UNL A   1      39.408  35.663  39.057  1.00  0.00     0.200 A 
ATOM     86  F   UNL A   1      37.947  34.098  40.053  1.00  0.00    -0.200 F 
ATOM     87  F   UNL A   1      39.309  36.461  40.129  1.00  0.00    -0.200 F 
ENDBRANCH  53  77
BRANCH  65  88
ATOM     88  C   UNL A   1      43.680  28.578  35.084  1.00  0.00     0.064 A 
ATOM     89  C   UNL A   1      45.017  28.969  34.923  1.00  0.00     0.173 A 
ATOM     90  C   UNL A   1      43.401  27.545  35.992  1.00  0.00     0.173 A 
ATOM     91  F   UNL A   1      45.336  29.943  34.056  1.00  0.00    -0.203 F 
ATOM     92  C   UNL A   1      46.036  28.342  35.635  1.00  0.00     0.198 A 
ATOM     93  C   UNL A   1      44.419  26.941  36.724  1.00  0.00     0.198 A 
ATOM     94  F   UNL A   1      42.138  27.139  36.187  1.00  0.00    -0.203 F 
ATOM     95  F   UNL A   1      47.310  28.708  35.439  1.00  0.00    -0.200 F 
ATOM     96  C   UNL A   1      45.735  27.338  36.542  1.00  0.00     0.200 A 
ATOM     97  F   UNL A   1      44.125  25.983  37.613  1.00  0.00    -0.200 F 
ATOM     98  F   UNL A   1      46.717  26.748  37.240  1.00  0.00    -0.200 F 
ENDBRANCH  65  88
ENDBRANCH  39  40
ENDBRANCH  31  34
ENDBRANCH  29  30
ENDBRANCH  28  29
ENDBRANCH  27  28
ENDBRANCH   1  27
TORSDOF 15
ENDMDL
MODEL 2
REMARK VINA RESULT:     -13.3      0.428      7.118
REMARK SMILES C[C@@H]1Cc2ccccc2N1S(=O)(=O)c1cccc(C(=O)NCCCCCCNC(=O)c2ccc(-c3c4nc(c(-c5c(F)c(F)c(F)c(F)c5F)c5ccc([nH]5)c(-c5c(F)c(F)c(F)c(F)c5F)c5nc(c(-c6c(F)c(F)c(F)c(F)c6F)c6ccc3[nH]6)C=C5)C=C4)cc2)c1
REMARK SMILES IDX 24 1 23 2 22 3 21 4 19 5 20 6 18 8 14 9 15 10 94 11 16 12
REMARK SMILES IDX 17 13 11 14 12 15 13 16 10 17 1 18 2 19 3 20 4 21 9 22 5 23
REMARK SMILES IDX 8 24 6 25 7 26 25 27 26 28 27 29 28 30 29 31 30 33 31 34
REMARK SMILES IDX 32 35 93 36 33 37 92 38 34 39 35 40 36 41 86 42 37 43 91 44
REMARK SMILES IDX 85 45 87 46 38 47 90 48 84 49 83 50 39 52 71 53 51 54 70 55
REMARK SMILES IDX 52 56 55 57 69 58 88 59 53 60 54 61 68 63 89 64 56 65 40 66
REMARK SMILES IDX 41 67 49 68 42 69 43 70 47 71 50 72 44 73 45 74 48 75 46 76
REMARK SMILES IDX 72 77 73 78 81 79 74 80 75 81 79 82 82 83 76 84 77 85 80 86
REMARK SMILES IDX 78 87 57 88 58 89 66 90 59 91 60 92 64 93 67 94 61 95 62 96
REMARK SMILES IDX 65 97 63 98
REMARK H PARENT 21 7 28 32 87 51 55 62
REMARK Flexibility Score: inf
ROOT
ATOM      1  C   UNL A   1      32.072  29.473  27.002  1.00  0.00     0.002 C 
ENDROOT
BRANCH   1   2
ATOM      2  C   UNL A   1      33.536  29.128  27.271  1.00  0.00     0.021 C 
BRANCH   2   3
ATOM      3  C   UNL A   1      34.249  28.251  26.249  1.00  0.00     0.116 C 
BRANCH   3   4
ATOM      4  N   UNL A   1      34.185  28.731  24.883  1.00  0.00    -0.352 N 
ATOM      5  C   UNL A   1      33.496  28.271  23.785  1.00  0.00     0.251 C 
ATOM      6  O   UNL A   1      33.603  28.910  22.738  1.00  0.00    -0.269 OA
ATOM      7  H   UNL A   1      34.732  29.530  24.712  1.00  0.00     0.163 HD
BRANCH   5   8
ATOM      8  C   UNL A   1      32.700  27.005  23.779  1.00  0.00     0.041 A 
ATOM      9  C   UNL A   1      32.423  24.633  23.447  1.00  0.00     0.088 A 
ATOM     10  C   UNL A   1      31.032  24.753  23.490  1.00  0.00     0.022 A 
ATOM     11  C   UNL A   1      33.251  25.725  23.717  1.00  0.00     0.036 A 
ATOM     12  C   UNL A   1      30.467  26.010  23.670  1.00  0.00     0.002 A 
ATOM     13  C   UNL A   1      31.297  27.132  23.777  1.00  0.00     0.014 A 
BRANCH   9  14
ATOM     14  S   UNL A   1      33.134  23.088  22.941  1.00  0.00     0.264 S 
ATOM     15  O   UNL A   1      34.231  23.398  22.051  1.00  0.00    -0.201 OA
ATOM     16  O   UNL A   1      32.043  22.241  22.488  1.00  0.00    -0.201 OA
BRANCH  14  17
ATOM     17  N   UNL A   1      33.776  22.339  24.367  1.00  0.00    -0.263 N 
ATOM     18  C   UNL A   1      32.328  20.494  25.233  1.00  0.00     0.032 C 
ATOM     19  C   UNL A   1      33.518  20.830  24.347  1.00  0.00     0.101 C 
ATOM     20  C   UNL A   1      34.817  20.141  24.821  1.00  0.00     0.063 C 
ATOM     21  C   UNL A   1      35.786  21.267  24.913  1.00  0.00    -0.021 A 
ATOM     22  C   UNL A   1      35.168  22.493  24.698  1.00  0.00     0.055 A 
ATOM     23  C   UNL A   1      37.130  21.182  25.266  1.00  0.00     0.006 A 
ATOM     24  C   UNL A   1      35.852  23.661  24.990  1.00  0.00     0.027 A 
ATOM     25  C   UNL A   1      37.850  22.363  25.446  1.00  0.00     0.000 A 
ATOM     26  C   UNL A   1      37.207  23.599  25.329  1.00  0.00     0.002 A 
ENDBRANCH  14  17
ENDBRANCH   9  14
ENDBRANCH   5   8
ENDBRANCH   3   4
ENDBRANCH   2   3
ENDBRANCH   1   2
BRANCH   1  27
ATOM     27  C   UNL A   1      31.791  30.709  26.146  1.00  0.00     0.002 C 
BRANCH  27  28
ATOM     28  C   UNL A   1      31.464  32.000  26.892  1.00  0.00     0.021 C 
BRANCH  28  29
ATOM     29  C   UNL A   1      32.654  32.809  27.390  1.00  0.00     0.116 C 
BRANCH  29  30
ATOM     30  N   UNL A   1      32.336  34.196  27.692  1.00  0.00    -0.352 N 
ATOM     31  C   UNL A   1      32.957  35.058  28.568  1.00  0.00     0.251 C 
ATOM     32  H   UNL A   1      31.570  34.571  27.202  1.00  0.00     0.163 HD
ATOM     33  O   UNL A   1      32.499  36.177  28.772  1.00  0.00    -0.269 OA
BRANCH  31  34
ATOM     34  C   UNL A   1      34.161  34.608  29.304  1.00  0.00     0.039 A 
ATOM     35  C   UNL A   1      35.415  34.624  28.695  1.00  0.00     0.014 A 
ATOM     36  C   UNL A   1      34.016  34.108  30.601  1.00  0.00     0.014 A 
ATOM     37  C   UNL A   1      36.480  33.964  29.299  1.00  0.00     0.010 A 
ATOM     38  C   UNL A   1      35.113  33.529  31.247  1.00  0.00     0.010 A 
ATOM     39  C   UNL A   1      36.340  33.396  30.577  1.00  0.00    -0.014 A 
BRANCH  39  40
ATOM     40  C   UNL A   1      37.480  32.653  31.178  1.00  0.00     0.031 A 
ATOM     41  C   UNL A   1      37.967  32.978  32.567  1.00  0.00     0.074 A 
ATOM     42  C   UNL A   1      38.045  31.643  30.488  1.00  0.00     0.049 A 
ATOM     43  N   UNL A   1      38.946  32.434  33.246  1.00  0.00    -0.248 NA
ATOM     44  C   UNL A   1      37.271  34.055  33.289  1.00  0.00     0.031 C 
ATOM     45  C   UNL A   1      37.660  31.227  29.138  1.00  0.00     0.029 A 
ATOM     46  N   UNL A   1      39.051  30.772  30.829  1.00  0.00    -0.354 N 
ATOM     47  C   UNL A   1      38.997  33.113  34.456  1.00  0.00     0.074 A 
ATOM     48  C   UNL A   1      37.968  34.128  34.415  1.00  0.00     0.031 C 
ATOM     49  C   UNL A   1      38.387  30.159  28.782  1.00  0.00     0.029 A 
ATOM     50  C   UNL A   1      39.337  29.855  29.847  1.00  0.00     0.049 A 
ATOM     51  H   UNL A   1      39.521  30.801  31.693  1.00  0.00     0.167 HD
ATOM     52  C   UNL A   1      39.820  32.899  35.511  1.00  0.00     0.037 A 
ATOM     53  C   UNL A   1      40.276  28.890  29.796  1.00  0.00     0.037 A 
ATOM     54  C   UNL A   1      40.815  31.859  35.568  1.00  0.00     0.049 A 
ATOM     55  C   UNL A   1      41.192  28.695  30.971  1.00  0.00     0.074 A 
ATOM     56  C   UNL A   1      41.660  31.535  36.615  1.00  0.00     0.029 A 
ATOM     57  N   UNL A   1      41.099  30.976  34.537  1.00  0.00    -0.354 N 
ATOM     58  N   UNL A   1      41.210  29.328  32.117  1.00  0.00    -0.248 NA
ATOM     59  C   UNL A   1      42.224  27.656  30.844  1.00  0.00     0.031 C 
ATOM     60  C   UNL A   1      42.491  30.492  36.200  1.00  0.00     0.029 A 
ATOM     61  C   UNL A   1      42.127  30.127  34.915  1.00  0.00     0.049 A 
ATOM     62  H   UNL A   1      40.638  30.954  33.667  1.00  0.00     0.167 HD
ATOM     63  C   UNL A   1      42.241  28.760  32.851  1.00  0.00     0.074 A 
ATOM     64  C   UNL A   1      42.810  27.711  32.032  1.00  0.00     0.031 C 
ATOM     65  C   UNL A   1      42.682  29.085  34.090  1.00  0.00     0.037 A 
BRANCH  52  66
ATOM     66  C   UNL A   1      39.697  33.796  36.708  1.00  0.00     0.064 A 
ATOM     67  C   UNL A   1      40.304  35.059  36.748  1.00  0.00     0.173 A 
ATOM     68  C   UNL A   1      38.862  33.436  37.779  1.00  0.00     0.173 A 
ATOM     69  F   UNL A   1      41.117  35.449  35.754  1.00  0.00    -0.203 F 
ATOM     70  C   UNL A   1      40.081  35.927  37.814  1.00  0.00     0.198 A 
ATOM     71  C   UNL A   1      38.621  34.316  38.829  1.00  0.00     0.198 A 
ATOM     72  F   UNL A   1      38.250  32.242  37.785  1.00  0.00    -0.203 F 
ATOM     73  F   UNL A   1      40.684  37.124  37.839  1.00  0.00    -0.200 F 
ATOM     74  C   UNL A   1      39.231  35.561  38.846  1.00  0.00     0.200 A 
ATOM     75  F   UNL A   1      37.784  33.966  39.816  1.00  0.00    -0.200 F 
ATOM     76  F   UNL A   1      38.994  36.410  39.855  1.00  0.00    -0.200 F 
ENDBRANCH  52  66
BRANCH  53  77
ATOM     77  C   UNL A   1      40.400  28.050  28.576  1.00  0.00     0.064 A 
ATOM     78  C   UNL A   1      41.145  28.482  27.471  1.00  0.00     0.173 A 
ATOM     79  C   UNL A   1      39.784  26.792  28.496  1.00  0.00     0.173 A 
ATOM     80  F   UNL A   1      41.735  29.686  27.490  1.00  0.00    -0.203 F 
ATOM     81  C   UNL A   1      41.262  27.691  26.329  1.00  0.00     0.198 A 
ATOM     82  C   UNL A   1      39.929  25.988  27.368  1.00  0.00     0.198 A 
ATOM     83  F   UNL A   1      39.061  26.330  29.528  1.00  0.00    -0.203 F 
ATOM     84  F   UNL A   1      41.947  28.144  25.271  1.00  0.00    -0.200 F 
ATOM     85  C   UNL A   1      40.662  26.441  26.282  1.00  0.00     0.200 A 
ATOM     86  F   UNL A   1      39.365  24.773  27.336  1.00  0.00    -0.200 F 
ATOM     87  F   UNL A   1      40.786  25.676  25.189  1.00  0.00    -0.200 F 
ENDBRANCH  53  77
BRANCH  65  88
ATOM     88  C   UNL A   1      43.830  28.297  34.649  1.00  0.00     0.064 A 
ATOM     89  C   UNL A   1      43.630  27.057  35.275  1.00  0.00     0.173 A 
ATOM     90  C   UNL A   1      45.150  28.750  34.493  1.00  0.00     0.173 A 
ATOM     91  F   UNL A   1      42.387  26.588  35.460  1.00  0.00    -0.203 F 
ATOM     92  C   UNL A   1      44.708  26.307  35.735  1.00  0.00     0.198 A 
ATOM     93  C   UNL A   1      46.226  27.982  34.927  1.00  0.00     0.198 A 
ATOM     94  F   UNL A   1      45.394  29.925  33.895  1.00  0.00    -0.203 F 
ATOM     95  F   UNL A   1      44.492  25.141  36.362  1.00  0.00    -0.200 F 
ATOM     96  C   UNL A   1      46.004  26.764  35.551  1.00  0.00     0.200 A 
ATOM     97  F   UNL A   1      47.479  28.417  34.734  1.00  0.00    -0.200 F 
ATOM     98  F   UNL A   1      47.042  26.030  35.980  1.00  0.00    -0.200 F 
ENDBRANCH  65  88
ENDBRANCH  39  40
ENDBRANCH  31  34
ENDBRANCH  29  30
ENDBRANCH  28  29
ENDBRANCH  27  28
ENDBRANCH   1  27
TORSDOF 15
ENDMDL
MODEL 3
REMARK VINA RESULT:     -12.8      1.083      2.097
REMARK SMILES C[C@@H]1Cc2ccccc2N1S(=O)(=O)c1cccc(C(=O)NCCCCCCNC(=O)c2ccc(-c3c4nc(c(-c5c(F)c(F)c(F)c(F)c5F)c5ccc([nH]5)c(-c5c(F)c(F)c(F)c(F)c5F)c5nc(c(-c6c(F)c(F)c(F)c(F)c6F)c6ccc3[nH]6)C=C5)C=C4)cc2)c1
REMARK SMILES IDX 24 1 23 2 22 3 21 4 19 5 20 6 18 8 14 9 15 10 94 11 16 12
REMARK SMILES IDX 17 13 11 14 12 15 13 16 10 17 1 18 2 19 3 20 4 21 9 22 5 23
REMARK SMILES IDX 8 24 6 25 7 26 25 27 26 28 27 29 28 30 29 31 30 33 31 34
REMARK SMILES IDX 32 35 93 36 33 37 92 38 34 39 35 40 36 41 86 42 37 43 91 44
REMARK SMILES IDX 85 45 87 46 38 47 90 48 84 49 83 50 39 52 71 53 51 54 70 55
REMARK SMILES IDX 52 56 55 57 69 58 88 59 53 60 54 61 68 63 89 64 56 65 40 66
REMARK SMILES IDX 41 67 49 68 42 69 43 70 47 71 50 72 44 73 45 74 48 75 46 76
REMARK SMILES IDX 72 77 73 78 81 79 74 80 75 81 79 82 82 83 76 84 77 85 80 86
REMARK SMILES IDX 78 87 57 88 58 89 66 90 59 91 60 92 64 93 67 94 61 95 62 96
REMARK SMILES IDX 65 97 63 98
REMARK H PARENT 21 7 28 32 87 51 55 62
REMARK Flexibility Score: inf
ROOT
ATOM      1  C   UNL A   1      31.840  29.648  25.818  1.00  0.00     0.002 C 
ENDROOT
BRANCH   1   2
ATOM      2  C   UNL A   1      32.153  29.082  24.434  1.00  0.00     0.021 C 
BRANCH   2   3
ATOM      3  C   UNL A   1      33.545  28.503  24.212  1.00  0.00     0.116 C 
BRANCH   3   4
ATOM      4  N   UNL A   1      33.752  27.896  22.912  1.00  0.00    -0.352 N 
ATOM      5  C   UNL A   1      33.346  26.687  22.395  1.00  0.00     0.251 C 
ATOM      6  O   UNL A   1      33.641  26.442  21.224  1.00  0.00    -0.269 OA
ATOM      7  H   UNL A   1      34.276  28.447  22.288  1.00  0.00     0.163 HD
BRANCH   5   8
ATOM      8  C   UNL A   1      32.646  25.637  23.197  1.00  0.00     0.041 A 
ATOM      9  C   UNL A   1      32.584  23.782  24.736  1.00  0.00     0.088 A 
ATOM     10  C   UNL A   1      31.257  23.502  24.402  1.00  0.00     0.022 A 
ATOM     11  C   UNL A   1      33.232  24.915  24.237  1.00  0.00     0.036 A 
ATOM     12  C   UNL A   1      30.619  24.290  23.451  1.00  0.00     0.002 A 
ATOM     13  C   UNL A   1      31.323  25.326  22.828  1.00  0.00     0.014 A 
BRANCH   9  14
ATOM     14  S   UNL A   1      33.481  22.619  25.732  1.00  0.00     0.264 S 
ATOM     15  O   UNL A   1      32.501  21.843  26.461  1.00  0.00    -0.201 OA
ATOM     16  O   UNL A   1      34.501  23.366  26.450  1.00  0.00    -0.201 OA
BRANCH  14  17
ATOM     17  N   UNL A   1      34.321  21.564  24.643  1.00  0.00    -0.263 N 
ATOM     18  C   UNL A   1      36.637  22.346  24.124  1.00  0.00     0.032 C 
ATOM     19  C   UNL A   1      35.799  21.456  25.027  1.00  0.00     0.101 C 
ATOM     20  C   UNL A   1      36.189  19.966  24.912  1.00  0.00     0.063 C 
ATOM     21  C   UNL A   1      34.889  19.292  24.645  1.00  0.00    -0.021 A 
ATOM     22  C   UNL A   1      33.866  20.213  24.454  1.00  0.00     0.055 A 
ATOM     23  C   UNL A   1      34.676  17.925  24.491  1.00  0.00     0.006 A 
ATOM     24  C   UNL A   1      32.649  19.783  23.949  1.00  0.00     0.027 A 
ATOM     25  C   UNL A   1      33.413  17.486  24.095  1.00  0.00     0.000 A 
ATOM     26  C   UNL A   1      32.408  18.413  23.805  1.00  0.00     0.002 A 
ENDBRANCH  14  17
ENDBRANCH   9  14
ENDBRANCH   5   8
ENDBRANCH   3   4
ENDBRANCH   2   3
ENDBRANCH   1   2
BRANCH   1  27
ATOM     27  C   UNL A   1      31.475  31.131  25.900  1.00  0.00     0.002 C 
BRANCH  27  28
ATOM     28  C   UNL A   1      31.690  31.818  27.246  1.00  0.00     0.021 C 
BRANCH  28  29
ATOM     29  C   UNL A   1      32.871  32.777  27.330  1.00  0.00     0.116 C 
BRANCH  29  30
ATOM     30  N   UNL A   1      32.491  34.150  27.622  1.00  0.00    -0.352 N 
ATOM     31  C   UNL A   1      33.017  35.016  28.555  1.00  0.00     0.251 C 
ATOM     32  H   UNL A   1      31.756  34.512  27.077  1.00  0.00     0.163 HD
ATOM     33  O   UNL A   1      32.512  36.120  28.736  1.00  0.00    -0.269 OA
BRANCH  31  34
ATOM     34  C   UNL A   1      34.169  34.588  29.380  1.00  0.00     0.039 A 
ATOM     35  C   UNL A   1      35.462  34.594  28.855  1.00  0.00     0.014 A 
ATOM     36  C   UNL A   1      33.940  34.118  30.676  1.00  0.00     0.014 A 
ATOM     37  C   UNL A   1      36.485  33.952  29.543  1.00  0.00     0.010 A 
ATOM     38  C   UNL A   1      34.994  33.558  31.406  1.00  0.00     0.010 A 
ATOM     39  C   UNL A   1      36.262  33.414  30.822  1.00  0.00    -0.014 A 
BRANCH  39  40
ATOM     40  C   UNL A   1      37.362  32.690  31.515  1.00  0.00     0.031 A 
ATOM     41  C   UNL A   1      38.096  31.564  30.831  1.00  0.00     0.074 A 
ATOM     42  C   UNL A   1      37.737  33.085  32.747  1.00  0.00     0.049 A 
ATOM     43  N   UNL A   1      39.077  30.824  31.284  1.00  0.00    -0.248 NA
ATOM     44  C   UNL A   1      37.674  31.218  29.465  1.00  0.00     0.031 C 
ATOM     45  C   UNL A   1      37.111  34.165  33.511  1.00  0.00     0.029 A 
ATOM     46  N   UNL A   1      38.743  32.638  33.567  1.00  0.00    -0.354 N 
ATOM     47  C   UNL A   1      39.371  29.917  30.274  1.00  0.00     0.074 A 
ATOM     48  C   UNL A   1      38.450  30.179  29.190  1.00  0.00     0.031 C 
ATOM     49  C   UNL A   1      37.770  34.326  34.667  1.00  0.00     0.029 A 
ATOM     50  C   UNL A   1      38.822  33.318  34.759  1.00  0.00     0.049 A 
ATOM     51  H   UNL A   1      39.351  31.903  33.326  1.00  0.00     0.167 HD
ATOM     52  C   UNL A   1      40.332  28.962  30.250  1.00  0.00     0.037 A 
ATOM     53  C   UNL A   1      39.632  33.138  35.819  1.00  0.00     0.037 A 
ATOM     54  C   UNL A   1      41.276  28.732  31.313  1.00  0.00     0.049 A 
ATOM     55  C   UNL A   1      40.670  32.052  35.773  1.00  0.00     0.074 A 
ATOM     56  C   UNL A   1      42.317  27.821  31.355  1.00  0.00     0.029 A 
ATOM     57  N   UNL A   1      41.296  29.418  32.519  1.00  0.00    -0.354 N 
ATOM     58  N   UNL A   1      40.952  31.221  34.801  1.00  0.00    -0.248 NA
ATOM     59  C   UNL A   1      41.499  31.874  36.975  1.00  0.00     0.031 C 
ATOM     60  C   UNL A   1      42.933  27.917  32.605  1.00  0.00     0.029 A 
ATOM     61  C   UNL A   1      42.314  28.928  33.322  1.00  0.00     0.049 A 
ATOM     62  H   UNL A   1      40.681  30.145  32.767  1.00  0.00     0.167 HD
ATOM     63  C   UNL A   1      41.994  30.431  35.265  1.00  0.00     0.074 A 
ATOM     64  C   UNL A   1      42.314  30.899  36.597  1.00  0.00     0.031 C 
ATOM     65  C   UNL A   1      42.624  29.404  34.645  1.00  0.00     0.037 A 
BRANCH  52  66
ATOM     66  C   UNL A   1      40.432  28.078  29.041  1.00  0.00     0.064 A 
ATOM     67  C   UNL A   1      39.683  26.899  28.926  1.00  0.00     0.173 A 
ATOM     68  C   UNL A   1      41.197  28.480  27.934  1.00  0.00     0.173 A 
ATOM     69  F   UNL A   1      38.940  26.468  29.958  1.00  0.00    -0.203 F 
ATOM     70  C   UNL A   1      39.695  26.155  27.749  1.00  0.00     0.198 A 
ATOM     71  C   UNL A   1      41.187  27.748  26.751  1.00  0.00     0.198 A 
ATOM     72  F   UNL A   1      41.925  29.606  27.989  1.00  0.00    -0.203 F 
ATOM     73  F   UNL A   1      38.982  25.023  27.667  1.00  0.00    -0.200 F 
ATOM     74  C   UNL A   1      40.436  26.586  26.659  1.00  0.00     0.200 A 
ATOM     75  F   UNL A   1      41.890  28.177  25.693  1.00  0.00    -0.200 F 
ATOM     76  F   UNL A   1      40.423  25.884  25.517  1.00  0.00    -0.200 F 
ENDBRANCH  52  66
BRANCH  53  77
ATOM     77  C   UNL A   1      39.474  34.002  37.019  1.00  0.00     0.064 A 
ATOM     78  C   UNL A   1      40.050  35.278  37.075  1.00  0.00     0.173 A 
ATOM     79  C   UNL A   1      38.733  33.572  38.130  1.00  0.00     0.173 A 
ATOM     80  F   UNL A   1      40.786  35.726  36.047  1.00  0.00    -0.203 F 
ATOM     81  C   UNL A   1      39.899  36.087  38.199  1.00  0.00     0.198 A 
ATOM     82  C   UNL A   1      38.554  34.394  39.239  1.00  0.00     0.198 A 
ATOM     83  F   UNL A   1      38.158  32.360  38.126  1.00  0.00    -0.203 F 
ATOM     84  F   UNL A   1      40.492  37.287  38.243  1.00  0.00    -0.200 F 
ATOM     85  C   UNL A   1      39.143  35.648  39.276  1.00  0.00     0.200 A 
ATOM     86  F   UNL A   1      37.806  33.974  40.269  1.00  0.00    -0.200 F 
ATOM     87  F   UNL A   1      38.986  36.432  40.352  1.00  0.00    -0.200 F 
ENDBRANCH  53  77
BRANCH  65  88
ATOM     88  C   UNL A   1      43.730  28.715  35.388  1.00  0.00     0.064 A 
ATOM     89  C   UNL A   1      45.066  29.121  35.250  1.00  0.00     0.173 A 
ATOM     90  C   UNL A   1      43.445  27.690  36.302  1.00  0.00     0.173 A 
ATOM     91  F   UNL A   1      45.391  30.088  34.379  1.00  0.00    -0.203 F 
ATOM     92  C   UNL A   1      46.077  28.514  35.990  1.00  0.00     0.198 A 
ATOM     93  C   UNL A   1      44.454  27.107  37.063  1.00  0.00     0.198 A 
ATOM     94  F   UNL A   1      42.183  27.271  36.476  1.00  0.00    -0.203 F 
ATOM     95  F   UNL A   1      47.351  28.894  35.817  1.00  0.00    -0.200 F 
ATOM     96  C   UNL A   1      45.769  27.517  36.903  1.00  0.00     0.200 A 
ATOM     97  F   UNL A   1      44.154  26.155  37.957  1.00  0.00    -0.200 F 
ATOM     98  F   UNL A   1      46.743  26.948  37.628  1.00  0.00    -0.200 F 
ENDBRANCH  65  88
ENDBRANCH  39  40
ENDBRANCH  31  34
ENDBRANCH  29  30
ENDBRANCH  28  29
ENDBRANCH  27  28
ENDBRANCH   1  27
TORSDOF 15
ENDMDL
