MODEL 1
REMARK VINA RESULT:     -11.5      0.000      0.000
REMARK SMILES O=C(NCCCCCCNC(=O)[C@@H]1C[C@@H]2CC(=O)[C@H]1C2)c1ccc(-c2c3nc(c(-c4c(F)c(F)c(F)c(F)c4F)c4ccc([nH]4)c(-c4c(F)c(F)c(F)c(F)c4F)c4nc(c(-c5c(F)c(F)c(F)c(F)c5F)c5ccc2[nH]5)C=C4)C=C3)cc1
REMARK SMILES IDX 5 1 4 2 3 3 1 4 2 5 21 7 22 8 83 9 23 10 82 11 24 12 25 13
REMARK SMILES IDX 26 14 76 15 27 16 81 17 75 18 77 19 28 20 80 21 74 22 73 23
REMARK SMILES IDX 29 25 61 26 41 27 60 28 42 29 45 30 59 31 78 32 43 33 44 34
REMARK SMILES IDX 58 36 79 37 46 38 30 39 31 40 39 41 32 42 33 43 37 44 40 45
REMARK SMILES IDX 34 46 35 47 38 48 36 49 62 50 63 51 71 52 64 53 65 54 69 55
REMARK SMILES IDX 72 56 66 57 67 58 70 59 68 60 47 61 48 62 56 63 49 64 50 65
REMARK SMILES IDX 54 66 57 67 51 68 52 69 55 70 53 71 6 72 7 73 8 74 9 75
REMARK SMILES IDX 10 76 11 77 12 79 13 80 14 81 19 82 15 83 17 84 20 85 16 86
REMARK SMILES IDX 18 87
REMARK H PARENT 3 6 77 24 45 35 10 78
REMARK Flexibility Score: inf
ROOT
ATOM      1  C   UNL A   1      31.460  32.137  26.671  1.00  0.00     0.021 C 
ENDROOT
BRANCH   1   2
ATOM      2  C   UNL A   1      32.684  32.812  27.271  1.00  0.00     0.116 C 
BRANCH   2   3
ATOM      3  N   UNL A   1      32.426  34.196  27.632  1.00  0.00    -0.352 N 
ATOM      4  O   UNL A   1      32.560  36.039  28.935  1.00  0.00    -0.269 OA
ATOM      5  C   UNL A   1      33.009  34.940  28.624  1.00  0.00     0.251 C 
ATOM      6  H   UNL A   1      31.743  34.658  27.095  1.00  0.00     0.163 HD
BRANCH   5   7
ATOM      7  C   UNL A   1      34.191  34.399  29.327  1.00  0.00     0.039 A 
ATOM      8  C   UNL A   1      34.032  33.688  30.520  1.00  0.00     0.014 A 
ATOM      9  C   UNL A   1      35.461  34.591  28.781  1.00  0.00     0.014 A 
ATOM     10  C   UNL A   1      35.149  33.257  31.221  1.00  0.00     0.010 A 
ATOM     11  C   UNL A   1      36.579  34.079  29.442  1.00  0.00     0.010 A 
ATOM     12  C   UNL A   1      36.429  33.408  30.666  1.00  0.00    -0.014 A 
BRANCH  12  13
ATOM     13  C   UNL A   1      37.578  32.724  31.305  1.00  0.00     0.031 A 
ATOM     14  C   UNL A   1      38.260  31.558  30.655  1.00  0.00     0.074 A 
ATOM     15  C   UNL A   1      37.981  33.171  32.511  1.00  0.00     0.049 A 
ATOM     16  N   UNL A   1      39.244  30.825  31.112  1.00  0.00    -0.248 NA
ATOM     17  C   UNL A   1      37.777  31.152  29.326  1.00  0.00     0.031 C 
ATOM     18  C   UNL A   1      37.372  34.290  33.238  1.00  0.00     0.029 A 
ATOM     19  N   UNL A   1      38.986  32.749  33.341  1.00  0.00    -0.354 N 
ATOM     20  C   UNL A   1      39.484  29.861  30.143  1.00  0.00     0.074 A 
ATOM     21  C   UNL A   1      38.536  30.093  29.073  1.00  0.00     0.031 C 
ATOM     22  C   UNL A   1      38.024  34.475  34.393  1.00  0.00     0.029 A 
ATOM     23  C   UNL A   1      39.044  33.443  34.525  1.00  0.00     0.049 A 
ATOM     24  H   UNL A   1      39.605  32.018  33.112  1.00  0.00     0.167 HD
ATOM     25  C   UNL A   1      40.413  28.875  30.157  1.00  0.00     0.037 A 
ATOM     26  C   UNL A   1      39.802  33.245  35.618  1.00  0.00     0.037 A 
ATOM     27  C   UNL A   1      41.361  28.673  31.225  1.00  0.00     0.049 A 
ATOM     28  C   UNL A   1      40.791  32.115  35.614  1.00  0.00     0.074 A 
ATOM     29  C   UNL A   1      42.396  27.757  31.292  1.00  0.00     0.029 A 
ATOM     30  N   UNL A   1      41.377  29.383  32.417  1.00  0.00    -0.354 N 
ATOM     31  N   UNL A   1      41.067  31.263  34.656  1.00  0.00    -0.248 NA
ATOM     32  C   UNL A   1      41.568  31.910  36.842  1.00  0.00     0.031 C 
ATOM     33  C   UNL A   1      42.991  27.861  32.552  1.00  0.00     0.029 A 
ATOM     34  C   UNL A   1      42.370  28.886  33.247  1.00  0.00     0.049 A 
ATOM     35  H   UNL A   1      40.773  30.127  32.640  1.00  0.00     0.167 HD
ATOM     36  C   UNL A   1      42.053  30.430  35.162  1.00  0.00     0.074 A 
ATOM     37  C   UNL A   1      42.353  30.900  36.498  1.00  0.00     0.031 C 
ATOM     38  C   UNL A   1      42.651  29.364  34.576  1.00  0.00     0.037 A 
BRANCH  25  39
ATOM     39  C   UNL A   1      40.455  27.913  29.007  1.00  0.00     0.064 A 
ATOM     40  C   UNL A   1      39.678  26.747  28.986  1.00  0.00     0.173 A 
ATOM     41  C   UNL A   1      41.201  28.226  27.859  1.00  0.00     0.173 A 
ATOM     42  F   UNL A   1      38.952  26.400  30.059  1.00  0.00    -0.203 F 
ATOM     43  C   UNL A   1      39.648  25.927  27.859  1.00  0.00     0.198 A 
ATOM     44  C   UNL A   1      41.148  27.418  26.726  1.00  0.00     0.198 A 
ATOM     45  F   UNL A   1      41.956  29.334  27.824  1.00  0.00    -0.203 F 
ATOM     46  F   UNL A   1      38.910  24.808  27.867  1.00  0.00    -0.200 F 
ATOM     47  C   UNL A   1      40.372  26.269  26.727  1.00  0.00     0.200 A 
ATOM     48  F   UNL A   1      41.836  27.761  25.628  1.00  0.00    -0.200 F 
ATOM     49  F   UNL A   1      40.321  25.493  25.635  1.00  0.00    -0.200 F 
ENDBRANCH  25  39
BRANCH  26  50
ATOM     50  C   UNL A   1      39.614  34.096  36.822  1.00  0.00     0.064 A 
ATOM     51  C   UNL A   1      40.256  35.335  36.944  1.00  0.00     0.173 A 
ATOM     52  C   UNL A   1      38.805  33.674  37.890  1.00  0.00     0.173 A 
ATOM     53  F   UNL A   1      41.052  35.776  35.959  1.00  0.00    -0.203 F 
ATOM     54  C   UNL A   1      40.126  36.102  38.100  1.00  0.00     0.198 A 
ATOM     55  C   UNL A   1      38.645  34.459  39.028  1.00  0.00     0.198 A 
ATOM     56  F   UNL A   1      38.162  32.499  37.823  1.00  0.00    -0.203 F 
ATOM     57  F   UNL A   1      40.804  37.252  38.217  1.00  0.00    -0.200 F 
ATOM     58  C   UNL A   1      39.317  35.666  39.139  1.00  0.00     0.200 A 
ATOM     59  F   UNL A   1      37.845  34.043  40.019  1.00  0.00    -0.200 F 
ATOM     60  F   UNL A   1      39.194  36.403  40.251  1.00  0.00    -0.200 F 
ENDBRANCH  26  50
BRANCH  38  61
ATOM     61  C   UNL A   1      43.693  28.640  35.376  1.00  0.00     0.064 A 
ATOM     62  C   UNL A   1      45.041  29.028  35.340  1.00  0.00     0.173 A 
ATOM     63  C   UNL A   1      43.336  27.577  36.219  1.00  0.00     0.173 A 
ATOM     64  F   UNL A   1      45.436  30.024  34.533  1.00  0.00    -0.203 F 
ATOM     65  C   UNL A   1      45.997  28.363  36.104  1.00  0.00     0.198 A 
ATOM     66  C   UNL A   1      44.287  26.938  37.007  1.00  0.00     0.198 A 
ATOM     67  F   UNL A   1      42.059  27.171  36.292  1.00  0.00    -0.203 F 
ATOM     68  F   UNL A   1      47.285  28.718  36.018  1.00  0.00    -0.200 F 
ATOM     69  C   UNL A   1      45.617  27.327  36.944  1.00  0.00     0.200 A 
ATOM     70  F   UNL A   1      43.918  25.948  37.829  1.00  0.00    -0.200 F 
ATOM     71  F   UNL A   1      46.536  26.698  37.688  1.00  0.00    -0.200 F 
ENDBRANCH  38  61
ENDBRANCH  12  13
ENDBRANCH   5   7
ENDBRANCH   2   3
ENDBRANCH   1   2
BRANCH   1  72
ATOM     72  C   UNL A   1      31.707  30.710  26.185  1.00  0.00     0.002 C 
BRANCH  72  73
ATOM     73  C   UNL A   1      32.140  29.726  27.276  1.00  0.00     0.002 C 
BRANCH  73  74
ATOM     74  C   UNL A   1      33.568  29.186  27.135  1.00  0.00     0.021 C 
BRANCH  74  75
ATOM     75  C   UNL A   1      33.827  28.413  25.845  1.00  0.00     0.116 C 
BRANCH  75  76
ATOM     76  N   UNL A   1      33.662  26.989  26.046  1.00  0.00    -0.356 N 
ATOM     77  C   UNL A   1      32.542  26.226  25.954  1.00  0.00     0.223 C 
ATOM     78  H   UNL A   1      34.483  26.502  26.287  1.00  0.00     0.163 HD
ATOM     79  O   UNL A   1      32.611  25.037  26.257  1.00  0.00    -0.275 OA
BRANCH  77  80
ATOM     80  C   UNL A   1      31.256  26.876  25.466  1.00  0.00     0.089 C 
ATOM     81  C   UNL A   1      30.022  25.939  25.560  1.00  0.00     0.018 C 
ATOM     82  C   UNL A   1      31.298  27.212  23.963  1.00  0.00     0.069 C 
ATOM     83  C   UNL A   1      29.566  25.797  24.093  1.00  0.00    -0.002 C 
ATOM     84  C   UNL A   1      31.719  25.947  23.243  1.00  0.00     0.137 C 
ATOM     85  C   UNL A   1      29.821  27.212  23.569  1.00  0.00     0.016 C 
ATOM     86  C   UNL A   1      30.586  24.950  23.297  1.00  0.00     0.079 C 
ATOM     87  O   UNL A   1      32.807  25.771  22.717  1.00  0.00    -0.299 OA
ENDBRANCH  77  80
ENDBRANCH  75  76
ENDBRANCH  74  75
ENDBRANCH  73  74
ENDBRANCH  72  73
ENDBRANCH   1  72
TORSDOF 13
ENDMDL
MODEL 2
REMARK VINA RESULT:     -11.5      0.643      2.180
REMARK SMILES O=C(NCCCCCCNC(=O)[C@@H]1C[C@@H]2CC(=O)[C@H]1C2)c1ccc(-c2c3nc(c(-c4c(F)c(F)c(F)c(F)c4F)c4ccc([nH]4)c(-c4c(F)c(F)c(F)c(F)c4F)c4nc(c(-c5c(F)c(F)c(F)c(F)c5F)c5ccc2[nH]5)C=C4)C=C3)cc1
REMARK SMILES IDX 5 1 4 2 3 3 1 4 2 5 21 7 22 8 83 9 23 10 82 11 24 12 25 13
REMARK SMILES IDX 26 14 76 15 27 16 81 17 75 18 77 19 28 20 80 21 74 22 73 23
REMARK SMILES IDX 29 25 61 26 41 27 60 28 42 29 45 30 59 31 78 32 43 33 44 34
REMARK SMILES IDX 58 36 79 37 46 38 30 39 31 40 39 41 32 42 33 43 37 44 40 45
REMARK SMILES IDX 34 46 35 47 38 48 36 49 62 50 63 51 71 52 64 53 65 54 69 55
REMARK SMILES IDX 72 56 66 57 67 58 70 59 68 60 47 61 48 62 56 63 49 64 50 65
REMARK SMILES IDX 54 66 57 67 51 68 52 69 55 70 53 71 6 72 7 73 8 74 9 75
REMARK SMILES IDX 10 76 11 77 12 79 13 80 14 81 19 82 15 83 17 84 20 85 16 86
REMARK SMILES IDX 18 87
REMARK H PARENT 3 6 77 24 45 35 10 78
REMARK Flexibility Score: inf
ROOT
ATOM      1  C   UNL A   1      31.477  32.319  26.637  1.00  0.00     0.021 C 
ENDROOT
BRANCH   1   2
ATOM      2  C   UNL A   1      32.700  32.982  27.253  1.00  0.00     0.116 C 
BRANCH   2   3
ATOM      3  N   UNL A   1      32.424  34.338  27.696  1.00  0.00    -0.352 N 
ATOM      4  O   UNL A   1      32.536  36.101  29.108  1.00  0.00    -0.269 OA
ATOM      5  C   UNL A   1      32.999  35.029  28.732  1.00  0.00     0.251 C 
ATOM      6  H   UNL A   1      31.735  34.823  27.188  1.00  0.00     0.163 HD
BRANCH   5   7
ATOM      7  C   UNL A   1      34.188  34.462  29.400  1.00  0.00     0.039 A 
ATOM      8  C   UNL A   1      34.048  33.761  30.603  1.00  0.00     0.014 A 
ATOM      9  C   UNL A   1      35.445  34.620  28.815  1.00  0.00     0.014 A 
ATOM     10  C   UNL A   1      35.176  33.305  31.270  1.00  0.00     0.010 A 
ATOM     11  C   UNL A   1      36.570  34.083  29.443  1.00  0.00     0.010 A 
ATOM     12  C   UNL A   1      36.442  33.422  30.675  1.00  0.00    -0.014 A 
BRANCH  12  13
ATOM     13  C   UNL A   1      37.593  32.712  31.282  1.00  0.00     0.031 A 
ATOM     14  C   UNL A   1      38.250  31.550  30.599  1.00  0.00     0.074 A 
ATOM     15  C   UNL A   1      38.021  33.132  32.489  1.00  0.00     0.049 A 
ATOM     16  N   UNL A   1      39.231  30.798  31.027  1.00  0.00    -0.248 NA
ATOM     17  C   UNL A   1      37.739  31.175  29.271  1.00  0.00     0.031 C 
ATOM     18  C   UNL A   1      37.437  34.244  33.247  1.00  0.00     0.029 A 
ATOM     19  N   UNL A   1      39.034  32.683  33.295  1.00  0.00    -0.354 N 
ATOM     20  C   UNL A   1      39.443  29.849  30.036  1.00  0.00     0.074 A 
ATOM     21  C   UNL A   1      38.481  30.112  28.986  1.00  0.00     0.031 C 
ATOM     22  C   UNL A   1      38.111  34.400  34.393  1.00  0.00     0.029 A 
ATOM     23  C   UNL A   1      39.121  33.354  34.490  1.00  0.00     0.049 A 
ATOM     24  H   UNL A   1      39.640  31.949  33.042  1.00  0.00     0.167 HD
ATOM     25  C   UNL A   1      40.361  28.852  30.017  1.00  0.00     0.037 A 
ATOM     26  C   UNL A   1      39.894  33.127  35.566  1.00  0.00     0.037 A 
ATOM     27  C   UNL A   1      41.324  28.618  31.065  1.00  0.00     0.049 A 
ATOM     28  C   UNL A   1      40.869  31.985  35.525  1.00  0.00     0.074 A 
ATOM     29  C   UNL A   1      42.348  27.689  31.097  1.00  0.00     0.029 A 
ATOM     30  N   UNL A   1      41.368  29.306  32.268  1.00  0.00    -0.354 N 
ATOM     31  N   UNL A   1      41.118  31.148  34.547  1.00  0.00    -0.248 NA
ATOM     32  C   UNL A   1      41.664  31.749  36.736  1.00  0.00     0.031 C 
ATOM     33  C   UNL A   1      42.965  27.762  32.349  1.00  0.00     0.029 A 
ATOM     34  C   UNL A   1      42.368  28.782  33.073  1.00  0.00     0.049 A 
ATOM     35  H   UNL A   1      40.777  30.053  32.515  1.00  0.00     0.167 HD
ATOM     36  C   UNL A   1      42.103  30.294  35.021  1.00  0.00     0.074 A 
ATOM     37  C   UNL A   1      42.430  30.735  36.360  1.00  0.00     0.031 C 
ATOM     38  C   UNL A   1      42.677  29.232  34.406  1.00  0.00     0.037 A 
BRANCH  25  39
ATOM     39  C   UNL A   1      40.372  27.910  28.849  1.00  0.00     0.064 A 
ATOM     40  C   UNL A   1      41.145  28.155  27.706  1.00  0.00     0.173 A 
ATOM     41  C   UNL A   1      39.686  26.687  28.927  1.00  0.00     0.173 A 
ATOM     42  F   UNL A   1      41.815  29.310  27.578  1.00  0.00    -0.203 F 
ATOM     43  C   UNL A   1      41.228  27.213  26.682  1.00  0.00     0.198 A 
ATOM     44  C   UNL A   1      39.793  25.737  27.915  1.00  0.00     0.198 A 
ATOM     45  F   UNL A   1      38.938  26.399  30.003  1.00  0.00    -0.203 F 
ATOM     46  F   UNL A   1      41.960  27.475  25.591  1.00  0.00    -0.200 F 
ATOM     47  C   UNL A   1      40.563  26.001  26.793  1.00  0.00     0.200 A 
ATOM     48  F   UNL A   1      39.162  24.561  28.033  1.00  0.00    -0.200 F 
ATOM     49  F   UNL A   1      40.666  25.085  25.820  1.00  0.00    -0.200 F 
ENDBRANCH  25  39
BRANCH  26  50
ATOM     50  C   UNL A   1      39.736  33.958  36.788  1.00  0.00     0.064 A 
ATOM     51  C   UNL A   1      38.903  33.553  37.840  1.00  0.00     0.173 A 
ATOM     52  C   UNL A   1      40.397  35.190  36.918  1.00  0.00     0.173 A 
ATOM     53  F   UNL A   1      38.237  32.392  37.757  1.00  0.00    -0.203 F 
ATOM     54  C   UNL A   1      38.708  34.364  38.956  1.00  0.00     0.198 A 
ATOM     55  C   UNL A   1      40.233  35.981  38.052  1.00  0.00     0.198 A 
ATOM     56  F   UNL A   1      41.212  35.623  35.945  1.00  0.00    -0.203 F 
ATOM     57  F   UNL A   1      37.855  33.982  39.916  1.00  0.00    -0.200 F 
ATOM     58  C   UNL A   1      39.377  35.574  39.064  1.00  0.00     0.200 A 
ATOM     59  F   UNL A   1      40.897  37.139  38.160  1.00  0.00    -0.200 F 
ATOM     60  F   UNL A   1      39.188  36.354  40.136  1.00  0.00    -0.200 F 
ENDBRANCH  26  50
BRANCH  38  61
ATOM     61  C   UNL A   1      43.724  28.481  35.175  1.00  0.00     0.064 A 
ATOM     62  C   UNL A   1      43.393  27.374  35.969  1.00  0.00     0.173 A 
ATOM     63  C   UNL A   1      45.076  28.845  35.083  1.00  0.00     0.173 A 
ATOM     64  F   UNL A   1      42.111  26.999  36.106  1.00  0.00    -0.203 F 
ATOM     65  C   UNL A   1      44.375  26.670  36.660  1.00  0.00     0.198 A 
ATOM     66  C   UNL A   1      46.058  28.119  35.747  1.00  0.00     0.198 A 
ATOM     67  F   UNL A   1      45.444  29.895  34.333  1.00  0.00    -0.203 F 
ATOM     68  F   UNL A   1      44.031  25.645  37.451  1.00  0.00    -0.200 F 
ATOM     69  C   UNL A   1      45.707  27.037  36.540  1.00  0.00     0.200 A 
ATOM     70  F   UNL A   1      47.346  28.465  35.619  1.00  0.00    -0.200 F 
ATOM     71  F   UNL A   1      46.653  26.350  37.196  1.00  0.00    -0.200 F 
ENDBRANCH  38  61
ENDBRANCH  12  13
ENDBRANCH   5   7
ENDBRANCH   2   3
ENDBRANCH   1   2
BRANCH   1  72
ATOM     72  C   UNL A   1      31.556  30.795  26.575  1.00  0.00     0.002 C 
BRANCH  72  73
ATOM     73  C   UNL A   1      32.931  30.209  26.908  1.00  0.00     0.002 C 
BRANCH  73  74
ATOM     74  C   UNL A   1      32.920  28.752  27.384  1.00  0.00     0.021 C 
BRANCH  74  75
ATOM     75  C   UNL A   1      31.526  28.158  27.564  1.00  0.00     0.116 C 
BRANCH  75  76
ATOM     76  N   UNL A   1      31.440  26.838  26.974  1.00  0.00    -0.356 N 
ATOM     77  C   UNL A   1      31.034  26.471  25.731  1.00  0.00     0.223 C 
ATOM     78  H   UNL A   1      31.715  26.098  27.562  1.00  0.00     0.163 HD
ATOM     79  O   UNL A   1      30.954  25.274  25.466  1.00  0.00    -0.275 OA
BRANCH  77  80
ATOM     80  C   UNL A   1      30.712  27.560  24.719  1.00  0.00     0.089 C 
ATOM     81  C   UNL A   1      29.874  27.049  23.517  1.00  0.00     0.018 C 
ATOM     82  C   UNL A   1      31.972  28.116  24.028  1.00  0.00     0.069 C 
ATOM     83  C   UNL A   1      30.793  27.306  22.304  1.00  0.00    -0.002 C 
ATOM     84  C   UNL A   1      32.743  26.923  23.499  1.00  0.00     0.137 C 
ATOM     85  C   UNL A   1      31.431  28.639  22.698  1.00  0.00     0.016 C 
ATOM     86  C   UNL A   1      31.994  26.332  22.328  1.00  0.00     0.079 C 
ATOM     87  O   UNL A   1      33.795  26.511  23.962  1.00  0.00    -0.299 OA
ENDBRANCH  77  80
ENDBRANCH  75  76
ENDBRANCH  74  75
ENDBRANCH  73  74
ENDBRANCH  72  73
ENDBRANCH   1  72
TORSDOF 13
ENDMDL
MODEL 3
REMARK VINA RESULT:     -11.4      1.001      1.517
REMARK SMILES O=C(NCCCCCCNC(=O)[C@@H]1C[C@@H]2CC(=O)[C@H]1C2)c1ccc(-c2c3nc(c(-c4c(F)c(F)c(F)c(F)c4F)c4ccc([nH]4)c(-c4c(F)c(F)c(F)c(F)c4F)c4nc(c(-c5c(F)c(F)c(F)c(F)c5F)c5ccc2[nH]5)C=C4)C=C3)cc1
REMARK SMILES IDX 5 1 4 2 3 3 1 4 2 5 21 7 22 8 83 9 23 10 82 11 24 12 25 13
REMARK SMILES IDX 26 14 76 15 27 16 81 17 75 18 77 19 28 20 80 21 74 22 73 23
REMARK SMILES IDX 29 25 61 26 41 27 60 28 42 29 45 30 59 31 78 32 43 33 44 34
REMARK SMILES IDX 58 36 79 37 46 38 30 39 31 40 39 41 32 42 33 43 37 44 40 45
REMARK SMILES IDX 34 46 35 47 38 48 36 49 62 50 63 51 71 52 64 53 65 54 69 55
REMARK SMILES IDX 72 56 66 57 67 58 70 59 68 60 47 61 48 62 56 63 49 64 50 65
REMARK SMILES IDX 54 66 57 67 51 68 52 69 55 70 53 71 6 72 7 73 8 74 9 75
REMARK SMILES IDX 10 76 11 77 12 79 13 80 14 81 19 82 15 83 17 84 20 85 16 86
REMARK SMILES IDX 18 87
REMARK H PARENT 3 6 77 24 45 35 10 78
REMARK Flexibility Score: inf
ROOT
ATOM      1  C   UNL A   1      31.445  32.099  26.708  1.00  0.00     0.021 C 
ENDROOT
BRANCH   1   2
ATOM      2  C   UNL A   1      32.678  32.775  27.291  1.00  0.00     0.116 C 
BRANCH   2   3
ATOM      3  N   UNL A   1      32.432  34.167  27.630  1.00  0.00    -0.352 N 
ATOM      4  O   UNL A   1      32.581  36.028  28.904  1.00  0.00    -0.269 OA
ATOM      5  C   UNL A   1      33.021  34.921  28.612  1.00  0.00     0.251 C 
ATOM      6  H   UNL A   1      31.755  34.627  27.084  1.00  0.00     0.163 HD
BRANCH   5   7
ATOM      7  C   UNL A   1      34.196  34.379  29.325  1.00  0.00     0.039 A 
ATOM      8  C   UNL A   1      34.026  33.677  30.522  1.00  0.00     0.014 A 
ATOM      9  C   UNL A   1      35.470  34.563  28.786  1.00  0.00     0.014 A 
ATOM     10  C   UNL A   1      35.138  33.245  31.232  1.00  0.00     0.010 A 
ATOM     11  C   UNL A   1      36.582  34.050  29.457  1.00  0.00     0.010 A 
ATOM     12  C   UNL A   1      36.422  33.388  30.684  1.00  0.00    -0.014 A 
BRANCH  12  13
ATOM     13  C   UNL A   1      37.564  32.703  31.335  1.00  0.00     0.031 A 
ATOM     14  C   UNL A   1      38.254  31.539  30.690  1.00  0.00     0.074 A 
ATOM     15  C   UNL A   1      37.953  33.148  32.546  1.00  0.00     0.049 A 
ATOM     16  N   UNL A   1      39.233  30.806  31.157  1.00  0.00    -0.248 NA
ATOM     17  C   UNL A   1      37.786  31.135  29.355  1.00  0.00     0.031 C 
ATOM     18  C   UNL A   1      37.334  34.265  33.269  1.00  0.00     0.029 A 
ATOM     19  N   UNL A   1      38.949  32.725  33.387  1.00  0.00    -0.354 N 
ATOM     20  C   UNL A   1      39.484  29.844  30.189  1.00  0.00     0.074 A 
ATOM     21  C   UNL A   1      38.549  30.077  29.109  1.00  0.00     0.031 C 
ATOM     22  C   UNL A   1      37.974  34.448  34.431  1.00  0.00     0.029 A 
ATOM     23  C   UNL A   1      38.993  33.417  34.573  1.00  0.00     0.049 A 
ATOM     24  H   UNL A   1      39.570  31.995  33.164  1.00  0.00     0.167 HD
ATOM     25  C   UNL A   1      40.414  28.858  30.212  1.00  0.00     0.037 A 
ATOM     26  C   UNL A   1      39.739  33.217  35.675  1.00  0.00     0.037 A 
ATOM     27  C   UNL A   1      41.350  28.655  31.290  1.00  0.00     0.049 A 
ATOM     28  C   UNL A   1      40.728  32.087  35.679  1.00  0.00     0.074 A 
ATOM     29  C   UNL A   1      42.385  27.740  31.367  1.00  0.00     0.029 A 
ATOM     30  N   UNL A   1      41.352  29.362  32.483  1.00  0.00    -0.354 N 
ATOM     31  N   UNL A   1      41.015  31.238  34.723  1.00  0.00    -0.248 NA
ATOM     32  C   UNL A   1      41.492  31.881  36.916  1.00  0.00     0.031 C 
ATOM     33  C   UNL A   1      42.965  27.841  32.634  1.00  0.00     0.029 A 
ATOM     34  C   UNL A   1      42.335  28.864  33.324  1.00  0.00     0.049 A 
ATOM     35  H   UNL A   1      40.745  30.106  32.701  1.00  0.00     0.167 HD
ATOM     36  C   UNL A   1      41.997  30.405  35.238  1.00  0.00     0.074 A 
ATOM     37  C   UNL A   1      42.281  30.872  36.578  1.00  0.00     0.031 C 
ATOM     38  C   UNL A   1      42.601  29.340  34.657  1.00  0.00     0.037 A 
BRANCH  25  39
ATOM     39  C   UNL A   1      40.470  27.898  29.061  1.00  0.00     0.064 A 
ATOM     40  C   UNL A   1      39.685  26.738  29.023  1.00  0.00     0.173 A 
ATOM     41  C   UNL A   1      41.237  28.209  27.926  1.00  0.00     0.173 A 
ATOM     42  F   UNL A   1      38.939  26.392  30.083  1.00  0.00    -0.203 F 
ATOM     43  C   UNL A   1      39.670  25.920  27.895  1.00  0.00     0.198 A 
ATOM     44  C   UNL A   1      41.198  27.404  26.790  1.00  0.00     0.198 A 
ATOM     45  F   UNL A   1      41.999  29.313  27.906  1.00  0.00    -0.203 F 
ATOM     46  F   UNL A   1      38.925  24.806  27.887  1.00  0.00    -0.200 F 
ATOM     47  C   UNL A   1      40.415  26.260  26.775  1.00  0.00     0.200 A 
ATOM     48  F   UNL A   1      41.907  27.745  25.705  1.00  0.00    -0.200 F 
ATOM     49  F   UNL A   1      40.377  25.487  25.681  1.00  0.00    -0.200 F 
ENDBRANCH  25  39
BRANCH  26  50
ATOM     50  C   UNL A   1      39.536  34.066  36.878  1.00  0.00     0.064 A 
ATOM     51  C   UNL A   1      40.158  35.315  36.999  1.00  0.00     0.173 A 
ATOM     52  C   UNL A   1      38.735  33.631  37.946  1.00  0.00     0.173 A 
ATOM     53  F   UNL A   1      40.947  35.768  36.014  1.00  0.00    -0.203 F 
ATOM     54  C   UNL A   1      40.016  36.080  38.155  1.00  0.00     0.198 A 
ATOM     55  C   UNL A   1      38.561  34.414  39.083  1.00  0.00     0.198 A 
ATOM     56  F   UNL A   1      38.110  32.446  37.879  1.00  0.00    -0.203 F 
ATOM     57  F   UNL A   1      40.675  37.241  38.271  1.00  0.00    -0.200 F 
ATOM     58  C   UNL A   1      39.214  35.631  39.193  1.00  0.00     0.200 A 
ATOM     59  F   UNL A   1      37.768  33.985  40.074  1.00  0.00    -0.200 F 
ATOM     60  F   UNL A   1      39.079  36.367  40.305  1.00  0.00    -0.200 F 
ENDBRANCH  26  50
BRANCH  38  61
ATOM     61  C   UNL A   1      43.635  28.615  35.467  1.00  0.00     0.064 A 
ATOM     62  C   UNL A   1      44.989  28.978  35.416  1.00  0.00     0.173 A 
ATOM     63  C   UNL A   1      43.264  27.577  36.334  1.00  0.00     0.173 A 
ATOM     64  F   UNL A   1      45.398  29.950  34.586  1.00  0.00    -0.203 F 
ATOM     65  C   UNL A   1      45.937  28.313  36.189  1.00  0.00     0.198 A 
ATOM     66  C   UNL A   1      44.208  26.938  37.131  1.00  0.00     0.198 A 
ATOM     67  F   UNL A   1      41.980  27.195  36.422  1.00  0.00    -0.203 F 
ATOM     68  F   UNL A   1      47.232  28.644  36.089  1.00  0.00    -0.200 F 
ATOM     69  C   UNL A   1      45.544  27.303  37.053  1.00  0.00     0.200 A 
ATOM     70  F   UNL A   1      43.826  25.972  37.977  1.00  0.00    -0.200 F 
ATOM     71  F   UNL A   1      46.456  26.673  37.806  1.00  0.00    -0.200 F 
ENDBRANCH  38  61
ENDBRANCH  12  13
ENDBRANCH   5   7
ENDBRANCH   2   3
ENDBRANCH   1   2
BRANCH   1  72
ATOM     72  C   UNL A   1      31.704  30.703  26.146  1.00  0.00     0.002 C 
BRANCH  72  73
ATOM     73  C   UNL A   1      31.958  29.622  27.202  1.00  0.00     0.002 C 
BRANCH  73  74
ATOM     74  C   UNL A   1      32.168  28.208  26.648  1.00  0.00     0.021 C 
BRANCH  74  75
ATOM     75  C   UNL A   1      33.513  27.994  25.958  1.00  0.00     0.116 C 
BRANCH  75  76
ATOM     76  N   UNL A   1      33.342  27.376  24.660  1.00  0.00    -0.356 N 
ATOM     77  C   UNL A   1      33.770  26.166  24.215  1.00  0.00     0.223 C 
ATOM     78  H   UNL A   1      32.842  27.912  24.003  1.00  0.00     0.163 HD
ATOM     79  O   UNL A   1      33.591  25.874  23.035  1.00  0.00    -0.275 OA
BRANCH  77  80
ATOM     80  C   UNL A   1      34.442  25.223  25.202  1.00  0.00     0.089 C 
ATOM     81  C   UNL A   1      35.148  24.022  24.518  1.00  0.00     0.018 C 
ATOM     82  C   UNL A   1      33.430  24.522  26.130  1.00  0.00     0.069 C 
ATOM     83  C   UNL A   1      34.399  22.796  25.082  1.00  0.00    -0.002 C 
ATOM     84  C   UNL A   1      32.370  23.909  25.238  1.00  0.00     0.137 C 
ATOM     85  C   UNL A   1      34.159  23.239  26.526  1.00  0.00     0.016 C 
ATOM     86  C   UNL A   1      32.967  22.732  24.502  1.00  0.00     0.079 C 
ATOM     87  O   UNL A   1      31.224  24.315  25.134  1.00  0.00    -0.299 OA
ENDBRANCH  77  80
ENDBRANCH  75  76
ENDBRANCH  74  75
ENDBRANCH  73  74
ENDBRANCH  72  73
ENDBRANCH   1  72
TORSDOF 13
ENDMDL
