MODEL 1
REMARK VINA RESULT:     -12.2      0.000      0.000
REMARK SMILES CCc1n[nH]c(C(=O)N[C@@]2(C(=O)NCCCCCCNC(=O)c3ccc(-c4c5nc(c(-c6c(F)c(F)c(F)c(F)c6F)c6ccc([nH]6)c(-c6c(F)c(F)c(F)c(F)c6F)c6nc(c(-c7c(F)c(F)c(F)c(F)c7F)c7ccc4[nH]7)C=C6)C=C5)cc3)CCCC[C@H]2C)n1
REMARK SMILES IDX 16 1 15 2 14 3 13 4 11 5 12 6 10 8 86 9 90 10 87 11 89 12
REMARK SMILES IDX 91 13 88 14 9 15 7 16 8 17 6 19 3 20 4 21 92 22 5 23 2 25
REMARK SMILES IDX 1 26 17 27 18 28 19 29 20 30 21 31 22 33 23 34 24 35 85 36
REMARK SMILES IDX 25 37 84 38 26 39 27 40 28 41 78 42 29 43 83 44 77 45 79 46
REMARK SMILES IDX 30 47 82 48 76 49 75 50 31 52 63 53 43 54 62 55 44 56 47 57
REMARK SMILES IDX 61 58 80 59 45 60 46 61 60 63 81 64 48 65 32 66 33 67 41 68
REMARK SMILES IDX 34 69 35 70 39 71 42 72 36 73 37 74 40 75 38 76 64 77 65 78
REMARK SMILES IDX 73 79 66 80 67 81 71 82 74 83 68 84 69 85 72 86 70 87 49 88
REMARK SMILES IDX 50 89 58 90 51 91 52 92 56 93 59 94 53 95 54 96 57 97 55 98
REMARK H PARENT 13 7 9 18 5 24 20 32 79 51 47 62
REMARK Flexibility Score: inf
ROOT
ATOM      1  C   UNL A   1      37.354  22.050  25.502  1.00  0.00     0.002 C 
ENDROOT
BRANCH   1   2
ATOM      2  C   UNL A   1      36.480  20.844  25.175  1.00  0.00     0.021 C 
BRANCH   2   3
ATOM      3  C   UNL A   1      35.233  21.168  24.369  1.00  0.00     0.116 C 
BRANCH   3   4
ATOM      4  N   UNL A   1      34.055  20.424  24.773  1.00  0.00    -0.354 N 
ATOM      5  C   UNL A   1      32.830  20.888  25.181  1.00  0.00     0.246 C 
ATOM      6  O   UNL A   1      31.947  20.048  25.387  1.00  0.00    -0.272 OA
ATOM      7  H   UNL A   1      34.148  19.444  24.751  1.00  0.00     0.163 HD
BRANCH   5   8
ATOM      8  C   UNL A   1      32.569  22.425  25.452  1.00  0.00     0.122 C 
ATOM      9  C   UNL A   1      32.366  23.114  24.083  1.00  0.00     0.039 C 
ATOM     10  C   UNL A   1      33.781  22.914  26.302  1.00  0.00     0.021 C 
ATOM     11  C   UNL A   1      33.287  24.294  23.740  1.00  0.00     0.003 C 
ATOM     12  C   UNL A   1      33.925  24.425  26.261  1.00  0.00     0.006 C 
ATOM     13  C   UNL A   1      33.785  22.390  27.747  1.00  0.00     0.011 C 
ATOM     14  C   UNL A   1      34.162  24.905  24.837  1.00  0.00     0.000 C 
BRANCH   8  15
ATOM     15  N   UNL A   1      31.309  22.447  26.267  1.00  0.00    -0.335 N 
ATOM     16  C   UNL A   1      30.415  23.390  26.720  1.00  0.00     0.289 C 
ATOM     17  O   UNL A   1      29.537  22.987  27.487  1.00  0.00    -0.266 OA
ATOM     18  H   UNL A   1      31.054  21.541  26.557  1.00  0.00     0.165 HD
BRANCH  16  19
ATOM     19  C   UNL A   1      30.411  24.767  26.275  1.00  0.00     0.214 A 
ATOM     20  C   UNL A   1      30.857  26.797  25.846  1.00  0.00     0.151 A 
ATOM     21  N   UNL A   1      30.042  26.463  24.841  1.00  0.00    -0.158 NA
ATOM     22  N   UNL A   1      31.052  25.804  26.769  1.00  0.00    -0.207 NA
ATOM     23  N   UNL A   1      29.744  25.186  25.155  1.00  0.00    -0.255 N 
ATOM     24  H   UNL A   1      29.121  24.623  24.641  1.00  0.00     0.192 HD
BRANCH  20  25
ATOM     25  C   UNL A   1      31.584  28.091  25.934  1.00  0.00     0.076 C 
ATOM     26  C   UNL A   1      31.786  28.545  27.376  1.00  0.00     0.012 C 
ENDBRANCH  20  25
ENDBRANCH  16  19
ENDBRANCH   8  15
ENDBRANCH   5   8
ENDBRANCH   3   4
ENDBRANCH   2   3
ENDBRANCH   1   2
BRANCH   1  27
ATOM     27  C   UNL A   1      38.834  21.739  25.756  1.00  0.00     0.002 C 
BRANCH  27  28
ATOM     28  C   UNL A   1      39.309  20.350  25.319  1.00  0.00     0.021 C 
BRANCH  28  29
ATOM     29  C   UNL A   1      39.930  19.497  26.420  1.00  0.00     0.116 C 
BRANCH  29  30
ATOM     30  N   UNL A   1      41.161  18.855  25.996  1.00  0.00    -0.352 N 
ATOM     31  C   UNL A   1      42.413  19.384  25.808  1.00  0.00     0.251 C 
ATOM     32  H   UNL A   1      41.086  17.890  25.815  1.00  0.00     0.163 HD
ATOM     33  O   UNL A   1      43.289  18.704  25.284  1.00  0.00    -0.269 OA
BRANCH  31  34
ATOM     34  C   UNL A   1      42.710  20.772  26.220  1.00  0.00     0.039 A 
ATOM     35  C   UNL A   1      42.677  21.085  27.581  1.00  0.00     0.014 A 
ATOM     36  C   UNL A   1      42.975  21.772  25.279  1.00  0.00     0.014 A 
ATOM     37  C   UNL A   1      42.946  22.389  28.002  1.00  0.00     0.010 A 
ATOM     38  C   UNL A   1      43.319  23.054  25.704  1.00  0.00     0.010 A 
ATOM     39  C   UNL A   1      43.291  23.380  27.068  1.00  0.00    -0.014 A 
BRANCH  39  40
ATOM     40  C   UNL A   1      43.591  24.767  27.506  1.00  0.00     0.031 A 
ATOM     41  C   UNL A   1      45.017  25.232  27.620  1.00  0.00     0.074 A 
ATOM     42  C   UNL A   1      42.582  25.598  27.832  1.00  0.00     0.049 A 
ATOM     43  N   UNL A   1      45.482  26.393  28.006  1.00  0.00    -0.248 NA
ATOM     44  C   UNL A   1      46.061  24.252  27.280  1.00  0.00     0.031 C 
ATOM     45  C   UNL A   1      41.161  25.251  27.806  1.00  0.00     0.029 A 
ATOM     46  N   UNL A   1      42.599  26.903  28.254  1.00  0.00    -0.354 N 
ATOM     47  C   UNL A   1      46.866  26.279  27.965  1.00  0.00     0.074 A 
ATOM     48  C   UNL A   1      47.166  24.918  27.578  1.00  0.00     0.031 C 
ATOM     49  C   UNL A   1      40.440  26.325  28.164  1.00  0.00     0.029 A 
ATOM     50  C   UNL A   1      41.348  27.424  28.481  1.00  0.00     0.049 A 
ATOM     51  H   UNL A   1      43.428  27.418  28.382  1.00  0.00     0.167 HD
ATOM     52  C   UNL A   1      47.802  27.230  28.201  1.00  0.00     0.037 A 
ATOM     53  C   UNL A   1      40.977  28.650  28.897  1.00  0.00     0.037 A 
ATOM     54  C   UNL A   1      47.498  28.589  28.565  1.00  0.00     0.049 A 
ATOM     55  C   UNL A   1      42.037  29.686  29.160  1.00  0.00     0.074 A 
ATOM     56  C   UNL A   1      48.370  29.643  28.778  1.00  0.00     0.029 A 
ATOM     57  N   UNL A   1      46.218  29.083  28.774  1.00  0.00    -0.354 N 
ATOM     58  N   UNL A   1      43.340  29.587  29.051  1.00  0.00    -0.248 NA
ATOM     59  C   UNL A   1      41.571  31.011  29.594  1.00  0.00     0.031 C 
ATOM     60  C   UNL A   1      47.623  30.759  29.164  1.00  0.00     0.029 A 
ATOM     61  C   UNL A   1      46.280  30.420  29.134  1.00  0.00     0.049 A 
ATOM     62  H   UNL A   1      45.389  28.560  28.681  1.00  0.00     0.167 HD
ATOM     63  C   UNL A   1      43.846  30.841  29.367  1.00  0.00     0.074 A 
ATOM     64  C   UNL A   1      42.708  31.688  29.659  1.00  0.00     0.031 C 
ATOM     65  C   UNL A   1      45.137  31.254  29.411  1.00  0.00     0.037 A 
BRANCH  52  66
ATOM     66  C   UNL A   1      49.244  26.831  28.070  1.00  0.00     0.064 A 
ATOM     67  C   UNL A   1      50.018  26.485  29.190  1.00  0.00     0.173 A 
ATOM     68  C   UNL A   1      49.855  26.765  26.809  1.00  0.00     0.173 A 
ATOM     69  F   UNL A   1      49.488  26.541  30.420  1.00  0.00    -0.203 F 
ATOM     70  C   UNL A   1      51.357  26.126  29.054  1.00  0.00     0.198 A 
ATOM     71  C   UNL A   1      51.184  26.371  26.673  1.00  0.00     0.198 A 
ATOM     72  F   UNL A   1      49.160  27.077  25.704  1.00  0.00    -0.203 F 
ATOM     73  F   UNL A   1      52.090  25.858  30.143  1.00  0.00    -0.200 F 
ATOM     74  C   UNL A   1      51.936  26.062  27.797  1.00  0.00     0.200 A 
ATOM     75  F   UNL A   1      51.738  26.297  25.456  1.00  0.00    -0.200 F 
ATOM     76  F   UNL A   1      53.222  25.711  27.666  1.00  0.00    -0.200 F 
ENDBRANCH  52  66
BRANCH  53  77
ATOM     77  C   UNL A   1      39.536  28.976  29.059  1.00  0.00     0.064 A 
ATOM     78  C   UNL A   1      38.909  28.867  30.309  1.00  0.00     0.173 A 
ATOM     79  C   UNL A   1      38.755  29.397  27.973  1.00  0.00     0.173 A 
ATOM     80  F   UNL A   1      39.610  28.451  31.374  1.00  0.00    -0.203 F 
ATOM     81  C   UNL A   1      37.552  29.141  30.461  1.00  0.00     0.198 A 
ATOM     82  C   UNL A   1      37.404  29.699  28.132  1.00  0.00     0.198 A 
ATOM     83  F   UNL A   1      39.307  29.524  26.758  1.00  0.00    -0.203 F 
ATOM     84  F   UNL A   1      36.969  28.980  31.656  1.00  0.00    -0.200 F 
ATOM     85  C   UNL A   1      36.801  29.563  29.374  1.00  0.00     0.200 A 
ATOM     86  F   UNL A   1      36.687  30.123  27.083  1.00  0.00    -0.200 F 
ATOM     87  F   UNL A   1      35.496  29.829  29.520  1.00  0.00    -0.200 F 
ENDBRANCH  53  77
BRANCH  65  88
ATOM     88  C   UNL A   1      45.388  32.697  29.743  1.00  0.00     0.064 A 
ATOM     89  C   UNL A   1      45.621  33.125  31.058  1.00  0.00     0.173 A 
ATOM     90  C   UNL A   1      45.427  33.660  28.723  1.00  0.00     0.173 A 
ATOM     91  F   UNL A   1      45.579  32.247  32.072  1.00  0.00    -0.203 F 
ATOM     92  C   UNL A   1      45.852  34.468  31.342  1.00  0.00     0.198 A 
ATOM     93  C   UNL A   1      45.694  34.997  29.007  1.00  0.00     0.198 A 
ATOM     94  F   UNL A   1      45.220  33.303  27.446  1.00  0.00    -0.203 F 
ATOM     95  F   UNL A   1      46.017  34.862  32.613  1.00  0.00    -0.200 F 
ATOM     96  C   UNL A   1      45.896  35.401  30.317  1.00  0.00     0.200 A 
ATOM     97  F   UNL A   1      45.752  35.893  28.012  1.00  0.00    -0.200 F 
ATOM     98  F   UNL A   1      46.126  36.692  30.593  1.00  0.00    -0.200 F 
ENDBRANCH  65  88
ENDBRANCH  39  40
ENDBRANCH  31  34
ENDBRANCH  29  30
ENDBRANCH  28  29
ENDBRANCH  27  28
ENDBRANCH   1  27
TORSDOF 16
ENDMDL
MODEL 2
REMARK VINA RESULT:     -12.2      4.579      9.777
REMARK SMILES CCc1n[nH]c(C(=O)N[C@@]2(C(=O)NCCCCCCNC(=O)c3ccc(-c4c5nc(c(-c6c(F)c(F)c(F)c(F)c6F)c6ccc([nH]6)c(-c6c(F)c(F)c(F)c(F)c6F)c6nc(c(-c7c(F)c(F)c(F)c(F)c7F)c7ccc4[nH]7)C=C6)C=C5)cc3)CCCC[C@H]2C)n1
REMARK SMILES IDX 16 1 15 2 14 3 13 4 11 5 12 6 10 8 86 9 90 10 87 11 89 12
REMARK SMILES IDX 91 13 88 14 9 15 7 16 8 17 6 19 3 20 4 21 92 22 5 23 2 25
REMARK SMILES IDX 1 26 17 27 18 28 19 29 20 30 21 31 22 33 23 34 24 35 85 36
REMARK SMILES IDX 25 37 84 38 26 39 27 40 28 41 78 42 29 43 83 44 77 45 79 46
REMARK SMILES IDX 30 47 82 48 76 49 75 50 31 52 63 53 43 54 62 55 44 56 47 57
REMARK SMILES IDX 61 58 80 59 45 60 46 61 60 63 81 64 48 65 32 66 33 67 41 68
REMARK SMILES IDX 34 69 35 70 39 71 42 72 36 73 37 74 40 75 38 76 64 77 65 78
REMARK SMILES IDX 73 79 66 80 67 81 71 82 74 83 68 84 69 85 72 86 70 87 49 88
REMARK SMILES IDX 50 89 58 90 51 91 52 92 56 93 59 94 53 95 54 96 57 97 55 98
REMARK H PARENT 13 7 9 18 5 24 20 32 79 51 47 62
REMARK Flexibility Score: inf
ROOT
ATOM      1  C   UNL A   1      30.615  27.223  23.858  1.00  0.00     0.002 C 
ENDROOT
BRANCH   1   2
ATOM      2  C   UNL A   1      31.521  26.702  22.747  1.00  0.00     0.021 C 
BRANCH   2   3
ATOM      3  C   UNL A   1      31.495  25.193  22.567  1.00  0.00     0.116 C 
BRANCH   3   4
ATOM      4  N   UNL A   1      32.797  24.601  22.325  1.00  0.00    -0.354 N 
ATOM      5  C   UNL A   1      33.554  23.799  23.141  1.00  0.00     0.246 C 
ATOM      6  O   UNL A   1      34.601  23.340  22.669  1.00  0.00    -0.272 OA
ATOM      7  H   UNL A   1      33.195  24.806  21.448  1.00  0.00     0.163 HD
BRANCH   5   8
ATOM      8  C   UNL A   1      33.153  23.526  24.647  1.00  0.00     0.122 C 
ATOM      9  C   UNL A   1      31.893  22.630  24.641  1.00  0.00     0.039 C 
ATOM     10  C   UNL A   1      33.002  24.932  25.302  1.00  0.00     0.021 C 
ATOM     11  C   UNL A   1      30.653  23.146  25.386  1.00  0.00     0.003 C 
ATOM     12  C   UNL A   1      32.192  24.871  26.585  1.00  0.00     0.006 C 
ATOM     13  C   UNL A   1      34.333  25.670  25.516  1.00  0.00     0.011 C 
ATOM     14  C   UNL A   1      30.786  24.358  26.311  1.00  0.00     0.000 C 
BRANCH   8  15
ATOM     15  N   UNL A   1      34.336  22.801  25.218  1.00  0.00    -0.335 N 
ATOM     16  C   UNL A   1      34.660  21.508  25.560  1.00  0.00     0.289 C 
ATOM     17  O   UNL A   1      35.745  21.349  26.126  1.00  0.00    -0.266 OA
ATOM     18  H   UNL A   1      35.083  23.418  25.396  1.00  0.00     0.165 HD
BRANCH  16  19
ATOM     19  C   UNL A   1      33.849  20.361  25.214  1.00  0.00     0.214 A 
ATOM     20  C   UNL A   1      33.014  18.610  24.356  1.00  0.00     0.151 A 
ATOM     21  N   UNL A   1      32.572  18.551  25.616  1.00  0.00    -0.158 NA
ATOM     22  N   UNL A   1      33.743  19.731  24.065  1.00  0.00    -0.207 NA
ATOM     23  N   UNL A   1      33.082  19.689  26.128  1.00  0.00    -0.255 N 
ATOM     24  H   UNL A   1      32.923  19.999  27.049  1.00  0.00     0.192 HD
BRANCH  20  25
ATOM     25  C   UNL A   1      32.831  17.522  23.358  1.00  0.00     0.076 C 
ATOM     26  C   UNL A   1      34.028  16.578  23.306  1.00  0.00     0.012 C 
ENDBRANCH  20  25
ENDBRANCH  16  19
ENDBRANCH   8  15
ENDBRANCH   5   8
ENDBRANCH   3   4
ENDBRANCH   2   3
ENDBRANCH   1   2
BRANCH   1  27
ATOM     27  C   UNL A   1      31.037  28.562  24.474  1.00  0.00     0.002 C 
BRANCH  27  28
ATOM     28  C   UNL A   1      31.876  28.474  25.752  1.00  0.00     0.021 C 
BRANCH  28  29
ATOM     29  C   UNL A   1      33.122  29.355  25.777  1.00  0.00     0.116 C 
BRANCH  29  30
ATOM     30  N   UNL A   1      32.826  30.723  26.160  1.00  0.00    -0.352 N 
ATOM     31  C   UNL A   1      33.400  31.513  27.124  1.00  0.00     0.251 C 
ATOM     32  H   UNL A   1      32.101  31.151  25.649  1.00  0.00     0.163 HD
ATOM     33  O   UNL A   1      32.893  32.593  27.408  1.00  0.00    -0.269 OA
BRANCH  31  34
ATOM     34  C   UNL A   1      34.615  31.064  27.836  1.00  0.00     0.039 A 
ATOM     35  C   UNL A   1      35.665  31.973  28.001  1.00  0.00     0.014 A 
ATOM     36  C   UNL A   1      34.747  29.752  28.299  1.00  0.00     0.014 A 
ATOM     37  C   UNL A   1      36.829  31.577  28.662  1.00  0.00     0.010 A 
ATOM     38  C   UNL A   1      35.877  29.381  29.026  1.00  0.00     0.010 A 
ATOM     39  C   UNL A   1      36.937  30.284  29.200  1.00  0.00    -0.014 A 
BRANCH  39  40
ATOM     40  C   UNL A   1      38.166  29.858  29.916  1.00  0.00     0.031 A 
ATOM     41  C   UNL A   1      38.449  30.368  31.302  1.00  0.00     0.074 A 
ATOM     42  C   UNL A   1      39.044  29.038  29.307  1.00  0.00     0.049 A 
ATOM     43  N   UNL A   1      39.475  30.132  32.079  1.00  0.00    -0.248 NA
ATOM     44  C   UNL A   1      37.458  31.289  31.882  1.00  0.00     0.031 C 
ATOM     45  C   UNL A   1      38.905  28.512  27.948  1.00  0.00     0.029 A 
ATOM     46  N   UNL A   1      40.229  28.508  29.749  1.00  0.00    -0.354 N 
ATOM     47  C   UNL A   1      39.258  30.879  33.230  1.00  0.00     0.074 A 
ATOM     48  C   UNL A   1      38.037  31.625  33.026  1.00  0.00     0.031 C 
ATOM     49  C   UNL A   1      39.947  27.710  27.679  1.00  0.00     0.029 A 
ATOM     50  C   UNL A   1      40.845  27.694  28.831  1.00  0.00     0.049 A 
ATOM     51  H   UNL A   1      40.603  28.693  30.641  1.00  0.00     0.167 HD
ATOM     52  C   UNL A   1      39.996  30.918  34.366  1.00  0.00     0.037 A 
ATOM     53  C   UNL A   1      42.004  27.012  28.909  1.00  0.00     0.037 A 
ATOM     54  C   UNL A   1      41.200  30.158  34.574  1.00  0.00     0.049 A 
ATOM     55  C   UNL A   1      42.809  27.079  30.180  1.00  0.00     0.074 A 
ATOM     56  C   UNL A   1      41.994  30.088  35.706  1.00  0.00     0.029 A 
ATOM     57  N   UNL A   1      41.787  29.334  33.624  1.00  0.00    -0.354 N 
ATOM     58  N   UNL A   1      42.559  27.734  31.287  1.00  0.00    -0.248 NA
ATOM     59  C   UNL A   1      44.055  26.299  30.214  1.00  0.00     0.031 C 
ATOM     60  C   UNL A   1      43.087  29.263  35.424  1.00  0.00     0.029 A 
ATOM     61  C   UNL A   1      42.944  28.770  34.137  1.00  0.00     0.049 A 
ATOM     62  H   UNL A   1      41.434  29.175  32.719  1.00  0.00     0.167 HD
ATOM     63  C   UNL A   1      43.592  27.419  32.159  1.00  0.00     0.074 A 
ATOM     64  C   UNL A   1      44.466  26.504  31.456  1.00  0.00     0.031 C 
ATOM     65  C   UNL A   1      43.798  27.850  33.429  1.00  0.00     0.037 A 
BRANCH  52  66
ATOM     66  C   UNL A   1      39.517  31.814  35.473  1.00  0.00     0.064 A 
ATOM     67  C   UNL A   1      39.943  33.149  35.579  1.00  0.00     0.173 A 
ATOM     68  C   UNL A   1      38.600  31.345  36.425  1.00  0.00     0.173 A 
ATOM     69  F   UNL A   1      40.828  33.645  34.702  1.00  0.00    -0.203 F 
ATOM     70  C   UNL A   1      39.498  33.965  36.615  1.00  0.00     0.198 A 
ATOM     71  C   UNL A   1      38.129  32.174  37.440  1.00  0.00     0.198 A 
ATOM     72  F   UNL A   1      38.153  30.081  36.368  1.00  0.00    -0.203 F 
ATOM     73  F   UNL A   1      39.965  35.216  36.728  1.00  0.00    -0.200 F 
ATOM     74  C   UNL A   1      38.586  33.480  37.540  1.00  0.00     0.200 A 
ATOM     75  F   UNL A   1      37.237  31.708  38.325  1.00  0.00    -0.200 F 
ATOM     76  F   UNL A   1      38.154  34.267  38.534  1.00  0.00    -0.200 F 
ENDBRANCH  52  66
BRANCH  53  77
ATOM     77  C   UNL A   1      42.457  26.180  27.763  1.00  0.00     0.064 A 
ATOM     78  C   UNL A   1      43.409  26.664  26.855  1.00  0.00     0.173 A 
ATOM     79  C   UNL A   1      41.947  24.891  27.549  1.00  0.00     0.173 A 
ATOM     80  F   UNL A   1      43.913  27.897  27.007  1.00  0.00    -0.203 F 
ATOM     81  C   UNL A   1      43.815  25.901  25.762  1.00  0.00     0.198 A 
ATOM     82  C   UNL A   1      42.375  24.118  26.472  1.00  0.00     0.198 A 
ATOM     83  F   UNL A   1      41.039  24.379  28.392  1.00  0.00    -0.203 F 
ATOM     84  F   UNL A   1      44.688  26.408  24.882  1.00  0.00    -0.200 F 
ATOM     85  C   UNL A   1      43.301  24.626  25.574  1.00  0.00     0.200 A 
ATOM     86  F   UNL A   1      41.889  22.881  26.303  1.00  0.00    -0.200 F 
ATOM     87  F   UNL A   1      43.693  23.892  24.524  1.00  0.00    -0.200 F 
ENDBRANCH  53  77
BRANCH  65  88
ATOM     88  C   UNL A   1      44.992  27.300  34.157  1.00  0.00     0.064 A 
ATOM     89  C   UNL A   1      46.230  27.958  34.153  1.00  0.00     0.173 A 
ATOM     90  C   UNL A   1      44.882  26.112  34.897  1.00  0.00     0.173 A 
ATOM     91  F   UNL A   1      46.392  29.088  33.450  1.00  0.00    -0.203 F 
ATOM     92  C   UNL A   1      47.322  27.430  34.837  1.00  0.00     0.198 A 
ATOM     93  C   UNL A   1      45.967  25.606  35.608  1.00  0.00     0.198 A 
ATOM     94  F   UNL A   1      43.717  25.448  34.941  1.00  0.00    -0.203 F 
ATOM     95  F   UNL A   1      48.511  28.047  34.773  1.00  0.00    -0.200 F 
ATOM     96  C   UNL A   1      47.188  26.260  35.569  1.00  0.00     0.200 A 
ATOM     97  F   UNL A   1      45.829  24.484  36.328  1.00  0.00    -0.200 F 
ATOM     98  F   UNL A   1      48.239  25.758  36.232  1.00  0.00    -0.200 F 
ENDBRANCH  65  88
ENDBRANCH  39  40
ENDBRANCH  31  34
ENDBRANCH  29  30
ENDBRANCH  28  29
ENDBRANCH  27  28
ENDBRANCH   1  27
TORSDOF 16
ENDMDL
MODEL 3
REMARK VINA RESULT:     -12.2      0.345      1.679
REMARK SMILES CCc1n[nH]c(C(=O)N[C@@]2(C(=O)NCCCCCCNC(=O)c3ccc(-c4c5nc(c(-c6c(F)c(F)c(F)c(F)c6F)c6ccc([nH]6)c(-c6c(F)c(F)c(F)c(F)c6F)c6nc(c(-c7c(F)c(F)c(F)c(F)c7F)c7ccc4[nH]7)C=C6)C=C5)cc3)CCCC[C@H]2C)n1
REMARK SMILES IDX 16 1 15 2 14 3 13 4 11 5 12 6 10 8 86 9 90 10 87 11 89 12
REMARK SMILES IDX 91 13 88 14 9 15 7 16 8 17 6 19 3 20 4 21 92 22 5 23 2 25
REMARK SMILES IDX 1 26 17 27 18 28 19 29 20 30 21 31 22 33 23 34 24 35 85 36
REMARK SMILES IDX 25 37 84 38 26 39 27 40 28 41 78 42 29 43 83 44 77 45 79 46
REMARK SMILES IDX 30 47 82 48 76 49 75 50 31 52 63 53 43 54 62 55 44 56 47 57
REMARK SMILES IDX 61 58 80 59 45 60 46 61 60 63 81 64 48 65 32 66 33 67 41 68
REMARK SMILES IDX 34 69 35 70 39 71 42 72 36 73 37 74 40 75 38 76 64 77 65 78
REMARK SMILES IDX 73 79 66 80 67 81 71 82 74 83 68 84 69 85 72 86 70 87 49 88
REMARK SMILES IDX 50 89 58 90 51 91 52 92 56 93 59 94 53 95 54 96 57 97 55 98
REMARK H PARENT 13 7 9 18 5 24 20 32 79 51 47 62
REMARK Flexibility Score: inf
ROOT
ATOM      1  C   UNL A   1      37.467  22.168  25.582  1.00  0.00     0.002 C 
ENDROOT
BRANCH   1   2
ATOM      2  C   UNL A   1      36.493  20.996  25.525  1.00  0.00     0.021 C 
BRANCH   2   3
ATOM      3  C   UNL A   1      35.348  21.174  24.541  1.00  0.00     0.116 C 
BRANCH   3   4
ATOM      4  N   UNL A   1      34.146  20.442  24.889  1.00  0.00    -0.354 N 
ATOM      5  C   UNL A   1      32.908  20.918  25.242  1.00  0.00     0.246 C 
ATOM      6  O   UNL A   1      32.008  20.086  25.406  1.00  0.00    -0.272 OA
ATOM      7  H   UNL A   1      34.230  19.461  24.870  1.00  0.00     0.163 HD
BRANCH   5   8
ATOM      8  C   UNL A   1      32.651  22.457  25.504  1.00  0.00     0.122 C 
ATOM      9  C   UNL A   1      32.473  23.142  24.130  1.00  0.00     0.039 C 
ATOM     10  C   UNL A   1      33.852  22.942  26.371  1.00  0.00     0.021 C 
ATOM     11  C   UNL A   1      33.405  24.316  23.797  1.00  0.00     0.003 C 
ATOM     12  C   UNL A   1      34.003  24.452  26.328  1.00  0.00     0.006 C 
ATOM     13  C   UNL A   1      33.830  22.423  27.818  1.00  0.00     0.011 C 
ATOM     14  C   UNL A   1      34.265  24.927  24.906  1.00  0.00     0.000 C 
BRANCH   8  15
ATOM     15  N   UNL A   1      31.379  22.487  26.299  1.00  0.00    -0.335 N 
ATOM     16  C   UNL A   1      30.465  23.432  26.709  1.00  0.00     0.289 C 
ATOM     17  O   UNL A   1      29.581  23.041  27.475  1.00  0.00    -0.266 OA
ATOM     18  H   UNL A   1      31.130  21.588  26.613  1.00  0.00     0.165 HD
BRANCH  16  19
ATOM     19  C   UNL A   1      30.451  24.795  26.222  1.00  0.00     0.214 A 
ATOM     20  C   UNL A   1      30.866  26.823  25.758  1.00  0.00     0.151 A 
ATOM     21  N   UNL A   1      30.127  26.435  24.715  1.00  0.00    -0.158 NA
ATOM     22  N   UNL A   1      31.030  25.864  26.722  1.00  0.00    -0.207 NA
ATOM     23  N   UNL A   1      29.845  25.160  25.050  1.00  0.00    -0.255 N 
ATOM     24  H   UNL A   1      29.272  24.563  24.516  1.00  0.00     0.192 HD
BRANCH  20  25
ATOM     25  C   UNL A   1      31.550  28.141  25.850  1.00  0.00     0.076 C 
ATOM     26  C   UNL A   1      32.920  28.037  26.512  1.00  0.00     0.012 C 
ENDBRANCH  20  25
ENDBRANCH  16  19
ENDBRANCH   8  15
ENDBRANCH   5   8
ENDBRANCH   3   4
ENDBRANCH   2   3
ENDBRANCH   1   2
BRANCH   1  27
ATOM     27  C   UNL A   1      38.922  21.798  25.893  1.00  0.00     0.002 C 
BRANCH  27  28
ATOM     28  C   UNL A   1      39.411  20.466  25.315  1.00  0.00     0.021 C 
BRANCH  28  29
ATOM     29  C   UNL A   1      39.778  19.403  26.345  1.00  0.00     0.116 C 
BRANCH  29  30
ATOM     30  N   UNL A   1      41.004  18.704  26.007  1.00  0.00    -0.352 N 
ATOM     31  C   UNL A   1      42.286  19.176  25.892  1.00  0.00     0.251 C 
ATOM     32  H   UNL A   1      40.898  17.740  25.834  1.00  0.00     0.163 HD
ATOM     33  O   UNL A   1      43.163  18.452  25.431  1.00  0.00    -0.269 OA
BRANCH  31  34
ATOM     34  C   UNL A   1      42.617  20.557  26.304  1.00  0.00     0.039 A 
ATOM     35  C   UNL A   1      43.020  21.466  25.322  1.00  0.00     0.014 A 
ATOM     36  C   UNL A   1      42.575  20.948  27.645  1.00  0.00     0.014 A 
ATOM     37  C   UNL A   1      43.346  22.776  25.680  1.00  0.00     0.010 A 
ATOM     38  C   UNL A   1      42.826  22.275  27.991  1.00  0.00     0.010 A 
ATOM     39  C   UNL A   1      43.230  23.198  27.015  1.00  0.00    -0.014 A 
BRANCH  39  40
ATOM     40  C   UNL A   1      43.562  24.592  27.404  1.00  0.00     0.031 A 
ATOM     41  C   UNL A   1      44.996  25.045  27.443  1.00  0.00     0.074 A 
ATOM     42  C   UNL A   1      42.577  25.441  27.754  1.00  0.00     0.049 A 
ATOM     43  N   UNL A   1      45.489  26.211  27.779  1.00  0.00    -0.248 NA
ATOM     44  C   UNL A   1      46.015  24.046  27.082  1.00  0.00     0.031 C 
ATOM     45  C   UNL A   1      41.152  25.108  27.799  1.00  0.00     0.029 A 
ATOM     46  N   UNL A   1      42.624  26.756  28.141  1.00  0.00    -0.354 N 
ATOM     47  C   UNL A   1      46.869  26.081  27.679  1.00  0.00     0.074 A 
ATOM     48  C   UNL A   1      47.139  24.708  27.314  1.00  0.00     0.031 C 
ATOM     49  C   UNL A   1      40.459  26.198  28.162  1.00  0.00     0.029 A 
ATOM     50  C   UNL A   1      41.390  27.295  28.410  1.00  0.00     0.049 A 
ATOM     51  H   UNL A   1      43.463  27.265  28.219  1.00  0.00     0.167 HD
ATOM     52  C   UNL A   1      47.823  27.028  27.849  1.00  0.00     0.037 A 
ATOM     53  C   UNL A   1      41.049  28.535  28.811  1.00  0.00     0.037 A 
ATOM     54  C   UNL A   1      47.548  28.399  28.192  1.00  0.00     0.049 A 
ATOM     55  C   UNL A   1      42.130  29.567  29.001  1.00  0.00     0.074 A 
ATOM     56  C   UNL A   1      48.438  29.448  28.339  1.00  0.00     0.029 A 
ATOM     57  N   UNL A   1      46.283  28.911  28.445  1.00  0.00    -0.354 N 
ATOM     58  N   UNL A   1      43.425  29.451  28.837  1.00  0.00    -0.248 NA
ATOM     59  C   UNL A   1      41.696  30.907  29.421  1.00  0.00     0.031 C 
ATOM     60  C   UNL A   1      47.719  30.582  28.730  1.00  0.00     0.029 A 
ATOM     61  C   UNL A   1      46.373  30.255  28.768  1.00  0.00     0.049 A 
ATOM     62  H   UNL A   1      45.446  28.394  28.402  1.00  0.00     0.167 HD
ATOM     63  C   UNL A   1      43.956  30.707  29.098  1.00  0.00     0.074 A 
ATOM     64  C   UNL A   1      42.841  31.573  29.419  1.00  0.00     0.031 C 
ATOM     65  C   UNL A   1      45.252  31.108  29.074  1.00  0.00     0.037 A 
BRANCH  52  66
ATOM     66  C   UNL A   1      49.254  26.610  27.664  1.00  0.00     0.064 A 
ATOM     67  C   UNL A   1      49.812  26.433  26.387  1.00  0.00     0.173 A 
ATOM     68  C   UNL A   1      50.088  26.411  28.774  1.00  0.00     0.173 A 
ATOM     69  F   UNL A   1      49.056  26.599  25.292  1.00  0.00    -0.203 F 
ATOM     70  C   UNL A   1      51.137  26.037  26.232  1.00  0.00     0.198 A 
ATOM     71  C   UNL A   1      51.424  26.049  28.615  1.00  0.00     0.198 A 
ATOM     72  F   UNL A   1      49.610  26.574  30.018  1.00  0.00    -0.203 F 
ATOM     73  F   UNL A   1      51.629  25.817  25.005  1.00  0.00    -0.200 F 
ATOM     74  C   UNL A   1      51.944  25.852  27.344  1.00  0.00     0.200 A 
ATOM     75  F   UNL A   1      52.205  25.885  29.690  1.00  0.00    -0.200 F 
ATOM     76  F   UNL A   1      53.221  25.477  27.193  1.00  0.00    -0.200 F 
ENDBRANCH  52  66
BRANCH  53  77
ATOM     77  C   UNL A   1      39.620  28.880  29.029  1.00  0.00     0.064 A 
ATOM     78  C   UNL A   1      39.026  28.724  30.290  1.00  0.00     0.173 A 
ATOM     79  C   UNL A   1      38.818  29.365  27.986  1.00  0.00     0.173 A 
ATOM     80  F   UNL A   1      39.746  28.246  31.314  1.00  0.00    -0.203 F 
ATOM     81  C   UNL A   1      37.679  29.017  30.492  1.00  0.00     0.198 A 
ATOM     82  C   UNL A   1      37.479  29.685  28.197  1.00  0.00     0.198 A 
ATOM     83  F   UNL A   1      39.339  29.538  26.763  1.00  0.00    -0.203 F 
ATOM     84  F   UNL A   1      37.125  28.811  31.694  1.00  0.00    -0.200 F 
ATOM     85  C   UNL A   1      36.907  29.502  29.447  1.00  0.00     0.200 A 
ATOM     86  F   UNL A   1      36.741  30.170  27.189  1.00  0.00    -0.200 F 
ATOM     87  F   UNL A   1      35.612  29.786  29.643  1.00  0.00    -0.200 F 
ENDBRANCH  53  77
BRANCH  65  88
ATOM     88  C   UNL A   1      45.530  32.556  29.358  1.00  0.00     0.064 A 
ATOM     89  C   UNL A   1      45.534  33.523  28.344  1.00  0.00     0.173 A 
ATOM     90  C   UNL A   1      45.764  32.985  30.675  1.00  0.00     0.173 A 
ATOM     91  F   UNL A   1      45.331  33.165  27.067  1.00  0.00    -0.203 F 
ATOM     92  C   UNL A   1      45.794  34.861  28.632  1.00  0.00     0.198 A 
ATOM     93  C   UNL A   1      45.989  34.328  30.963  1.00  0.00     0.198 A 
ATOM     94  F   UNL A   1      45.763  32.101  31.684  1.00  0.00    -0.203 F 
ATOM     95  F   UNL A   1      45.847  35.759  27.638  1.00  0.00    -0.200 F 
ATOM     96  C   UNL A   1      46.013  35.262  29.941  1.00  0.00     0.200 A 
ATOM     97  F   UNL A   1      46.184  34.715  32.231  1.00  0.00    -0.200 F 
ATOM     98  F   UNL A   1      46.256  36.552  30.216  1.00  0.00    -0.200 F 
ENDBRANCH  65  88
ENDBRANCH  39  40
ENDBRANCH  31  34
ENDBRANCH  29  30
ENDBRANCH  28  29
ENDBRANCH  27  28
ENDBRANCH   1  27
TORSDOF 16
ENDMDL
