MODEL 1
REMARK VINA RESULT:     -13.4      0.000      0.000
REMARK SMILES CCc1nnc(/[NH+]=C2/S/C(=C/c3ccccc3OCCC(=O)NCCCCCCNC(=O)c3ccc(-c4c5nc(c(-c6c(F)c(F)c(F)c(F)c6F)c6ccc([nH]6)c(-c6c(F)c(F)c(F)c(F)c6F)c6nc(c(-c7c(F)c(F)c(F)c(F)c7F)c7ccc4[nH]7)C=C6)C=C5)cc3)C(=O)N2C)s1
REMARK SMILES IDX 24 1 23 2 21 3 22 4 20 6 19 7 18 8 17 9 12 10 13 11 14 12
REMARK SMILES IDX 16 13 15 14 11 15 7 16 8 17 9 19 98 20 10 21 96 22 99 23
REMARK SMILES IDX 97 24 6 25 3 26 4 27 100 28 5 29 2 30 1 31 25 32 26 33 27 34
REMARK SMILES IDX 28 35 29 36 30 37 31 38 32 40 33 41 34 42 95 43 35 44 94 45
REMARK SMILES IDX 36 46 37 47 38 48 88 49 39 50 93 51 87 52 89 53 40 54 92 55
REMARK SMILES IDX 86 56 85 57 41 59 73 60 53 61 72 62 54 63 57 64 71 65 90 66
REMARK SMILES IDX 55 67 56 68 70 70 91 71 58 72 42 73 43 74 51 75 44 76 45 77
REMARK SMILES IDX 49 78 52 79 46 80 47 81 50 82 48 83 74 84 75 85 83 86 76 87
REMARK SMILES IDX 77 88 81 89 84 90 78 91 79 92 82 93 80 94 59 95 60 96 68 97
REMARK SMILES IDX 61 98 62 99 66 100 69 101 63 102 64 103 67 104 65 105
REMARK H PARENT 23 5 7 18 30 39 89 58 57 69
REMARK Flexibility Score: inf
ROOT
ATOM      1  C   UNL A   1      34.772  29.785  27.411  1.00  0.00     0.116 C 
ENDROOT
BRANCH   1   2
ATOM      2  N   UNL A   1      34.091  29.808  26.153  1.00  0.00    -0.356 N 
ATOM      3  C   UNL A   1      33.946  28.644  25.456  1.00  0.00     0.223 C 
ATOM      4  O   UNL A   1      34.150  28.799  24.264  1.00  0.00    -0.275 OA
ATOM      5  H   UNL A   1      33.732  30.652  25.796  1.00  0.00     0.163 HD
BRANCH   3   6
ATOM      6  C   UNL A   1      33.687  27.267  26.197  1.00  0.00     0.141 C 
BRANCH   6   7
ATOM      7  C   UNL A   1      33.599  25.769  25.626  1.00  0.00     0.239 C 
BRANCH   7   8
ATOM      8  O   UNL A   1      34.600  24.947  24.948  1.00  0.00    -0.492 OA
BRANCH   8   9
ATOM      9  C   UNL A   1      35.102  23.783  25.594  1.00  0.00     0.126 A 
ATOM     10  C   UNL A   1      34.657  22.212  24.845  1.00  0.00     0.018 A 
ATOM     11  C   UNL A   1      35.987  21.023  24.619  1.00  0.00     0.012 A 
ATOM     12  C   UNL A   1      37.705  21.414  25.085  1.00  0.00     0.001 A 
ATOM     13  C   UNL A   1      36.764  24.223  26.199  1.00  0.00     0.047 A 
ATOM     14  C   UNL A   1      38.106  23.067  25.868  1.00  0.00     0.004 A 
BRANCH  10  15
ATOM     15  C   UNL A   1      33.280  22.268  24.027  1.00  0.00     0.035 C 
ATOM     16  N   UNL A   1      29.961  25.690  23.820  1.00  0.00    -0.226 N 
ATOM     17  C   UNL A   1      30.864  24.992  23.207  1.00  0.00     0.271 C 
ATOM     18  H   UNL A   1      29.216  25.207  24.243  1.00  0.00     0.268 HD
ATOM     19  S   UNL A   1      30.788  23.185  23.345  1.00  0.00    -0.012 SA
ATOM     20  N   UNL A   1      31.987  25.305  22.490  1.00  0.00    -0.222 N 
ATOM     21  C   UNL A   1      32.578  23.034  23.109  1.00  0.00     0.100 C 
ATOM     22  C   UNL A   1      32.751  24.183  22.108  1.00  0.00     0.321 C 
ATOM     23  C   UNL A   1      32.335  26.643  21.998  1.00  0.00     0.252 C 
ATOM     24  O   UNL A   1      33.274  24.032  21.008  1.00  0.00    -0.250 OA
BRANCH  16  25
ATOM     25  C   UNL A   1      29.972  27.050  23.918  1.00  0.00     0.345 A 
ATOM     26  C   UNL A   1      29.653  29.429  23.533  1.00  0.00     0.138 A 
ATOM     27  N   UNL A   1      30.669  29.178  24.328  1.00  0.00    -0.067 NA
ATOM     28  S   UNL A   1      28.891  28.008  22.939  1.00  0.00    -0.044 S 
ATOM     29  N   UNL A   1      30.852  27.815  24.541  1.00  0.00     0.023 NA
BRANCH  26  30
ATOM     30  C   UNL A   1      29.187  30.806  23.143  1.00  0.00     0.068 C 
ATOM     31  C   UNL A   1      27.729  31.061  23.507  1.00  0.00     0.012 C 
ENDBRANCH  26  30
ENDBRANCH  16  25
ENDBRANCH  10  15
ENDBRANCH   8   9
ENDBRANCH   7   8
ENDBRANCH   6   7
ENDBRANCH   3   6
ENDBRANCH   1   2
BRANCH   1  32
ATOM     32  C   UNL A   1      35.171  31.400  27.727  1.00  0.00     0.021 C 
BRANCH  32  33
ATOM     33  C   UNL A   1      34.352  33.000  28.966  1.00  0.00     0.002 C 
BRANCH  33  34
ATOM     34  C   UNL A   1      34.068  34.771  28.485  1.00  0.00     0.002 C 
BRANCH  34  35
ATOM     35  C   UNL A   1      32.905  35.751  28.986  1.00  0.00     0.021 C 
BRANCH  35  36
ATOM     36  C   UNL A   1      33.354  36.840  29.963  1.00  0.00     0.116 C 
BRANCH  36  37
ATOM     37  N   UNL A   1      32.552  36.719  31.164  1.00  0.00    -0.352 N 
ATOM     38  C   UNL A   1      32.503  35.635  32.001  1.00  0.00     0.251 C 
ATOM     39  H   UNL A   1      31.986  37.491  31.401  1.00  0.00     0.163 HD
ATOM     40  O   UNL A   1      31.466  35.338  32.581  1.00  0.00    -0.269 OA
BRANCH  38  41
ATOM     41  C   UNL A   1      33.737  34.855  32.220  1.00  0.00     0.039 A 
ATOM     42  C   UNL A   1      33.649  33.539  32.680  1.00  0.00     0.014 A 
ATOM     43  C   UNL A   1      34.984  35.462  32.036  1.00  0.00     0.014 A 
ATOM     44  C   UNL A   1      34.817  32.835  32.965  1.00  0.00     0.010 A 
ATOM     45  C   UNL A   1      36.147  34.734  32.244  1.00  0.00     0.010 A 
ATOM     46  C   UNL A   1      36.071  33.427  32.746  1.00  0.00    -0.014 A 
BRANCH  46  47
ATOM     47  C   UNL A   1      37.318  32.711  33.098  1.00  0.00     0.031 A 
ATOM     48  C   UNL A   1      38.023  33.031  34.385  1.00  0.00     0.074 A 
ATOM     49  C   UNL A   1      37.809  31.792  32.246  1.00  0.00     0.049 A 
ATOM     50  N   UNL A   1      39.129  32.526  34.870  1.00  0.00    -0.248 NA
ATOM     51  C   UNL A   1      37.424  34.077  35.231  1.00  0.00     0.031 C 
ATOM     52  C   UNL A   1      37.217  31.436  30.956  1.00  0.00     0.029 A 
ATOM     53  N   UNL A   1      38.911  30.984  32.341  1.00  0.00    -0.354 N 
ATOM     54  C   UNL A   1      39.350  33.191  36.070  1.00  0.00     0.074 A 
ATOM     55  C   UNL A   1      38.316  34.190  36.202  1.00  0.00     0.031 C 
ATOM     56  C   UNL A   1      37.936  30.451  30.398  1.00  0.00     0.029 A 
ATOM     57  C   UNL A   1      39.066  30.141  31.269  1.00  0.00     0.049 A 
ATOM     58  H   UNL A   1      39.533  31.007  33.104  1.00  0.00     0.167 HD
ATOM     59  C   UNL A   1      40.311  32.959  36.995  1.00  0.00     0.037 A 
ATOM     60  C   UNL A   1      40.020  29.225  31.021  1.00  0.00     0.037 A 
ATOM     61  C   UNL A   1      41.329  31.954  36.851  1.00  0.00     0.049 A 
ATOM     62  C   UNL A   1      41.107  29.027  32.044  1.00  0.00     0.074 A 
ATOM     63  C   UNL A   1      42.337  31.611  37.733  1.00  0.00     0.029 A 
ATOM     64  N   UNL A   1      41.469  31.131  35.740  1.00  0.00    -0.354 N 
ATOM     65  N   UNL A   1      41.272  29.615  33.206  1.00  0.00    -0.248 NA
ATOM     66  C   UNL A   1      42.139  28.032  31.725  1.00  0.00     0.031 C 
ATOM     67  C   UNL A   1      43.126  30.629  37.129  1.00  0.00     0.029 A 
ATOM     68  C   UNL A   1      42.566  30.301  35.903  1.00  0.00     0.049 A 
ATOM     69  H   UNL A   1      40.876  31.136  34.955  1.00  0.00     0.167 HD
ATOM     70  C   UNL A   1      42.399  29.036  33.771  1.00  0.00     0.074 A 
ATOM     71  C   UNL A   1      42.866  28.036  32.832  1.00  0.00     0.031 C 
ATOM     72  C   UNL A   1      43.000  29.306  34.956  1.00  0.00     0.037 A 
BRANCH  59  73
ATOM     73  C   UNL A   1      40.303  33.805  38.237  1.00  0.00     0.064 A 
ATOM     74  C   UNL A   1      39.535  33.459  39.361  1.00  0.00     0.173 A 
ATOM     75  C   UNL A   1      41.095  34.961  38.318  1.00  0.00     0.173 A 
ATOM     76  F   UNL A   1      38.748  32.373  39.333  1.00  0.00    -0.203 F 
ATOM     77  C   UNL A   1      39.535  34.255  40.504  1.00  0.00     0.198 A 
ATOM     78  C   UNL A   1      41.122  35.732  39.478  1.00  0.00     0.198 A 
ATOM     79  F   UNL A   1      41.850  35.339  37.277  1.00  0.00    -0.203 F 
ATOM     80  F   UNL A   1      38.749  33.934  41.541  1.00  0.00    -0.200 F 
ATOM     81  C   UNL A   1      40.336  35.384  40.565  1.00  0.00     0.200 A 
ATOM     82  F   UNL A   1      41.910  36.815  39.541  1.00  0.00    -0.200 F 
ATOM     83  F   UNL A   1      40.345  36.142  41.670  1.00  0.00    -0.200 F 
ENDBRANCH  59  73
BRANCH  60  84
ATOM     84  C   UNL A   1      39.986  28.421  29.771  1.00  0.00     0.064 A 
ATOM     85  C   UNL A   1      39.363  27.165  29.735  1.00  0.00     0.173 A 
ATOM     86  C   UNL A   1      40.601  28.874  28.593  1.00  0.00     0.173 A 
ATOM     87  F   UNL A   1      38.770  26.681  30.835  1.00  0.00    -0.203 F 
ATOM     88  C   UNL A   1      39.392  26.378  28.585  1.00  0.00     0.198 A 
ATOM     89  C   UNL A   1      40.595  28.103  27.434  1.00  0.00     0.198 A 
ATOM     90  F   UNL A   1      41.202  30.073  28.566  1.00  0.00    -0.203 F 
ATOM     91  F   UNL A   1      38.848  25.153  28.601  1.00  0.00    -0.200 F 
ATOM     92  C   UNL A   1      40.005  26.849  27.434  1.00  0.00     0.200 A 
ATOM     93  F   UNL A   1      41.170  28.573  26.318  1.00  0.00    -0.200 F 
ATOM     94  F   UNL A   1      40.037  26.091  26.331  1.00  0.00    -0.200 F 
ENDBRANCH  60  84
BRANCH  72  95
ATOM     95  C   UNL A   1      44.196  28.473  35.325  1.00  0.00     0.064 A 
ATOM     96  C   UNL A   1      45.497  28.839  34.951  1.00  0.00     0.173 A 
ATOM     97  C   UNL A   1      44.037  27.313  36.100  1.00  0.00     0.173 A 
ATOM     98  F   UNL A   1      45.703  29.933  34.200  1.00  0.00    -0.203 F 
ATOM     99  C   UNL A   1      46.590  28.053  35.305  1.00  0.00     0.198 A 
ATOM    100  C   UNL A   1      45.136  26.554  36.488  1.00  0.00     0.198 A 
ATOM    101  F   UNL A   1      42.815  26.925  36.495  1.00  0.00    -0.203 F 
ATOM    102  F   UNL A   1      47.817  28.387  34.880  1.00  0.00    -0.200 F 
ATOM    103  C   UNL A   1      46.410  26.918  36.081  1.00  0.00     0.200 A 
ATOM    104  F   UNL A   1      44.961  25.471  37.258  1.00  0.00    -0.200 F 
ATOM    105  F   UNL A   1      47.465  26.169  36.430  1.00  0.00    -0.200 F 
ENDBRANCH  72  95
ENDBRANCH  46  47
ENDBRANCH  38  41
ENDBRANCH  36  37
ENDBRANCH  35  36
ENDBRANCH  34  35
ENDBRANCH  33  34
ENDBRANCH  32  33
ENDBRANCH   1  32
TORSDOF 19
ENDMDL
MODEL 2
REMARK VINA RESULT:     -12.8      6.205     12.015
REMARK SMILES CCc1nnc(/[NH+]=C2/S/C(=C/c3ccccc3OCCC(=O)NCCCCCCNC(=O)c3ccc(-c4c5nc(c(-c6c(F)c(F)c(F)c(F)c6F)c6ccc([nH]6)c(-c6c(F)c(F)c(F)c(F)c6F)c6nc(c(-c7c(F)c(F)c(F)c(F)c7F)c7ccc4[nH]7)C=C6)C=C5)cc3)C(=O)N2C)s1
REMARK SMILES IDX 24 1 23 2 21 3 22 4 20 6 19 7 18 8 17 9 12 10 13 11 14 12
REMARK SMILES IDX 16 13 15 14 11 15 7 16 8 17 9 19 98 20 10 21 96 22 99 23
REMARK SMILES IDX 97 24 6 25 3 26 4 27 100 28 5 29 2 30 1 31 25 32 26 33 27 34
REMARK SMILES IDX 28 35 29 36 30 37 31 38 32 40 33 41 34 42 95 43 35 44 94 45
REMARK SMILES IDX 36 46 37 47 38 48 88 49 39 50 93 51 87 52 89 53 40 54 92 55
REMARK SMILES IDX 86 56 85 57 41 59 73 60 53 61 72 62 54 63 57 64 71 65 90 66
REMARK SMILES IDX 55 67 56 68 70 70 91 71 58 72 42 73 43 74 51 75 44 76 45 77
REMARK SMILES IDX 49 78 52 79 46 80 47 81 50 82 48 83 74 84 75 85 83 86 76 87
REMARK SMILES IDX 77 88 81 89 84 90 78 91 79 92 82 93 80 94 59 95 60 96 68 97
REMARK SMILES IDX 61 98 62 99 66 100 69 101 63 102 64 103 67 104 65 105
REMARK H PARENT 23 5 7 18 30 39 89 58 57 69
REMARK Flexibility Score: inf
ROOT
ATOM      1  C   UNL A   1      38.226  23.948  26.161  1.00  0.00     0.116 C 
ENDROOT
BRANCH   1   2
ATOM      2  N   UNL A   1      37.194  22.997  26.436  1.00  0.00    -0.356 N 
ATOM      3  C   UNL A   1      35.895  23.337  26.190  1.00  0.00     0.223 C 
ATOM      4  O   UNL A   1      35.151  22.967  27.083  1.00  0.00    -0.275 OA
ATOM      5  H   UNL A   1      37.418  22.108  26.797  1.00  0.00     0.163 HD
BRANCH   3   6
ATOM      6  C   UNL A   1      35.501  24.233  24.944  1.00  0.00     0.141 C 
BRANCH   6   7
ATOM      7  C   UNL A   1      34.290  25.267  24.738  1.00  0.00     0.239 C 
BRANCH   7   8
ATOM      8  O   UNL A   1      33.636  26.169  25.685  1.00  0.00    -0.492 OA
BRANCH   8   9
ATOM      9  C   UNL A   1      33.568  27.560  25.392  1.00  0.00     0.126 A 
ATOM     10  C   UNL A   1      31.939  28.207  25.003  1.00  0.00     0.018 A 
ATOM     11  C   UNL A   1      31.456  29.727  25.832  1.00  0.00     0.012 A 
ATOM     12  C   UNL A   1      32.551  30.543  27.039  1.00  0.00     0.001 A 
ATOM     13  C   UNL A   1      34.779  28.362  26.494  1.00  0.00     0.047 A 
ATOM     14  C   UNL A   1      34.242  29.825  27.400  1.00  0.00     0.004 A 
BRANCH  10  15
ATOM     15  C   UNL A   1      30.952  27.106  24.384  1.00  0.00     0.035 C 
ATOM     16  N   UNL A   1      31.800  22.587  23.104  1.00  0.00    -0.226 N 
ATOM     17  C   UNL A   1      31.179  23.414  23.885  1.00  0.00     0.271 C 
ATOM     18  H   UNL A   1      31.651  22.672  22.135  1.00  0.00     0.268 HD
ATOM     19  S   UNL A   1      30.248  24.773  23.126  1.00  0.00    -0.012 SA
ATOM     20  N   UNL A   1      31.107  23.570  25.242  1.00  0.00    -0.222 N 
ATOM     21  C   UNL A   1      30.474  25.820  24.588  1.00  0.00     0.100 C 
ATOM     22  C   UNL A   1      30.390  24.715  25.647  1.00  0.00     0.321 C 
ATOM     23  C   UNL A   1      31.574  22.596  26.236  1.00  0.00     0.252 C 
ATOM     24  O   UNL A   1      29.592  24.749  26.580  1.00  0.00    -0.250 OA
BRANCH  16  25
ATOM     25  C   UNL A   1      32.645  21.606  23.532  1.00  0.00     0.345 A 
ATOM     26  C   UNL A   1      33.602  19.500  24.278  1.00  0.00     0.138 A 
ATOM     27  N   UNL A   1      34.330  20.539  24.627  1.00  0.00    -0.067 NA
ATOM     28  S   UNL A   1      32.153  19.934  23.463  1.00  0.00    -0.044 S 
ATOM     29  N   UNL A   1      33.776  21.742  24.203  1.00  0.00     0.023 NA
BRANCH  26  30
ATOM     30  C   UNL A   1      33.957  18.066  24.564  1.00  0.00     0.068 C 
ATOM     31  C   UNL A   1      33.412  17.102  23.516  1.00  0.00     0.012 C 
ENDBRANCH  26  30
ENDBRANCH  16  25
ENDBRANCH  10  15
ENDBRANCH   8   9
ENDBRANCH   7   8
ENDBRANCH   6   7
ENDBRANCH   3   6
ENDBRANCH   1   2
BRANCH   1  32
ATOM     32  C   UNL A   1      39.532  23.475  27.130  1.00  0.00     0.021 C 
BRANCH  32  33
ATOM     33  C   UNL A   1      41.089  21.948  27.019  1.00  0.00     0.002 C 
BRANCH  33  34
ATOM     34  C   UNL A   1      40.874  20.135  26.687  1.00  0.00     0.002 C 
BRANCH  34  35
ATOM     35  C   UNL A   1      41.769  19.194  25.751  1.00  0.00     0.021 C 
BRANCH  35  36
ATOM     36  C   UNL A   1      43.117  18.782  26.348  1.00  0.00     0.116 C 
BRANCH  36  37
ATOM     37  N   UNL A   1      44.069  18.669  25.262  1.00  0.00    -0.352 N 
ATOM     38  C   UNL A   1      44.440  19.669  24.402  1.00  0.00     0.251 C 
ATOM     39  H   UNL A   1      44.491  17.788  25.129  1.00  0.00     0.163 HD
ATOM     40  O   UNL A   1      44.725  19.419  23.236  1.00  0.00    -0.269 OA
BRANCH  38  41
ATOM     41  C   UNL A   1      44.528  21.050  24.917  1.00  0.00     0.039 A 
ATOM     42  C   UNL A   1      44.012  22.103  24.159  1.00  0.00     0.014 A 
ATOM     43  C   UNL A   1      45.191  21.299  26.124  1.00  0.00     0.014 A 
ATOM     44  C   UNL A   1      44.172  23.412  24.610  1.00  0.00     0.010 A 
ATOM     45  C   UNL A   1      45.279  22.596  26.611  1.00  0.00     0.010 A 
ATOM     46  C   UNL A   1      44.803  23.665  25.839  1.00  0.00    -0.014 A 
BRANCH  46  47
ATOM     47  C   UNL A   1      45.029  25.052  26.302  1.00  0.00     0.031 A 
ATOM     48  C   UNL A   1      46.399  25.660  26.195  1.00  0.00     0.074 A 
ATOM     49  C   UNL A   1      44.002  25.743  26.829  1.00  0.00     0.049 A 
ATOM     50  N   UNL A   1      46.805  26.851  26.553  1.00  0.00    -0.248 NA
ATOM     51  C   UNL A   1      47.463  24.809  25.636  1.00  0.00     0.031 C 
ATOM     52  C   UNL A   1      42.644  25.228  27.010  1.00  0.00     0.029 A 
ATOM     53  N   UNL A   1      43.936  27.027  27.302  1.00  0.00    -0.354 N 
ATOM     54  C   UNL A   1      48.163  26.888  26.260  1.00  0.00     0.074 A 
ATOM     55  C   UNL A   1      48.531  25.578  25.775  1.00  0.00     0.031 C 
ATOM     56  C   UNL A   1      41.868  26.200  27.513  1.00  0.00     0.029 A 
ATOM     57  C   UNL A   1      42.685  27.389  27.735  1.00  0.00     0.049 A 
ATOM     58  H   UNL A   1      44.713  27.632  27.329  1.00  0.00     0.167 HD
ATOM     59  C   UNL A   1      49.016  27.935  26.354  1.00  0.00     0.037 A 
ATOM     60  C   UNL A   1      42.255  28.552  28.258  1.00  0.00     0.037 A 
ATOM     61  C   UNL A   1      48.630  29.235  26.832  1.00  0.00     0.049 A 
ATOM     62  C   UNL A   1      43.239  29.682  28.399  1.00  0.00     0.074 A 
ATOM     63  C   UNL A   1      49.400  30.378  26.946  1.00  0.00     0.029 A 
ATOM     64  N   UNL A   1      47.357  29.561  27.283  1.00  0.00    -0.354 N 
ATOM     65  N   UNL A   1      44.506  29.728  28.060  1.00  0.00    -0.248 NA
ATOM     66  C   UNL A   1      42.733  30.926  28.992  1.00  0.00     0.031 C 
ATOM     67  C   UNL A   1      48.613  31.375  27.528  1.00  0.00     0.029 A 
ATOM     68  C   UNL A   1      47.329  30.880  27.705  1.00  0.00     0.049 A 
ATOM     69  H   UNL A   1      46.589  28.945  27.300  1.00  0.00     0.167 HD
ATOM     70  C   UNL A   1      44.936  31.012  28.362  1.00  0.00     0.074 A 
ATOM     71  C   UNL A   1      43.788  31.720  28.893  1.00  0.00     0.031 C 
ATOM     72  C   UNL A   1      46.168  31.561  28.218  1.00  0.00     0.037 A 
BRANCH  59  73
ATOM     73  C   UNL A   1      50.441  27.714  25.932  1.00  0.00     0.064 A 
ATOM     74  C   UNL A   1      51.455  27.451  26.867  1.00  0.00     0.173 A 
ATOM     75  C   UNL A   1      50.795  27.736  24.575  1.00  0.00     0.173 A 
ATOM     76  F   UNL A   1      51.176  27.433  28.180  1.00  0.00    -0.203 F 
ATOM     77  C   UNL A   1      52.773  27.250  26.462  1.00  0.00     0.198 A 
ATOM     78  C   UNL A   1      52.106  27.496  24.171  1.00  0.00     0.198 A 
ATOM     79  F   UNL A   1      49.868  27.980  23.636  1.00  0.00    -0.203 F 
ATOM     80  F   UNL A   1      53.732  27.059  27.378  1.00  0.00    -0.200 F 
ATOM     81  C   UNL A   1      53.095  27.263  25.114  1.00  0.00     0.200 A 
ATOM     82  F   UNL A   1      52.413  27.493  22.866  1.00  0.00    -0.200 F 
ATOM     83  F   UNL A   1      54.361  27.058  24.724  1.00  0.00    -0.200 F 
ENDBRANCH  59  73
BRANCH  60  84
ATOM     84  C   UNL A   1      40.835  28.713  28.668  1.00  0.00     0.064 A 
ATOM     85  C   UNL A   1      40.422  28.420  29.976  1.00  0.00     0.173 A 
ATOM     86  C   UNL A   1      39.854  29.135  27.757  1.00  0.00     0.173 A 
ATOM     87  F   UNL A   1      41.317  28.004  30.883  1.00  0.00    -0.203 F 
ATOM     88  C   UNL A   1      39.080  28.501  30.344  1.00  0.00     0.198 A 
ATOM     89  C   UNL A   1      38.520  29.253  28.137  1.00  0.00     0.198 A 
ATOM     90  F   UNL A   1      40.194  29.440  26.496  1.00  0.00    -0.203 F 
ATOM     91  F   UNL A   1      38.705  28.148  31.581  1.00  0.00    -0.200 F 
ATOM     92  C   UNL A   1      38.130  28.921  29.425  1.00  0.00     0.200 A 
ATOM     93  F   UNL A   1      37.610  29.681  27.251  1.00  0.00    -0.200 F 
ATOM     94  F   UNL A   1      36.840  28.995  29.777  1.00  0.00    -0.200 F 
ENDBRANCH  60  84
BRANCH  72  95
ATOM     95  C   UNL A   1      46.324  33.008  28.593  1.00  0.00     0.064 A 
ATOM     96  C   UNL A   1      46.710  33.402  29.883  1.00  0.00     0.173 A 
ATOM     97  C   UNL A   1      46.121  34.012  27.633  1.00  0.00     0.173 A 
ATOM     98  F   UNL A   1      46.904  32.482  30.841  1.00  0.00    -0.203 F 
ATOM     99  C   UNL A   1      46.848  34.749  30.207  1.00  0.00     0.198 A 
ATOM    100  C   UNL A   1      46.303  35.354  27.949  1.00  0.00     0.198 A 
ATOM    101  F   UNL A   1      45.762  33.690  26.381  1.00  0.00    -0.203 F 
ATOM    102  F   UNL A   1      47.153  35.104  31.463  1.00  0.00    -0.200 F 
ATOM    103  C   UNL A   1      46.655  35.722  29.239  1.00  0.00     0.200 A 
ATOM    104  F   UNL A   1      46.138  36.291  27.006  1.00  0.00    -0.200 F 
ATOM    105  F   UNL A   1      46.799  37.018  29.551  1.00  0.00    -0.200 F 
ENDBRANCH  72  95
ENDBRANCH  46  47
ENDBRANCH  38  41
ENDBRANCH  36  37
ENDBRANCH  35  36
ENDBRANCH  34  35
ENDBRANCH  33  34
ENDBRANCH  32  33
ENDBRANCH   1  32
TORSDOF 19
ENDMDL
MODEL 3
REMARK VINA RESULT:     -12.6      6.235     11.456
REMARK SMILES CCc1nnc(/[NH+]=C2/S/C(=C/c3ccccc3OCCC(=O)NCCCCCCNC(=O)c3ccc(-c4c5nc(c(-c6c(F)c(F)c(F)c(F)c6F)c6ccc([nH]6)c(-c6c(F)c(F)c(F)c(F)c6F)c6nc(c(-c7c(F)c(F)c(F)c(F)c7F)c7ccc4[nH]7)C=C6)C=C5)cc3)C(=O)N2C)s1
REMARK SMILES IDX 24 1 23 2 21 3 22 4 20 6 19 7 18 8 17 9 12 10 13 11 14 12
REMARK SMILES IDX 16 13 15 14 11 15 7 16 8 17 9 19 98 20 10 21 96 22 99 23
REMARK SMILES IDX 97 24 6 25 3 26 4 27 100 28 5 29 2 30 1 31 25 32 26 33 27 34
REMARK SMILES IDX 28 35 29 36 30 37 31 38 32 40 33 41 34 42 95 43 35 44 94 45
REMARK SMILES IDX 36 46 37 47 38 48 88 49 39 50 93 51 87 52 89 53 40 54 92 55
REMARK SMILES IDX 86 56 85 57 41 59 73 60 53 61 72 62 54 63 57 64 71 65 90 66
REMARK SMILES IDX 55 67 56 68 70 70 91 71 58 72 42 73 43 74 51 75 44 76 45 77
REMARK SMILES IDX 49 78 52 79 46 80 47 81 50 82 48 83 74 84 75 85 83 86 76 87
REMARK SMILES IDX 77 88 81 89 84 90 78 91 79 92 82 93 80 94 59 95 60 96 68 97
REMARK SMILES IDX 61 98 62 99 66 100 69 101 63 102 64 103 67 104 65 105
REMARK H PARENT 23 5 7 18 30 39 89 58 57 69
REMARK Flexibility Score: inf
ROOT
ATOM      1  C   UNL A   1      38.228  24.049  26.229  1.00  0.00     0.116 C 
ENDROOT
BRANCH   1   2
ATOM      2  N   UNL A   1      37.228  23.065  26.506  1.00  0.00    -0.356 N 
ATOM      3  C   UNL A   1      35.922  23.349  26.225  1.00  0.00     0.223 C 
ATOM      4  O   UNL A   1      35.174  22.972  27.111  1.00  0.00    -0.275 OA
ATOM      5  H   UNL A   1      37.477  22.195  26.893  1.00  0.00     0.163 HD
BRANCH   3   6
ATOM      6  C   UNL A   1      35.521  24.200  24.950  1.00  0.00     0.141 C 
BRANCH   6   7
ATOM      7  C   UNL A   1      34.361  25.289  24.738  1.00  0.00     0.239 C 
BRANCH   7   8
ATOM      8  O   UNL A   1      33.712  26.188  25.693  1.00  0.00    -0.492 OA
BRANCH   8   9
ATOM      9  C   UNL A   1      33.621  27.576  25.395  1.00  0.00     0.126 A 
ATOM     10  C   UNL A   1      31.974  28.203  25.051  1.00  0.00     0.018 A 
ATOM     11  C   UNL A   1      31.500  29.723  25.885  1.00  0.00     0.012 A 
ATOM     12  C   UNL A   1      32.621  30.557  27.056  1.00  0.00     0.001 A 
ATOM     13  C   UNL A   1      34.855  28.397  26.457  1.00  0.00     0.047 A 
ATOM     14  C   UNL A   1      34.329  29.859  27.370  1.00  0.00     0.004 A 
BRANCH  10  15
ATOM     15  C   UNL A   1      30.981  27.088  24.467  1.00  0.00     0.035 C 
ATOM     16  N   UNL A   1      31.842  22.576  23.173  1.00  0.00    -0.226 N 
ATOM     17  C   UNL A   1      31.236  23.397  23.972  1.00  0.00     0.271 C 
ATOM     18  H   UNL A   1      31.661  22.656  22.209  1.00  0.00     0.268 HD
ATOM     19  S   UNL A   1      30.265  24.743  23.239  1.00  0.00    -0.012 SA
ATOM     20  N   UNL A   1      31.206  23.558  25.330  1.00  0.00    -0.222 N 
ATOM     21  C   UNL A   1      30.526  25.797  24.690  1.00  0.00     0.100 C 
ATOM     22  C   UNL A   1      30.489  24.695  25.754  1.00  0.00     0.321 C 
ATOM     23  C   UNL A   1      31.717  22.592  26.312  1.00  0.00     0.252 C 
ATOM     24  O   UNL A   1      29.721  24.723  26.712  1.00  0.00    -0.250 OA
BRANCH  16  25
ATOM     25  C   UNL A   1      32.712  21.607  23.577  1.00  0.00     0.345 A 
ATOM     26  C   UNL A   1      33.711  19.531  24.353  1.00  0.00     0.138 A 
ATOM     27  N   UNL A   1      34.482  20.575  24.568  1.00  0.00    -0.067 NA
ATOM     28  S   UNL A   1      32.196  19.943  23.655  1.00  0.00    -0.044 S 
ATOM     29  N   UNL A   1      33.904  21.761  24.128  1.00  0.00     0.023 NA
BRANCH  26  30
ATOM     30  C   UNL A   1      34.074  18.110  24.689  1.00  0.00     0.068 C 
ATOM     31  C   UNL A   1      34.101  17.202  23.465  1.00  0.00     0.012 C 
ENDBRANCH  26  30
ENDBRANCH  16  25
ENDBRANCH  10  15
ENDBRANCH   8   9
ENDBRANCH   7   8
ENDBRANCH   6   7
ENDBRANCH   3   6
ENDBRANCH   1   2
BRANCH   1  32
ATOM     32  C   UNL A   1      39.527  23.654  27.242  1.00  0.00     0.021 C 
BRANCH  32  33
ATOM     33  C   UNL A   1      41.097  22.136  27.250  1.00  0.00     0.002 C 
BRANCH  33  34
ATOM     34  C   UNL A   1      40.930  20.333  26.844  1.00  0.00     0.002 C 
BRANCH  34  35
ATOM     35  C   UNL A   1      41.803  19.473  25.813  1.00  0.00     0.021 C 
BRANCH  35  36
ATOM     36  C   UNL A   1      43.125  18.941  26.372  1.00  0.00     0.116 C 
BRANCH  36  37
ATOM     37  N   UNL A   1      44.043  18.778  25.263  1.00  0.00    -0.352 N 
ATOM     38  C   UNL A   1      44.422  19.750  24.375  1.00  0.00     0.251 C 
ATOM     39  H   UNL A   1      44.433  17.882  25.135  1.00  0.00     0.163 HD
ATOM     40  O   UNL A   1      44.667  19.471  23.207  1.00  0.00    -0.269 OA
BRANCH  38  41
ATOM     41  C   UNL A   1      44.567  21.137  24.862  1.00  0.00     0.039 A 
ATOM     42  C   UNL A   1      44.146  22.198  24.058  1.00  0.00     0.014 A 
ATOM     43  C   UNL A   1      45.191  21.379  26.091  1.00  0.00     0.014 A 
ATOM     44  C   UNL A   1      44.362  23.507  24.485  1.00  0.00     0.010 A 
ATOM     45  C   UNL A   1      45.333  22.680  26.551  1.00  0.00     0.010 A 
ATOM     46  C   UNL A   1      44.954  23.754  25.735  1.00  0.00    -0.014 A 
BRANCH  46  47
ATOM     47  C   UNL A   1      45.239  25.138  26.176  1.00  0.00     0.031 A 
ATOM     48  C   UNL A   1      44.139  25.973  26.766  1.00  0.00     0.074 A 
ATOM     49  C   UNL A   1      46.482  25.631  26.025  1.00  0.00     0.049 A 
ATOM     50  N   UNL A   1      44.180  27.207  27.201  1.00  0.00    -0.248 NA
ATOM     51  C   UNL A   1      42.806  25.353  26.855  1.00  0.00     0.031 C 
ATOM     52  C   UNL A   1      47.609  24.912  25.430  1.00  0.00     0.029 A 
ATOM     53  N   UNL A   1      47.008  26.849  26.366  1.00  0.00    -0.354 N 
ATOM     54  C   UNL A   1      42.886  27.502  27.614  1.00  0.00     0.074 A 
ATOM     55  C   UNL A   1      42.066  26.355  27.303  1.00  0.00     0.031 C 
ATOM     56  C   UNL A   1      48.704  25.684  25.488  1.00  0.00     0.029 A 
ATOM     57  C   UNL A   1      48.344  26.969  26.079  1.00  0.00     0.049 A 
ATOM     58  H   UNL A   1      46.477  27.570  26.778  1.00  0.00     0.167 HD
ATOM     59  C   UNL A   1      42.435  28.619  28.233  1.00  0.00     0.037 A 
ATOM     60  C   UNL A   1      49.179  28.007  26.269  1.00  0.00     0.037 A 
ATOM     61  C   UNL A   1      43.268  29.749  28.542  1.00  0.00     0.049 A 
ATOM     62  C   UNL A   1      48.636  29.256  26.910  1.00  0.00     0.074 A 
ATOM     63  C   UNL A   1      42.928  30.922  29.189  1.00  0.00     0.029 A 
ATOM     64  N   UNL A   1      44.615  29.845  28.216  1.00  0.00    -0.354 N 
ATOM     65  N   UNL A   1      47.426  29.503  27.356  1.00  0.00    -0.248 NA
ATOM     66  C   UNL A   1      49.575  30.371  27.081  1.00  0.00     0.031 C 
ATOM     67  C   UNL A   1      44.050  31.755  29.196  1.00  0.00     0.029 A 
ATOM     68  C   UNL A   1      45.112  31.072  28.623  1.00  0.00     0.049 A 
ATOM     69  H   UNL A   1      45.138  29.144  27.764  1.00  0.00     0.167 HD
ATOM     70  C   UNL A   1      47.470  30.782  27.893  1.00  0.00     0.074 A 
ATOM     71  C   UNL A   1      48.832  31.251  27.735  1.00  0.00     0.031 C 
ATOM     72  C   UNL A   1      46.477  31.508  28.463  1.00  0.00     0.037 A 
BRANCH  59  73
ATOM     73  C   UNL A   1      40.981  28.668  28.611  1.00  0.00     0.064 A 
ATOM     74  C   UNL A   1      40.539  28.295  29.891  1.00  0.00     0.173 A 
ATOM     75  C   UNL A   1      40.020  29.121  27.695  1.00  0.00     0.173 A 
ATOM     76  F   UNL A   1      41.413  27.840  30.802  1.00  0.00    -0.203 F 
ATOM     77  C   UNL A   1      39.189  28.343  30.227  1.00  0.00     0.198 A 
ATOM     78  C   UNL A   1      38.676  29.204  28.048  1.00  0.00     0.198 A 
ATOM     79  F   UNL A   1      40.384  29.492  26.459  1.00  0.00    -0.203 F 
ATOM     80  F   UNL A   1      38.785  27.927  31.436  1.00  0.00    -0.200 F 
ATOM     81  C   UNL A   1      38.259  28.807  29.309  1.00  0.00     0.200 A 
ATOM     82  F   UNL A   1      37.781  29.669  27.164  1.00  0.00    -0.200 F 
ATOM     83  F   UNL A   1      36.961  28.864  29.638  1.00  0.00    -0.200 F 
ENDBRANCH  59  73
BRANCH  60  84
ATOM     84  C   UNL A   1      50.607  27.909  25.866  1.00  0.00     0.064 A 
ATOM     85  C   UNL A   1      51.610  27.654  26.813  1.00  0.00     0.173 A 
ATOM     86  C   UNL A   1      51.006  28.097  24.534  1.00  0.00     0.173 A 
ATOM     87  F   UNL A   1      51.284  27.477  28.101  1.00  0.00    -0.203 F 
ATOM     88  C   UNL A   1      52.956  27.634  26.451  1.00  0.00     0.198 A 
ATOM     89  C   UNL A   1      52.348  28.037  24.167  1.00  0.00     0.198 A 
ATOM     90  F   UNL A   1      50.089  28.332  23.584  1.00  0.00    -0.203 F 
ATOM     91  F   UNL A   1      53.896  27.457  27.389  1.00  0.00    -0.200 F 
ATOM     92  C   UNL A   1      53.323  27.822  25.127  1.00  0.00     0.200 A 
ATOM     93  F   UNL A   1      52.695  28.197  22.882  1.00  0.00    -0.200 F 
ATOM     94  F   UNL A   1      54.617  27.806  24.780  1.00  0.00    -0.200 F 
ENDBRANCH  60  84
BRANCH  72  95
ATOM     95  C   UNL A   1      46.839  32.863  29.002  1.00  0.00     0.064 A 
ATOM     96  C   UNL A   1      46.716  34.026  28.227  1.00  0.00     0.173 A 
ATOM     97  C   UNL A   1      47.277  33.001  30.329  1.00  0.00     0.173 A 
ATOM     98  F   UNL A   1      46.313  33.947  26.949  1.00  0.00    -0.203 F 
ATOM     99  C   UNL A   1      47.057  35.270  28.747  1.00  0.00     0.198 A 
ATOM    100  C   UNL A   1      47.575  34.253  30.858  1.00  0.00     0.198 A 
ATOM    101  F   UNL A   1      47.401  31.923  31.117  1.00  0.00    -0.203 F 
ATOM    102  F   UNL A   1      46.994  36.359  27.967  1.00  0.00    -0.200 F 
ATOM    103  C   UNL A   1      47.476  35.385  30.064  1.00  0.00     0.200 A 
ATOM    104  F   UNL A   1      47.957  34.362  32.138  1.00  0.00    -0.200 F 
ATOM    105  F   UNL A   1      47.793  36.586  30.566  1.00  0.00    -0.200 F 
ENDBRANCH  72  95
ENDBRANCH  46  47
ENDBRANCH  38  41
ENDBRANCH  36  37
ENDBRANCH  35  36
ENDBRANCH  34  35
ENDBRANCH  33  34
ENDBRANCH  32  33
ENDBRANCH   1  32
TORSDOF 19
ENDMDL
