MODEL 1
REMARK VINA RESULT:     -13.6      0.000      0.000
REMARK SMILES Cc1ccc(C(=O)NCCCCCCNC(=O)c2ccc(-c3c4nc(c(-c5c(F)c(F)c(F)c(F)c5F)c5ccc([nH]5)c(-c5c(F)c(F)c(F)c(F)c5F)c5nc(c(-c6c(F)c(F)c(F)c(F)c6F)c6ccc3[nH]6)C=C5)C=C4)cc2)c(Oc2cccc(F)c2C(N)=O)c1
REMARK SMILES IDX 11 1 10 2 9 3 8 4 6 5 7 6 5 8 1 9 2 10 3 11 93 12 4 13 81 14
REMARK SMILES IDX 82 15 83 16 84 17 89 18 85 19 87 20 86 21 88 22 90 23 91 24
REMARK SMILES IDX 92 25 12 28 13 29 14 30 15 31 16 32 17 34 18 35 19 36 80 37
REMARK SMILES IDX 20 38 79 39 21 40 22 41 23 42 73 43 24 44 78 45 72 46 74 47
REMARK SMILES IDX 25 48 77 49 71 50 70 51 26 53 58 54 38 55 57 56 39 57 42 58
REMARK SMILES IDX 56 59 75 60 40 61 41 62 55 64 76 65 43 66 27 67 28 68 36 69
REMARK SMILES IDX 29 70 30 71 34 72 37 73 31 74 32 75 35 76 33 77 59 78 60 79
REMARK SMILES IDX 68 80 61 81 62 82 66 83 69 84 63 85 64 86 67 87 65 88 44 89
REMARK SMILES IDX 45 90 53 91 46 92 47 93 51 94 54 95 48 96 49 97 52 98 50 99
REMARK H PARENT 8 7 91 26 91 27 15 33 74 52 42 63
REMARK Flexibility Score: inf
ROOT
ATOM      1  C   UNL A   1      33.423  27.712  25.679  1.00  0.00     0.002 C 
ENDROOT
BRANCH   1   2
ATOM      2  C   UNL A   1      34.267  26.498  26.075  1.00  0.00     0.021 C 
BRANCH   2   3
ATOM      3  C   UNL A   1      33.960  25.161  25.411  1.00  0.00     0.116 C 
BRANCH   3   4
ATOM      4  N   UNL A   1      34.885  24.710  24.408  1.00  0.00    -0.352 N 
ATOM      5  C   UNL A   1      34.941  23.542  23.679  1.00  0.00     0.255 C 
ATOM      6  O   UNL A   1      35.756  23.532  22.752  1.00  0.00    -0.269 OA
ATOM      7  H   UNL A   1      35.606  25.349  24.206  1.00  0.00     0.163 HD
BRANCH   5   8
ATOM      8  C   UNL A   1      34.176  22.274  23.952  1.00  0.00     0.082 A 
ATOM      9  C   UNL A   1      32.526  18.354  24.867  1.00  0.00     0.044 C 
ATOM     10  C   UNL A   1      33.103  19.702  24.549  1.00  0.00    -0.047 A 
ATOM     11  C   UNL A   1      34.365  20.064  25.015  1.00  0.00     0.004 A 
ATOM     12  C   UNL A   1      32.404  20.605  23.746  1.00  0.00     0.051 A 
ATOM     13  C   UNL A   1      34.894  21.323  24.711  1.00  0.00     0.018 A 
ATOM     14  C   UNL A   1      32.904  21.897  23.487  1.00  0.00     0.140 A 
BRANCH  14  15
ATOM     15  O   UNL A   1      32.197  22.738  22.676  1.00  0.00    -0.456 OA
BRANCH  15  16
ATOM     16  C   UNL A   1      31.692  23.944  23.126  1.00  0.00     0.143 A 
ATOM     17  C   UNL A   1      30.889  23.753  24.269  1.00  0.00     0.048 A 
ATOM     18  C   UNL A   1      31.788  25.230  22.563  1.00  0.00     0.117 A 
ATOM     19  C   UNL A   1      30.205  24.809  24.867  1.00  0.00     0.007 A 
ATOM     20  C   UNL A   1      31.078  26.277  23.174  1.00  0.00     0.139 A 
ATOM     21  C   UNL A   1      30.296  26.077  24.310  1.00  0.00     0.040 A 
ATOM     22  F   UNL A   1      31.094  27.515  22.654  1.00  0.00    -0.206 F 
BRANCH  18  23
ATOM     23  C   UNL A   1      32.635  25.655  21.424  1.00  0.00     0.255 C 
ATOM     24  N   UNL A   1      32.152  25.578  20.152  1.00  0.00    -0.365 N 
ATOM     25  O   UNL A   1      33.763  26.094  21.623  1.00  0.00    -0.269 OA
ATOM     26  H   UNL A   1      31.247  25.225  19.990  1.00  0.00     0.159 HD
ATOM     27  H   UNL A   1      32.707  25.876  19.395  1.00  0.00     0.159 HD
ENDBRANCH  18  23
ENDBRANCH  15  16
ENDBRANCH  14  15
ENDBRANCH   5   8
ENDBRANCH   3   4
ENDBRANCH   2   3
ENDBRANCH   1   2
BRANCH   1  28
ATOM     28  C   UNL A   1      32.493  28.327  26.734  1.00  0.00     0.002 C 
BRANCH  28  29
ATOM     29  C   UNL A   1      32.820  29.728  27.251  1.00  0.00     0.021 C 
BRANCH  29  30
ATOM     30  C   UNL A   1      34.286  30.128  27.211  1.00  0.00     0.116 C 
BRANCH  30  31
ATOM     31  N   UNL A   1      34.696  31.029  28.282  1.00  0.00    -0.352 N 
ATOM     32  C   UNL A   1      35.807  30.939  29.106  1.00  0.00     0.251 C 
ATOM     33  H   UNL A   1      34.106  31.801  28.441  1.00  0.00     0.163 HD
ATOM     34  O   UNL A   1      36.026  31.779  29.962  1.00  0.00    -0.269 OA
BRANCH  32  35
ATOM     35  C   UNL A   1      36.795  29.864  28.844  1.00  0.00     0.039 A 
ATOM     36  C   UNL A   1      37.064  28.953  29.869  1.00  0.00     0.014 A 
ATOM     37  C   UNL A   1      37.590  29.901  27.700  1.00  0.00     0.014 A 
ATOM     38  C   UNL A   1      38.271  28.259  29.856  1.00  0.00     0.010 A 
ATOM     39  C   UNL A   1      38.829  29.291  27.733  1.00  0.00     0.010 A 
ATOM     40  C   UNL A   1      39.196  28.527  28.845  1.00  0.00    -0.014 A 
BRANCH  40  41
ATOM     41  C   UNL A   1      40.606  28.174  28.954  1.00  0.00     0.031 A 
ATOM     42  C   UNL A   1      41.129  26.918  28.388  1.00  0.00     0.074 A 
ATOM     43  C   UNL A   1      41.470  29.027  29.551  1.00  0.00     0.049 A 
ATOM     44  N   UNL A   1      42.134  26.280  28.890  1.00  0.00    -0.248 NA
ATOM     45  C   UNL A   1      40.550  26.265  27.219  1.00  0.00     0.031 C 
ATOM     46  C   UNL A   1      42.929  28.950  29.547  1.00  0.00     0.029 A 
ATOM     47  N   UNL A   1      41.176  30.042  30.476  1.00  0.00    -0.354 N 
ATOM     48  C   UNL A   1      42.510  25.332  27.975  1.00  0.00     0.074 A 
ATOM     49  C   UNL A   1      41.448  25.301  26.992  1.00  0.00     0.031 C 
ATOM     50  C   UNL A   1      43.399  29.620  30.609  1.00  0.00     0.029 A 
ATOM     51  C   UNL A   1      42.253  30.038  31.393  1.00  0.00     0.049 A 
ATOM     52  H   UNL A   1      40.387  30.631  30.485  1.00  0.00     0.167 HD
ATOM     53  C   UNL A   1      43.748  24.771  28.039  1.00  0.00     0.037 A 
ATOM     54  C   UNL A   1      42.074  29.788  32.720  1.00  0.00     0.037 A 
ATOM     55  C   UNL A   1      44.544  25.299  29.139  1.00  0.00     0.049 A 
ATOM     56  C   UNL A   1      42.909  28.654  33.259  1.00  0.00     0.074 A 
ATOM     57  C   UNL A   1      45.542  26.259  29.199  1.00  0.00     0.029 A 
ATOM     58  N   UNL A   1      44.151  25.067  30.452  1.00  0.00    -0.354 N 
ATOM     59  N   UNL A   1      43.449  27.729  32.517  1.00  0.00    -0.248 NA
ATOM     60  C   UNL A   1      43.171  28.453  34.679  1.00  0.00     0.031 C 
ATOM     61  C   UNL A   1      45.766  26.588  30.556  1.00  0.00     0.029 A 
ATOM     62  C   UNL A   1      44.902  25.831  31.325  1.00  0.00     0.049 A 
ATOM     63  H   UNL A   1      43.436  24.445  30.723  1.00  0.00     0.167 HD
ATOM     64  C   UNL A   1      44.104  26.818  33.314  1.00  0.00     0.074 A 
ATOM     65  C   UNL A   1      43.917  27.335  34.656  1.00  0.00     0.031 C 
ATOM     66  C   UNL A   1      44.726  25.725  32.768  1.00  0.00     0.037 A 
BRANCH  53  67
ATOM     67  C   UNL A   1      44.297  23.971  26.890  1.00  0.00     0.064 A 
ATOM     68  C   UNL A   1      43.952  22.620  26.692  1.00  0.00     0.173 A 
ATOM     69  C   UNL A   1      45.236  24.497  25.984  1.00  0.00     0.173 A 
ATOM     70  F   UNL A   1      43.020  22.016  27.438  1.00  0.00    -0.203 F 
ATOM     71  C   UNL A   1      44.579  21.826  25.730  1.00  0.00     0.198 A 
ATOM     72  C   UNL A   1      45.898  23.691  25.054  1.00  0.00     0.198 A 
ATOM     73  F   UNL A   1      45.537  25.805  25.994  1.00  0.00    -0.203 F 
ATOM     74  F   UNL A   1      44.228  20.539  25.599  1.00  0.00    -0.200 F 
ATOM     75  C   UNL A   1      45.579  22.352  24.936  1.00  0.00     0.200 A 
ATOM     76  F   UNL A   1      46.865  24.215  24.289  1.00  0.00    -0.200 F 
ATOM     77  F   UNL A   1      46.225  21.573  24.059  1.00  0.00    -0.200 F 
ENDBRANCH  53  67
BRANCH  54  78
ATOM     78  C   UNL A   1      40.724  30.163  33.214  1.00  0.00     0.064 A 
ATOM     79  C   UNL A   1      40.412  31.532  33.336  1.00  0.00     0.173 A 
ATOM     80  C   UNL A   1      39.662  29.254  33.202  1.00  0.00     0.173 A 
ATOM     81  F   UNL A   1      41.395  32.446  33.346  1.00  0.00    -0.203 F 
ATOM     82  C   UNL A   1      39.092  31.977  33.324  1.00  0.00     0.198 A 
ATOM     83  C   UNL A   1      38.339  29.703  33.207  1.00  0.00     0.198 A 
ATOM     84  F   UNL A   1      39.895  27.940  33.068  1.00  0.00    -0.203 F 
ATOM     85  F   UNL A   1      38.830  33.292  33.318  1.00  0.00    -0.200 F 
ATOM     86  C   UNL A   1      38.057  31.062  33.233  1.00  0.00     0.200 A 
ATOM     87  F   UNL A   1      37.337  28.821  33.088  1.00  0.00    -0.200 F 
ATOM     88  F   UNL A   1      36.792  31.489  33.124  1.00  0.00    -0.200 F 
ENDBRANCH  54  78
BRANCH  66  89
ATOM     89  C   UNL A   1      45.330  24.512  33.466  1.00  0.00     0.064 A 
ATOM     90  C   UNL A   1      46.617  24.448  34.023  1.00  0.00     0.173 A 
ATOM     91  C   UNL A   1      44.536  23.350  33.691  1.00  0.00     0.173 A 
ATOM     92  F   UNL A   1      47.451  25.491  33.997  1.00  0.00    -0.203 F 
ATOM     93  C   UNL A   1      47.088  23.311  34.695  1.00  0.00     0.198 A 
ATOM     94  C   UNL A   1      44.988  22.244  34.410  1.00  0.00     0.198 A 
ATOM     95  F   UNL A   1      43.276  23.251  33.245  1.00  0.00    -0.203 F 
ATOM     96  F   UNL A   1      48.341  23.298  35.171  1.00  0.00    -0.200 F 
ATOM     97  C   UNL A   1      46.272  22.216  34.900  1.00  0.00     0.200 A 
ATOM     98  F   UNL A   1      44.159  21.214  34.634  1.00  0.00    -0.200 F 
ATOM     99  F   UNL A   1      46.714  21.153  35.585  1.00  0.00    -0.200 F 
ENDBRANCH  66  89
ENDBRANCH  40  41
ENDBRANCH  32  35
ENDBRANCH  30  31
ENDBRANCH  29  30
ENDBRANCH  28  29
ENDBRANCH   1  28
TORSDOF 16
ENDMDL
MODEL 2
REMARK VINA RESULT:     -13.3      0.851      2.057
REMARK SMILES Cc1ccc(C(=O)NCCCCCCNC(=O)c2ccc(-c3c4nc(c(-c5c(F)c(F)c(F)c(F)c5F)c5ccc([nH]5)c(-c5c(F)c(F)c(F)c(F)c5F)c5nc(c(-c6c(F)c(F)c(F)c(F)c6F)c6ccc3[nH]6)C=C5)C=C4)cc2)c(Oc2cccc(F)c2C(N)=O)c1
REMARK SMILES IDX 11 1 10 2 9 3 8 4 6 5 7 6 5 8 1 9 2 10 3 11 93 12 4 13 81 14
REMARK SMILES IDX 82 15 83 16 84 17 89 18 85 19 87 20 86 21 88 22 90 23 91 24
REMARK SMILES IDX 92 25 12 28 13 29 14 30 15 31 16 32 17 34 18 35 19 36 80 37
REMARK SMILES IDX 20 38 79 39 21 40 22 41 23 42 73 43 24 44 78 45 72 46 74 47
REMARK SMILES IDX 25 48 77 49 71 50 70 51 26 53 58 54 38 55 57 56 39 57 42 58
REMARK SMILES IDX 56 59 75 60 40 61 41 62 55 64 76 65 43 66 27 67 28 68 36 69
REMARK SMILES IDX 29 70 30 71 34 72 37 73 31 74 32 75 35 76 33 77 59 78 60 79
REMARK SMILES IDX 68 80 61 81 62 82 66 83 69 84 63 85 64 86 67 87 65 88 44 89
REMARK SMILES IDX 45 90 53 91 46 92 47 93 51 94 54 95 48 96 49 97 52 98 50 99
REMARK H PARENT 8 7 91 26 91 27 15 33 74 52 42 63
REMARK Flexibility Score: inf
ROOT
ATOM      1  C   UNL A   1      32.679  27.341  26.230  1.00  0.00     0.002 C 
ENDROOT
BRANCH   1   2
ATOM      2  C   UNL A   1      33.995  26.792  25.674  1.00  0.00     0.021 C 
BRANCH   2   3
ATOM      3  C   UNL A   1      34.131  25.283  25.507  1.00  0.00     0.116 C 
BRANCH   3   4
ATOM      4  N   UNL A   1      34.991  24.824  24.452  1.00  0.00    -0.352 N 
ATOM      5  C   UNL A   1      34.990  23.658  23.717  1.00  0.00     0.255 C 
ATOM      6  O   UNL A   1      35.752  23.641  22.745  1.00  0.00    -0.269 OA
ATOM      7  H   UNL A   1      35.708  25.454  24.211  1.00  0.00     0.163 HD
BRANCH   5   8
ATOM      8  C   UNL A   1      34.226  22.399  24.030  1.00  0.00     0.082 A 
ATOM      9  C   UNL A   1      32.577  18.512  25.076  1.00  0.00     0.044 C 
ATOM     10  C   UNL A   1      33.155  19.848  24.713  1.00  0.00    -0.047 A 
ATOM     11  C   UNL A   1      34.408  20.234  25.183  1.00  0.00     0.004 A 
ATOM     12  C   UNL A   1      32.464  20.715  23.864  1.00  0.00     0.051 A 
ATOM     13  C   UNL A   1      34.937  21.482  24.836  1.00  0.00     0.018 A 
ATOM     14  C   UNL A   1      32.963  21.998  23.560  1.00  0.00     0.140 A 
BRANCH  14  15
ATOM     15  O   UNL A   1      32.265  22.803  22.706  1.00  0.00    -0.456 OA
BRANCH  15  16
ATOM     16  C   UNL A   1      31.706  24.000  23.113  1.00  0.00     0.143 A 
ATOM     17  C   UNL A   1      30.874  23.806  24.234  1.00  0.00     0.048 A 
ATOM     18  C   UNL A   1      31.778  25.276  22.524  1.00  0.00     0.117 A 
ATOM     19  C   UNL A   1      30.136  24.852  24.787  1.00  0.00     0.007 A 
ATOM     20  C   UNL A   1      31.013  26.312  23.089  1.00  0.00     0.139 A 
ATOM     21  C   UNL A   1      30.203  26.109  24.204  1.00  0.00     0.040 A 
ATOM     22  F   UNL A   1      31.006  27.538  22.542  1.00  0.00    -0.206 F 
BRANCH  18  23
ATOM     23  C   UNL A   1      32.646  25.705  21.404  1.00  0.00     0.255 C 
ATOM     24  N   UNL A   1      32.214  25.568  20.118  1.00  0.00    -0.365 N 
ATOM     25  O   UNL A   1      33.745  26.202  21.629  1.00  0.00    -0.269 OA
ATOM     26  H   UNL A   1      31.334  25.168  19.935  1.00  0.00     0.159 HD
ATOM     27  H   UNL A   1      32.784  25.867  19.372  1.00  0.00     0.159 HD
ENDBRANCH  18  23
ENDBRANCH  15  16
ENDBRANCH  14  15
ENDBRANCH   5   8
ENDBRANCH   3   4
ENDBRANCH   2   3
ENDBRANCH   1   2
BRANCH   1  28
ATOM     28  C   UNL A   1      32.183  28.700  25.717  1.00  0.00     0.002 C 
BRANCH  28  29
ATOM     29  C   UNL A   1      32.824  29.963  26.291  1.00  0.00     0.021 C 
BRANCH  29  30
ATOM     30  C   UNL A   1      33.491  29.814  27.649  1.00  0.00     0.116 C 
BRANCH  30  31
ATOM     31  N   UNL A   1      34.120  31.030  28.150  1.00  0.00    -0.352 N 
ATOM     32  C   UNL A   1      35.430  31.215  28.565  1.00  0.00     0.251 C 
ATOM     33  H   UNL A   1      33.539  31.823  28.200  1.00  0.00     0.163 HD
ATOM     34  O   UNL A   1      35.819  32.302  28.957  1.00  0.00    -0.269 OA
BRANCH  32  35
ATOM     35  C   UNL A   1      36.385  30.092  28.408  1.00  0.00     0.039 A 
ATOM     36  C   UNL A   1      36.673  29.311  29.530  1.00  0.00     0.014 A 
ATOM     37  C   UNL A   1      37.139  29.965  27.243  1.00  0.00     0.014 A 
ATOM     38  C   UNL A   1      37.865  28.590  29.565  1.00  0.00     0.010 A 
ATOM     39  C   UNL A   1      38.365  29.334  27.311  1.00  0.00     0.010 A 
ATOM     40  C   UNL A   1      38.758  28.707  28.498  1.00  0.00    -0.014 A 
BRANCH  40  41
ATOM     41  C   UNL A   1      40.163  28.335  28.604  1.00  0.00     0.031 A 
ATOM     42  C   UNL A   1      40.629  26.986  28.238  1.00  0.00     0.074 A 
ATOM     43  C   UNL A   1      41.073  29.251  29.006  1.00  0.00     0.049 A 
ATOM     44  N   UNL A   1      41.644  26.413  28.798  1.00  0.00    -0.248 NA
ATOM     45  C   UNL A   1      39.980  26.161  27.225  1.00  0.00     0.031 C 
ATOM     46  C   UNL A   1      42.528  29.131  28.951  1.00  0.00     0.029 A 
ATOM     47  N   UNL A   1      40.847  30.417  29.755  1.00  0.00    -0.354 N 
ATOM     48  C   UNL A   1      41.954  25.312  28.043  1.00  0.00     0.074 A 
ATOM     49  C   UNL A   1      40.845  25.146  27.128  1.00  0.00     0.031 C 
ATOM     50  C   UNL A   1      43.065  29.958  29.860  1.00  0.00     0.029 A 
ATOM     51  C   UNL A   1      41.967  30.537  30.611  1.00  0.00     0.049 A 
ATOM     52  H   UNL A   1      40.073  31.022  29.698  1.00  0.00     0.167 HD
ATOM     53  C   UNL A   1      43.181  24.733  28.148  1.00  0.00     0.037 A 
ATOM     54  C   UNL A   1      41.847  30.523  31.968  1.00  0.00     0.037 A 
ATOM     55  C   UNL A   1      44.041  25.417  29.104  1.00  0.00     0.049 A 
ATOM     56  C   UNL A   1      42.683  29.473  32.656  1.00  0.00     0.074 A 
ATOM     57  C   UNL A   1      45.062  26.343  28.955  1.00  0.00     0.029 A 
ATOM     58  N   UNL A   1      43.707  25.424  30.454  1.00  0.00    -0.354 N 
ATOM     59  N   UNL A   1      43.166  28.419  32.061  1.00  0.00    -0.248 NA
ATOM     60  C   UNL A   1      43.009  29.509  34.076  1.00  0.00     0.031 C 
ATOM     61  C   UNL A   1      45.359  26.892  30.224  1.00  0.00     0.029 A 
ATOM     62  C   UNL A   1      44.517  26.303  31.149  1.00  0.00     0.049 A 
ATOM     63  H   UNL A   1      42.993  24.879  30.859  1.00  0.00     0.167 HD
ATOM     64  C   UNL A   1      43.839  27.638  32.972  1.00  0.00     0.074 A 
ATOM     65  C   UNL A   1      43.729  28.382  34.213  1.00  0.00     0.031 C 
ATOM     66  C   UNL A   1      44.409  26.450  32.595  1.00  0.00     0.037 A 
BRANCH  53  67
ATOM     67  C   UNL A   1      43.655  23.733  27.130  1.00  0.00     0.064 A 
ATOM     68  C   UNL A   1      44.470  24.106  26.044  1.00  0.00     0.173 A 
ATOM     69  C   UNL A   1      43.263  22.382  27.159  1.00  0.00     0.173 A 
ATOM     70  F   UNL A   1      44.970  25.341  25.933  1.00  0.00    -0.203 F 
ATOM     71  C   UNL A   1      44.777  23.222  25.007  1.00  0.00     0.198 A 
ATOM     72  C   UNL A   1      43.530  21.511  26.099  1.00  0.00     0.198 A 
ATOM     73  F   UNL A   1      42.599  21.885  28.214  1.00  0.00    -0.203 F 
ATOM     74  F   UNL A   1      45.539  23.637  23.985  1.00  0.00    -0.200 F 
ATOM     75  C   UNL A   1      44.277  21.936  25.016  1.00  0.00     0.200 A 
ATOM     76  F   UNL A   1      43.038  20.265  26.122  1.00  0.00    -0.200 F 
ATOM     77  F   UNL A   1      44.518  21.109  23.990  1.00  0.00    -0.200 F 
ENDBRANCH  53  67
BRANCH  54  78
ATOM     78  C   UNL A   1      40.532  31.017  32.449  1.00  0.00     0.064 A 
ATOM     79  C   UNL A   1      39.523  30.074  32.726  1.00  0.00     0.173 A 
ATOM     80  C   UNL A   1      40.383  32.302  32.982  1.00  0.00     0.173 A 
ATOM     81  F   UNL A   1      39.622  28.825  32.244  1.00  0.00    -0.203 F 
ATOM     82  C   UNL A   1      38.476  30.369  33.596  1.00  0.00     0.198 A 
ATOM     83  C   UNL A   1      39.322  32.599  33.841  1.00  0.00     0.198 A 
ATOM     84  F   UNL A   1      41.321  33.237  32.770  1.00  0.00    -0.203 F 
ATOM     85  F   UNL A   1      37.599  29.412  33.935  1.00  0.00    -0.200 F 
ATOM     86  C   UNL A   1      38.392  31.624  34.173  1.00  0.00     0.200 A 
ATOM     87  F   UNL A   1      39.257  33.804  34.424  1.00  0.00    -0.200 F 
ATOM     88  F   UNL A   1      37.442  31.882  35.082  1.00  0.00    -0.200 F 
ENDBRANCH  54  78
BRANCH  66  89
ATOM     89  C   UNL A   1      45.019  25.356  33.463  1.00  0.00     0.064 A 
ATOM     90  C   UNL A   1      44.300  24.437  34.244  1.00  0.00     0.173 A 
ATOM     91  C   UNL A   1      46.426  25.132  33.445  1.00  0.00     0.173 A 
ATOM     92  F   UNL A   1      42.965  24.438  34.285  1.00  0.00    -0.203 F 
ATOM     93  C   UNL A   1      44.929  23.423  34.981  1.00  0.00     0.198 A 
ATOM     94  C   UNL A   1      47.043  24.088  34.133  1.00  0.00     0.198 A 
ATOM     95  F   UNL A   1      47.261  25.904  32.734  1.00  0.00    -0.203 F 
ATOM     96  F   UNL A   1      44.188  22.602  35.738  1.00  0.00    -0.200 F 
ATOM     97  C   UNL A   1      46.296  23.240  34.916  1.00  0.00     0.200 A 
ATOM     98  F   UNL A   1      48.366  23.904  34.015  1.00  0.00    -0.200 F 
ATOM     99  F   UNL A   1      46.883  22.240  35.585  1.00  0.00    -0.200 F 
ENDBRANCH  66  89
ENDBRANCH  40  41
ENDBRANCH  32  35
ENDBRANCH  30  31
ENDBRANCH  29  30
ENDBRANCH  28  29
ENDBRANCH   1  28
TORSDOF 16
ENDMDL
MODEL 3
REMARK VINA RESULT:     -13.3      1.391      2.711
REMARK SMILES Cc1ccc(C(=O)NCCCCCCNC(=O)c2ccc(-c3c4nc(c(-c5c(F)c(F)c(F)c(F)c5F)c5ccc([nH]5)c(-c5c(F)c(F)c(F)c(F)c5F)c5nc(c(-c6c(F)c(F)c(F)c(F)c6F)c6ccc3[nH]6)C=C5)C=C4)cc2)c(Oc2cccc(F)c2C(N)=O)c1
REMARK SMILES IDX 11 1 10 2 9 3 8 4 6 5 7 6 5 8 1 9 2 10 3 11 93 12 4 13 81 14
REMARK SMILES IDX 82 15 83 16 84 17 89 18 85 19 87 20 86 21 88 22 90 23 91 24
REMARK SMILES IDX 92 25 12 28 13 29 14 30 15 31 16 32 17 34 18 35 19 36 80 37
REMARK SMILES IDX 20 38 79 39 21 40 22 41 23 42 73 43 24 44 78 45 72 46 74 47
REMARK SMILES IDX 25 48 77 49 71 50 70 51 26 53 58 54 38 55 57 56 39 57 42 58
REMARK SMILES IDX 56 59 75 60 40 61 41 62 55 64 76 65 43 66 27 67 28 68 36 69
REMARK SMILES IDX 29 70 30 71 34 72 37 73 31 74 32 75 35 76 33 77 59 78 60 79
REMARK SMILES IDX 68 80 61 81 62 82 66 83 69 84 63 85 64 86 67 87 65 88 44 89
REMARK SMILES IDX 45 90 53 91 46 92 47 93 51 94 54 95 48 96 49 97 52 98 50 99
REMARK H PARENT 8 7 91 26 91 27 15 33 74 52 42 63
REMARK Flexibility Score: inf
ROOT
ATOM      1  C   UNL A   1      32.232  28.345  25.417  1.00  0.00     0.002 C 
ENDROOT
BRANCH   1   2
ATOM      2  C   UNL A   1      30.920  27.571  25.275  1.00  0.00     0.021 C 
BRANCH   2   3
ATOM      3  C   UNL A   1      30.983  26.136  24.766  1.00  0.00     0.116 C 
BRANCH   3   4
ATOM      4  N   UNL A   1      30.669  25.100  25.711  1.00  0.00    -0.352 N 
ATOM      5  C   UNL A   1      31.474  24.208  26.386  1.00  0.00     0.255 C 
ATOM      6  O   UNL A   1      30.918  23.560  27.278  1.00  0.00    -0.269 OA
ATOM      7  H   UNL A   1      29.710  25.011  25.911  1.00  0.00     0.163 HD
BRANCH   5   8
ATOM      8  C   UNL A   1      32.917  23.896  26.090  1.00  0.00     0.082 A 
ATOM      9  C   UNL A   1      37.125  23.588  25.034  1.00  0.00     0.044 C 
ATOM     10  C   UNL A   1      35.673  23.701  25.391  1.00  0.00    -0.047 A 
ATOM     11  C   UNL A   1      35.088  24.946  25.609  1.00  0.00     0.004 A 
ATOM     12  C   UNL A   1      34.869  22.563  25.474  1.00  0.00     0.051 A 
ATOM     13  C   UNL A   1      33.732  25.040  25.941  1.00  0.00     0.018 A 
ATOM     14  C   UNL A   1      33.518  22.645  25.867  1.00  0.00     0.140 A 
BRANCH  14  15
ATOM     15  O   UNL A   1      32.763  21.508  25.912  1.00  0.00    -0.456 OA
BRANCH  15  16
ATOM     16  C   UNL A   1      32.511  20.745  24.786  1.00  0.00     0.143 A 
ATOM     17  C   UNL A   1      32.629  19.371  25.078  1.00  0.00     0.048 A 
ATOM     18  C   UNL A   1      32.271  21.147  23.459  1.00  0.00     0.117 A 
ATOM     19  C   UNL A   1      32.494  18.399  24.088  1.00  0.00     0.007 A 
ATOM     20  C   UNL A   1      32.153  20.151  22.475  1.00  0.00     0.139 A 
ATOM     21  C   UNL A   1      32.262  18.795  22.778  1.00  0.00     0.040 A 
ATOM     22  F   UNL A   1      31.971  20.476  21.185  1.00  0.00    -0.206 F 
BRANCH  18  23
ATOM     23  C   UNL A   1      32.034  22.522  22.962  1.00  0.00     0.255 C 
ATOM     24  N   UNL A   1      33.028  23.191  22.311  1.00  0.00    -0.365 N 
ATOM     25  O   UNL A   1      30.939  23.054  23.115  1.00  0.00    -0.269 OA
ATOM     26  H   UNL A   1      33.907  22.766  22.188  1.00  0.00     0.159 HD
ATOM     27  H   UNL A   1      32.867  24.098  21.966  1.00  0.00     0.159 HD
ENDBRANCH  18  23
ENDBRANCH  15  16
ENDBRANCH  14  15
ENDBRANCH   5   8
ENDBRANCH   3   4
ENDBRANCH   2   3
ENDBRANCH   1   2
BRANCH   1  28
ATOM     28  C   UNL A   1      32.167  29.874  25.539  1.00  0.00     0.002 C 
BRANCH  28  29
ATOM     29  C   UNL A   1      32.540  30.505  26.880  1.00  0.00     0.021 C 
BRANCH  29  30
ATOM     30  C   UNL A   1      33.939  30.202  27.392  1.00  0.00     0.116 C 
BRANCH  30  31
ATOM     31  N   UNL A   1      34.475  31.201  28.310  1.00  0.00    -0.352 N 
ATOM     32  C   UNL A   1      35.673  31.177  29.006  1.00  0.00     0.251 C 
ATOM     33  H   UNL A   1      33.912  31.996  28.453  1.00  0.00     0.163 HD
ATOM     34  O   UNL A   1      35.994  32.097  29.739  1.00  0.00    -0.269 OA
BRANCH  32  35
ATOM     35  C   UNL A   1      36.617  30.064  28.747  1.00  0.00     0.039 A 
ATOM     36  C   UNL A   1      36.849  29.144  29.773  1.00  0.00     0.014 A 
ATOM     37  C   UNL A   1      37.415  30.067  27.604  1.00  0.00     0.014 A 
ATOM     38  C   UNL A   1      38.028  28.402  29.763  1.00  0.00     0.010 A 
ATOM     39  C   UNL A   1      38.628  29.409  27.640  1.00  0.00     0.010 A 
ATOM     40  C   UNL A   1      38.964  28.632  28.753  1.00  0.00    -0.014 A 
BRANCH  40  41
ATOM     41  C   UNL A   1      40.358  28.223  28.865  1.00  0.00     0.031 A 
ATOM     42  C   UNL A   1      40.824  26.930  28.332  1.00  0.00     0.074 A 
ATOM     43  C   UNL A   1      41.262  29.056  29.430  1.00  0.00     0.049 A 
ATOM     44  N   UNL A   1      41.806  26.266  28.848  1.00  0.00    -0.248 NA
ATOM     45  C   UNL A   1      40.210  26.268  27.186  1.00  0.00     0.031 C 
ATOM     46  C   UNL A   1      42.716  28.918  29.420  1.00  0.00     0.029 A 
ATOM     47  N   UNL A   1      41.017  30.109  30.327  1.00  0.00    -0.354 N 
ATOM     48  C   UNL A   1      42.135  25.276  27.959  1.00  0.00     0.074 A 
ATOM     49  C   UNL A   1      41.066  25.261  26.983  1.00  0.00     0.031 C 
ATOM     50  C   UNL A   1      43.222  29.599  30.459  1.00  0.00     0.029 A 
ATOM     51  C   UNL A   1      42.099  30.087  31.237  1.00  0.00     0.049 A 
ATOM     52  H   UNL A   1      40.254  30.731  30.323  1.00  0.00     0.167 HD
ATOM     53  C   UNL A   1      43.349  24.665  28.033  1.00  0.00     0.037 A 
ATOM     54  C   UNL A   1      41.919  29.885  32.572  1.00  0.00     0.037 A 
ATOM     55  C   UNL A   1      44.174  25.192  29.111  1.00  0.00     0.049 A 
ATOM     56  C   UNL A   1      42.710  28.733  33.140  1.00  0.00     0.074 A 
ATOM     57  C   UNL A   1      45.212  26.110  29.138  1.00  0.00     0.029 A 
ATOM     58  N   UNL A   1      43.780  25.015  30.433  1.00  0.00    -0.354 N 
ATOM     59  N   UNL A   1      43.205  27.764  32.423  1.00  0.00    -0.248 NA
ATOM     60  C   UNL A   1      42.973  28.563  34.563  1.00  0.00     0.031 C 
ATOM     61  C   UNL A   1      45.459  26.469  30.483  1.00  0.00     0.029 A 
ATOM     62  C   UNL A   1      44.569  25.772  31.279  1.00  0.00     0.049 A 
ATOM     63  H   UNL A   1      43.043  24.432  30.726  1.00  0.00     0.167 HD
ATOM     64  C   UNL A   1      43.827  26.850  33.242  1.00  0.00     0.074 A 
ATOM     65  C   UNL A   1      43.672  27.414  34.570  1.00  0.00     0.031 C 
ATOM     66  C   UNL A   1      44.399  25.717  32.725  1.00  0.00     0.037 A 
BRANCH  53  67
ATOM     67  C   UNL A   1      43.855  23.809  26.904  1.00  0.00     0.064 A 
ATOM     68  C   UNL A   1      43.472  22.462  26.763  1.00  0.00     0.173 A 
ATOM     69  C   UNL A   1      44.791  24.277  25.963  1.00  0.00     0.173 A 
ATOM     70  F   UNL A   1      42.539  21.910  27.547  1.00  0.00    -0.203 F 
ATOM     71  C   UNL A   1      44.061  21.617  25.820  1.00  0.00     0.198 A 
ATOM     72  C   UNL A   1      45.415  23.420  25.052  1.00  0.00     0.198 A 
ATOM     73  F   UNL A   1      45.126  25.576  25.920  1.00  0.00    -0.203 F 
ATOM     74  F   UNL A   1      43.674  20.335  25.743  1.00  0.00    -0.200 F 
ATOM     75  C   UNL A   1      45.059  22.086  24.990  1.00  0.00     0.200 A 
ATOM     76  F   UNL A   1      46.381  23.890  24.252  1.00  0.00    -0.200 F 
ATOM     77  F   UNL A   1      45.669  21.259  24.131  1.00  0.00    -0.200 F 
ENDBRANCH  53  67
BRANCH  54  78
ATOM     78  C   UNL A   1      40.590  30.330  33.063  1.00  0.00     0.064 A 
ATOM     79  C   UNL A   1      40.339  31.713  33.154  1.00  0.00     0.173 A 
ATOM     80  C   UNL A   1      39.488  29.469  33.076  1.00  0.00     0.173 A 
ATOM     81  F   UNL A   1      41.362  32.583  33.139  1.00  0.00    -0.203 F 
ATOM     82  C   UNL A   1      39.040  32.217  33.137  1.00  0.00     0.198 A 
ATOM     83  C   UNL A   1      38.187  29.977  33.075  1.00  0.00     0.198 A 
ATOM     84  F   UNL A   1      39.662  28.144  32.971  1.00  0.00    -0.203 F 
ATOM     85  F   UNL A   1      38.837  33.541  33.102  1.00  0.00    -0.200 F 
ATOM     86  C   UNL A   1      37.966  31.347  33.071  1.00  0.00     0.200 A 
ATOM     87  F   UNL A   1      37.146  29.138  32.979  1.00  0.00    -0.200 F 
ATOM     88  F   UNL A   1      36.720  31.828  32.958  1.00  0.00    -0.200 F 
ENDBRANCH  54  78
BRANCH  66  89
ATOM     89  C   UNL A   1      44.956  24.500  33.455  1.00  0.00     0.064 A 
ATOM     90  C   UNL A   1      44.275  23.290  33.663  1.00  0.00     0.173 A 
ATOM     91  C   UNL A   1      46.310  24.492  33.898  1.00  0.00     0.173 A 
ATOM     92  F   UNL A   1      43.034  23.092  33.211  1.00  0.00    -0.203 F 
ATOM     93  C   UNL A   1      44.871  22.193  34.302  1.00  0.00     0.198 A 
ATOM     94  C   UNL A   1      46.917  23.380  34.482  1.00  0.00     0.198 A 
ATOM     95  F   UNL A   1      47.112  25.558  33.759  1.00  0.00    -0.203 F 
ATOM     96  F   UNL A   1      44.153  21.079  34.506  1.00  0.00    -0.200 F 
ATOM     97  C   UNL A   1      46.193  22.232  34.700  1.00  0.00     0.200 A 
ATOM     98  F   UNL A   1      48.215  23.430  34.816  1.00  0.00    -0.200 F 
ATOM     99  F   UNL A   1      46.768  21.164  35.266  1.00  0.00    -0.200 F 
ENDBRANCH  66  89
ENDBRANCH  40  41
ENDBRANCH  32  35
ENDBRANCH  30  31
ENDBRANCH  29  30
ENDBRANCH  28  29
ENDBRANCH   1  28
TORSDOF 16
ENDMDL
