MODEL 1
REMARK VINA RESULT:     -12.4      0.000      0.000
REMARK SMILES CC[C@@H](C)[C@H](C(=O)NCCCCCCNC(=O)c1ccc(-c2c3nc(c(-c4c(F)c(F)c(F)c(F)c4F)c4ccc([nH]4)c(-c4c(F)c(F)c(F)c(F)c4F)c4nc(c(-c5c(F)c(F)c(F)c(F)c5F)c5ccc2[nH]5)C=C4)C=C3)cc1)N1C(=O)/C(=C/c2ccc3c(c2)OCO3)SC1=S
REMARK SMILES IDX 11 1 10 2 9 3 8 4 6 5 7 6 5 8 3 9 4 10 2 11 1 12 81 13 82 14
REMARK SMILES IDX 96 15 83 16 84 17 95 18 97 19 85 20 86 21 87 22 91 23 88 24
REMARK SMILES IDX 90 25 89 26 92 27 94 28 93 29 12 30 13 31 14 32 15 33 16 34
REMARK SMILES IDX 17 36 18 37 19 38 80 39 20 40 79 41 21 42 22 43 23 44 73 45
REMARK SMILES IDX 24 46 78 47 72 48 74 49 25 50 77 51 71 52 70 53 26 55 58 56
REMARK SMILES IDX 38 57 57 58 39 59 42 60 56 61 75 62 40 63 41 64 55 66 76 67
REMARK SMILES IDX 43 68 27 69 28 70 36 71 29 72 30 73 34 74 37 75 31 76 32 77
REMARK SMILES IDX 35 78 33 79 59 80 60 81 68 82 61 83 62 84 66 85 69 86 63 87
REMARK SMILES IDX 64 88 67 89 65 90 44 91 45 92 53 93 46 94 47 95 51 96 54 97
REMARK SMILES IDX 48 98 49 99 52 100 50 101
REMARK H PARENT 8 7 15 35 74 54 42 65
REMARK Flexibility Score: inf
ROOT
ATOM      1  C   UNL A   1      32.457  30.435  26.329  1.00  0.00     0.002 C 
ENDROOT
BRANCH   1   2
ATOM      2  C   UNL A   1      32.359  29.157  27.170  1.00  0.00     0.021 C 
BRANCH   2   3
ATOM      3  C   UNL A   1      33.443  28.109  26.958  1.00  0.00     0.116 C 
BRANCH   3   4
ATOM      4  N   UNL A   1      34.038  28.016  25.641  1.00  0.00    -0.354 N 
ATOM      5  C   UNL A   1      33.470  27.476  24.505  1.00  0.00     0.243 C 
ATOM      6  O   UNL A   1      33.909  27.839  23.411  1.00  0.00    -0.273 OA
ATOM      7  H   UNL A   1      34.948  28.378  25.546  1.00  0.00     0.163 HD
BRANCH   5   8
ATOM      8  C   UNL A   1      32.304  26.446  24.617  1.00  0.00     0.184 C 
BRANCH   8   9
ATOM      9  C   UNL A   1      31.062  26.961  23.755  1.00  0.00     0.018 C 
ATOM     10  C   UNL A   1      30.888  28.492  23.795  1.00  0.00     0.010 C 
BRANCH   9  11
ATOM     11  C   UNL A   1      29.737  26.258  24.085  1.00  0.00     0.002 C 
ATOM     12  C   UNL A   1      29.573  25.760  25.512  1.00  0.00     0.004 C 
ENDBRANCH   9  11
ENDBRANCH   8   9
BRANCH   8  13
ATOM     13  N   UNL A   1      32.736  25.078  24.177  1.00  0.00    -0.280 N 
ATOM     14  C   UNL A   1      33.486  24.312  25.048  1.00  0.00     0.266 C 
ATOM     15  C   UNL A   1      32.808  24.584  22.889  1.00  0.00     0.149 C 
ATOM     16  O   UNL A   1      34.141  24.709  26.004  1.00  0.00    -0.268 OA
ATOM     17  C   UNL A   1      33.495  22.904  24.619  1.00  0.00     0.081 C 
ATOM     18  S   UNL A   1      33.122  22.838  22.950  1.00  0.00    -0.054 SA
ATOM     19  S   UNL A   1      32.707  25.384  21.428  1.00  0.00    -0.052 S 
ATOM     20  C   UNL A   1      33.754  21.919  25.489  1.00  0.00     0.029 C 
BRANCH  20  21
ATOM     21  C   UNL A   1      33.884  20.526  25.083  1.00  0.00    -0.020 A 
ATOM     22  C   UNL A   1      35.138  19.952  24.788  1.00  0.00     0.012 A 
ATOM     23  C   UNL A   1      32.728  19.739  25.123  1.00  0.00     0.058 A 
ATOM     24  C   UNL A   1      35.251  18.568  24.602  1.00  0.00     0.051 A 
ATOM     25  C   UNL A   1      32.881  18.384  24.986  1.00  0.00     0.166 A 
ATOM     26  C   UNL A   1      34.109  17.811  24.748  1.00  0.00     0.165 A 
ATOM     27  O   UNL A   1      31.894  17.465  25.143  1.00  0.00    -0.454 OA
ATOM     28  O   UNL A   1      34.037  16.452  24.738  1.00  0.00    -0.454 OA
ATOM     29  C   UNL A   1      32.686  16.264  25.214  1.00  0.00     0.468 C 
ENDBRANCH  20  21
ENDBRANCH   8  13
ENDBRANCH   5   8
ENDBRANCH   3   4
ENDBRANCH   2   3
ENDBRANCH   1   2
BRANCH   1  30
ATOM     30  C   UNL A   1      31.214  31.326  26.200  1.00  0.00     0.002 C 
BRANCH  30  31
ATOM     31  C   UNL A   1      31.359  32.821  26.495  1.00  0.00     0.021 C 
BRANCH  31  32
ATOM     32  C   UNL A   1      32.522  33.238  27.387  1.00  0.00     0.116 C 
BRANCH  32  33
ATOM     33  N   UNL A   1      32.413  34.596  27.884  1.00  0.00    -0.352 N 
ATOM     34  C   UNL A   1      33.145  35.254  28.847  1.00  0.00     0.251 C 
ATOM     35  H   UNL A   1      31.701  35.132  27.466  1.00  0.00     0.163 HD
ATOM     36  O   UNL A   1      32.827  36.384  29.176  1.00  0.00    -0.269 OA
BRANCH  34  37
ATOM     37  C   UNL A   1      34.300  34.596  29.508  1.00  0.00     0.039 A 
ATOM     38  C   UNL A   1      34.073  33.905  30.703  1.00  0.00     0.014 A 
ATOM     39  C   UNL A   1      35.599  34.690  29.002  1.00  0.00     0.014 A 
ATOM     40  C   UNL A   1      35.132  33.274  31.363  1.00  0.00     0.010 A 
ATOM     41  C   UNL A   1      36.642  33.999  29.619  1.00  0.00     0.010 A 
ATOM     42  C   UNL A   1      36.423  33.297  30.815  1.00  0.00    -0.014 A 
BRANCH  42  43
ATOM     43  C   UNL A   1      37.562  32.630  31.499  1.00  0.00     0.031 A 
ATOM     44  C   UNL A   1      38.264  31.474  30.837  1.00  0.00     0.074 A 
ATOM     45  C   UNL A   1      37.936  33.026  32.730  1.00  0.00     0.049 A 
ATOM     46  N   UNL A   1      39.234  30.719  31.292  1.00  0.00    -0.248 NA
ATOM     47  C   UNL A   1      37.793  31.097  29.496  1.00  0.00     0.031 C 
ATOM     48  C   UNL A   1      37.314  34.108  33.494  1.00  0.00     0.029 A 
ATOM     49  N   UNL A   1      38.927  32.560  33.558  1.00  0.00    -0.354 N 
ATOM     50  C   UNL A   1      39.473  29.773  30.304  1.00  0.00     0.074 A 
ATOM     51  C   UNL A   1      38.510  30.011  29.250  1.00  0.00     0.031 C 
ATOM     52  C   UNL A   1      37.951  34.238  34.670  1.00  0.00     0.029 A 
ATOM     53  C   UNL A   1      39.002  33.228  34.757  1.00  0.00     0.049 A 
ATOM     54  H   UNL A   1      39.526  31.818  33.318  1.00  0.00     0.167 HD
ATOM     55  C   UNL A   1      40.425  28.810  30.264  1.00  0.00     0.037 A 
ATOM     56  C   UNL A   1      39.825  33.043  35.807  1.00  0.00     0.037 A 
ATOM     57  C   UNL A   1      41.399  28.591  31.301  1.00  0.00     0.049 A 
ATOM     58  C   UNL A   1      40.878  31.970  35.737  1.00  0.00     0.074 A 
ATOM     59  C   UNL A   1      42.430  27.668  31.340  1.00  0.00     0.029 A 
ATOM     60  N   UNL A   1      41.462  29.309  32.487  1.00  0.00    -0.354 N 
ATOM     61  N   UNL A   1      41.131  31.117  34.774  1.00  0.00    -0.248 NA
ATOM     62  C   UNL A   1      41.771  31.843  36.897  1.00  0.00     0.031 C 
ATOM     63  C   UNL A   1      43.091  27.800  32.566  1.00  0.00     0.029 A 
ATOM     64  C   UNL A   1      42.509  28.843  33.268  1.00  0.00     0.049 A 
ATOM     65  H   UNL A   1      40.854  30.041  32.738  1.00  0.00     0.167 HD
ATOM     66  C   UNL A   1      42.234  30.384  35.191  1.00  0.00     0.074 A 
ATOM     67  C   UNL A   1      42.607  30.898  36.493  1.00  0.00     0.031 C 
ATOM     68  C   UNL A   1      42.881  29.378  34.552  1.00  0.00     0.037 A 
BRANCH  55  69
ATOM     69  C   UNL A   1      40.458  27.919  29.053  1.00  0.00     0.064 A 
ATOM     70  C   UNL A   1      39.691  26.746  28.980  1.00  0.00     0.173 A 
ATOM     71  C   UNL A   1      41.250  28.253  27.944  1.00  0.00     0.173 A 
ATOM     72  F   UNL A   1      38.925  26.375  30.017  1.00  0.00    -0.203 F 
ATOM     73  C   UNL A   1      39.744  25.922  27.859  1.00  0.00     0.198 A 
ATOM     74  C   UNL A   1      41.274  27.444  26.810  1.00  0.00     0.198 A 
ATOM     75  F   UNL A   1      41.998  29.366  27.956  1.00  0.00    -0.203 F 
ATOM     76  F   UNL A   1      39.049  24.776  27.839  1.00  0.00    -0.200 F 
ATOM     77  C   UNL A   1      40.530  26.274  26.773  1.00  0.00     0.200 A 
ATOM     78  F   UNL A   1      42.024  27.792  25.756  1.00  0.00    -0.200 F 
ATOM     79  F   UNL A   1      40.577  25.482  25.693  1.00  0.00    -0.200 F 
ENDBRANCH  55  69
BRANCH  56  80
ATOM     80  C   UNL A   1      39.717  33.924  37.000  1.00  0.00     0.064 A 
ATOM     81  C   UNL A   1      38.928  33.551  38.098  1.00  0.00     0.173 A 
ATOM     82  C   UNL A   1      40.385  35.155  37.064  1.00  0.00     0.173 A 
ATOM     83  F   UNL A   1      38.254  32.393  38.076  1.00  0.00    -0.203 F 
ATOM     84  C   UNL A   1      38.794  34.387  39.206  1.00  0.00     0.198 A 
ATOM     85  C   UNL A   1      40.272  35.977  38.185  1.00  0.00     0.198 A 
ATOM     86  F   UNL A   1      41.155  35.556  36.042  1.00  0.00    -0.203 F 
ATOM     87  F   UNL A   1      37.995  34.028  40.219  1.00  0.00    -0.200 F 
ATOM     88  C   UNL A   1      39.471  35.596  39.250  1.00  0.00     0.200 A 
ATOM     89  F   UNL A   1      40.939  37.138  38.230  1.00  0.00    -0.200 F 
ATOM     90  F   UNL A   1      39.343  36.399  40.315  1.00  0.00    -0.200 F 
ENDBRANCH  56  80
BRANCH  68  91
ATOM     91  C   UNL A   1      44.101  28.810  35.220  1.00  0.00     0.064 A 
ATOM     92  C   UNL A   1      44.026  27.726  36.107  1.00  0.00     0.173 A 
ATOM     93  C   UNL A   1      45.368  29.347  34.945  1.00  0.00     0.173 A 
ATOM     94  F   UNL A   1      42.837  27.185  36.414  1.00  0.00    -0.203 F 
ATOM     95  C   UNL A   1      45.170  27.222  36.720  1.00  0.00     0.198 A 
ATOM     96  C   UNL A   1      46.514  28.819  35.534  1.00  0.00     0.198 A 
ATOM     97  F   UNL A   1      45.497  30.379  34.098  1.00  0.00    -0.203 F 
ATOM     98  F   UNL A   1      45.069  26.223  37.607  1.00  0.00    -0.200 F 
ATOM     99  C   UNL A   1      46.413  27.765  36.428  1.00  0.00     0.200 A 
ATOM    100  F   UNL A   1      47.715  29.335  35.239  1.00  0.00    -0.200 F 
ATOM    101  F   UNL A   1      47.515  27.276  37.016  1.00  0.00    -0.200 F 
ENDBRANCH  68  91
ENDBRANCH  42  43
ENDBRANCH  34  37
ENDBRANCH  32  33
ENDBRANCH  31  32
ENDBRANCH  30  31
ENDBRANCH   1  30
TORSDOF 17
ENDMDL
MODEL 2
REMARK VINA RESULT:     -12.0      1.117      7.253
REMARK SMILES CC[C@@H](C)[C@H](C(=O)NCCCCCCNC(=O)c1ccc(-c2c3nc(c(-c4c(F)c(F)c(F)c(F)c4F)c4ccc([nH]4)c(-c4c(F)c(F)c(F)c(F)c4F)c4nc(c(-c5c(F)c(F)c(F)c(F)c5F)c5ccc2[nH]5)C=C4)C=C3)cc1)N1C(=O)/C(=C/c2ccc3c(c2)OCO3)SC1=S
REMARK SMILES IDX 11 1 10 2 9 3 8 4 6 5 7 6 5 8 3 9 4 10 2 11 1 12 81 13 82 14
REMARK SMILES IDX 96 15 83 16 84 17 95 18 97 19 85 20 86 21 87 22 91 23 88 24
REMARK SMILES IDX 90 25 89 26 92 27 94 28 93 29 12 30 13 31 14 32 15 33 16 34
REMARK SMILES IDX 17 36 18 37 19 38 80 39 20 40 79 41 21 42 22 43 23 44 73 45
REMARK SMILES IDX 24 46 78 47 72 48 74 49 25 50 77 51 71 52 70 53 26 55 58 56
REMARK SMILES IDX 38 57 57 58 39 59 42 60 56 61 75 62 40 63 41 64 55 66 76 67
REMARK SMILES IDX 43 68 27 69 28 70 36 71 29 72 30 73 34 74 37 75 31 76 32 77
REMARK SMILES IDX 35 78 33 79 59 80 60 81 68 82 61 83 62 84 66 85 69 86 63 87
REMARK SMILES IDX 64 88 67 89 65 90 44 91 45 92 53 93 46 94 47 95 51 96 54 97
REMARK SMILES IDX 48 98 49 99 52 100 50 101
REMARK H PARENT 8 7 15 35 74 54 42 65
REMARK Flexibility Score: inf
ROOT
ATOM      1  C   UNL A   1      30.887  30.241  24.652  1.00  0.00     0.002 C 
ENDROOT
BRANCH   1   2
ATOM      2  C   UNL A   1      29.832  29.777  23.640  1.00  0.00     0.021 C 
BRANCH   2   3
ATOM      3  C   UNL A   1      30.024  28.396  23.030  1.00  0.00     0.116 C 
BRANCH   3   4
ATOM      4  N   UNL A   1      29.636  27.251  23.826  1.00  0.00    -0.354 N 
ATOM      5  C   UNL A   1      30.430  26.529  24.693  1.00  0.00     0.243 C 
ATOM      6  O   UNL A   1      29.875  25.879  25.582  1.00  0.00    -0.273 OA
ATOM      7  H   UNL A   1      28.702  26.954  23.739  1.00  0.00     0.163 HD
BRANCH   5   8
ATOM      8  C   UNL A   1      31.984  26.551  24.547  1.00  0.00     0.184 C 
BRANCH   8   9
ATOM      9  C   UNL A   1      32.635  27.039  25.922  1.00  0.00     0.018 C 
ATOM     10  C   UNL A   1      31.595  27.550  26.938  1.00  0.00     0.010 C 
BRANCH   9  11
ATOM     11  C   UNL A   1      33.770  28.059  25.749  1.00  0.00     0.002 C 
ATOM     12  C   UNL A   1      34.037  28.979  26.930  1.00  0.00     0.004 C 
ENDBRANCH   9  11
ENDBRANCH   8   9
BRANCH   8  13
ATOM     13  N   UNL A   1      32.516  25.207  24.144  1.00  0.00    -0.280 N 
ATOM     14  C   UNL A   1      33.172  24.446  25.091  1.00  0.00     0.266 C 
ATOM     15  C   UNL A   1      32.770  24.744  22.867  1.00  0.00     0.149 C 
ATOM     16  O   UNL A   1      33.684  24.843  26.131  1.00  0.00    -0.268 OA
ATOM     17  C   UNL A   1      33.284  23.049  24.643  1.00  0.00     0.081 C 
ATOM     18  S   UNL A   1      33.131  23.008  22.938  1.00  0.00    -0.054 SA
ATOM     19  S   UNL A   1      32.831  25.571  21.420  1.00  0.00    -0.052 S 
ATOM     20  C   UNL A   1      33.461  22.054  25.522  1.00  0.00     0.029 C 
BRANCH  20  21
ATOM     21  C   UNL A   1      33.689  20.674  25.112  1.00  0.00    -0.020 A 
ATOM     22  C   UNL A   1      34.983  20.187  24.833  1.00  0.00     0.012 A 
ATOM     23  C   UNL A   1      32.588  19.813  25.132  1.00  0.00     0.058 A 
ATOM     24  C   UNL A   1      35.191  18.815  24.643  1.00  0.00     0.051 A 
ATOM     25  C   UNL A   1      32.833  18.472  24.991  1.00  0.00     0.166 A 
ATOM     26  C   UNL A   1      34.099  17.982  24.769  1.00  0.00     0.165 A 
ATOM     27  O   UNL A   1      31.906  17.488  25.130  1.00  0.00    -0.454 OA
ATOM     28  O   UNL A   1      34.118  16.622  24.752  1.00  0.00    -0.454 OA
ATOM     29  C   UNL A   1      32.775  16.342  25.208  1.00  0.00     0.468 C 
ENDBRANCH  20  21
ENDBRANCH   8  13
ENDBRANCH   5   8
ENDBRANCH   3   4
ENDBRANCH   2   3
ENDBRANCH   1   2
BRANCH   1  30
ATOM     30  C   UNL A   1      30.651  31.556  25.407  1.00  0.00     0.002 C 
BRANCH  30  31
ATOM     31  C   UNL A   1      31.267  31.713  26.800  1.00  0.00     0.021 C 
BRANCH  31  32
ATOM     32  C   UNL A   1      32.582  32.477  26.890  1.00  0.00     0.116 C 
BRANCH  32  33
ATOM     33  N   UNL A   1      32.441  33.812  27.436  1.00  0.00    -0.352 N 
ATOM     34  C   UNL A   1      33.168  34.458  28.412  1.00  0.00     0.251 C 
ATOM     35  H   UNL A   1      31.707  34.342  27.048  1.00  0.00     0.163 HD
ATOM     36  O   UNL A   1      32.822  35.565  28.787  1.00  0.00    -0.269 OA
BRANCH  34  37
ATOM     37  C   UNL A   1      34.353  33.812  29.032  1.00  0.00     0.039 A 
ATOM     38  C   UNL A   1      34.141  32.729  29.893  1.00  0.00     0.014 A 
ATOM     39  C   UNL A   1      35.652  34.281  28.821  1.00  0.00     0.014 A 
ATOM     40  C   UNL A   1      35.227  32.093  30.503  1.00  0.00     0.010 A 
ATOM     41  C   UNL A   1      36.739  33.601  29.369  1.00  0.00     0.010 A 
ATOM     42  C   UNL A   1      36.538  32.510  30.229  1.00  0.00    -0.014 A 
BRANCH  42  43
ATOM     43  C   UNL A   1      37.706  31.845  30.864  1.00  0.00     0.031 A 
ATOM     44  C   UNL A   1      38.130  32.235  32.256  1.00  0.00     0.074 A 
ATOM     45  C   UNL A   1      38.416  30.929  30.179  1.00  0.00     0.049 A 
ATOM     46  N   UNL A   1      39.155  31.822  32.959  1.00  0.00    -0.248 NA
ATOM     47  C   UNL A   1      37.307  33.248  32.935  1.00  0.00     0.031 C 
ATOM     48  C   UNL A   1      38.132  30.490  28.812  1.00  0.00     0.029 A 
ATOM     49  N   UNL A   1      39.526  30.205  30.537  1.00  0.00    -0.354 N 
ATOM     50  C   UNL A   1      39.108  32.535  34.150  1.00  0.00     0.074 A 
ATOM     51  C   UNL A   1      37.989  33.448  34.052  1.00  0.00     0.031 C 
ATOM     52  C   UNL A   1      39.031  29.558  28.454  1.00  0.00     0.029 A 
ATOM     53  C   UNL A   1      39.973  29.358  29.552  1.00  0.00     0.049 A 
ATOM     54  H   UNL A   1      39.962  30.286  31.415  1.00  0.00     0.167 HD
ATOM     55  C   UNL A   1      39.907  32.421  35.239  1.00  0.00     0.037 A 
ATOM     56  C   UNL A   1      41.024  28.516  29.538  1.00  0.00     0.037 A 
ATOM     57  C   UNL A   1      41.003  31.494  35.346  1.00  0.00     0.049 A 
ATOM     58  C   UNL A   1      41.894  28.404  30.761  1.00  0.00     0.074 A 
ATOM     59  C   UNL A   1      41.849  31.273  36.419  1.00  0.00     0.029 A 
ATOM     60  N   UNL A   1      41.404  30.630  34.337  1.00  0.00    -0.354 N 
ATOM     61  N   UNL A   1      41.808  29.044  31.902  1.00  0.00    -0.248 NA
ATOM     62  C   UNL A   1      43.003  27.441  30.697  1.00  0.00     0.031 C 
ATOM     63  C   UNL A   1      42.787  30.305  36.046  1.00  0.00     0.029 A 
ATOM     64  C   UNL A   1      42.492  29.881  34.760  1.00  0.00     0.049 A 
ATOM     65  H   UNL A   1      40.980  30.558  33.451  1.00  0.00     0.167 HD
ATOM     66  C   UNL A   1      42.818  28.532  32.705  1.00  0.00     0.074 A 
ATOM     67  C   UNL A   1      43.502  27.523  31.922  1.00  0.00     0.031 C 
ATOM     68  C   UNL A   1      43.148  28.865  33.977  1.00  0.00     0.037 A 
BRANCH  55  69
ATOM     69  C   UNL A   1      39.620  33.326  36.405  1.00  0.00     0.064 A 
ATOM     70  C   UNL A   1      38.747  32.945  37.436  1.00  0.00     0.173 A 
ATOM     71  C   UNL A   1      40.242  34.580  36.504  1.00  0.00     0.173 A 
ATOM     72  F   UNL A   1      38.118  31.761  37.385  1.00  0.00    -0.203 F 
ATOM     73  C   UNL A   1      38.478  33.800  38.502  1.00  0.00     0.198 A 
ATOM     74  C   UNL A   1      39.997  35.418  37.590  1.00  0.00     0.198 A 
ATOM     75  F   UNL A   1      41.091  34.992  35.551  1.00  0.00    -0.203 F 
ATOM     76  F   UNL A   1      37.594  33.438  39.442  1.00  0.00    -0.200 F 
ATOM     77  C   UNL A   1      39.107  35.032  38.581  1.00  0.00     0.200 A 
ATOM     78  F   UNL A   1      40.616  36.603  37.672  1.00  0.00    -0.200 F 
ATOM     79  F   UNL A   1      38.851  35.853  39.609  1.00  0.00    -0.200 F 
ENDBRANCH  55  69
BRANCH  56  80
ATOM     80  C   UNL A   1      41.289  27.679  28.338  1.00  0.00     0.064 A 
ATOM     81  C   UNL A   1      42.175  28.112  27.340  1.00  0.00     0.173 A 
ATOM     82  C   UNL A   1      40.658  26.440  28.156  1.00  0.00     0.173 A 
ATOM     83  F   UNL A   1      42.787  29.299  27.459  1.00  0.00    -0.203 F 
ATOM     84  C   UNL A   1      42.402  27.349  26.197  1.00  0.00     0.198 A 
ATOM     85  C   UNL A   1      40.909  25.664  27.025  1.00  0.00     0.198 A 
ATOM     86  F   UNL A   1      39.806  25.978  29.083  1.00  0.00    -0.203 F 
ATOM     87  F   UNL A   1      43.215  27.810  25.237  1.00  0.00    -0.200 F 
ATOM     88  C   UNL A   1      41.773  26.123  26.043  1.00  0.00     0.200 A 
ATOM     89  F   UNL A   1      40.310  24.474  26.887  1.00  0.00    -0.200 F 
ATOM     90  F   UNL A   1      41.993  25.388  24.944  1.00  0.00    -0.200 F 
ENDBRANCH  56  80
BRANCH  68  91
ATOM     91  C   UNL A   1      44.256  28.087  34.628  1.00  0.00     0.064 A 
ATOM     92  C   UNL A   1      45.590  28.519  34.591  1.00  0.00     0.173 A 
ATOM     93  C   UNL A   1      43.970  26.902  35.323  1.00  0.00     0.173 A 
ATOM     94  F   UNL A   1      45.919  29.638  33.928  1.00  0.00    -0.203 F 
ATOM     95  C   UNL A   1      46.600  27.776  35.195  1.00  0.00     0.198 A 
ATOM     96  C   UNL A   1      44.977  26.179  35.955  1.00  0.00     0.198 A 
ATOM     97  F   UNL A   1      42.710  26.448  35.398  1.00  0.00    -0.203 F 
ATOM     98  F   UNL A   1      47.875  28.178  35.098  1.00  0.00    -0.200 F 
ATOM     99  C   UNL A   1      46.293  26.611  35.882  1.00  0.00     0.200 A 
ATOM    100  F   UNL A   1      44.676  25.062  36.631  1.00  0.00    -0.200 F 
ATOM    101  F   UNL A   1      47.266  25.898  36.466  1.00  0.00    -0.200 F 
ENDBRANCH  68  91
ENDBRANCH  42  43
ENDBRANCH  34  37
ENDBRANCH  32  33
ENDBRANCH  31  32
ENDBRANCH  30  31
ENDBRANCH   1  30
TORSDOF 17
ENDMDL
MODEL 3
REMARK VINA RESULT:     -11.9      0.955      7.155
REMARK SMILES CC[C@@H](C)[C@H](C(=O)NCCCCCCNC(=O)c1ccc(-c2c3nc(c(-c4c(F)c(F)c(F)c(F)c4F)c4ccc([nH]4)c(-c4c(F)c(F)c(F)c(F)c4F)c4nc(c(-c5c(F)c(F)c(F)c(F)c5F)c5ccc2[nH]5)C=C4)C=C3)cc1)N1C(=O)/C(=C/c2ccc3c(c2)OCO3)SC1=S
REMARK SMILES IDX 11 1 10 2 9 3 8 4 6 5 7 6 5 8 3 9 4 10 2 11 1 12 81 13 82 14
REMARK SMILES IDX 96 15 83 16 84 17 95 18 97 19 85 20 86 21 87 22 91 23 88 24
REMARK SMILES IDX 90 25 89 26 92 27 94 28 93 29 12 30 13 31 14 32 15 33 16 34
REMARK SMILES IDX 17 36 18 37 19 38 80 39 20 40 79 41 21 42 22 43 23 44 73 45
REMARK SMILES IDX 24 46 78 47 72 48 74 49 25 50 77 51 71 52 70 53 26 55 58 56
REMARK SMILES IDX 38 57 57 58 39 59 42 60 56 61 75 62 40 63 41 64 55 66 76 67
REMARK SMILES IDX 43 68 27 69 28 70 36 71 29 72 30 73 34 74 37 75 31 76 32 77
REMARK SMILES IDX 35 78 33 79 59 80 60 81 68 82 61 83 62 84 66 85 69 86 63 87
REMARK SMILES IDX 64 88 67 89 65 90 44 91 45 92 53 93 46 94 47 95 51 96 54 97
REMARK SMILES IDX 48 98 49 99 52 100 50 101
REMARK H PARENT 8 7 15 35 74 54 42 65
REMARK Flexibility Score: inf
ROOT
ATOM      1  C   UNL A   1      32.241  30.280  26.327  1.00  0.00     0.002 C 
ENDROOT
BRANCH   1   2
ATOM      2  C   UNL A   1      31.960  29.029  27.167  1.00  0.00     0.021 C 
BRANCH   2   3
ATOM      3  C   UNL A   1      32.922  27.860  27.006  1.00  0.00     0.116 C 
BRANCH   3   4
ATOM      4  N   UNL A   1      33.614  27.731  25.739  1.00  0.00    -0.354 N 
ATOM      5  C   UNL A   1      33.095  27.265  24.549  1.00  0.00     0.243 C 
ATOM      6  O   UNL A   1      33.656  27.601  23.503  1.00  0.00    -0.273 OA
ATOM      7  H   UNL A   1      34.559  28.006  25.728  1.00  0.00     0.163 HD
BRANCH   5   8
ATOM      8  C   UNL A   1      31.832  26.349  24.541  1.00  0.00     0.184 C 
BRANCH   8   9
ATOM      9  C   UNL A   1      30.687  27.038  23.666  1.00  0.00     0.018 C 
ATOM     10  C   UNL A   1      30.721  28.578  23.727  1.00  0.00     0.010 C 
BRANCH   9  11
ATOM     11  C   UNL A   1      29.273  26.516  23.963  1.00  0.00     0.002 C 
ATOM     12  C   UNL A   1      28.119  27.406  23.528  1.00  0.00     0.004 C 
ENDBRANCH   9  11
ENDBRANCH   8   9
BRANCH   8  13
ATOM     13  N   UNL A   1      32.153  24.977  24.026  1.00  0.00    -0.280 N 
ATOM     14  C   UNL A   1      32.595  24.023  24.922  1.00  0.00     0.266 C 
ATOM     15  C   UNL A   1      32.420  24.600  22.724  1.00  0.00     0.149 C 
ATOM     16  O   UNL A   1      33.088  24.219  26.026  1.00  0.00    -0.268 OA
ATOM     17  C   UNL A   1      32.498  22.678  24.333  1.00  0.00     0.081 C 
ATOM     18  S   UNL A   1      32.471  22.828  22.628  1.00  0.00    -0.054 SA
ATOM     19  S   UNL A   1      32.732  25.538  21.380  1.00  0.00    -0.052 S 
ATOM     20  C   UNL A   1      32.435  21.587  25.108  1.00  0.00     0.029 C 
BRANCH  20  21
ATOM     21  C   UNL A   1      32.452  20.235  24.566  1.00  0.00    -0.020 A 
ATOM     22  C   UNL A   1      32.210  19.980  23.200  1.00  0.00     0.012 A 
ATOM     23  C   UNL A   1      32.848  19.207  25.428  1.00  0.00     0.058 A 
ATOM     24  C   UNL A   1      32.434  18.702  22.674  1.00  0.00     0.051 A 
ATOM     25  C   UNL A   1      33.106  17.981  24.871  1.00  0.00     0.166 A 
ATOM     26  C   UNL A   1      32.921  17.737  23.530  1.00  0.00     0.165 A 
ATOM     27  O   UNL A   1      33.635  16.918  25.530  1.00  0.00    -0.454 OA
ATOM     28  O   UNL A   1      33.324  16.484  23.185  1.00  0.00    -0.454 OA
ATOM     29  C   UNL A   1      33.976  16.079  24.410  1.00  0.00     0.468 C 
ENDBRANCH  20  21
ENDBRANCH   8  13
ENDBRANCH   5   8
ENDBRANCH   3   4
ENDBRANCH   2   3
ENDBRANCH   1   2
BRANCH   1  30
ATOM     30  C   UNL A   1      31.117  31.307  26.141  1.00  0.00     0.002 C 
BRANCH  30  31
ATOM     31  C   UNL A   1      31.429  32.781  26.412  1.00  0.00     0.021 C 
BRANCH  31  32
ATOM     32  C   UNL A   1      32.603  33.079  27.338  1.00  0.00     0.116 C 
BRANCH  32  33
ATOM     33  N   UNL A   1      32.595  34.428  27.868  1.00  0.00    -0.352 N 
ATOM     34  C   UNL A   1      33.411  35.023  28.804  1.00  0.00     0.251 C 
ATOM     35  H   UNL A   1      31.893  35.012  27.500  1.00  0.00     0.163 HD
ATOM     36  O   UNL A   1      33.174  36.160  29.174  1.00  0.00    -0.269 OA
BRANCH  34  37
ATOM     37  C   UNL A   1      34.562  34.288  29.388  1.00  0.00     0.039 A 
ATOM     38  C   UNL A   1      34.312  33.383  30.426  1.00  0.00     0.014 A 
ATOM     39  C   UNL A   1      35.876  34.509  28.968  1.00  0.00     0.014 A 
ATOM     40  C   UNL A   1      35.366  32.673  31.009  1.00  0.00     0.010 A 
ATOM     41  C   UNL A   1      36.918  33.747  29.497  1.00  0.00     0.010 A 
ATOM     42  C   UNL A   1      36.677  32.832  30.535  1.00  0.00    -0.014 A 
BRANCH  42  43
ATOM     43  C   UNL A   1      37.810  32.084  31.138  1.00  0.00     0.031 A 
ATOM     44  C   UNL A   1      38.269  32.409  32.535  1.00  0.00     0.074 A 
ATOM     45  C   UNL A   1      38.460  31.148  30.420  1.00  0.00     0.049 A 
ATOM     46  N   UNL A   1      39.274  31.918  33.216  1.00  0.00    -0.248 NA
ATOM     47  C   UNL A   1      37.512  33.447  33.252  1.00  0.00     0.031 C 
ATOM     48  C   UNL A   1      38.139  30.766  29.044  1.00  0.00     0.029 A 
ATOM     49  N   UNL A   1      39.530  30.352  30.745  1.00  0.00    -0.354 N 
ATOM     50  C   UNL A   1      39.280  32.598  34.427  1.00  0.00     0.074 A 
ATOM     51  C   UNL A   1      38.215  33.576  34.367  1.00  0.00     0.031 C 
ATOM     52  C   UNL A   1      38.979  29.794  28.651  1.00  0.00     0.029 A 
ATOM     53  C   UNL A   1      39.918  29.509  29.732  1.00  0.00     0.049 A 
ATOM     54  H   UNL A   1      39.978  30.383  31.621  1.00  0.00     0.167 HD
ATOM     55  C   UNL A   1      40.081  32.408  35.503  1.00  0.00     0.037 A 
ATOM     56  C   UNL A   1      40.919  28.609  29.683  1.00  0.00     0.037 A 
ATOM     57  C   UNL A   1      41.123  31.417  35.571  1.00  0.00     0.049 A 
ATOM     58  C   UNL A   1      41.792  28.413  30.893  1.00  0.00     0.074 A 
ATOM     59  C   UNL A   1      41.965  31.117  36.629  1.00  0.00     0.029 A 
ATOM     60  N   UNL A   1      41.465  30.560  34.535  1.00  0.00    -0.354 N 
ATOM     61  N   UNL A   1      41.753  29.024  32.052  1.00  0.00    -0.248 NA
ATOM     62  C   UNL A   1      42.843  27.390  30.790  1.00  0.00     0.031 C 
ATOM     63  C   UNL A   1      42.842  30.107  36.218  1.00  0.00     0.029 A 
ATOM     64  C   UNL A   1      42.511  29.738  34.925  1.00  0.00     0.049 A 
ATOM     65  H   UNL A   1      41.029  30.538  33.652  1.00  0.00     0.167 HD
ATOM     66  C   UNL A   1      42.740  28.432  32.829  1.00  0.00     0.074 A 
ATOM     67  C   UNL A   1      43.357  27.408  32.011  1.00  0.00     0.031 C 
ATOM     68  C   UNL A   1      43.101  28.710  34.107  1.00  0.00     0.037 A 
BRANCH  55  69
ATOM     69  C   UNL A   1      39.858  33.294  36.697  1.00  0.00     0.064 A 
ATOM     70  C   UNL A   1      40.600  34.469  36.891  1.00  0.00     0.173 A 
ATOM     71  C   UNL A   1      38.875  32.976  37.647  1.00  0.00     0.173 A 
ATOM     72  F   UNL A   1      41.560  34.813  36.019  1.00  0.00    -0.203 F 
ATOM     73  C   UNL A   1      40.395  35.271  38.011  1.00  0.00     0.198 A 
ATOM     74  C   UNL A   1      38.648  33.800  38.747  1.00  0.00     0.198 A 
ATOM     75  F   UNL A   1      38.131  31.869  37.508  1.00  0.00    -0.203 F 
ATOM     76  F   UNL A   1      41.159  36.355  38.205  1.00  0.00    -0.200 F 
ATOM     77  C   UNL A   1      39.416  34.940  38.934  1.00  0.00     0.200 A 
ATOM     78  F   UNL A   1      37.692  33.486  39.632  1.00  0.00    -0.200 F 
ATOM     79  F   UNL A   1      39.215  35.715  40.009  1.00  0.00    -0.200 F 
ENDBRANCH  55  69
BRANCH  56  80
ATOM     80  C   UNL A   1      41.124  27.793  28.457  1.00  0.00     0.064 A 
ATOM     81  C   UNL A   1      42.023  28.203  27.462  1.00  0.00     0.173 A 
ATOM     82  C   UNL A   1      40.421  26.597  28.249  1.00  0.00     0.173 A 
ATOM     83  F   UNL A   1      42.702  29.350  27.606  1.00  0.00    -0.203 F 
ATOM     84  C   UNL A   1      42.195  27.461  26.295  1.00  0.00     0.198 A 
ATOM     85  C   UNL A   1      40.616  25.841  27.094  1.00  0.00     0.198 A 
ATOM     86  F   UNL A   1      39.553  26.157  29.172  1.00  0.00    -0.203 F 
ATOM     87  F   UNL A   1      43.023  27.903  25.340  1.00  0.00    -0.200 F 
ATOM     88  C   UNL A   1      41.496  26.277  26.115  1.00  0.00     0.200 A 
ATOM     89  F   UNL A   1      39.950  24.690  26.929  1.00  0.00    -0.200 F 
ATOM     90  F   UNL A   1      41.663  25.563  24.994  1.00  0.00    -0.200 F 
ENDBRANCH  56  80
BRANCH  68  91
ATOM     91  C   UNL A   1      44.168  27.851  34.724  1.00  0.00     0.064 A 
ATOM     92  C   UNL A   1      43.867  26.650  35.384  1.00  0.00     0.173 A 
ATOM     93  C   UNL A   1      45.517  28.226  34.627  1.00  0.00     0.173 A 
ATOM     94  F   UNL A   1      42.592  26.254  35.516  1.00  0.00    -0.203 F 
ATOM     95  C   UNL A   1      44.873  25.875  35.954  1.00  0.00     0.198 A 
ATOM     96  C   UNL A   1      46.523  27.431  35.168  1.00  0.00     0.198 A 
ATOM     97  F   UNL A   1      45.861  29.359  33.998  1.00  0.00    -0.203 F 
ATOM     98  F   UNL A   1      44.557  24.762  36.630  1.00  0.00    -0.200 F 
ATOM     99  C   UNL A   1      46.200  26.263  35.841  1.00  0.00     0.200 A 
ATOM    100  F   UNL A   1      47.806  27.800  35.045  1.00  0.00    -0.200 F 
ATOM    101  F   UNL A   1      47.168  25.513  36.387  1.00  0.00    -0.200 F 
ENDBRANCH  68  91
ENDBRANCH  42  43
ENDBRANCH  34  37
ENDBRANCH  32  33
ENDBRANCH  31  32
ENDBRANCH  30  31
ENDBRANCH   1  30
TORSDOF 17
ENDMDL
