MODEL 1
REMARK VINA RESULT:     -12.1      0.000      0.000
REMARK SMILES Cc1cc2nc(SCC(=O)NCCCCCCNC(=O)c3ccc(-c4c5nc(c(-c6c(F)c(F)c(F)c(F)c6F)c6ccc([nH]6)c(-c6c(F)c(F)c(F)c(F)c6F)c6nc(c(-c7c(F)c(F)c(F)c(F)c7F)c7ccc4[nH]7)C=C6)C=C5)cc3)[nH]c(=O)c2[nH]1
REMARK SMILES IDX 14 1 13 2 12 3 11 4 9 5 10 6 8 8 7 9 6 10 1 11 2 12 3 13
REMARK SMILES IDX 88 14 4 15 87 16 5 18 85 19 84 20 86 21 15 23 16 24 17 25
REMARK SMILES IDX 18 26 19 27 20 29 21 30 22 31 83 32 23 33 82 34 24 35 25 36
REMARK SMILES IDX 26 37 76 38 27 39 81 40 75 41 77 42 28 43 80 44 74 45 73 46
REMARK SMILES IDX 29 48 61 49 41 50 60 51 42 52 45 53 59 54 78 55 43 56 44 57
REMARK SMILES IDX 58 59 79 60 46 61 30 62 31 63 39 64 32 65 33 66 37 67 40 68
REMARK SMILES IDX 34 69 35 70 38 71 36 72 62 73 63 74 71 75 64 76 65 77 69 78
REMARK SMILES IDX 72 79 66 80 67 81 70 82 68 83 47 84 48 85 56 86 49 87 50 88
REMARK SMILES IDX 54 89 57 90 51 91 52 92 55 93 53 94
REMARK H PARENT 11 7 88 17 84 22 18 28 77 47 45 58
REMARK Flexibility Score: inf
ROOT
ATOM      1  C   UNL A   1      33.819  28.542  26.806  1.00  0.00     0.002 C 
ENDROOT
BRANCH   1   2
ATOM      2  C   UNL A   1      32.333  28.925  26.828  1.00  0.00     0.021 C 
BRANCH   2   3
ATOM      3  C   UNL A   1      31.411  27.875  26.203  1.00  0.00     0.116 C 
BRANCH   3   4
ATOM      4  N   UNL A   1      31.484  26.633  26.951  1.00  0.00    -0.355 N 
ATOM      5  C   UNL A   1      31.561  25.361  26.479  1.00  0.00     0.230 C 
ATOM      6  O   UNL A   1      31.326  24.421  27.243  1.00  0.00    -0.274 OA
ATOM      7  H   UNL A   1      31.478  26.725  27.931  1.00  0.00     0.163 HD
BRANCH   5   8
ATOM      8  C   UNL A   1      31.951  25.083  25.048  1.00  0.00     0.178 C 
BRANCH   8   9
ATOM      9  S   UNL A   1      31.240  23.589  24.366  1.00  0.00    -0.078 SA
BRANCH   9  10
ATOM     10  C   UNL A   1      32.380  22.287  24.591  1.00  0.00     0.169 A 
ATOM     11  C   UNL A   1      37.717  19.752  24.874  1.00  0.00     0.064 C 
ATOM     12  C   UNL A   1      36.347  20.320  24.889  1.00  0.00     0.014 A 
ATOM     13  C   UNL A   1      35.916  21.623  24.687  1.00  0.00     0.052 A 
ATOM     14  N   UNL A   1      35.229  19.538  25.116  1.00  0.00    -0.353 N 
ATOM     15  C   UNL A   1      34.518  21.587  24.735  1.00  0.00     0.097 A 
ATOM     16  C   UNL A   1      34.111  20.312  24.986  1.00  0.00     0.131 A 
ATOM     17  H   UNL A   1      35.239  18.577  25.335  1.00  0.00     0.166 HD
ATOM     18  N   UNL A   1      33.630  22.638  24.535  1.00  0.00    -0.222 NA
ATOM     19  C   UNL A   1      32.738  19.940  25.060  1.00  0.00     0.275 A 
ATOM     20  N   UNL A   1      31.906  21.018  24.834  1.00  0.00    -0.300 N 
ATOM     21  O   UNL A   1      32.329  18.817  25.288  1.00  0.00    -0.267 OA
ATOM     22  H   UNL A   1      30.933  20.872  24.846  1.00  0.00     0.172 HD
ENDBRANCH   9  10
ENDBRANCH   8   9
ENDBRANCH   5   8
ENDBRANCH   3   4
ENDBRANCH   2   3
ENDBRANCH   1   2
BRANCH   1  23
ATOM     23  C   UNL A   1      34.797  29.655  27.218  1.00  0.00     0.002 C 
BRANCH  23  24
ATOM     24  C   UNL A   1      34.167  31.013  27.557  1.00  0.00     0.021 C 
BRANCH  24  25
ATOM     25  C   UNL A   1      35.196  32.086  27.848  1.00  0.00     0.116 C 
BRANCH  25  26
ATOM     26  N   UNL A   1      35.082  32.617  29.210  1.00  0.00    -0.352 N 
ATOM     27  C   UNL A   1      35.617  32.101  30.373  1.00  0.00     0.251 C 
ATOM     28  H   UNL A   1      34.558  33.445  29.306  1.00  0.00     0.163 HD
ATOM     29  O   UNL A   1      35.184  32.423  31.473  1.00  0.00    -0.269 OA
BRANCH  27  30
ATOM     30  C   UNL A   1      36.760  31.181  30.263  1.00  0.00     0.039 A 
ATOM     31  C   UNL A   1      36.612  29.791  30.270  1.00  0.00     0.014 A 
ATOM     32  C   UNL A   1      38.021  31.762  30.172  1.00  0.00     0.014 A 
ATOM     33  C   UNL A   1      37.761  29.008  30.200  1.00  0.00     0.010 A 
ATOM     34  C   UNL A   1      39.100  31.008  29.833  1.00  0.00     0.010 A 
ATOM     35  C   UNL A   1      38.996  29.642  30.009  1.00  0.00    -0.014 A 
BRANCH  35  36
ATOM     36  C   UNL A   1      40.255  28.931  29.990  1.00  0.00     0.031 A 
ATOM     37  C   UNL A   1      40.850  28.727  31.327  1.00  0.00     0.074 A 
ATOM     38  C   UNL A   1      40.687  28.302  28.874  1.00  0.00     0.049 A 
ATOM     39  N   UNL A   1      41.920  29.271  31.796  1.00  0.00    -0.248 NA
ATOM     40  C   UNL A   1      40.083  27.955  32.318  1.00  0.00     0.031 C 
ATOM     41  C   UNL A   1      40.018  28.139  27.574  1.00  0.00     0.029 A 
ATOM     42  N   UNL A   1      41.831  27.592  28.703  1.00  0.00    -0.354 N 
ATOM     43  C   UNL A   1      42.069  28.767  33.082  1.00  0.00     0.074 A 
ATOM     44  C   UNL A   1      40.824  28.125  33.414  1.00  0.00     0.031 C 
ATOM     45  C   UNL A   1      40.675  27.215  26.833  1.00  0.00     0.029 A 
ATOM     46  C   UNL A   1      41.889  26.844  27.532  1.00  0.00     0.049 A 
ATOM     47  H   UNL A   1      42.564  27.605  29.360  1.00  0.00     0.167 HD
ATOM     48  C   UNL A   1      43.293  28.721  33.674  1.00  0.00     0.037 A 
ATOM     49  C   UNL A   1      42.872  25.963  27.210  1.00  0.00     0.037 A 
ATOM     50  C   UNL A   1      44.240  29.545  32.965  1.00  0.00     0.049 A 
ATOM     51  C   UNL A   1      44.050  26.317  28.050  1.00  0.00     0.074 A 
ATOM     52  C   UNL A   1      44.340  30.900  32.715  1.00  0.00     0.029 A 
ATOM     53  N   UNL A   1      45.044  28.935  32.033  1.00  0.00    -0.354 N 
ATOM     54  N   UNL A   1      44.705  27.440  27.932  1.00  0.00    -0.248 NA
ATOM     55  C   UNL A   1      44.166  25.655  29.342  1.00  0.00     0.031 C 
ATOM     56  C   UNL A   1      44.791  30.994  31.364  1.00  0.00     0.029 A 
ATOM     57  C   UNL A   1      45.017  29.699  30.891  1.00  0.00     0.049 A 
ATOM     58  H   UNL A   1      45.549  28.099  32.159  1.00  0.00     0.167 HD
ATOM     59  C   UNL A   1      44.969  27.837  29.236  1.00  0.00     0.074 A 
ATOM     60  C   UNL A   1      44.653  26.670  30.059  1.00  0.00     0.031 C 
ATOM     61  C   UNL A   1      45.129  29.155  29.557  1.00  0.00     0.037 A 
BRANCH  48  62
ATOM     62  C   UNL A   1      43.722  27.680  34.673  1.00  0.00     0.064 A 
ATOM     63  C   UNL A   1      43.740  26.326  34.289  1.00  0.00     0.173 A 
ATOM     64  C   UNL A   1      43.848  27.923  36.058  1.00  0.00     0.173 A 
ATOM     65  F   UNL A   1      43.607  25.980  32.999  1.00  0.00    -0.203 F 
ATOM     66  C   UNL A   1      43.812  25.293  35.227  1.00  0.00     0.198 A 
ATOM     67  C   UNL A   1      43.976  26.892  36.987  1.00  0.00     0.198 A 
ATOM     68  F   UNL A   1      43.739  29.150  36.581  1.00  0.00    -0.203 F 
ATOM     69  F   UNL A   1      43.708  24.021  34.824  1.00  0.00    -0.200 F 
ATOM     70  C   UNL A   1      43.927  25.578  36.575  1.00  0.00     0.200 A 
ATOM     71  F   UNL A   1      44.066  27.188  38.291  1.00  0.00    -0.200 F 
ATOM     72  F   UNL A   1      43.942  24.591  37.481  1.00  0.00    -0.200 F 
ENDBRANCH  48  62
BRANCH  49  73
ATOM     73  C   UNL A   1      42.724  24.619  26.590  1.00  0.00     0.064 A 
ATOM     74  C   UNL A   1      43.365  24.311  25.376  1.00  0.00     0.173 A 
ATOM     75  C   UNL A   1      42.222  23.526  27.322  1.00  0.00     0.173 A 
ATOM     76  F   UNL A   1      43.908  25.288  24.636  1.00  0.00    -0.203 F 
ATOM     77  C   UNL A   1      43.527  22.990  24.944  1.00  0.00     0.198 A 
ATOM     78  C   UNL A   1      42.383  22.208  26.890  1.00  0.00     0.198 A 
ATOM     79  F   UNL A   1      41.656  23.708  28.524  1.00  0.00    -0.203 F 
ATOM     80  F   UNL A   1      44.204  22.732  23.814  1.00  0.00    -0.200 F 
ATOM     81  C   UNL A   1      43.051  21.938  25.709  1.00  0.00     0.200 A 
ATOM     82  F   UNL A   1      41.950  21.198  27.657  1.00  0.00    -0.200 F 
ATOM     83  F   UNL A   1      43.268  20.670  25.333  1.00  0.00    -0.200 F 
ENDBRANCH  49  73
BRANCH  61  84
ATOM     84  C   UNL A   1      45.214  30.149  28.426  1.00  0.00     0.064 A 
ATOM     85  C   UNL A   1      44.112  30.861  27.915  1.00  0.00     0.173 A 
ATOM     86  C   UNL A   1      46.481  30.515  27.958  1.00  0.00     0.173 A 
ATOM     87  F   UNL A   1      42.876  30.640  28.374  1.00  0.00    -0.203 F 
ATOM     88  C   UNL A   1      44.273  31.867  26.961  1.00  0.00     0.198 A 
ATOM     89  C   UNL A   1      46.643  31.543  27.031  1.00  0.00     0.198 A 
ATOM     90  F   UNL A   1      47.575  29.911  28.446  1.00  0.00    -0.203 F 
ATOM     91  F   UNL A   1      43.203  32.528  26.492  1.00  0.00    -0.200 F 
ATOM     92  C   UNL A   1      45.540  32.213  26.528  1.00  0.00     0.200 A 
ATOM     93  F   UNL A   1      47.876  31.907  26.653  1.00  0.00    -0.200 F 
ATOM     94  F   UNL A   1      45.702  33.211  25.646  1.00  0.00    -0.200 F 
ENDBRANCH  61  84
ENDBRANCH  35  36
ENDBRANCH  27  30
ENDBRANCH  25  26
ENDBRANCH  24  25
ENDBRANCH  23  24
ENDBRANCH   1  23
TORSDOF 15
ENDMDL
MODEL 2
REMARK VINA RESULT:     -11.8      3.323      9.237
REMARK SMILES Cc1cc2nc(SCC(=O)NCCCCCCNC(=O)c3ccc(-c4c5nc(c(-c6c(F)c(F)c(F)c(F)c6F)c6ccc([nH]6)c(-c6c(F)c(F)c(F)c(F)c6F)c6nc(c(-c7c(F)c(F)c(F)c(F)c7F)c7ccc4[nH]7)C=C6)C=C5)cc3)[nH]c(=O)c2[nH]1
REMARK SMILES IDX 14 1 13 2 12 3 11 4 9 5 10 6 8 8 7 9 6 10 1 11 2 12 3 13
REMARK SMILES IDX 88 14 4 15 87 16 5 18 85 19 84 20 86 21 15 23 16 24 17 25
REMARK SMILES IDX 18 26 19 27 20 29 21 30 22 31 83 32 23 33 82 34 24 35 25 36
REMARK SMILES IDX 26 37 76 38 27 39 81 40 75 41 77 42 28 43 80 44 74 45 73 46
REMARK SMILES IDX 29 48 61 49 41 50 60 51 42 52 45 53 59 54 78 55 43 56 44 57
REMARK SMILES IDX 58 59 79 60 46 61 30 62 31 63 39 64 32 65 33 66 37 67 40 68
REMARK SMILES IDX 34 69 35 70 38 71 36 72 62 73 63 74 71 75 64 76 65 77 69 78
REMARK SMILES IDX 72 79 66 80 67 81 70 82 68 83 47 84 48 85 56 86 49 87 50 88
REMARK SMILES IDX 54 89 57 90 51 91 52 92 55 93 53 94
REMARK H PARENT 11 7 88 17 84 22 18 28 77 47 45 58
REMARK Flexibility Score: inf
ROOT
ATOM      1  C   UNL A   1      34.696  22.945  24.466  1.00  0.00     0.002 C 
ENDROOT
BRANCH   1   2
ATOM      2  C   UNL A   1      33.889  22.187  25.529  1.00  0.00     0.021 C 
BRANCH   2   3
ATOM      3  C   UNL A   1      32.505  21.737  25.055  1.00  0.00     0.116 C 
BRANCH   3   4
ATOM      4  N   UNL A   1      31.532  21.897  26.120  1.00  0.00    -0.355 N 
ATOM      5  C   UNL A   1      30.886  23.025  26.517  1.00  0.00     0.230 C 
ATOM      6  O   UNL A   1      30.318  23.037  27.612  1.00  0.00    -0.274 OA
ATOM      7  H   UNL A   1      31.310  21.080  26.620  1.00  0.00     0.163 HD
BRANCH   5   8
ATOM      8  C   UNL A   1      30.835  24.246  25.633  1.00  0.00     0.178 C 
BRANCH   8   9
ATOM      9  S   UNL A   1      32.051  25.497  26.029  1.00  0.00    -0.078 SA
BRANCH   9  10
ATOM     10  C   UNL A   1      31.540  27.004  25.315  1.00  0.00     0.169 A 
ATOM     11  C   UNL A   1      28.626  30.486  21.522  1.00  0.00     0.064 C 
ATOM     12  C   UNL A   1      29.338  29.691  22.552  1.00  0.00     0.014 A 
ATOM     13  C   UNL A   1      29.372  28.320  22.761  1.00  0.00     0.052 A 
ATOM     14  N   UNL A   1      30.138  30.283  23.513  1.00  0.00    -0.353 N 
ATOM     15  C   UNL A   1      30.257  28.105  23.823  1.00  0.00     0.097 A 
ATOM     16  C   UNL A   1      30.725  29.305  24.265  1.00  0.00     0.131 A 
ATOM     17  H   UNL A   1      30.264  31.252  23.634  1.00  0.00     0.166 HD
ATOM     18  N   UNL A   1      30.662  26.890  24.363  1.00  0.00    -0.222 NA
ATOM     19  C   UNL A   1      31.677  29.421  25.319  1.00  0.00     0.275 A 
ATOM     20  N   UNL A   1      32.055  28.185  25.802  1.00  0.00    -0.300 N 
ATOM     21  O   UNL A   1      32.117  30.470  25.751  1.00  0.00    -0.267 OA
ATOM     22  H   UNL A   1      32.723  28.145  26.524  1.00  0.00     0.172 HD
ENDBRANCH   9  10
ENDBRANCH   8   9
ENDBRANCH   5   8
ENDBRANCH   3   4
ENDBRANCH   2   3
ENDBRANCH   1   2
BRANCH   1  23
ATOM     23  C   UNL A   1      35.978  23.629  24.968  1.00  0.00     0.002 C 
BRANCH  23  24
ATOM     24  C   UNL A   1      37.169  22.702  25.248  1.00  0.00     0.021 C 
BRANCH  24  25
ATOM     25  C   UNL A   1      38.198  23.324  26.171  1.00  0.00     0.116 C 
BRANCH  25  26
ATOM     26  N   UNL A   1      39.439  22.547  26.230  1.00  0.00    -0.352 N 
ATOM     27  C   UNL A   1      40.723  23.006  26.445  1.00  0.00     0.251 C 
ATOM     28  H   UNL A   1      39.345  21.575  26.101  1.00  0.00     0.163 HD
ATOM     29  O   UNL A   1      41.701  22.336  26.138  1.00  0.00    -0.269 OA
BRANCH  27  30
ATOM     30  C   UNL A   1      40.892  24.315  27.096  1.00  0.00     0.039 A 
ATOM     31  C   UNL A   1      41.690  24.497  28.229  1.00  0.00     0.014 A 
ATOM     32  C   UNL A   1      40.193  25.382  26.540  1.00  0.00     0.014 A 
ATOM     33  C   UNL A   1      41.752  25.768  28.792  1.00  0.00     0.010 A 
ATOM     34  C   UNL A   1      40.468  26.656  26.923  1.00  0.00     0.010 A 
ATOM     35  C   UNL A   1      41.109  26.826  28.135  1.00  0.00    -0.014 A 
BRANCH  35  36
ATOM     36  C   UNL A   1      41.053  28.170  28.666  1.00  0.00     0.031 A 
ATOM     37  C   UNL A   1      42.074  29.080  28.107  1.00  0.00     0.074 A 
ATOM     38  C   UNL A   1      39.998  28.589  29.401  1.00  0.00     0.049 A 
ATOM     39  N   UNL A   1      43.087  29.587  28.722  1.00  0.00    -0.248 NA
ATOM     40  C   UNL A   1      42.064  29.328  26.656  1.00  0.00     0.031 C 
ATOM     41  C   UNL A   1      38.752  27.883  29.737  1.00  0.00     0.029 A 
ATOM     42  N   UNL A   1      39.798  29.811  29.956  1.00  0.00    -0.354 N 
ATOM     43  C   UNL A   1      43.745  30.373  27.784  1.00  0.00     0.074 A 
ATOM     44  C   UNL A   1      43.191  30.026  26.502  1.00  0.00     0.031 C 
ATOM     45  C   UNL A   1      37.857  28.755  30.255  1.00  0.00     0.029 A 
ATOM     46  C   UNL A   1      38.512  30.035  30.437  1.00  0.00     0.049 A 
ATOM     47  H   UNL A   1      40.510  30.489  30.013  1.00  0.00     0.167 HD
ATOM     48  C   UNL A   1      44.530  31.414  28.175  1.00  0.00     0.037 A 
ATOM     49  C   UNL A   1      38.046  31.219  30.913  1.00  0.00     0.037 A 
ATOM     50  C   UNL A   1      44.832  31.331  29.583  1.00  0.00     0.049 A 
ATOM     51  C   UNL A   1      39.242  32.027  31.282  1.00  0.00     0.074 A 
ATOM     52  C   UNL A   1      45.524  30.429  30.368  1.00  0.00     0.029 A 
ATOM     53  N   UNL A   1      44.039  32.045  30.449  1.00  0.00    -0.354 N 
ATOM     54  N   UNL A   1      40.061  31.702  32.245  1.00  0.00    -0.248 NA
ATOM     55  C   UNL A   1      39.795  32.897  30.253  1.00  0.00     0.031 C 
ATOM     56  C   UNL A   1      44.755  30.315  31.565  1.00  0.00     0.029 A 
ATOM     57  C   UNL A   1      43.685  31.209  31.479  1.00  0.00     0.049 A 
ATOM     58  H   UNL A   1      43.772  32.987  30.348  1.00  0.00     0.167 HD
ATOM     59  C   UNL A   1      41.327  31.971  31.742  1.00  0.00     0.074 A 
ATOM     60  C   UNL A   1      41.095  32.752  30.527  1.00  0.00     0.031 C 
ATOM     61  C   UNL A   1      42.425  31.290  32.183  1.00  0.00     0.037 A 
BRANCH  48  62
ATOM     62  C   UNL A   1      44.737  32.674  27.381  1.00  0.00     0.064 A 
ATOM     63  C   UNL A   1      45.930  32.839  26.652  1.00  0.00     0.173 A 
ATOM     64  C   UNL A   1      43.946  33.835  27.526  1.00  0.00     0.173 A 
ATOM     65  F   UNL A   1      46.767  31.806  26.471  1.00  0.00    -0.203 F 
ATOM     66  C   UNL A   1      46.331  34.085  26.163  1.00  0.00     0.198 A 
ATOM     67  C   UNL A   1      44.322  35.065  26.989  1.00  0.00     0.198 A 
ATOM     68  F   UNL A   1      42.843  33.858  28.283  1.00  0.00    -0.203 F 
ATOM     69  F   UNL A   1      47.529  34.215  25.579  1.00  0.00    -0.200 F 
ATOM     70  C   UNL A   1      45.528  35.197  26.335  1.00  0.00     0.200 A 
ATOM     71  F   UNL A   1      43.539  36.135  27.184  1.00  0.00    -0.200 F 
ATOM     72  F   UNL A   1      45.934  36.403  25.916  1.00  0.00    -0.200 F 
ENDBRANCH  48  62
BRANCH  49  73
ATOM     73  C   UNL A   1      36.721  31.845  30.662  1.00  0.00     0.064 A 
ATOM     74  C   UNL A   1      35.856  32.155  31.726  1.00  0.00     0.173 A 
ATOM     75  C   UNL A   1      36.415  32.435  29.420  1.00  0.00     0.173 A 
ATOM     76  F   UNL A   1      36.098  31.670  32.952  1.00  0.00    -0.203 F 
ATOM     77  C   UNL A   1      34.777  33.033  31.567  1.00  0.00     0.198 A 
ATOM     78  C   UNL A   1      35.338  33.309  29.261  1.00  0.00     0.198 A 
ATOM     79  F   UNL A   1      37.216  32.257  28.360  1.00  0.00    -0.203 F 
ATOM     80  F   UNL A   1      34.015  33.358  32.622  1.00  0.00    -0.200 F 
ATOM     81  C   UNL A   1      34.528  33.622  30.338  1.00  0.00     0.200 A 
ATOM     82  F   UNL A   1      35.129  33.900  28.076  1.00  0.00    -0.200 F 
ATOM     83  F   UNL A   1      33.540  34.517  30.200  1.00  0.00    -0.200 F 
ENDBRANCH  49  73
BRANCH  61  84
ATOM     84  C   UNL A   1      42.257  30.381  33.375  1.00  0.00     0.064 A 
ATOM     85  C   UNL A   1      42.290  30.818  34.713  1.00  0.00     0.173 A 
ATOM     86  C   UNL A   1      41.883  29.052  33.149  1.00  0.00     0.173 A 
ATOM     87  F   UNL A   1      42.547  32.095  35.015  1.00  0.00    -0.203 F 
ATOM     88  C   UNL A   1      41.992  29.956  35.769  1.00  0.00     0.198 A 
ATOM     89  C   UNL A   1      41.552  28.201  34.202  1.00  0.00     0.198 A 
ATOM     90  F   UNL A   1      41.780  28.590  31.894  1.00  0.00    -0.203 F 
ATOM     91  F   UNL A   1      42.032  30.401  37.034  1.00  0.00    -0.200 F 
ATOM     92  C   UNL A   1      41.614  28.650  35.511  1.00  0.00     0.200 A 
ATOM     93  F   UNL A   1      41.140  26.953  33.943  1.00  0.00    -0.200 F 
ATOM     94  F   UNL A   1      41.282  27.833  36.521  1.00  0.00    -0.200 F 
ENDBRANCH  61  84
ENDBRANCH  35  36
ENDBRANCH  27  30
ENDBRANCH  25  26
ENDBRANCH  24  25
ENDBRANCH  23  24
ENDBRANCH   1  23
TORSDOF 15
ENDMDL
MODEL 3
REMARK VINA RESULT:     -11.8      1.406      1.908
REMARK SMILES Cc1cc2nc(SCC(=O)NCCCCCCNC(=O)c3ccc(-c4c5nc(c(-c6c(F)c(F)c(F)c(F)c6F)c6ccc([nH]6)c(-c6c(F)c(F)c(F)c(F)c6F)c6nc(c(-c7c(F)c(F)c(F)c(F)c7F)c7ccc4[nH]7)C=C6)C=C5)cc3)[nH]c(=O)c2[nH]1
REMARK SMILES IDX 14 1 13 2 12 3 11 4 9 5 10 6 8 8 7 9 6 10 1 11 2 12 3 13
REMARK SMILES IDX 88 14 4 15 87 16 5 18 85 19 84 20 86 21 15 23 16 24 17 25
REMARK SMILES IDX 18 26 19 27 20 29 21 30 22 31 83 32 23 33 82 34 24 35 25 36
REMARK SMILES IDX 26 37 76 38 27 39 81 40 75 41 77 42 28 43 80 44 74 45 73 46
REMARK SMILES IDX 29 48 61 49 41 50 60 51 42 52 45 53 59 54 78 55 43 56 44 57
REMARK SMILES IDX 58 59 79 60 46 61 30 62 31 63 39 64 32 65 33 66 37 67 40 68
REMARK SMILES IDX 34 69 35 70 38 71 36 72 62 73 63 74 71 75 64 76 65 77 69 78
REMARK SMILES IDX 72 79 66 80 67 81 70 82 68 83 47 84 48 85 56 86 49 87 50 88
REMARK SMILES IDX 54 89 57 90 51 91 52 92 55 93 53 94
REMARK H PARENT 11 7 88 17 84 22 18 28 77 47 45 58
REMARK Flexibility Score: inf
ROOT
ATOM      1  C   UNL A   1      32.576  29.826  27.159  1.00  0.00     0.002 C 
ENDROOT
BRANCH   1   2
ATOM      2  C   UNL A   1      32.076  30.325  25.796  1.00  0.00     0.021 C 
BRANCH   2   3
ATOM      3  C   UNL A   1      32.236  29.306  24.664  1.00  0.00     0.116 C 
BRANCH   3   4
ATOM      4  N   UNL A   1      31.228  29.525  23.644  1.00  0.00    -0.355 N 
ATOM      5  C   UNL A   1      30.676  28.625  22.788  1.00  0.00     0.230 C 
ATOM      6  O   UNL A   1      30.054  29.035  21.804  1.00  0.00    -0.274 OA
ATOM      7  H   UNL A   1      30.900  30.449  23.561  1.00  0.00     0.163 HD
BRANCH   5   8
ATOM      8  C   UNL A   1      30.793  27.142  23.035  1.00  0.00     0.178 C 
BRANCH   8   9
ATOM      9  S   UNL A   1      29.610  26.494  24.212  1.00  0.00    -0.078 SA
BRANCH   9  10
ATOM     10  C   UNL A   1      30.381  25.217  25.117  1.00  0.00     0.169 A 
ATOM     11  C   UNL A   1      34.763  21.551  26.650  1.00  0.00     0.064 C 
ATOM     12  C   UNL A   1      33.636  22.475  26.376  1.00  0.00     0.014 A 
ATOM     13  C   UNL A   1      33.534  23.517  25.465  1.00  0.00     0.052 A 
ATOM     14  N   UNL A   1      32.434  22.390  27.054  1.00  0.00    -0.353 N 
ATOM     15  C   UNL A   1      32.228  24.007  25.572  1.00  0.00     0.097 A 
ATOM     16  C   UNL A   1      31.565  23.307  26.533  1.00  0.00     0.131 A 
ATOM     17  H   UNL A   1      32.237  21.768  27.792  1.00  0.00     0.166 HD
ATOM     18  N   UNL A   1      31.632  25.016  24.825  1.00  0.00    -0.222 NA
ATOM     19  C   UNL A   1      30.197  23.544  26.856  1.00  0.00     0.275 A 
ATOM     20  N   UNL A   1      29.655  24.540  26.071  1.00  0.00    -0.300 N 
ATOM     21  O   UNL A   1      29.568  22.949  27.710  1.00  0.00    -0.267 OA
ATOM     22  H   UNL A   1      28.708  24.777  26.198  1.00  0.00     0.172 HD
ENDBRANCH   9  10
ENDBRANCH   8   9
ENDBRANCH   5   8
ENDBRANCH   3   4
ENDBRANCH   2   3
ENDBRANCH   1   2
BRANCH   1  23
ATOM     23  C   UNL A   1      33.884  30.461  27.659  1.00  0.00     0.002 C 
BRANCH  23  24
ATOM     24  C   UNL A   1      33.927  31.996  27.663  1.00  0.00     0.021 C 
BRANCH  24  25
ATOM     25  C   UNL A   1      35.262  32.549  28.119  1.00  0.00     0.116 C 
BRANCH  25  26
ATOM     26  N   UNL A   1      35.218  33.057  29.494  1.00  0.00    -0.352 N 
ATOM     27  C   UNL A   1      35.779  32.501  30.626  1.00  0.00     0.251 C 
ATOM     28  H   UNL A   1      34.727  33.900  29.625  1.00  0.00     0.163 HD
ATOM     29  O   UNL A   1      35.398  32.816  31.747  1.00  0.00    -0.269 OA
BRANCH  27  30
ATOM     30  C   UNL A   1      36.884  31.545  30.456  1.00  0.00     0.039 A 
ATOM     31  C   UNL A   1      36.676  30.171  30.303  1.00  0.00     0.014 A 
ATOM     32  C   UNL A   1      38.172  32.072  30.475  1.00  0.00     0.014 A 
ATOM     33  C   UNL A   1      37.792  29.347  30.188  1.00  0.00     0.010 A 
ATOM     34  C   UNL A   1      39.230  31.310  30.094  1.00  0.00     0.010 A 
ATOM     35  C   UNL A   1      39.060  29.939  30.114  1.00  0.00    -0.014 A 
BRANCH  35  36
ATOM     36  C   UNL A   1      40.287  29.176  30.061  1.00  0.00     0.031 A 
ATOM     37  C   UNL A   1      40.897  28.928  31.384  1.00  0.00     0.074 A 
ATOM     38  C   UNL A   1      40.670  28.543  28.929  1.00  0.00     0.049 A 
ATOM     39  N   UNL A   1      41.998  29.419  31.839  1.00  0.00    -0.248 NA
ATOM     40  C   UNL A   1      40.117  28.176  32.380  1.00  0.00     0.031 C 
ATOM     41  C   UNL A   1      39.971  28.427  27.640  1.00  0.00     0.029 A 
ATOM     42  N   UNL A   1      41.780  27.788  28.728  1.00  0.00    -0.354 N 
ATOM     43  C   UNL A   1      42.150  28.892  33.115  1.00  0.00     0.074 A 
ATOM     44  C   UNL A   1      40.885  28.299  33.463  1.00  0.00     0.031 C 
ATOM     45  C   UNL A   1      40.574  27.486  26.876  1.00  0.00     0.029 A 
ATOM     46  C   UNL A   1      41.784  27.054  27.545  1.00  0.00     0.049 A 
ATOM     47  H   UNL A   1      42.525  27.761  29.370  1.00  0.00     0.167 HD
ATOM     48  C   UNL A   1      43.382  28.786  33.684  1.00  0.00     0.037 A 
ATOM     49  C   UNL A   1      42.722  26.136  27.194  1.00  0.00     0.037 A 
ATOM     50  C   UNL A   1      44.350  29.578  32.967  1.00  0.00     0.049 A 
ATOM     51  C   UNL A   1      43.930  26.429  28.016  1.00  0.00     0.074 A 
ATOM     52  C   UNL A   1      44.503  30.931  32.732  1.00  0.00     0.029 A 
ATOM     53  N   UNL A   1      45.109  28.947  32.011  1.00  0.00    -0.354 N 
ATOM     54  N   UNL A   1      44.630  27.524  27.899  1.00  0.00    -0.248 NA
ATOM     55  C   UNL A   1      44.041  25.745  29.296  1.00  0.00     0.031 C 
ATOM     56  C   UNL A   1      44.932  31.024  31.374  1.00  0.00     0.029 A 
ATOM     57  C   UNL A   1      45.093  29.727  30.881  1.00  0.00     0.049 A 
ATOM     58  H   UNL A   1      45.580  28.089  32.117  1.00  0.00     0.167 HD
ATOM     59  C   UNL A   1      44.935  27.892  29.202  1.00  0.00     0.074 A 
ATOM     60  C   UNL A   1      44.585  26.728  30.017  1.00  0.00     0.031 C 
ATOM     61  C   UNL A   1      45.157  29.197  29.537  1.00  0.00     0.037 A 
BRANCH  48  62
ATOM     62  C   UNL A   1      43.784  27.714  34.660  1.00  0.00     0.064 A 
ATOM     63  C   UNL A   1      43.738  26.366  34.259  1.00  0.00     0.173 A 
ATOM     64  C   UNL A   1      43.945  27.932  36.046  1.00  0.00     0.173 A 
ATOM     65  F   UNL A   1      43.567  26.044  32.967  1.00  0.00    -0.203 F 
ATOM     66  C   UNL A   1      43.783  25.318  35.182  1.00  0.00     0.198 A 
ATOM     67  C   UNL A   1      44.046  26.884  36.959  1.00  0.00     0.198 A 
ATOM     68  F   UNL A   1      43.898  29.155  36.587  1.00  0.00    -0.203 F 
ATOM     69  F   UNL A   1      43.617  24.057  34.764  1.00  0.00    -0.200 F 
ATOM     70  C   UNL A   1      43.934  25.579  36.531  1.00  0.00     0.200 A 
ATOM     71  F   UNL A   1      44.173  27.159  38.265  1.00  0.00    -0.200 F 
ATOM     72  F   UNL A   1      43.923  24.580  37.424  1.00  0.00    -0.200 F 
ENDBRANCH  48  62
BRANCH  49  73
ATOM     73  C   UNL A   1      42.506  24.809  26.559  1.00  0.00     0.064 A 
ATOM     74  C   UNL A   1      43.206  24.443  25.396  1.00  0.00     0.173 A 
ATOM     75  C   UNL A   1      41.857  23.765  27.248  1.00  0.00     0.173 A 
ATOM     76  F   UNL A   1      43.886  25.367  24.702  1.00  0.00    -0.203 F 
ATOM     77  C   UNL A   1      43.286  23.111  24.972  1.00  0.00     0.198 A 
ATOM     78  C   UNL A   1      41.935  22.437  26.824  1.00  0.00     0.198 A 
ATOM     79  F   UNL A   1      41.220  23.999  28.404  1.00  0.00    -0.203 F 
ATOM     80  F   UNL A   1      44.020  22.792  23.896  1.00  0.00    -0.200 F 
ATOM     81  C   UNL A   1      42.664  22.107  25.695  1.00  0.00     0.200 A 
ATOM     82  F   UNL A   1      41.359  21.470  27.553  1.00  0.00    -0.200 F 
ATOM     83  F   UNL A   1      42.798  20.824  25.332  1.00  0.00    -0.200 F 
ENDBRANCH  49  73
BRANCH  61  84
ATOM     84  C   UNL A   1      45.263  30.202  28.418  1.00  0.00     0.064 A 
ATOM     85  C   UNL A   1      44.186  30.974  27.944  1.00  0.00     0.173 A 
ATOM     86  C   UNL A   1      46.535  30.513  27.924  1.00  0.00     0.173 A 
ATOM     87  F   UNL A   1      42.951  30.806  28.430  1.00  0.00    -0.203 F 
ATOM     88  C   UNL A   1      44.373  31.984  27.000  1.00  0.00     0.198 A 
ATOM     89  C   UNL A   1      46.725  31.545  27.007  1.00  0.00     0.198 A 
ATOM     90  F   UNL A   1      47.610  29.850  28.377  1.00  0.00    -0.203 F 
ATOM     91  F   UNL A   1      43.326  32.703  26.566  1.00  0.00    -0.200 F 
ATOM     92  C   UNL A   1      45.645  32.275  26.540  1.00  0.00     0.200 A 
ATOM     93  F   UNL A   1      47.965  31.854  26.603  1.00  0.00    -0.200 F 
ATOM     94  F   UNL A   1      45.834  33.276  25.668  1.00  0.00    -0.200 F 
ENDBRANCH  61  84
ENDBRANCH  35  36
ENDBRANCH  27  30
ENDBRANCH  25  26
ENDBRANCH  24  25
ENDBRANCH  23  24
ENDBRANCH   1  23
TORSDOF 15
ENDMDL
