MODEL 1
REMARK VINA RESULT:     -11.6      0.000      0.000
REMARK SMILES CC1([C@](C)(Nc2cccc(Cl)c2)C(=O)NCCCCCCNC(=O)c2ccc(-c3c4nc(c(-c5c(F)c(F)c(F)c(F)c5F)c5ccc([nH]5)c(-c5c(F)c(F)c(F)c(F)c5F)c5nc(c(-c6c(F)c(F)c(F)c(F)c6F)c6ccc3[nH]6)C=C5)C=C4)cc2)CC1
REMARK SMILES IDX 18 1 17 2 16 3 15 4 13 5 14 6 3 8 4 9 2 10 1 11 88 12 89 13
REMARK SMILES IDX 5 14 6 16 7 17 12 18 8 19 10 20 9 21 11 22 19 23 20 24 21 25
REMARK SMILES IDX 22 26 23 27 24 29 25 30 26 31 87 32 27 33 86 34 28 35 29 36
REMARK SMILES IDX 30 37 80 38 31 39 85 40 79 41 81 42 32 43 84 44 78 45 77 46
REMARK SMILES IDX 33 48 65 49 45 50 64 51 46 52 49 53 63 54 82 55 47 56 48 57
REMARK SMILES IDX 62 59 83 60 50 61 34 62 35 63 43 64 36 65 37 66 41 67 44 68
REMARK SMILES IDX 38 69 39 70 42 71 40 72 66 73 67 74 75 75 68 76 69 77 73 78
REMARK SMILES IDX 76 79 70 80 71 81 74 82 72 83 51 84 52 85 60 86 53 87 54 88
REMARK SMILES IDX 58 89 61 90 55 91 56 92 59 93 57 94
REMARK H PARENT 15 7 5 15 22 28 81 47 49 58
REMARK Flexibility Score: inf
ROOT
ATOM      1  C   UNL A   1      32.486  29.987  27.203  1.00  0.00     0.002 C 
ENDROOT
BRANCH   1   2
ATOM      2  C   UNL A   1      32.095  28.516  27.295  1.00  0.00     0.021 C 
BRANCH   2   3
ATOM      3  C   UNL A   1      33.138  27.567  26.711  1.00  0.00     0.116 C 
BRANCH   3   4
ATOM      4  N   UNL A   1      33.650  27.973  25.413  1.00  0.00    -0.354 N 
ATOM      5  C   UNL A   1      33.529  27.351  24.191  1.00  0.00     0.245 C 
ATOM      6  O   UNL A   1      34.103  27.871  23.230  1.00  0.00    -0.272 OA
ATOM      7  H   UNL A   1      34.157  28.817  25.407  1.00  0.00     0.163 HD
BRANCH   5   8
ATOM      8  C   UNL A   1      32.639  26.064  24.050  1.00  0.00     0.119 C 
ATOM      9  C   UNL A   1      32.906  25.335  22.710  1.00  0.00     0.046 C 
BRANCH   8  10
ATOM     10  C   UNL A   1      31.125  26.556  24.011  1.00  0.00    -0.001 C 
ATOM     11  C   UNL A   1      30.947  27.901  23.298  1.00  0.00     0.014 C 
ATOM     12  C   UNL A   1      30.141  26.259  25.139  1.00  0.00     0.010 C 
ATOM     13  C   UNL A   1      29.976  25.576  23.820  1.00  0.00     0.010 C 
ENDBRANCH   8  10
BRANCH   8  14
ATOM     14  N   UNL A   1      32.934  25.058  25.120  1.00  0.00    -0.371 N 
ATOM     15  H   UNL A   1      32.318  25.028  25.888  1.00  0.00     0.161 HD
BRANCH  14  16
ATOM     16  C   UNL A   1      34.007  24.155  25.128  1.00  0.00     0.036 A 
ATOM     17  C   UNL A   1      35.350  24.506  25.350  1.00  0.00     0.026 A 
ATOM     18  C   UNL A   1      33.760  22.783  24.974  1.00  0.00     0.046 A 
ATOM     19  C   UNL A   1      36.371  23.562  25.531  1.00  0.00     0.004 A 
ATOM     20  C   UNL A   1      34.791  21.832  25.090  1.00  0.00     0.043 A 
ATOM     21  C   UNL A   1      36.091  22.214  25.402  1.00  0.00     0.020 A 
ATOM     22  Cl  UNL A   1      34.450  20.161  24.856  1.00  0.00    -0.084 Cl
ENDBRANCH  14  16
ENDBRANCH   8  14
ENDBRANCH   5   8
ENDBRANCH   3   4
ENDBRANCH   2   3
ENDBRANCH   1   2
BRANCH   1  23
ATOM     23  C   UNL A   1      31.619  30.774  26.220  1.00  0.00     0.002 C 
BRANCH  23  24
ATOM     24  C   UNL A   1      31.441  32.249  26.588  1.00  0.00     0.021 C 
BRANCH  24  25
ATOM     25  C   UNL A   1      32.574  32.823  27.431  1.00  0.00     0.116 C 
BRANCH  25  26
ATOM     26  N   UNL A   1      32.402  34.249  27.654  1.00  0.00    -0.352 N 
ATOM     27  C   UNL A   1      32.989  35.040  28.609  1.00  0.00     0.251 C 
ATOM     28  H   UNL A   1      31.784  34.707  27.039  1.00  0.00     0.163 HD
ATOM     29  O   UNL A   1      32.569  36.164  28.842  1.00  0.00    -0.269 OA
BRANCH  27  30
ATOM     30  C   UNL A   1      34.135  34.500  29.366  1.00  0.00     0.039 A 
ATOM     31  C   UNL A   1      33.910  33.944  30.625  1.00  0.00     0.014 A 
ATOM     32  C   UNL A   1      35.420  34.520  28.812  1.00  0.00     0.014 A 
ATOM     33  C   UNL A   1      34.973  33.359  31.313  1.00  0.00     0.010 A 
ATOM     34  C   UNL A   1      36.461  33.870  29.466  1.00  0.00     0.010 A 
ATOM     35  C   UNL A   1      36.249  33.289  30.724  1.00  0.00    -0.014 A 
BRANCH  35  36
ATOM     36  C   UNL A   1      37.362  32.593  31.417  1.00  0.00     0.031 A 
ATOM     37  C   UNL A   1      38.057  31.432  30.766  1.00  0.00     0.074 A 
ATOM     38  C   UNL A   1      37.718  32.990  32.654  1.00  0.00     0.049 A 
ATOM     39  N   UNL A   1      39.052  30.708  31.214  1.00  0.00    -0.248 NA
ATOM     40  C   UNL A   1      37.554  31.009  29.450  1.00  0.00     0.031 C 
ATOM     41  C   UNL A   1      37.076  34.065  33.413  1.00  0.00     0.029 A 
ATOM     42  N   UNL A   1      38.707  32.538  33.490  1.00  0.00    -0.354 N 
ATOM     43  C   UNL A   1      39.290  29.748  30.240  1.00  0.00     0.074 A 
ATOM     44  C   UNL A   1      38.297  29.940  29.205  1.00  0.00     0.031 C 
ATOM     45  C   UNL A   1      37.708  34.213  34.587  1.00  0.00     0.029 A 
ATOM     46  C   UNL A   1      38.776  33.222  34.680  1.00  0.00     0.049 A 
ATOM     47  H   UNL A   1      39.309  31.794  33.261  1.00  0.00     0.167 HD
ATOM     48  C   UNL A   1      40.266  28.809  30.199  1.00  0.00     0.037 A 
ATOM     49  C   UNL A   1      39.608  33.067  35.726  1.00  0.00     0.037 A 
ATOM     50  C   UNL A   1      41.259  28.630  31.227  1.00  0.00     0.049 A 
ATOM     51  C   UNL A   1      40.680  32.014  35.657  1.00  0.00     0.074 A 
ATOM     52  C   UNL A   1      42.324  27.747  31.255  1.00  0.00     0.029 A 
ATOM     53  N   UNL A   1      41.302  29.345  32.417  1.00  0.00    -0.354 N 
ATOM     54  N   UNL A   1      40.950  31.167  34.692  1.00  0.00    -0.248 NA
ATOM     55  C   UNL A   1      41.572  31.903  36.819  1.00  0.00     0.031 C 
ATOM     56  C   UNL A   1      42.977  27.887  32.484  1.00  0.00     0.029 A 
ATOM     57  C   UNL A   1      42.359  28.901  33.197  1.00  0.00     0.049 A 
ATOM     58  H   UNL A   1      40.674  30.060  32.668  1.00  0.00     0.167 HD
ATOM     59  C   UNL A   1      42.055  30.442  35.118  1.00  0.00     0.074 A 
ATOM     60  C   UNL A   1      42.420  30.967  36.417  1.00  0.00     0.031 C 
ATOM     61  C   UNL A   1      42.706  29.431  34.492  1.00  0.00     0.037 A 
BRANCH  48  62
ATOM     62  C   UNL A   1      40.308  27.901  29.001  1.00  0.00     0.064 A 
ATOM     63  C   UNL A   1      39.600  26.690  28.968  1.00  0.00     0.173 A 
ATOM     64  C   UNL A   1      41.037  28.265  27.858  1.00  0.00     0.173 A 
ATOM     65  F   UNL A   1      38.897  26.289  30.038  1.00  0.00    -0.203 F 
ATOM     66  C   UNL A   1      39.644  25.863  27.848  1.00  0.00     0.198 A 
ATOM     67  C   UNL A   1      41.050  27.452  26.728  1.00  0.00     0.198 A 
ATOM     68  F   UNL A   1      41.727  29.414  27.832  1.00  0.00    -0.203 F 
ATOM     69  F   UNL A   1      39.002  24.687  27.861  1.00  0.00    -0.200 F 
ATOM     70  C   UNL A   1      40.362  26.249  26.727  1.00  0.00     0.200 A 
ATOM     71  F   UNL A   1      41.732  27.833  25.638  1.00  0.00    -0.200 F 
ATOM     72  F   UNL A   1      40.396  25.457  25.646  1.00  0.00    -0.200 F 
ENDBRANCH  48  62
BRANCH  49  73
ATOM     73  C   UNL A   1      39.479  33.949  36.916  1.00  0.00     0.064 A 
ATOM     74  C   UNL A   1      38.744  33.543  38.039  1.00  0.00     0.173 A 
ATOM     75  C   UNL A   1      40.079  35.215  36.953  1.00  0.00     0.173 A 
ATOM     76  F   UNL A   1      38.134  32.348  38.045  1.00  0.00    -0.203 F 
ATOM     77  C   UNL A   1      38.593  34.380  39.143  1.00  0.00     0.198 A 
ATOM     78  C   UNL A   1      39.955  36.039  38.071  1.00  0.00     0.198 A 
ATOM     79  F   UNL A   1      40.799  35.649  35.908  1.00  0.00    -0.203 F 
ATOM     80  F   UNL A   1      37.841  33.989  40.180  1.00  0.00    -0.200 F 
ATOM     81  C   UNL A   1      39.203  35.625  39.159  1.00  0.00     0.200 A 
ATOM     82  F   UNL A   1      40.562  37.234  38.090  1.00  0.00    -0.200 F 
ATOM     83  F   UNL A   1      39.061  36.429  40.222  1.00  0.00    -0.200 F 
ENDBRANCH  49  73
BRANCH  61  84
ATOM     84  C   UNL A   1      43.898  28.847  35.197  1.00  0.00     0.064 A 
ATOM     85  C   UNL A   1      43.773  27.781  36.102  1.00  0.00     0.173 A 
ATOM     86  C   UNL A   1      45.186  29.352  34.956  1.00  0.00     0.173 A 
ATOM     87  F   UNL A   1      42.564  27.270  36.379  1.00  0.00    -0.203 F 
ATOM     88  C   UNL A   1      44.885  27.273  36.769  1.00  0.00     0.198 A 
ATOM     89  C   UNL A   1      46.299  28.817  35.596  1.00  0.00     0.198 A 
ATOM     90  F   UNL A   1      45.364  30.365  34.093  1.00  0.00    -0.203 F 
ATOM     91  F   UNL A   1      44.730  26.301  37.679  1.00  0.00    -0.200 F 
ATOM     92  C   UNL A   1      46.146  27.787  36.512  1.00  0.00     0.200 A 
ATOM     93  F   UNL A   1      47.519  29.304  35.334  1.00  0.00    -0.200 F 
ATOM     94  F   UNL A   1      47.214  27.297  37.155  1.00  0.00    -0.200 F 
ENDBRANCH  61  84
ENDBRANCH  35  36
ENDBRANCH  27  30
ENDBRANCH  25  26
ENDBRANCH  24  25
ENDBRANCH  23  24
ENDBRANCH   1  23
TORSDOF 16
ENDMDL
MODEL 2
REMARK VINA RESULT:     -11.6      1.944      3.355
REMARK SMILES CC1([C@](C)(Nc2cccc(Cl)c2)C(=O)NCCCCCCNC(=O)c2ccc(-c3c4nc(c(-c5c(F)c(F)c(F)c(F)c5F)c5ccc([nH]5)c(-c5c(F)c(F)c(F)c(F)c5F)c5nc(c(-c6c(F)c(F)c(F)c(F)c6F)c6ccc3[nH]6)C=C5)C=C4)cc2)CC1
REMARK SMILES IDX 18 1 17 2 16 3 15 4 13 5 14 6 3 8 4 9 2 10 1 11 88 12 89 13
REMARK SMILES IDX 5 14 6 16 7 17 12 18 8 19 10 20 9 21 11 22 19 23 20 24 21 25
REMARK SMILES IDX 22 26 23 27 24 29 25 30 26 31 87 32 27 33 86 34 28 35 29 36
REMARK SMILES IDX 30 37 80 38 31 39 85 40 79 41 81 42 32 43 84 44 78 45 77 46
REMARK SMILES IDX 33 48 65 49 45 50 64 51 46 52 49 53 63 54 82 55 47 56 48 57
REMARK SMILES IDX 62 59 83 60 50 61 34 62 35 63 43 64 36 65 37 66 41 67 44 68
REMARK SMILES IDX 38 69 39 70 42 71 40 72 66 73 67 74 75 75 68 76 69 77 73 78
REMARK SMILES IDX 76 79 70 80 71 81 74 82 72 83 51 84 52 85 60 86 53 87 54 88
REMARK SMILES IDX 58 89 61 90 55 91 56 92 59 93 57 94
REMARK H PARENT 15 7 5 15 22 28 81 47 49 58
REMARK Flexibility Score: inf
ROOT
ATOM      1  C   UNL A   1      33.182  30.215  26.805  1.00  0.00     0.002 C 
ENDROOT
BRANCH   1   2
ATOM      2  C   UNL A   1      33.236  28.719  27.100  1.00  0.00     0.021 C 
BRANCH   2   3
ATOM      3  C   UNL A   1      33.479  27.858  25.864  1.00  0.00     0.116 C 
BRANCH   3   4
ATOM      4  N   UNL A   1      33.719  28.619  24.648  1.00  0.00    -0.354 N 
ATOM      5  C   UNL A   1      33.053  28.574  23.444  1.00  0.00     0.245 C 
ATOM      6  O   UNL A   1      33.482  29.289  22.533  1.00  0.00    -0.272 OA
ATOM      7  H   UNL A   1      34.466  29.259  24.694  1.00  0.00     0.163 HD
BRANCH   5   8
ATOM      8  C   UNL A   1      31.768  27.685  23.289  1.00  0.00     0.119 C 
ATOM      9  C   UNL A   1      30.956  27.630  24.606  1.00  0.00     0.046 C 
BRANCH   8  10
ATOM     10  C   UNL A   1      32.270  26.202  22.996  1.00  0.00    -0.001 C 
ATOM     11  C   UNL A   1      31.754  25.180  24.015  1.00  0.00     0.014 C 
ATOM     12  C   UNL A   1      33.637  25.908  22.384  1.00  0.00     0.010 C 
ATOM     13  C   UNL A   1      32.403  25.675  21.575  1.00  0.00     0.010 C 
ENDBRANCH   8  10
BRANCH   8  14
ATOM     14  N   UNL A   1      30.828  28.233  22.259  1.00  0.00    -0.371 N 
ATOM     15  H   UNL A   1      31.010  28.003  21.319  1.00  0.00     0.161 HD
BRANCH  14  16
ATOM     16  C   UNL A   1      29.712  29.043  22.512  1.00  0.00     0.036 A 
ATOM     17  C   UNL A   1      28.407  28.569  22.727  1.00  0.00     0.026 A 
ATOM     18  C   UNL A   1      29.875  30.432  22.633  1.00  0.00     0.046 A 
ATOM     19  C   UNL A   1      27.351  29.387  23.153  1.00  0.00     0.004 A 
ATOM     20  C   UNL A   1      28.806  31.269  22.999  1.00  0.00     0.043 A 
ATOM     21  C   UNL A   1      27.551  30.748  23.293  1.00  0.00     0.020 A 
ATOM     22  Cl  UNL A   1      29.042  32.972  23.099  1.00  0.00    -0.084 Cl
ENDBRANCH  14  16
ENDBRANCH   8  14
ENDBRANCH   5   8
ENDBRANCH   3   4
ENDBRANCH   2   3
ENDBRANCH   1   2
BRANCH   1  23
ATOM     23  C   UNL A   1      31.765  30.719  26.536  1.00  0.00     0.002 C 
BRANCH  23  24
ATOM     24  C   UNL A   1      31.554  32.197  26.876  1.00  0.00     0.021 C 
BRANCH  24  25
ATOM     25  C   UNL A   1      32.826  32.931  27.284  1.00  0.00     0.116 C 
BRANCH  25  26
ATOM     26  N   UNL A   1      32.554  34.317  27.628  1.00  0.00    -0.352 N 
ATOM     27  C   UNL A   1      33.035  35.043  28.687  1.00  0.00     0.251 C 
ATOM     28  H   UNL A   1      31.944  34.797  27.022  1.00  0.00     0.163 HD
ATOM     29  O   UNL A   1      32.534  36.114  28.998  1.00  0.00    -0.269 OA
BRANCH  27  30
ATOM     30  C   UNL A   1      34.168  34.497  29.461  1.00  0.00     0.039 A 
ATOM     31  C   UNL A   1      33.914  33.878  30.684  1.00  0.00     0.014 A 
ATOM     32  C   UNL A   1      35.471  34.575  28.956  1.00  0.00     0.014 A 
ATOM     33  C   UNL A   1      34.968  33.289  31.383  1.00  0.00     0.010 A 
ATOM     34  C   UNL A   1      36.505  33.922  29.616  1.00  0.00     0.010 A 
ATOM     35  C   UNL A   1      36.265  33.277  30.838  1.00  0.00    -0.014 A 
BRANCH  35  36
ATOM     36  C   UNL A   1      37.371  32.578  31.539  1.00  0.00     0.031 A 
ATOM     37  C   UNL A   1      38.075  31.423  30.888  1.00  0.00     0.074 A 
ATOM     38  C   UNL A   1      37.713  32.967  32.782  1.00  0.00     0.049 A 
ATOM     39  N   UNL A   1      39.066  30.697  31.342  1.00  0.00    -0.248 NA
ATOM     40  C   UNL A   1      37.587  31.008  29.563  1.00  0.00     0.031 C 
ATOM     41  C   UNL A   1      37.061  34.036  33.541  1.00  0.00     0.029 A 
ATOM     42  N   UNL A   1      38.693  32.511  33.626  1.00  0.00    -0.354 N 
ATOM     43  C   UNL A   1      39.316  29.744  30.364  1.00  0.00     0.074 A 
ATOM     44  C   UNL A   1      38.334  29.941  29.320  1.00  0.00     0.031 C 
ATOM     45  C   UNL A   1      37.680  34.178  34.723  1.00  0.00     0.029 A 
ATOM     46  C   UNL A   1      38.748  33.188  34.821  1.00  0.00     0.049 A 
ATOM     47  H   UNL A   1      39.299  31.770  33.399  1.00  0.00     0.167 HD
ATOM     48  C   UNL A   1      40.293  28.806  30.327  1.00  0.00     0.037 A 
ATOM     49  C   UNL A   1      39.569  33.026  35.876  1.00  0.00     0.037 A 
ATOM     50  C   UNL A   1      41.275  28.622  31.365  1.00  0.00     0.049 A 
ATOM     51  C   UNL A   1      40.643  31.975  35.811  1.00  0.00     0.074 A 
ATOM     52  C   UNL A   1      42.341  27.740  31.399  1.00  0.00     0.029 A 
ATOM     53  N   UNL A   1      41.304  29.328  32.560  1.00  0.00    -0.354 N 
ATOM     54  N   UNL A   1      40.924  31.135  34.844  1.00  0.00    -0.248 NA
ATOM     55  C   UNL A   1      41.522  31.857  36.982  1.00  0.00     0.031 C 
ATOM     56  C   UNL A   1      42.980  27.872  32.636  1.00  0.00     0.029 A 
ATOM     57  C   UNL A   1      42.352  28.881  33.349  1.00  0.00     0.049 A 
ATOM     58  H   UNL A   1      40.672  30.041  32.810  1.00  0.00     0.167 HD
ATOM     59  C   UNL A   1      42.025  30.409  35.277  1.00  0.00     0.074 A 
ATOM     60  C   UNL A   1      42.375  30.925  36.584  1.00  0.00     0.031 C 
ATOM     61  C   UNL A   1      42.685  29.402  34.652  1.00  0.00     0.037 A 
BRANCH  48  62
ATOM     62  C   UNL A   1      40.350  27.907  29.124  1.00  0.00     0.064 A 
ATOM     63  C   UNL A   1      39.631  26.702  29.069  1.00  0.00     0.173 A 
ATOM     64  C   UNL A   1      41.103  28.272  27.998  1.00  0.00     0.173 A 
ATOM     65  F   UNL A   1      38.905  26.301  30.122  1.00  0.00    -0.203 F 
ATOM     66  C   UNL A   1      39.689  25.883  27.944  1.00  0.00     0.198 A 
ATOM     67  C   UNL A   1      41.131  27.466  26.862  1.00  0.00     0.198 A 
ATOM     68  F   UNL A   1      41.805  29.414  27.993  1.00  0.00    -0.203 F 
ATOM     69  F   UNL A   1      39.037  24.713  27.936  1.00  0.00    -0.200 F 
ATOM     70  C   UNL A   1      40.432  26.270  26.839  1.00  0.00     0.200 A 
ATOM     71  F   UNL A   1      41.837  27.848  25.789  1.00  0.00    -0.200 F 
ATOM     72  F   UNL A   1      40.479  25.485  25.753  1.00  0.00    -0.200 F 
ENDBRANCH  48  62
BRANCH  49  73
ATOM     73  C   UNL A   1      39.425  33.900  37.070  1.00  0.00     0.064 A 
ATOM     74  C   UNL A   1      38.699  33.476  38.192  1.00  0.00     0.173 A 
ATOM     75  C   UNL A   1      40.002  35.177  37.112  1.00  0.00     0.173 A 
ATOM     76  F   UNL A   1      38.112  32.269  38.194  1.00  0.00    -0.203 F 
ATOM     77  C   UNL A   1      38.534  34.305  39.300  1.00  0.00     0.198 A 
ATOM     78  C   UNL A   1      39.864  35.993  38.234  1.00  0.00     0.198 A 
ATOM     79  F   UNL A   1      40.712  35.629  36.068  1.00  0.00    -0.203 F 
ATOM     80  F   UNL A   1      37.791  33.894  40.336  1.00  0.00    -0.200 F 
ATOM     81  C   UNL A   1      39.122  35.560  39.321  1.00  0.00     0.200 A 
ATOM     82  F   UNL A   1      40.449  37.198  38.257  1.00  0.00    -0.200 F 
ATOM     83  F   UNL A   1      38.967  36.356  40.388  1.00  0.00    -0.200 F 
ENDBRANCH  49  73
BRANCH  61  84
ATOM     84  C   UNL A   1      43.870  28.815  35.365  1.00  0.00     0.064 A 
ATOM     85  C   UNL A   1      45.171  29.304  35.164  1.00  0.00     0.173 A 
ATOM     86  C   UNL A   1      43.703  27.756  36.272  1.00  0.00     0.173 A 
ATOM     87  F   UNL A   1      45.388  30.306  34.298  1.00  0.00    -0.203 F 
ATOM     88  C   UNL A   1      46.261  28.728  35.810  1.00  0.00     0.198 A 
ATOM     89  C   UNL A   1      44.790  27.208  36.943  1.00  0.00     0.198 A 
ATOM     90  F   UNL A   1      42.480  27.256  36.508  1.00  0.00    -0.203 F 
ATOM     91  F   UNL A   1      47.500  29.168  35.550  1.00  0.00    -0.200 F 
ATOM     92  C   UNL A   1      46.070  27.685  36.703  1.00  0.00     0.200 A 
ATOM     93  F   UNL A   1      44.602  26.210  37.818  1.00  0.00    -0.200 F 
ATOM     94  F   UNL A   1      47.121  27.132  37.323  1.00  0.00    -0.200 F 
ENDBRANCH  61  84
ENDBRANCH  35  36
ENDBRANCH  27  30
ENDBRANCH  25  26
ENDBRANCH  24  25
ENDBRANCH  23  24
ENDBRANCH   1  23
TORSDOF 16
ENDMDL
MODEL 3
REMARK VINA RESULT:     -11.5      2.099      8.014
REMARK SMILES CC1([C@](C)(Nc2cccc(Cl)c2)C(=O)NCCCCCCNC(=O)c2ccc(-c3c4nc(c(-c5c(F)c(F)c(F)c(F)c5F)c5ccc([nH]5)c(-c5c(F)c(F)c(F)c(F)c5F)c5nc(c(-c6c(F)c(F)c(F)c(F)c6F)c6ccc3[nH]6)C=C5)C=C4)cc2)CC1
REMARK SMILES IDX 18 1 17 2 16 3 15 4 13 5 14 6 3 8 4 9 2 10 1 11 88 12 89 13
REMARK SMILES IDX 5 14 6 16 7 17 12 18 8 19 10 20 9 21 11 22 19 23 20 24 21 25
REMARK SMILES IDX 22 26 23 27 24 29 25 30 26 31 87 32 27 33 86 34 28 35 29 36
REMARK SMILES IDX 30 37 80 38 31 39 85 40 79 41 81 42 32 43 84 44 78 45 77 46
REMARK SMILES IDX 33 48 65 49 45 50 64 51 46 52 49 53 63 54 82 55 47 56 48 57
REMARK SMILES IDX 62 59 83 60 50 61 34 62 35 63 43 64 36 65 37 66 41 67 44 68
REMARK SMILES IDX 38 69 39 70 42 71 40 72 66 73 67 74 75 75 68 76 69 77 73 78
REMARK SMILES IDX 76 79 70 80 71 81 74 82 72 83 51 84 52 85 60 86 53 87 54 88
REMARK SMILES IDX 58 89 61 90 55 91 56 92 59 93 57 94
REMARK H PARENT 15 7 5 15 22 28 81 47 49 58
REMARK Flexibility Score: inf
ROOT
ATOM      1  C   UNL A   1      32.980  30.108  26.688  1.00  0.00     0.002 C 
ENDROOT
BRANCH   1   2
ATOM      2  C   UNL A   1      32.957  28.611  26.980  1.00  0.00     0.021 C 
BRANCH   2   3
ATOM      3  C   UNL A   1      33.144  27.741  25.739  1.00  0.00     0.116 C 
BRANCH   3   4
ATOM      4  N   UNL A   1      33.486  28.486  24.539  1.00  0.00    -0.354 N 
ATOM      5  C   UNL A   1      32.872  28.488  23.307  1.00  0.00     0.245 C 
ATOM      6  O   UNL A   1      33.387  29.173  22.418  1.00  0.00    -0.272 OA
ATOM      7  H   UNL A   1      34.272  29.073  24.619  1.00  0.00     0.163 HD
BRANCH   5   8
ATOM      8  C   UNL A   1      31.538  27.687  23.093  1.00  0.00     0.119 C 
ATOM      9  C   UNL A   1      30.733  27.566  24.410  1.00  0.00     0.046 C 
BRANCH   8  10
ATOM     10  C   UNL A   1      31.953  26.209  22.671  1.00  0.00    -0.001 C 
ATOM     11  C   UNL A   1      31.085  25.130  23.327  1.00  0.00     0.014 C 
ATOM     12  C   UNL A   1      33.398  25.820  22.374  1.00  0.00     0.010 C 
ATOM     13  C   UNL A   1      32.411  25.887  21.255  1.00  0.00     0.010 C 
ENDBRANCH   8  10
BRANCH   8  14
ATOM     14  N   UNL A   1      30.622  28.372  22.124  1.00  0.00    -0.371 N 
ATOM     15  H   UNL A   1      30.773  28.199  21.167  1.00  0.00     0.161 HD
BRANCH  14  16
ATOM     16  C   UNL A   1      29.570  29.238  22.457  1.00  0.00     0.036 A 
ATOM     17  C   UNL A   1      28.258  28.831  22.751  1.00  0.00     0.026 A 
ATOM     18  C   UNL A   1      29.816  30.614  22.581  1.00  0.00     0.046 A 
ATOM     19  C   UNL A   1      27.278  29.698  23.253  1.00  0.00     0.004 A 
ATOM     20  C   UNL A   1      28.819  31.502  23.024  1.00  0.00     0.043 A 
ATOM     21  C   UNL A   1      27.559  31.044  23.393  1.00  0.00     0.020 A 
ATOM     22  Cl  UNL A   1      29.153  33.188  23.126  1.00  0.00    -0.084 Cl
ENDBRANCH  14  16
ENDBRANCH   8  14
ENDBRANCH   5   8
ENDBRANCH   3   4
ENDBRANCH   2   3
ENDBRANCH   1   2
BRANCH   1  23
ATOM     23  C   UNL A   1      31.593  30.680  26.400  1.00  0.00     0.002 C 
BRANCH  23  24
ATOM     24  C   UNL A   1      31.434  32.154  26.785  1.00  0.00     0.021 C 
BRANCH  24  25
ATOM     25  C   UNL A   1      32.727  32.823  27.238  1.00  0.00     0.116 C 
BRANCH  25  26
ATOM     26  N   UNL A   1      32.501  34.203  27.636  1.00  0.00    -0.352 N 
ATOM     27  C   UNL A   1      33.062  34.892  28.680  1.00  0.00     0.251 C 
ATOM     28  H   UNL A   1      31.862  34.708  27.082  1.00  0.00     0.163 HD
ATOM     29  O   UNL A   1      32.599  35.962  29.051  1.00  0.00    -0.269 OA
BRANCH  27  30
ATOM     30  C   UNL A   1      34.232  34.307  29.365  1.00  0.00     0.039 A 
ATOM     31  C   UNL A   1      34.028  33.519  30.497  1.00  0.00     0.014 A 
ATOM     32  C   UNL A   1      35.521  34.519  28.864  1.00  0.00     0.014 A 
ATOM     33  C   UNL A   1      35.120  32.897  31.101  1.00  0.00     0.010 A 
ATOM     34  C   UNL A   1      36.597  33.839  29.423  1.00  0.00     0.010 A 
ATOM     35  C   UNL A   1      36.408  33.026  30.550  1.00  0.00    -0.014 A 
BRANCH  35  36
ATOM     36  C   UNL A   1      37.558  32.298  31.142  1.00  0.00     0.031 A 
ATOM     37  C   UNL A   1      38.047  32.638  32.520  1.00  0.00     0.074 A 
ATOM     38  C   UNL A   1      38.183  31.352  30.415  1.00  0.00     0.049 A 
ATOM     39  N   UNL A   1      39.030  32.107  33.203  1.00  0.00    -0.248 NA
ATOM     40  C   UNL A   1      37.362  33.739  33.216  1.00  0.00     0.031 C 
ATOM     41  C   UNL A   1      37.837  30.977  29.042  1.00  0.00     0.029 A 
ATOM     42  N   UNL A   1      39.238  30.533  30.726  1.00  0.00    -0.354 N 
ATOM     43  C   UNL A   1      39.081  32.806  34.401  1.00  0.00     0.074 A 
ATOM     44  C   UNL A   1      38.073  33.842  34.329  1.00  0.00     0.031 C 
ATOM     45  C   UNL A   1      38.640  29.979  28.643  1.00  0.00     0.029 A 
ATOM     46  C   UNL A   1      39.580  29.668  29.715  1.00  0.00     0.049 A 
ATOM     47  H   UNL A   1      39.706  30.562  31.592  1.00  0.00     0.167 HD
ATOM     48  C   UNL A   1      39.877  32.587  35.475  1.00  0.00     0.037 A 
ATOM     49  C   UNL A   1      40.544  28.730  29.661  1.00  0.00     0.037 A 
ATOM     50  C   UNL A   1      40.870  31.547  35.545  1.00  0.00     0.049 A 
ATOM     51  C   UNL A   1      41.417  28.510  30.866  1.00  0.00     0.074 A 
ATOM     52  C   UNL A   1      41.689  31.204  36.607  1.00  0.00     0.029 A 
ATOM     53  N   UNL A   1      41.187  30.685  34.503  1.00  0.00    -0.354 N 
ATOM     54  N   UNL A   1      41.399  29.121  32.026  1.00  0.00    -0.248 NA
ATOM     55  C   UNL A   1      42.438  27.459  30.758  1.00  0.00     0.031 C 
ATOM     56  C   UNL A   1      42.539  30.174  36.190  1.00  0.00     0.029 A 
ATOM     57  C   UNL A   1      42.209  29.831  34.889  1.00  0.00     0.049 A 
ATOM     58  H   UNL A   1      40.751  30.682  33.620  1.00  0.00     0.167 HD
ATOM     59  C   UNL A   1      42.385  28.514  32.793  1.00  0.00     0.074 A 
ATOM     60  C   UNL A   1      42.964  27.470  31.974  1.00  0.00     0.031 C 
ATOM     61  C   UNL A   1      42.779  28.799  34.059  1.00  0.00     0.037 A 
BRANCH  48  62
ATOM     62  C   UNL A   1      39.705  33.490  36.664  1.00  0.00     0.064 A 
ATOM     63  C   UNL A   1      40.373  34.721  36.758  1.00  0.00     0.173 A 
ATOM     64  C   UNL A   1      38.834  33.137  37.705  1.00  0.00     0.173 A 
ATOM     65  F   UNL A   1      41.227  35.101  35.796  1.00  0.00    -0.203 F 
ATOM     66  C   UNL A   1      40.199  35.550  37.863  1.00  0.00     0.198 A 
ATOM     67  C   UNL A   1      38.635  33.985  38.793  1.00  0.00     0.198 A 
ATOM     68  F   UNL A   1      38.165  31.976  37.665  1.00  0.00    -0.203 F 
ATOM     69  F   UNL A   1      40.888  36.695  37.955  1.00  0.00    -0.200 F 
ATOM     70  C   UNL A   1      39.324  35.185  38.875  1.00  0.00     0.200 A 
ATOM     71  F   UNL A   1      37.778  33.639  39.763  1.00  0.00    -0.200 F 
ATOM     72  F   UNL A   1      39.149  35.989  39.934  1.00  0.00    -0.200 F 
ENDBRANCH  48  62
BRANCH  49  73
ATOM     73  C   UNL A   1      40.714  27.909  28.434  1.00  0.00     0.064 A 
ATOM     74  C   UNL A   1      40.068  26.672  28.296  1.00  0.00     0.173 A 
ATOM     75  C   UNL A   1      41.530  28.339  27.377  1.00  0.00     0.173 A 
ATOM     76  F   UNL A   1      39.292  26.208  29.287  1.00  0.00    -0.203 F 
ATOM     77  C   UNL A   1      40.252  25.885  27.161  1.00  0.00     0.198 A 
ATOM     78  C   UNL A   1      41.687  27.566  26.228  1.00  0.00     0.198 A 
ATOM     79  F   UNL A   1      42.165  29.518  27.455  1.00  0.00    -0.203 F 
ATOM     80  F   UNL A   1      39.665  24.684  27.080  1.00  0.00    -0.200 F 
ATOM     81  C   UNL A   1      41.057  26.336  26.126  1.00  0.00     0.200 A 
ATOM     82  F   UNL A   1      42.451  28.014  25.222  1.00  0.00    -0.200 F 
ATOM     83  F   UNL A   1      41.230  25.581  25.032  1.00  0.00    -0.200 F 
ENDBRANCH  49  73
BRANCH  61  84
ATOM     84  C   UNL A   1      43.870  27.946  34.643  1.00  0.00     0.064 A 
ATOM     85  C   UNL A   1      43.591  26.740  35.306  1.00  0.00     0.173 A 
ATOM     86  C   UNL A   1      45.214  28.333  34.529  1.00  0.00     0.173 A 
ATOM     87  F   UNL A   1      42.322  26.330  35.454  1.00  0.00    -0.203 F 
ATOM     88  C   UNL A   1      44.612  25.978  35.868  1.00  0.00     0.198 A 
ATOM     89  C   UNL A   1      46.235  27.550  35.060  1.00  0.00     0.198 A 
ATOM     90  F   UNL A   1      45.538  29.472  33.898  1.00  0.00    -0.203 F 
ATOM     91  F   UNL A   1      44.314  24.866  36.554  1.00  0.00    -0.200 F 
ATOM     92  C   UNL A   1      45.932  26.380  35.739  1.00  0.00     0.200 A 
ATOM     93  F   UNL A   1      47.512  27.932  34.921  1.00  0.00    -0.200 F 
ATOM     94  F   UNL A   1      46.913  25.646  36.281  1.00  0.00    -0.200 F 
ENDBRANCH  61  84
ENDBRANCH  35  36
ENDBRANCH  27  30
ENDBRANCH  25  26
ENDBRANCH  24  25
ENDBRANCH  23  24
ENDBRANCH   1  23
TORSDOF 16
ENDMDL
