MODEL 1
REMARK VINA RESULT:     -11.4      0.000      0.000
REMARK SMILES Cc1cc(Br)cc([N+](=O)[O-])c1OCCC[C@@](C)([NH3+])C(=O)NCCCCCCNC(=O)c1ccc(-c2c3nc(c(-c4c(F)c(F)c(F)c(F)c4F)c4ccc([nH]4)c(-c4c(F)c(F)c(F)c(F)c4F)c4nc(c(-c5c(F)c(F)c(F)c(F)c5F)c5ccc2[nH]5)C=C4)C=C3)cc1
REMARK SMILES IDX 22 1 21 2 19 3 20 4 16 6 17 7 15 8 14 9 13 10 12 11 11 12
REMARK SMILES IDX 1 13 2 14 3 15 4 16 7 17 5 18 6 19 8 20 9 21 10 22 18 23
REMARK SMILES IDX 23 27 24 28 25 29 26 30 27 31 28 32 29 33 30 35 31 36 32 37
REMARK SMILES IDX 93 38 33 39 92 40 34 41 35 42 36 43 86 44 37 45 91 46 85 47
REMARK SMILES IDX 87 48 38 49 90 50 84 51 83 52 39 54 71 55 51 56 70 57 52 58
REMARK SMILES IDX 55 59 69 60 88 61 53 62 54 63 68 65 89 66 56 67 40 68 41 69
REMARK SMILES IDX 49 70 42 71 43 72 47 73 50 74 44 75 45 76 48 77 46 78 72 79
REMARK SMILES IDX 73 80 81 81 74 82 75 83 79 84 82 85 76 86 77 87 80 88 78 89
REMARK SMILES IDX 57 90 58 91 66 92 59 93 60 94 64 95 67 96 61 97 62 98 65 99
REMARK SMILES IDX 63 100
REMARK H PARENT 21 5 18 24 18 25 18 26 28 34 87 53 55 64
REMARK Flexibility Score: inf
ROOT
ATOM      1  C   UNL A   1      32.359  27.468  26.496  1.00  0.00     0.116 C 
ENDROOT
BRANCH   1   2
ATOM      2  N   UNL A   1      31.160  26.706  26.785  1.00  0.00    -0.351 N 
ATOM      3  C   UNL A   1      30.285  26.020  26.006  1.00  0.00     0.280 C 
ATOM      4  O   UNL A   1      29.632  25.164  26.617  1.00  0.00    -0.268 OA
ATOM      5  H   UNL A   1      30.934  26.680  27.742  1.00  0.00     0.163 HD
BRANCH   3   6
ATOM      6  C   UNL A   1      30.097  26.218  24.470  1.00  0.00     0.171 C 
ATOM      7  C   UNL A   1      30.343  27.711  24.208  1.00  0.00     0.090 C 
BRANCH   6   8
ATOM      8  C   UNL A   1      31.039  25.324  23.586  1.00  0.00     0.082 C 
BRANCH   8   9
ATOM      9  C   UNL A   1      30.675  23.854  23.281  1.00  0.00     0.049 C 
BRANCH   9  10
ATOM     10  C   UNL A   1      31.826  22.813  23.294  1.00  0.00     0.230 C 
BRANCH  10  11
ATOM     11  O   UNL A   1      31.819  22.074  24.528  1.00  0.00    -0.487 OA
BRANCH  11  12
ATOM     12  C   UNL A   1      33.033  21.665  25.041  1.00  0.00     0.200 A 
ATOM     13  C   UNL A   1      32.514  19.212  24.572  1.00  0.00     0.049 C 
ATOM     14  C   UNL A   1      33.451  20.338  24.826  1.00  0.00    -0.001 A 
ATOM     15  C   UNL A   1      34.817  20.014  24.798  1.00  0.00     0.023 A 
ATOM     16  C   UNL A   1      35.776  20.977  25.061  1.00  0.00     0.025 A 
ATOM     17  C   UNL A   1      34.015  22.599  25.415  1.00  0.00     0.312 A 
ATOM     18  Br  UNL A   1      37.603  20.522  24.929  1.00  0.00    -0.051 Br
ATOM     19  C   UNL A   1      35.386  22.258  25.423  1.00  0.00     0.105 A 
BRANCH  17  20
ATOM     20  N   UNL A   1      33.660  23.938  25.884  1.00  0.00     0.066 N 
ATOM     21  O   UNL A   1      34.179  24.902  25.299  1.00  0.00    -0.258 OA
ATOM     22  O   UNL A   1      32.942  24.037  26.886  1.00  0.00    -0.258 OA
ENDBRANCH  17  20
ENDBRANCH  11  12
ENDBRANCH  10  11
ENDBRANCH   9  10
ENDBRANCH   8   9
ENDBRANCH   6   8
BRANCH   6  23
ATOM     23  N   UNL A   1      28.706  25.981  24.003  1.00  0.00    -0.345 N 
ATOM     24  H   UNL A   1      28.594  26.361  23.063  1.00  0.00     0.345 HD
ATOM     25  H   UNL A   1      28.052  26.440  24.637  1.00  0.00     0.345 HD
ATOM     26  H   UNL A   1      28.519  24.978  23.989  1.00  0.00     0.345 HD
ENDBRANCH   6  23
ENDBRANCH   3   6
ENDBRANCH   1   2
BRANCH   1  27
ATOM     27  C   UNL A   1      32.447  28.739  27.344  1.00  0.00     0.021 C 
BRANCH  27  28
ATOM     28  C   UNL A   1      32.719  30.037  26.569  1.00  0.00     0.002 C 
BRANCH  28  29
ATOM     29  C   UNL A   1      31.484  30.779  26.050  1.00  0.00     0.002 C 
BRANCH  29  30
ATOM     30  C   UNL A   1      31.343  32.229  26.517  1.00  0.00     0.021 C 
BRANCH  30  31
ATOM     31  C   UNL A   1      32.577  32.801  27.199  1.00  0.00     0.116 C 
BRANCH  31  32
ATOM     32  N   UNL A   1      32.396  34.187  27.591  1.00  0.00    -0.352 N 
ATOM     33  C   UNL A   1      33.026  34.892  28.589  1.00  0.00     0.251 C 
ATOM     34  H   UNL A   1      31.729  34.692  27.071  1.00  0.00     0.163 HD
ATOM     35  O   UNL A   1      32.623  36.001  28.916  1.00  0.00    -0.269 OA
BRANCH  33  36
ATOM     36  C   UNL A   1      34.183  34.290  29.288  1.00  0.00     0.039 A 
ATOM     37  C   UNL A   1      33.951  33.436  30.369  1.00  0.00     0.014 A 
ATOM     38  C   UNL A   1      35.491  34.560  28.874  1.00  0.00     0.014 A 
ATOM     39  C   UNL A   1      35.027  32.803  30.993  1.00  0.00     0.010 A 
ATOM     40  C   UNL A   1      36.555  33.867  29.445  1.00  0.00     0.010 A 
ATOM     41  C   UNL A   1      36.334  32.985  30.514  1.00  0.00    -0.014 A 
BRANCH  41  42
ATOM     42  C   UNL A   1      37.483  32.262  31.118  1.00  0.00     0.031 A 
ATOM     43  C   UNL A   1      37.978  32.637  32.486  1.00  0.00     0.074 A 
ATOM     44  C   UNL A   1      38.118  31.309  30.407  1.00  0.00     0.049 A 
ATOM     45  N   UNL A   1      39.002  32.167  33.156  1.00  0.00    -0.248 NA
ATOM     46  C   UNL A   1      37.243  33.702  33.187  1.00  0.00     0.031 C 
ATOM     47  C   UNL A   1      37.765  30.889  29.051  1.00  0.00     0.029 A 
ATOM     48  N   UNL A   1      39.203  30.529  30.724  1.00  0.00    -0.354 N 
ATOM     49  C   UNL A   1      39.038  32.885  34.344  1.00  0.00     0.074 A 
ATOM     50  C   UNL A   1      37.972  33.860  34.281  1.00  0.00     0.031 C 
ATOM     51  C   UNL A   1      38.598  29.912  28.661  1.00  0.00     0.029 A 
ATOM     52  C   UNL A   1      39.571  29.665  29.720  1.00  0.00     0.049 A 
ATOM     53  H   UNL A   1      39.673  30.583  31.587  1.00  0.00     0.167 HD
ATOM     54  C   UNL A   1      39.869  32.727  35.402  1.00  0.00     0.037 A 
ATOM     55  C   UNL A   1      40.584  28.780  29.661  1.00  0.00     0.037 A 
ATOM     56  C   UNL A   1      40.916  31.740  35.468  1.00  0.00     0.049 A 
ATOM     57  C   UNL A   1      41.501  28.633  30.845  1.00  0.00     0.074 A 
ATOM     58  C   UNL A   1      41.773  31.461  36.517  1.00  0.00     0.029 A 
ATOM     59  N   UNL A   1      41.250  30.873  34.437  1.00  0.00    -0.354 N 
ATOM     60  N   UNL A   1      41.480  29.266  31.992  1.00  0.00    -0.248 NA
ATOM     61  C   UNL A   1      42.578  27.640  30.728  1.00  0.00     0.031 C 
ATOM     62  C   UNL A   1      42.660  30.462  36.104  1.00  0.00     0.029 A 
ATOM     63  C   UNL A   1      42.318  30.076  34.817  1.00  0.00     0.049 A 
ATOM     64  H   UNL A   1      40.794  30.830  33.565  1.00  0.00     0.167 HD
ATOM     65  C   UNL A   1      42.519  28.732  32.743  1.00  0.00     0.074 A 
ATOM     66  C   UNL A   1      43.139  27.708  31.927  1.00  0.00     0.031 C 
ATOM     67  C   UNL A   1      42.921  29.058  33.996  1.00  0.00     0.037 A 
BRANCH  54  68
ATOM     68  C   UNL A   1      39.681  33.644  36.577  1.00  0.00     0.064 A 
ATOM     69  C   UNL A   1      40.317  34.893  36.647  1.00  0.00     0.173 A 
ATOM     70  C   UNL A   1      38.824  33.286  37.629  1.00  0.00     0.173 A 
ATOM     71  F   UNL A   1      41.154  35.280  35.673  1.00  0.00    -0.203 F 
ATOM     72  C   UNL A   1      40.126  35.736  37.740  1.00  0.00     0.198 A 
ATOM     73  C   UNL A   1      38.610  34.145  38.704  1.00  0.00     0.198 A 
ATOM     74  F   UNL A   1      38.186  32.106  37.611  1.00  0.00    -0.203 F 
ATOM     75  F   UNL A   1      40.786  36.900  37.809  1.00  0.00    -0.200 F 
ATOM     76  C   UNL A   1      39.267  35.364  38.763  1.00  0.00     0.200 A 
ATOM     77  F   UNL A   1      37.768  33.792  39.685  1.00  0.00    -0.200 F 
ATOM     78  F   UNL A   1      39.079  36.179  39.810  1.00  0.00    -0.200 F 
ENDBRANCH  54  68
BRANCH  55  79
ATOM     79  C   UNL A   1      40.772  27.947  28.443  1.00  0.00     0.064 A 
ATOM     80  C   UNL A   1      41.534  28.414  27.362  1.00  0.00     0.173 A 
ATOM     81  C   UNL A   1      40.191  26.676  28.330  1.00  0.00     0.173 A 
ATOM     82  F   UNL A   1      42.094  29.631  27.414  1.00  0.00    -0.203 F 
ATOM     83  C   UNL A   1      41.690  27.650  26.207  1.00  0.00     0.198 A 
ATOM     84  C   UNL A   1      40.373  25.900  27.187  1.00  0.00     0.198 A 
ATOM     85  F   UNL A   1      39.457  26.180  29.337  1.00  0.00    -0.203 F 
ATOM     86  F   UNL A   1      42.382  28.140  25.170  1.00  0.00    -0.200 F 
ATOM     87  C   UNL A   1      41.113  26.391  26.122  1.00  0.00     0.200 A 
ATOM     88  F   UNL A   1      39.828  24.678  27.115  1.00  0.00    -0.200 F 
ATOM     89  F   UNL A   1      41.267  25.655  25.013  1.00  0.00    -0.200 F 
ENDBRANCH  55  79
BRANCH  67  90
ATOM     90  C   UNL A   1      44.063  28.274  34.580  1.00  0.00     0.064 A 
ATOM     91  C   UNL A   1      45.392  28.703  34.453  1.00  0.00     0.173 A 
ATOM     92  C   UNL A   1      43.817  27.101  35.308  1.00  0.00     0.173 A 
ATOM     93  F   UNL A   1      45.682  29.810  33.754  1.00  0.00    -0.203 F 
ATOM     94  C   UNL A   1      46.435  27.970  35.013  1.00  0.00     0.198 A 
ATOM     95  C   UNL A   1      44.859  26.388  35.894  1.00  0.00     0.198 A 
ATOM     96  F   UNL A   1      42.563  26.651  35.465  1.00  0.00    -0.203 F 
ATOM     97  F   UNL A   1      47.703  28.370  34.837  1.00  0.00    -0.200 F 
ATOM     98  C   UNL A   1      46.168  26.818  35.740  1.00  0.00     0.200 A 
ATOM     99  F   UNL A   1      44.598  25.285  36.609  1.00  0.00    -0.200 F 
ATOM    100  F   UNL A   1      47.173  26.120  36.284  1.00  0.00    -0.200 F 
ENDBRANCH  67  90
ENDBRANCH  41  42
ENDBRANCH  33  36
ENDBRANCH  31  32
ENDBRANCH  30  31
ENDBRANCH  29  30
ENDBRANCH  28  29
ENDBRANCH  27  28
ENDBRANCH   1  27
TORSDOF 20
ENDMDL
MODEL 2
REMARK VINA RESULT:     -11.3      0.977      7.279
REMARK SMILES Cc1cc(Br)cc([N+](=O)[O-])c1OCCC[C@@](C)([NH3+])C(=O)NCCCCCCNC(=O)c1ccc(-c2c3nc(c(-c4c(F)c(F)c(F)c(F)c4F)c4ccc([nH]4)c(-c4c(F)c(F)c(F)c(F)c4F)c4nc(c(-c5c(F)c(F)c(F)c(F)c5F)c5ccc2[nH]5)C=C4)C=C3)cc1
REMARK SMILES IDX 22 1 21 2 19 3 20 4 16 6 17 7 15 8 14 9 13 10 12 11 11 12
REMARK SMILES IDX 1 13 2 14 3 15 4 16 7 17 5 18 6 19 8 20 9 21 10 22 18 23
REMARK SMILES IDX 23 27 24 28 25 29 26 30 27 31 28 32 29 33 30 35 31 36 32 37
REMARK SMILES IDX 93 38 33 39 92 40 34 41 35 42 36 43 86 44 37 45 91 46 85 47
REMARK SMILES IDX 87 48 38 49 90 50 84 51 83 52 39 54 71 55 51 56 70 57 52 58
REMARK SMILES IDX 55 59 69 60 88 61 53 62 54 63 68 65 89 66 56 67 40 68 41 69
REMARK SMILES IDX 49 70 42 71 43 72 47 73 50 74 44 75 45 76 48 77 46 78 72 79
REMARK SMILES IDX 73 80 81 81 74 82 75 83 79 84 82 85 76 86 77 87 80 88 78 89
REMARK SMILES IDX 57 90 58 91 66 92 59 93 60 94 64 95 67 96 61 97 62 98 65 99
REMARK SMILES IDX 63 100
REMARK H PARENT 21 5 18 24 18 25 18 26 28 34 87 53 55 64
REMARK Flexibility Score: inf
ROOT
ATOM      1  C   UNL A   1      32.501  27.557  26.113  1.00  0.00     0.116 C 
ENDROOT
BRANCH   1   2
ATOM      2  N   UNL A   1      31.304  26.873  26.561  1.00  0.00    -0.351 N 
ATOM      3  C   UNL A   1      30.311  26.215  25.909  1.00  0.00     0.280 C 
ATOM      4  O   UNL A   1      29.687  25.416  26.619  1.00  0.00    -0.268 OA
ATOM      5  H   UNL A   1      31.187  26.888  27.538  1.00  0.00     0.163 HD
BRANCH   3   6
ATOM      6  C   UNL A   1      29.960  26.380  24.398  1.00  0.00     0.171 C 
ATOM      7  C   UNL A   1      30.192  27.863  24.074  1.00  0.00     0.090 C 
BRANCH   6   8
ATOM      8  C   UNL A   1      30.791  25.453  23.441  1.00  0.00     0.082 C 
BRANCH   8   9
ATOM      9  C   UNL A   1      30.544  23.928  23.406  1.00  0.00     0.049 C 
BRANCH   9  10
ATOM     10  C   UNL A   1      31.463  23.033  24.280  1.00  0.00     0.230 C 
BRANCH  10  11
ATOM     11  O   UNL A   1      32.039  21.981  23.486  1.00  0.00    -0.487 OA
BRANCH  11  12
ATOM     12  C   UNL A   1      33.395  21.752  23.605  1.00  0.00     0.200 A 
ATOM     13  C   UNL A   1      33.965  23.858  22.283  1.00  0.00     0.049 C 
ATOM     14  C   UNL A   1      34.292  22.777  23.250  1.00  0.00    -0.001 A 
ATOM     15  C   UNL A   1      35.564  22.852  23.842  1.00  0.00     0.023 A 
ATOM     16  C   UNL A   1      35.988  21.875  24.726  1.00  0.00     0.025 A 
ATOM     17  C   UNL A   1      33.888  20.715  24.416  1.00  0.00     0.312 A 
ATOM     18  Br  UNL A   1      37.668  22.056  25.567  1.00  0.00    -0.051 Br
ATOM     19  C   UNL A   1      35.181  20.775  24.978  1.00  0.00     0.105 A 
BRANCH  17  20
ATOM     20  N   UNL A   1      33.116  19.495  24.652  1.00  0.00     0.066 N 
ATOM     21  O   UNL A   1      33.281  18.554  23.859  1.00  0.00    -0.258 OA
ATOM     22  O   UNL A   1      32.282  19.497  25.565  1.00  0.00    -0.258 OA
ENDBRANCH  17  20
ENDBRANCH  11  12
ENDBRANCH  10  11
ENDBRANCH   9  10
ENDBRANCH   8   9
ENDBRANCH   6   8
BRANCH   6  23
ATOM     23  N   UNL A   1      28.525  26.151  24.090  1.00  0.00    -0.345 N 
ATOM     24  H   UNL A   1      27.948  26.637  24.777  1.00  0.00     0.345 HD
ATOM     25  H   UNL A   1      28.325  25.152  24.122  1.00  0.00     0.345 HD
ATOM     26  H   UNL A   1      28.317  26.509  23.157  1.00  0.00     0.345 HD
ENDBRANCH   6  23
ENDBRANCH   3   6
ENDBRANCH   1   2
BRANCH   1  27
ATOM     27  C   UNL A   1      32.943  28.641  27.100  1.00  0.00     0.021 C 
BRANCH  27  28
ATOM     28  C   UNL A   1      32.999  30.068  26.537  1.00  0.00     0.002 C 
BRANCH  28  29
ATOM     29  C   UNL A   1      31.655  30.686  26.141  1.00  0.00     0.002 C 
BRANCH  29  30
ATOM     30  C   UNL A   1      31.413  32.112  26.638  1.00  0.00     0.021 C 
BRANCH  30  31
ATOM     31  C   UNL A   1      32.627  32.782  27.265  1.00  0.00     0.116 C 
BRANCH  31  32
ATOM     32  N   UNL A   1      32.379  34.174  27.592  1.00  0.00    -0.352 N 
ATOM     33  C   UNL A   1      32.967  34.951  28.562  1.00  0.00     0.251 C 
ATOM     34  H   UNL A   1      31.695  34.624  27.045  1.00  0.00     0.163 HD
ATOM     35  O   UNL A   1      32.511  36.054  28.836  1.00  0.00    -0.269 OA
BRANCH  33  36
ATOM     36  C   UNL A   1      34.143  34.435  29.296  1.00  0.00     0.039 A 
ATOM     37  C   UNL A   1      33.947  33.792  30.521  1.00  0.00     0.014 A 
ATOM     38  C   UNL A   1      35.433  34.577  28.775  1.00  0.00     0.014 A 
ATOM     39  C   UNL A   1      35.038  33.235  31.192  1.00  0.00     0.010 A 
ATOM     40  C   UNL A   1      36.507  33.953  29.405  1.00  0.00     0.010 A 
ATOM     41  C   UNL A   1      36.321  33.280  30.622  1.00  0.00    -0.014 A 
BRANCH  41  42
ATOM     42  C   UNL A   1      37.480  32.628  31.284  1.00  0.00     0.031 A 
ATOM     43  C   UNL A   1      38.197  31.493  30.609  1.00  0.00     0.074 A 
ATOM     44  C   UNL A   1      37.847  33.019  32.521  1.00  0.00     0.049 A 
ATOM     45  N   UNL A   1      39.188  30.759  31.051  1.00  0.00    -0.248 NA
ATOM     46  C   UNL A   1      37.722  31.113  29.269  1.00  0.00     0.031 C 
ATOM     47  C   UNL A   1      37.199  34.074  33.301  1.00  0.00     0.029 A 
ATOM     48  N   UNL A   1      38.848  32.565  33.344  1.00  0.00    -0.354 N 
ATOM     49  C   UNL A   1      39.443  29.828  30.052  1.00  0.00     0.074 A 
ATOM     50  C   UNL A   1      38.468  30.051  29.007  1.00  0.00     0.031 C 
ATOM     51  C   UNL A   1      37.833  34.204  34.477  1.00  0.00     0.029 A 
ATOM     52  C   UNL A   1      38.904  33.216  34.553  1.00  0.00     0.049 A 
ATOM     53  H   UNL A   1      39.467  31.842  33.093  1.00  0.00     0.167 HD
ATOM     54  C   UNL A   1      40.418  28.889  30.000  1.00  0.00     0.037 A 
ATOM     55  C   UNL A   1      39.722  33.029  35.606  1.00  0.00     0.037 A 
ATOM     56  C   UNL A   1      41.400  28.685  31.034  1.00  0.00     0.049 A 
ATOM     57  C   UNL A   1      40.789  31.971  35.528  1.00  0.00     0.074 A 
ATOM     58  C   UNL A   1      42.464  27.800  31.050  1.00  0.00     0.029 A 
ATOM     59  N   UNL A   1      41.434  29.373  32.238  1.00  0.00    -0.354 N 
ATOM     60  N   UNL A   1      41.067  31.146  34.549  1.00  0.00    -0.248 NA
ATOM     61  C   UNL A   1      41.662  31.824  36.701  1.00  0.00     0.031 C 
ATOM     62  C   UNL A   1      43.109  27.915  32.286  1.00  0.00     0.029 A 
ATOM     63  C   UNL A   1      42.484  28.913  33.016  1.00  0.00     0.049 A 
ATOM     64  H   UNL A   1      40.804  30.083  32.501  1.00  0.00     0.167 HD
ATOM     65  C   UNL A   1      42.161  30.403  34.972  1.00  0.00     0.074 A 
ATOM     66  C   UNL A   1      42.508  30.889  36.292  1.00  0.00     0.031 C 
ATOM     67  C   UNL A   1      42.820  29.411  34.326  1.00  0.00     0.037 A 
BRANCH  54  68
ATOM     68  C   UNL A   1      40.473  28.009  28.783  1.00  0.00     0.064 A 
ATOM     69  C   UNL A   1      41.228  28.359  27.654  1.00  0.00     0.173 A 
ATOM     70  C   UNL A   1      39.792  26.782  28.762  1.00  0.00     0.173 A 
ATOM     71  F   UNL A   1      41.889  29.526  27.618  1.00  0.00    -0.203 F 
ATOM     72  C   UNL A   1      41.275  27.529  26.536  1.00  0.00     0.198 A 
ATOM     73  C   UNL A   1      39.869  25.939  27.656  1.00  0.00     0.198 A 
ATOM     74  F   UNL A   1      39.060  26.395  29.817  1.00  0.00    -0.203 F 
ATOM     75  F   UNL A   1      41.959  27.910  25.449  1.00  0.00    -0.200 F 
ATOM     76  C   UNL A   1      40.601  26.317  26.542  1.00  0.00     0.200 A 
ATOM     77  F   UNL A   1      39.230  24.761  27.668  1.00  0.00    -0.200 F 
ATOM     78  F   UNL A   1      40.654  25.515  25.468  1.00  0.00    -0.200 F 
ENDBRANCH  54  68
BRANCH  55  79
ATOM     79  C   UNL A   1      39.578  33.879  36.818  1.00  0.00     0.064 A 
ATOM     80  C   UNL A   1      38.796  33.459  37.904  1.00  0.00     0.173 A 
ATOM     81  C   UNL A   1      40.211  35.127  36.915  1.00  0.00     0.173 A 
ATOM     82  F   UNL A   1      38.155  32.282  37.851  1.00  0.00    -0.203 F 
ATOM     83  C   UNL A   1      38.635  34.264  39.030  1.00  0.00     0.198 A 
ATOM     84  C   UNL A   1      40.074  35.917  38.054  1.00  0.00     0.198 A 
ATOM     85  F   UNL A   1      40.975  35.573  35.907  1.00  0.00    -0.203 F 
ATOM     86  F   UNL A   1      37.842  33.860  40.032  1.00  0.00    -0.200 F 
ATOM     87  C   UNL A   1      39.278  35.490  39.107  1.00  0.00     0.200 A 
ATOM     88  F   UNL A   1      40.710  37.094  38.132  1.00  0.00    -0.200 F 
ATOM     89  F   UNL A   1      39.126  36.262  40.191  1.00  0.00    -0.200 F 
ENDBRANCH  55  79
BRANCH  67  90
ATOM     90  C   UNL A   1      44.009  28.807  35.019  1.00  0.00     0.064 A 
ATOM     91  C   UNL A   1      45.301  29.327  34.856  1.00  0.00     0.173 A 
ATOM     92  C   UNL A   1      43.844  27.718  35.888  1.00  0.00     0.173 A 
ATOM     93  F   UNL A   1      45.515  30.357  34.025  1.00  0.00    -0.203 F 
ATOM     94  C   UNL A   1      46.388  28.761  35.518  1.00  0.00     0.198 A 
ATOM     95  C   UNL A   1      44.927  27.175  36.573  1.00  0.00     0.198 A 
ATOM     96  F   UNL A   1      42.627  27.187  36.085  1.00  0.00    -0.203 F 
ATOM     97  F   UNL A   1      47.622  29.242  35.308  1.00  0.00    -0.200 F 
ATOM     98  C   UNL A   1      46.200  27.692  36.382  1.00  0.00     0.200 A 
ATOM     99  F   UNL A   1      44.740  26.154  37.420  1.00  0.00    -0.200 F 
ATOM    100  F   UNL A   1      47.246  27.155  37.024  1.00  0.00    -0.200 F 
ENDBRANCH  67  90
ENDBRANCH  41  42
ENDBRANCH  33  36
ENDBRANCH  31  32
ENDBRANCH  30  31
ENDBRANCH  29  30
ENDBRANCH  28  29
ENDBRANCH  27  28
ENDBRANCH   1  27
TORSDOF 20
ENDMDL
MODEL 3
REMARK VINA RESULT:     -11.3      1.013      7.254
REMARK SMILES Cc1cc(Br)cc([N+](=O)[O-])c1OCCC[C@@](C)([NH3+])C(=O)NCCCCCCNC(=O)c1ccc(-c2c3nc(c(-c4c(F)c(F)c(F)c(F)c4F)c4ccc([nH]4)c(-c4c(F)c(F)c(F)c(F)c4F)c4nc(c(-c5c(F)c(F)c(F)c(F)c5F)c5ccc2[nH]5)C=C4)C=C3)cc1
REMARK SMILES IDX 22 1 21 2 19 3 20 4 16 6 17 7 15 8 14 9 13 10 12 11 11 12
REMARK SMILES IDX 1 13 2 14 3 15 4 16 7 17 5 18 6 19 8 20 9 21 10 22 18 23
REMARK SMILES IDX 23 27 24 28 25 29 26 30 27 31 28 32 29 33 30 35 31 36 32 37
REMARK SMILES IDX 93 38 33 39 92 40 34 41 35 42 36 43 86 44 37 45 91 46 85 47
REMARK SMILES IDX 87 48 38 49 90 50 84 51 83 52 39 54 71 55 51 56 70 57 52 58
REMARK SMILES IDX 55 59 69 60 88 61 53 62 54 63 68 65 89 66 56 67 40 68 41 69
REMARK SMILES IDX 49 70 42 71 43 72 47 73 50 74 44 75 45 76 48 77 46 78 72 79
REMARK SMILES IDX 73 80 81 81 74 82 75 83 79 84 82 85 76 86 77 87 80 88 78 89
REMARK SMILES IDX 57 90 58 91 66 92 59 93 60 94 64 95 67 96 61 97 62 98 65 99
REMARK SMILES IDX 63 100
REMARK H PARENT 21 5 18 24 18 25 18 26 28 34 87 53 55 64
REMARK Flexibility Score: inf
ROOT
ATOM      1  C   UNL A   1      32.429  27.518  26.169  1.00  0.00     0.116 C 
ENDROOT
BRANCH   1   2
ATOM      2  N   UNL A   1      31.224  26.828  26.582  1.00  0.00    -0.351 N 
ATOM      3  C   UNL A   1      30.266  26.145  25.904  1.00  0.00     0.280 C 
ATOM      4  O   UNL A   1      29.623  25.351  26.604  1.00  0.00    -0.268 OA
ATOM      5  H   UNL A   1      31.067  26.860  27.553  1.00  0.00     0.163 HD
BRANCH   3   6
ATOM      6  C   UNL A   1      29.974  26.275  24.377  1.00  0.00     0.171 C 
ATOM      7  C   UNL A   1      30.237  27.747  24.025  1.00  0.00     0.090 C 
BRANCH   6   8
ATOM      8  C   UNL A   1      30.830  25.315  23.475  1.00  0.00     0.082 C 
BRANCH   8   9
ATOM      9  C   UNL A   1      32.351  25.531  23.312  1.00  0.00     0.049 C 
BRANCH   9  10
ATOM     10  C   UNL A   1      33.267  24.282  23.410  1.00  0.00     0.230 C 
BRANCH  10  11
ATOM     11  O   UNL A   1      33.571  23.990  24.785  1.00  0.00    -0.487 OA
BRANCH  11  12
ATOM     12  C   UNL A   1      33.783  22.672  25.134  1.00  0.00     0.200 A 
ATOM     13  C   UNL A   1      31.314  22.312  25.661  1.00  0.00     0.049 C 
ATOM     14  C   UNL A   1      32.672  21.824  25.303  1.00  0.00    -0.001 A 
ATOM     15  C   UNL A   1      32.789  20.440  25.094  1.00  0.00     0.023 A 
ATOM     16  C   UNL A   1      34.016  19.874  24.797  1.00  0.00     0.025 A 
ATOM     17  C   UNL A   1      35.036  22.063  24.942  1.00  0.00     0.312 A 
ATOM     18  Br  UNL A   1      34.117  18.023  24.439  1.00  0.00    -0.051 Br
ATOM     19  C   UNL A   1      35.154  20.666  24.772  1.00  0.00     0.105 A 
BRANCH  17  20
ATOM     20  N   UNL A   1      36.278  22.834  24.986  1.00  0.00     0.066 N 
ATOM     21  O   UNL A   1      36.644  23.262  26.092  1.00  0.00    -0.258 OA
ATOM     22  O   UNL A   1      36.843  23.095  23.917  1.00  0.00    -0.258 OA
ENDBRANCH  17  20
ENDBRANCH  11  12
ENDBRANCH  10  11
ENDBRANCH   9  10
ENDBRANCH   8   9
ENDBRANCH   6   8
BRANCH   6  23
ATOM     23  N   UNL A   1      28.549  26.055  24.019  1.00  0.00    -0.345 N 
ATOM     24  H   UNL A   1      28.178  25.279  24.568  1.00  0.00     0.345 HD
ATOM     25  H   UNL A   1      28.478  25.835  23.027  1.00  0.00     0.345 HD
ATOM     26  H   UNL A   1      28.015  26.900  24.220  1.00  0.00     0.345 HD
ENDBRANCH   6  23
ENDBRANCH   3   6
ENDBRANCH   1   2
BRANCH   1  27
ATOM     27  C   UNL A   1      32.883  28.548  27.207  1.00  0.00     0.021 C 
BRANCH  27  28
ATOM     28  C   UNL A   1      32.968  29.998  26.711  1.00  0.00     0.002 C 
BRANCH  28  29
ATOM     29  C   UNL A   1      31.653  30.623  26.238  1.00  0.00     0.002 C 
BRANCH  29  30
ATOM     30  C   UNL A   1      31.443  32.088  26.623  1.00  0.00     0.021 C 
BRANCH  30  31
ATOM     31  C   UNL A   1      32.619  32.731  27.342  1.00  0.00     0.116 C 
BRANCH  31  32
ATOM     32  N   UNL A   1      32.387  34.135  27.630  1.00  0.00    -0.352 N 
ATOM     33  C   UNL A   1      32.980  34.932  28.581  1.00  0.00     0.251 C 
ATOM     34  H   UNL A   1      31.711  34.578  27.068  1.00  0.00     0.163 HD
ATOM     35  O   UNL A   1      32.536  36.047  28.822  1.00  0.00    -0.269 OA
BRANCH  33  36
ATOM     36  C   UNL A   1      34.147  34.422  29.334  1.00  0.00     0.039 A 
ATOM     37  C   UNL A   1      33.934  33.777  30.555  1.00  0.00     0.014 A 
ATOM     38  C   UNL A   1      35.444  34.572  28.835  1.00  0.00     0.014 A 
ATOM     39  C   UNL A   1      35.017  33.226  31.243  1.00  0.00     0.010 A 
ATOM     40  C   UNL A   1      36.511  33.955  29.482  1.00  0.00     0.010 A 
ATOM     41  C   UNL A   1      36.309  33.279  30.695  1.00  0.00    -0.014 A 
BRANCH  41  42
ATOM     42  C   UNL A   1      37.461  32.634  31.377  1.00  0.00     0.031 A 
ATOM     43  C   UNL A   1      38.167  31.474  30.734  1.00  0.00     0.074 A 
ATOM     44  C   UNL A   1      37.830  33.054  32.603  1.00  0.00     0.049 A 
ATOM     45  N   UNL A   1      39.150  30.741  31.196  1.00  0.00    -0.248 NA
ATOM     46  C   UNL A   1      37.689  31.062  29.404  1.00  0.00     0.031 C 
ATOM     47  C   UNL A   1      37.193  34.137  33.353  1.00  0.00     0.029 A 
ATOM     48  N   UNL A   1      38.826  32.613  33.439  1.00  0.00    -0.354 N 
ATOM     49  C   UNL A   1      39.396  29.781  30.224  1.00  0.00     0.074 A 
ATOM     50  C   UNL A   1      38.425  29.986  29.172  1.00  0.00     0.031 C 
ATOM     51  C   UNL A   1      37.827  34.293  34.526  1.00  0.00     0.029 A 
ATOM     52  C   UNL A   1      38.887  33.296  34.630  1.00  0.00     0.049 A 
ATOM     53  H   UNL A   1      39.437  31.877  33.208  1.00  0.00     0.167 HD
ATOM     54  C   UNL A   1      40.362  28.831  30.199  1.00  0.00     0.037 A 
ATOM     55  C   UNL A   1      39.703  33.130  35.689  1.00  0.00     0.037 A 
ATOM     56  C   UNL A   1      41.340  28.645  31.239  1.00  0.00     0.049 A 
ATOM     57  C   UNL A   1      40.758  32.059  35.641  1.00  0.00     0.074 A 
ATOM     58  C   UNL A   1      42.395  27.750  31.281  1.00  0.00     0.029 A 
ATOM     59  N   UNL A   1      41.379  29.366  32.424  1.00  0.00    -0.354 N 
ATOM     60  N   UNL A   1      41.029  31.205  34.685  1.00  0.00    -0.248 NA
ATOM     61  C   UNL A   1      41.629  31.935  36.819  1.00  0.00     0.031 C 
ATOM     62  C   UNL A   1      43.040  27.893  32.513  1.00  0.00     0.029 A 
ATOM     63  C   UNL A   1      42.425  28.916  33.216  1.00  0.00     0.049 A 
ATOM     64  H   UNL A   1      40.756  30.089  32.667  1.00  0.00     0.167 HD
ATOM     65  C   UNL A   1      42.115  30.463  35.130  1.00  0.00     0.074 A 
ATOM     66  C   UNL A   1      42.465  30.980  36.437  1.00  0.00     0.031 C 
ATOM     67  C   UNL A   1      42.765  29.446  34.512  1.00  0.00     0.037 A 
BRANCH  54  68
ATOM     68  C   UNL A   1      40.408  27.918  29.007  1.00  0.00     0.064 A 
ATOM     69  C   UNL A   1      39.686  26.715  28.971  1.00  0.00     0.173 A 
ATOM     70  C   UNL A   1      41.153  28.268  27.870  1.00  0.00     0.173 A 
ATOM     71  F   UNL A   1      38.966  26.328  30.034  1.00  0.00    -0.203 F 
ATOM     72  C   UNL A   1      39.733  25.882  27.855  1.00  0.00     0.198 A 
ATOM     73  C   UNL A   1      41.171  27.449  26.744  1.00  0.00     0.198 A 
ATOM     74  F   UNL A   1      41.858  29.410  27.848  1.00  0.00    -0.203 F 
ATOM     75  F   UNL A   1      39.078  24.713  27.866  1.00  0.00    -0.200 F 
ATOM     76  C   UNL A   1      40.469  26.254  26.741  1.00  0.00     0.200 A 
ATOM     77  F   UNL A   1      41.871  27.817  25.661  1.00  0.00    -0.200 F 
ATOM     78  F   UNL A   1      40.507  25.455  25.665  1.00  0.00    -0.200 F 
ENDBRANCH  54  68
BRANCH  55  79
ATOM     79  C   UNL A   1      39.566  34.014  36.877  1.00  0.00     0.064 A 
ATOM     80  C   UNL A   1      40.193  35.267  36.918  1.00  0.00     0.173 A 
ATOM     81  C   UNL A   1      38.816  33.624  37.996  1.00  0.00     0.173 A 
ATOM     82  F   UNL A   1      40.939  35.677  35.881  1.00  0.00    -0.203 F 
ATOM     83  C   UNL A   1      40.093  36.088  38.040  1.00  0.00     0.198 A 
ATOM     84  C   UNL A   1      38.690  34.458  39.105  1.00  0.00     0.198 A 
ATOM     85  F   UNL A   1      38.191  32.437  38.006  1.00  0.00    -0.203 F 
ATOM     86  F   UNL A   1      40.742  37.259  38.072  1.00  0.00    -0.200 F 
ATOM     87  C   UNL A   1      39.337  35.685  39.131  1.00  0.00     0.200 A 
ATOM     88  F   UNL A   1      37.945  34.072  40.150  1.00  0.00    -0.200 F 
ATOM     89  F   UNL A   1      39.237  36.475  40.208  1.00  0.00    -0.200 F 
ENDBRANCH  55  79
BRANCH  67  90
ATOM     90  C   UNL A   1      43.946  28.849  35.223  1.00  0.00     0.064 A 
ATOM     91  C   UNL A   1      45.253  29.302  34.991  1.00  0.00     0.173 A 
ATOM     92  C   UNL A   1      43.761  27.837  36.177  1.00  0.00     0.173 A 
ATOM     93  F   UNL A   1      45.485  30.257  34.077  1.00  0.00    -0.203 F 
ATOM     94  C   UNL A   1      46.334  28.745  35.669  1.00  0.00     0.198 A 
ATOM     95  C   UNL A   1      44.840  27.305  36.878  1.00  0.00     0.198 A 
ATOM     96  F   UNL A   1      42.531  27.374  36.442  1.00  0.00    -0.203 F 
ATOM     97  F   UNL A   1      47.579  29.158  35.395  1.00  0.00    -0.200 F 
ATOM     98  C   UNL A   1      46.126  27.754  36.618  1.00  0.00     0.200 A 
ATOM     99  F   UNL A   1      44.635  26.360  37.805  1.00  0.00    -0.200 F 
ATOM    100  F   UNL A   1      47.167  27.226  37.276  1.00  0.00    -0.200 F 
ENDBRANCH  67  90
ENDBRANCH  41  42
ENDBRANCH  33  36
ENDBRANCH  31  32
ENDBRANCH  30  31
ENDBRANCH  29  30
ENDBRANCH  28  29
ENDBRANCH  27  28
ENDBRANCH   1  27
TORSDOF 20
ENDMDL
