MODEL 1
REMARK VINA RESULT:     -12.7      0.000      0.000
REMARK SMILES CC[C@@H](Oc1cc(Cl)ccc1Cl)C(=O)NNC(=O)[C@@H]1[C@@H]2CC[C@@H](C2)[C@@H]1C(=O)NCCCCCCNC(=O)c1ccc(-c2c3nc(c(-c4c(F)c(F)c(F)c(F)c4F)c4ccc([nH]4)c(-c4c(F)c(F)c(F)c(F)c4F)c4nc(c(-c5c(F)c(F)c(F)c(F)c5F)c5ccc2[nH]5)C=C4)C=C3)cc1
REMARK SMILES IDX 30 1 29 2 28 3 26 4 27 5 25 7 19 8 20 9 21 10 24 11 23 12
REMARK SMILES IDX 22 13 17 14 16 15 18 17 15 18 13 19 14 20 3 22 2 23 1 24
REMARK SMILES IDX 4 25 5 26 6 27 11 28 7 29 10 30 12 31 8 32 9 33 31 34 32 35
REMARK SMILES IDX 33 36 34 37 35 38 36 39 37 41 38 42 39 43 100 44 40 45 99 46
REMARK SMILES IDX 41 47 42 48 43 49 93 50 44 51 98 52 92 53 94 54 45 55 97 56
REMARK SMILES IDX 91 57 90 58 46 60 78 61 58 62 77 63 59 64 62 65 76 66 95 67
REMARK SMILES IDX 60 68 61 69 75 71 96 72 63 73 47 74 48 75 56 76 49 77 50 78
REMARK SMILES IDX 54 79 57 80 51 81 52 82 55 83 53 84 79 85 80 86 88 87 81 88
REMARK SMILES IDX 82 89 86 90 89 91 83 92 84 93 87 94 85 95 64 96 65 97 73 98
REMARK SMILES IDX 66 99 67 100 71 101 74 102 68 103 69 104 72 105 70 106
REMARK H PARENT 28 6 16 16 15 21 35 40 94 59 62 70
REMARK Flexibility Score: inf
ROOT
ATOM      1  C   UNL A   1      33.196  28.814  27.361  1.00  0.00     0.021 C 
ENDROOT
BRANCH   1   2
ATOM      2  C   UNL A   1      34.288  28.236  26.460  1.00  0.00     0.116 C 
BRANCH   2   3
ATOM      3  N   UNL A   1      34.214  28.750  25.101  1.00  0.00    -0.356 N 
ATOM      4  C   UNL A   1      33.298  28.505  24.119  1.00  0.00     0.224 C 
ATOM      5  O   UNL A   1      33.375  29.152  23.077  1.00  0.00    -0.275 OA
ATOM      6  H   UNL A   1      34.936  29.371  24.851  1.00  0.00     0.163 HD
BRANCH   4   7
ATOM      7  C   UNL A   1      32.187  27.511  24.385  1.00  0.00     0.094 C 
ATOM      8  C   UNL A   1      32.342  26.017  24.038  1.00  0.00     0.096 C 
ATOM      9  C   UNL A   1      31.005  25.676  23.319  1.00  0.00     0.002 C 
ATOM     10  C   UNL A   1      30.862  26.264  21.918  1.00  0.00     0.005 C 
ATOM     11  C   UNL A   1      30.027  26.620  24.056  1.00  0.00     0.009 C 
ATOM     12  C   UNL A   1      30.837  27.877  23.716  1.00  0.00     0.002 C 
ATOM     13  C   UNL A   1      30.880  27.779  22.175  1.00  0.00     0.005 C 
BRANCH   8  14
ATOM     14  C   UNL A   1      33.695  25.428  23.617  1.00  0.00     0.242 C 
ATOM     15  N   UNL A   1      34.510  24.696  24.423  1.00  0.00    -0.267 N 
ATOM     16  H   UNL A   1      35.403  24.466  24.076  1.00  0.00     0.191 HD
ATOM     17  O   UNL A   1      34.080  25.614  22.453  1.00  0.00    -0.273 OA
BRANCH  15  18
ATOM     18  N   UNL A   1      34.189  24.250  25.682  1.00  0.00    -0.264 N 
ATOM     19  C   UNL A   1      34.599  23.055  26.229  1.00  0.00     0.279 C 
ATOM     20  O   UNL A   1      34.641  22.916  27.454  1.00  0.00    -0.269 OA
ATOM     21  H   UNL A   1      33.621  24.832  26.238  1.00  0.00     0.191 HD
BRANCH  19  22
ATOM     22  C   UNL A   1      34.676  21.846  25.286  1.00  0.00     0.263 C 
BRANCH  22  23
ATOM     23  C   UNL A   1      36.137  21.362  25.465  1.00  0.00     0.052 C 
ATOM     24  C   UNL A   1      37.085  21.845  24.380  1.00  0.00     0.008 C 
ENDBRANCH  22  23
BRANCH  22  25
ATOM     25  O   UNL A   1      33.698  20.861  25.662  1.00  0.00    -0.479 OA
BRANCH  25  26
ATOM     26  C   UNL A   1      33.306  20.055  24.629  1.00  0.00     0.140 A 
ATOM     27  C   UNL A   1      33.678  18.709  24.678  1.00  0.00     0.068 A 
ATOM     28  C   UNL A   1      32.473  20.510  23.603  1.00  0.00     0.083 A 
ATOM     29  C   UNL A   1      33.325  17.853  23.642  1.00  0.00     0.044 A 
ATOM     30  C   UNL A   1      32.087  19.635  22.584  1.00  0.00     0.026 A 
ATOM     31  Cl  UNL A   1      31.891  22.133  23.567  1.00  0.00    -0.080 Cl
ATOM     32  Cl  UNL A   1      33.896  16.232  23.654  1.00  0.00    -0.084 Cl
ATOM     33  C   UNL A   1      32.533  18.309  22.591  1.00  0.00     0.022 A 
ENDBRANCH  25  26
ENDBRANCH  22  25
ENDBRANCH  19  22
ENDBRANCH  15  18
ENDBRANCH   8  14
ENDBRANCH   4   7
ENDBRANCH   2   3
ENDBRANCH   1   2
BRANCH   1  34
ATOM     34  C   UNL A   1      33.064  30.342  27.303  1.00  0.00     0.002 C 
BRANCH  34  35
ATOM     35  C   UNL A   1      31.742  30.867  26.731  1.00  0.00     0.002 C 
BRANCH  35  36
ATOM     36  C   UNL A   1      31.556  32.385  26.800  1.00  0.00     0.021 C 
BRANCH  36  37
ATOM     37  C   UNL A   1      32.797  33.161  27.225  1.00  0.00     0.116 C 
BRANCH  37  38
ATOM     38  N   UNL A   1      32.473  34.482  27.742  1.00  0.00    -0.352 N 
ATOM     39  C   UNL A   1      32.985  35.148  28.829  1.00  0.00     0.251 C 
ATOM     40  H   UNL A   1      31.783  34.971  27.238  1.00  0.00     0.163 HD
ATOM     41  O   UNL A   1      32.459  36.181  29.224  1.00  0.00    -0.269 OA
BRANCH  39  42
ATOM     42  C   UNL A   1      34.162  34.603  29.541  1.00  0.00     0.039 A 
ATOM     43  C   UNL A   1      33.994  34.090  30.830  1.00  0.00     0.014 A 
ATOM     44  C   UNL A   1      35.426  34.603  28.947  1.00  0.00     0.014 A 
ATOM     45  C   UNL A   1      35.081  33.520  31.497  1.00  0.00     0.010 A 
ATOM     46  C   UNL A   1      36.490  33.964  29.577  1.00  0.00     0.010 A 
ATOM     47  C   UNL A   1      36.330  33.419  30.861  1.00  0.00    -0.014 A 
BRANCH  47  48
ATOM     48  C   UNL A   1      37.479  32.749  31.522  1.00  0.00     0.031 A 
ATOM     49  C   UNL A   1      38.172  31.596  30.851  1.00  0.00     0.074 A 
ATOM     50  C   UNL A   1      37.860  33.139  32.754  1.00  0.00     0.049 A 
ATOM     51  N   UNL A   1      39.148  30.842  31.293  1.00  0.00    -0.248 NA
ATOM     52  C   UNL A   1      37.688  31.224  29.513  1.00  0.00     0.031 C 
ATOM     53  C   UNL A   1      37.244  34.218  33.528  1.00  0.00     0.029 A 
ATOM     54  N   UNL A   1      38.853  32.667  33.577  1.00  0.00    -0.354 N 
ATOM     55  C   UNL A   1      39.385  29.907  30.295  1.00  0.00     0.074 A 
ATOM     56  C   UNL A   1      38.411  30.146  29.252  1.00  0.00     0.031 C 
ATOM     57  C   UNL A   1      37.890  34.346  34.698  1.00  0.00     0.029 A 
ATOM     58  C   UNL A   1      38.935  33.329  34.777  1.00  0.00     0.049 A 
ATOM     59  H   UNL A   1      39.450  31.924  33.330  1.00  0.00     0.167 HD
ATOM     60  C   UNL A   1      40.346  28.953  30.240  1.00  0.00     0.037 A 
ATOM     61  C   UNL A   1      39.754  33.132  35.828  1.00  0.00     0.037 A 
ATOM     62  C   UNL A   1      41.320  28.725  31.276  1.00  0.00     0.049 A 
ATOM     63  C   UNL A   1      40.787  32.039  35.758  1.00  0.00     0.074 A 
ATOM     64  C   UNL A   1      42.360  27.813  31.298  1.00  0.00     0.029 A 
ATOM     65  N   UNL A   1      41.369  29.414  32.480  1.00  0.00    -0.354 N 
ATOM     66  N   UNL A   1      41.045  31.202  34.783  1.00  0.00    -0.248 NA
ATOM     67  C   UNL A   1      41.648  31.868  36.937  1.00  0.00     0.031 C 
ATOM     68  C   UNL A   1      43.002  27.910  32.537  1.00  0.00     0.029 A 
ATOM     69  C   UNL A   1      42.404  28.927  33.263  1.00  0.00     0.049 A 
ATOM     70  H   UNL A   1      40.758  30.141  32.740  1.00  0.00     0.167 HD
ATOM     71  C   UNL A   1      42.117  30.431  35.214  1.00  0.00     0.074 A 
ATOM     72  C   UNL A   1      42.469  30.910  36.533  1.00  0.00     0.031 C 
ATOM     73  C   UNL A   1      42.752  29.420  34.572  1.00  0.00     0.037 A 
BRANCH  60  74
ATOM     74  C   UNL A   1      40.387  28.080  29.017  1.00  0.00     0.064 A 
ATOM     75  C   UNL A   1      41.146  28.428  27.888  1.00  0.00     0.173 A 
ATOM     76  C   UNL A   1      39.679  26.869  28.980  1.00  0.00     0.173 A 
ATOM     77  F   UNL A   1      41.835  29.579  27.866  1.00  0.00    -0.203 F 
ATOM     78  C   UNL A   1      41.165  27.615  26.757  1.00  0.00     0.198 A 
ATOM     79  C   UNL A   1      39.729  26.041  27.861  1.00  0.00     0.198 A 
ATOM     80  F   UNL A   1      38.942  26.483  30.033  1.00  0.00    -0.203 F 
ATOM     81  F   UNL A   1      41.848  28.000  25.670  1.00  0.00    -0.200 F 
ATOM     82  C   UNL A   1      40.462  26.421  26.746  1.00  0.00     0.200 A 
ATOM     83  F   UNL A   1      39.062  24.879  27.859  1.00  0.00    -0.200 F 
ATOM     84  F   UNL A   1      40.484  25.637  25.660  1.00  0.00    -0.200 F 
ENDBRANCH  60  74
BRANCH  61  85
ATOM     85  C   UNL A   1      39.650  34.006  37.028  1.00  0.00     0.064 A 
ATOM     86  C   UNL A   1      38.871  33.623  38.129  1.00  0.00     0.173 A 
ATOM     87  C   UNL A   1      40.313  35.239  37.097  1.00  0.00     0.173 A 
ATOM     88  F   UNL A   1      38.200  32.461  38.104  1.00  0.00    -0.203 F 
ATOM     89  C   UNL A   1      38.739  34.450  39.242  1.00  0.00     0.198 A 
ATOM     90  C   UNL A   1      40.207  36.052  38.223  1.00  0.00     0.198 A 
ATOM     91  F   UNL A   1      41.076  35.652  36.073  1.00  0.00    -0.203 F 
ATOM     92  F   UNL A   1      37.947  34.084  40.257  1.00  0.00    -0.200 F 
ATOM     93  C   UNL A   1      39.413  35.662  39.291  1.00  0.00     0.200 A 
ATOM     94  F   UNL A   1      40.872  37.214  38.273  1.00  0.00    -0.200 F 
ATOM     95  F   UNL A   1      39.289  36.457  40.363  1.00  0.00    -0.200 F 
ENDBRANCH  61  85
BRANCH  73  96
ATOM     96  C   UNL A   1      43.925  28.789  35.268  1.00  0.00     0.064 A 
ATOM     97  C   UNL A   1      43.776  27.688  36.123  1.00  0.00     0.173 A 
ATOM     98  C   UNL A   1      45.223  29.274  35.045  1.00  0.00     0.173 A 
ATOM     99  F   UNL A   1      42.556  27.194  36.382  1.00  0.00    -0.203 F 
ATOM    100  C   UNL A   1      44.879  27.113  36.750  1.00  0.00     0.198 A 
ATOM    101  C   UNL A   1      46.328  28.676  35.646  1.00  0.00     0.198 A 
ATOM    102  F   UNL A   1      45.424  30.322  34.231  1.00  0.00    -0.203 F 
ATOM    103  F   UNL A   1      44.707  26.096  37.606  1.00  0.00    -0.200 F 
ATOM    104  C   UNL A   1      46.154  27.602  36.505  1.00  0.00     0.200 A 
ATOM    105  F   UNL A   1      47.560  29.139  35.393  1.00  0.00    -0.200 F 
ATOM    106  F   UNL A   1      47.215  27.043  37.102  1.00  0.00    -0.200 F 
ENDBRANCH  73  96
ENDBRANCH  47  48
ENDBRANCH  39  42
ENDBRANCH  37  38
ENDBRANCH  36  37
ENDBRANCH  35  36
ENDBRANCH  34  35
ENDBRANCH   1  34
TORSDOF 19
ENDMDL
MODEL 2
REMARK VINA RESULT:     -12.6      5.118      9.848
REMARK SMILES CC[C@@H](Oc1cc(Cl)ccc1Cl)C(=O)NNC(=O)[C@@H]1[C@@H]2CC[C@@H](C2)[C@@H]1C(=O)NCCCCCCNC(=O)c1ccc(-c2c3nc(c(-c4c(F)c(F)c(F)c(F)c4F)c4ccc([nH]4)c(-c4c(F)c(F)c(F)c(F)c4F)c4nc(c(-c5c(F)c(F)c(F)c(F)c5F)c5ccc2[nH]5)C=C4)C=C3)cc1
REMARK SMILES IDX 30 1 29 2 28 3 26 4 27 5 25 7 19 8 20 9 21 10 24 11 23 12
REMARK SMILES IDX 22 13 17 14 16 15 18 17 15 18 13 19 14 20 3 22 2 23 1 24
REMARK SMILES IDX 4 25 5 26 6 27 11 28 7 29 10 30 12 31 8 32 9 33 31 34 32 35
REMARK SMILES IDX 33 36 34 37 35 38 36 39 37 41 38 42 39 43 100 44 40 45 99 46
REMARK SMILES IDX 41 47 42 48 43 49 93 50 44 51 98 52 92 53 94 54 45 55 97 56
REMARK SMILES IDX 91 57 90 58 46 60 78 61 58 62 77 63 59 64 62 65 76 66 95 67
REMARK SMILES IDX 60 68 61 69 75 71 96 72 63 73 47 74 48 75 56 76 49 77 50 78
REMARK SMILES IDX 54 79 57 80 51 81 52 82 55 83 53 84 79 85 80 86 88 87 81 88
REMARK SMILES IDX 82 89 86 90 89 91 83 92 84 93 87 94 85 95 64 96 65 97 73 98
REMARK SMILES IDX 66 99 67 100 71 101 74 102 68 103 69 104 72 105 70 106
REMARK H PARENT 28 6 16 16 15 21 35 40 94 59 62 70
REMARK Flexibility Score: inf
ROOT
ATOM      1  C   UNL A   1      37.348  23.983  26.042  1.00  0.00     0.021 C 
ENDROOT
BRANCH   1   2
ATOM      2  C   UNL A   1      35.834  24.067  26.246  1.00  0.00     0.116 C 
BRANCH   2   3
ATOM      3  N   UNL A   1      35.120  24.302  25.001  1.00  0.00    -0.356 N 
ATOM      4  C   UNL A   1      34.048  25.107  24.742  1.00  0.00     0.224 C 
ATOM      5  O   UNL A   1      33.686  25.236  23.575  1.00  0.00    -0.275 OA
ATOM      6  H   UNL A   1      35.462  23.802  24.225  1.00  0.00     0.163 HD
BRANCH   4   7
ATOM      7  C   UNL A   1      33.409  25.865  25.886  1.00  0.00     0.094 C 
ATOM      8  C   UNL A   1      31.893  25.784  26.158  1.00  0.00     0.096 C 
ATOM      9  C   UNL A   1      31.488  27.270  26.374  1.00  0.00     0.002 C 
ATOM     10  C   UNL A   1      31.487  28.125  25.110  1.00  0.00     0.005 C 
ATOM     11  C   UNL A   1      32.774  27.833  27.022  1.00  0.00     0.009 C 
ATOM     12  C   UNL A   1      33.666  27.394  25.855  1.00  0.00     0.002 C 
ATOM     13  C   UNL A   1      32.962  28.102  24.676  1.00  0.00     0.005 C 
BRANCH   8  14
ATOM     14  C   UNL A   1      31.001  24.768  25.433  1.00  0.00     0.242 C 
ATOM     15  N   UNL A   1      30.906  23.448  25.750  1.00  0.00    -0.267 N 
ATOM     16  H   UNL A   1      30.386  22.873  25.143  1.00  0.00     0.191 HD
ATOM     17  O   UNL A   1      30.300  25.169  24.492  1.00  0.00    -0.273 OA
BRANCH  15  18
ATOM     18  N   UNL A   1      31.475  22.854  26.849  1.00  0.00    -0.264 N 
ATOM     19  C   UNL A   1      32.678  22.184  26.855  1.00  0.00     0.279 C 
ATOM     20  O   UNL A   1      33.312  22.059  27.905  1.00  0.00    -0.269 OA
ATOM     21  H   UNL A   1      30.984  22.911  27.701  1.00  0.00     0.191 HD
BRANCH  19  22
ATOM     22  C   UNL A   1      33.016  21.346  25.614  1.00  0.00     0.263 C 
BRANCH  22  23
ATOM     23  C   UNL A   1      34.365  20.688  26.000  1.00  0.00     0.052 C 
ATOM     24  C   UNL A   1      35.376  20.643  24.866  1.00  0.00     0.008 C 
ENDBRANCH  22  23
BRANCH  22  25
ATOM     25  O   UNL A   1      31.969  20.394  25.359  1.00  0.00    -0.479 OA
BRANCH  25  26
ATOM     26  C   UNL A   1      32.377  19.312  24.629  1.00  0.00     0.140 A 
ATOM     27  C   UNL A   1      32.678  18.136  25.321  1.00  0.00     0.068 A 
ATOM     28  C   UNL A   1      32.399  19.321  23.231  1.00  0.00     0.083 A 
ATOM     29  C   UNL A   1      33.120  17.016  24.627  1.00  0.00     0.044 A 
ATOM     30  C   UNL A   1      32.805  18.178  22.536  1.00  0.00     0.026 A 
ATOM     31  Cl  UNL A   1      31.920  20.712  22.331  1.00  0.00    -0.080 Cl
ATOM     32  Cl  UNL A   1      33.606  15.618  25.503  1.00  0.00    -0.084 Cl
ATOM     33  C   UNL A   1      33.188  17.031  23.237  1.00  0.00     0.022 A 
ENDBRANCH  25  26
ENDBRANCH  22  25
ENDBRANCH  19  22
ENDBRANCH  15  18
ENDBRANCH   8  14
ENDBRANCH   4   7
ENDBRANCH   2   3
ENDBRANCH   1   2
BRANCH   1  34
ATOM     34  C   UNL A   1      37.821  22.735  25.285  1.00  0.00     0.002 C 
BRANCH  34  35
ATOM     35  C   UNL A   1      38.973  21.965  25.942  1.00  0.00     0.002 C 
BRANCH  35  36
ATOM     36  C   UNL A   1      39.271  20.592  25.335  1.00  0.00     0.021 C 
BRANCH  36  37
ATOM     37  C   UNL A   1      39.684  19.525  26.342  1.00  0.00     0.116 C 
BRANCH  37  38
ATOM     38  N   UNL A   1      40.930  18.870  25.975  1.00  0.00    -0.352 N 
ATOM     39  C   UNL A   1      42.193  19.396  25.850  1.00  0.00     0.251 C 
ATOM     40  H   UNL A   1      40.857  17.906  25.787  1.00  0.00     0.163 HD
ATOM     41  O   UNL A   1      43.091  18.730  25.350  1.00  0.00    -0.269 OA
BRANCH  39  42
ATOM     42  C   UNL A   1      42.464  20.779  26.298  1.00  0.00     0.039 A 
ATOM     43  C   UNL A   1      42.463  21.057  27.669  1.00  0.00     0.014 A 
ATOM     44  C   UNL A   1      42.710  21.800  25.377  1.00  0.00     0.014 A 
ATOM     45  C   UNL A   1      42.773  22.343  28.115  1.00  0.00     0.010 A 
ATOM     46  C   UNL A   1      43.096  23.060  25.824  1.00  0.00     0.010 A 
ATOM     47  C   UNL A   1      43.128  23.347  27.198  1.00  0.00    -0.014 A 
BRANCH  47  48
ATOM     48  C   UNL A   1      43.533  24.701  27.656  1.00  0.00     0.031 A 
ATOM     49  C   UNL A   1      42.491  25.734  27.985  1.00  0.00     0.074 A 
ATOM     50  C   UNL A   1      44.841  25.020  27.718  1.00  0.00     0.049 A 
ATOM     51  N   UNL A   1      42.645  26.985  28.338  1.00  0.00    -0.248 NA
ATOM     52  C   UNL A   1      41.087  25.309  27.881  1.00  0.00     0.031 C 
ATOM     53  C   UNL A   1      45.948  24.120  27.387  1.00  0.00     0.029 A 
ATOM     54  N   UNL A   1      45.461  26.192  28.072  1.00  0.00    -0.354 N 
ATOM     55  C   UNL A   1      41.363  27.496  28.487  1.00  0.00     0.074 A 
ATOM     56  C   UNL A   1      40.443  26.440  28.125  1.00  0.00     0.031 C 
ATOM     57  C   UNL A   1      47.110  24.762  27.583  1.00  0.00     0.029 A 
ATOM     58  C   UNL A   1      46.832  26.131  28.007  1.00  0.00     0.049 A 
ATOM     59  H   UNL A   1      44.971  27.000  28.347  1.00  0.00     0.167 HD
ATOM     60  C   UNL A   1      40.987  28.727  28.913  1.00  0.00     0.037 A 
ATOM     61  C   UNL A   1      47.760  27.076  28.253  1.00  0.00     0.037 A 
ATOM     62  C   UNL A   1      41.906  29.772  29.281  1.00  0.00     0.049 A 
ATOM     63  C   UNL A   1      47.314  28.447  28.687  1.00  0.00     0.074 A 
ATOM     64  C   UNL A   1      41.626  31.037  29.765  1.00  0.00     0.029 A 
ATOM     65  N   UNL A   1      43.289  29.674  29.198  1.00  0.00    -0.354 N 
ATOM     66  N   UNL A   1      46.101  28.900  28.887  1.00  0.00    -0.248 NA
ATOM     67  C   UNL A   1      48.372  29.437  28.935  1.00  0.00     0.031 C 
ATOM     68  C   UNL A   1      42.835  31.724  29.920  1.00  0.00     0.029 A 
ATOM     69  C   UNL A   1      43.873  30.866  29.596  1.00  0.00     0.049 A 
ATOM     70  H   UNL A   1      43.781  28.875  28.901  1.00  0.00     0.167 HD
ATOM     71  C   UNL A   1      46.248  30.212  29.317  1.00  0.00     0.074 A 
ATOM     72  C   UNL A   1      47.671  30.478  29.361  1.00  0.00     0.031 C 
ATOM     73  C   UNL A   1      45.291  31.114  29.646  1.00  0.00     0.037 A 
BRANCH  60  74
ATOM     74  C   UNL A   1      39.513  29.008  29.001  1.00  0.00     0.064 A 
ATOM     75  C   UNL A   1      38.769  29.397  27.875  1.00  0.00     0.173 A 
ATOM     76  C   UNL A   1      38.829  28.864  30.217  1.00  0.00     0.173 A 
ATOM     77  F   UNL A   1      39.373  29.559  26.689  1.00  0.00    -0.203 F 
ATOM     78  C   UNL A   1      37.405  29.666  27.973  1.00  0.00     0.198 A 
ATOM     79  C   UNL A   1      37.459  29.100  30.304  1.00  0.00     0.198 A 
ATOM     80  F   UNL A   1      39.488  28.488  31.324  1.00  0.00    -0.203 F 
ATOM     81  F   UNL A   1      36.731  30.095  26.898  1.00  0.00    -0.200 F 
ATOM     82  C   UNL A   1      36.751  29.511  29.184  1.00  0.00     0.200 A 
ATOM     83  F   UNL A   1      36.824  28.933  31.473  1.00  0.00    -0.200 F 
ATOM     84  F   UNL A   1      35.438  29.766  29.277  1.00  0.00    -0.200 F 
ENDBRANCH  60  74
BRANCH  61  85
ATOM     85  C   UNL A   1      49.206  26.752  28.121  1.00  0.00     0.064 A 
ATOM     86  C   UNL A   1      49.827  26.741  26.863  1.00  0.00     0.173 A 
ATOM     87  C   UNL A   1      49.993  26.438  29.238  1.00  0.00     0.173 A 
ATOM     88  F   UNL A   1      49.113  27.014  25.761  1.00  0.00    -0.203 F 
ATOM     89  C   UNL A   1      51.172  26.404  26.726  1.00  0.00     0.198 A 
ATOM     90  C   UNL A   1      51.345  26.133  29.104  1.00  0.00     0.198 A 
ATOM     91  F   UNL A   1      49.450  26.439  30.465  1.00  0.00    -0.203 F 
ATOM     92  F   UNL A   1      51.727  26.350  25.508  1.00  0.00    -0.200 F 
ATOM     93  C   UNL A   1      51.932  26.107  27.848  1.00  0.00     0.200 A 
ATOM     94  F   UNL A   1      52.080  25.862  30.191  1.00  0.00    -0.200 F 
ATOM     95  F   UNL A   1      53.226  25.786  27.716  1.00  0.00    -0.200 F 
ENDBRANCH  61  85
BRANCH  73  96
ATOM     96  C   UNL A   1      45.749  32.462  30.129  1.00  0.00     0.064 A 
ATOM     97  C   UNL A   1      46.026  32.710  31.481  1.00  0.00     0.173 A 
ATOM     98  C   UNL A   1      45.949  33.510  29.217  1.00  0.00     0.173 A 
ATOM     99  F   UNL A   1      45.837  31.748  32.397  1.00  0.00    -0.203 F 
ATOM    100  C   UNL A   1      46.457  33.965  31.906  1.00  0.00     0.198 A 
ATOM    101  C   UNL A   1      46.415  34.752  29.639  1.00  0.00     0.198 A 
ATOM    102  F   UNL A   1      45.706  33.325  27.910  1.00  0.00    -0.203 F 
ATOM    103  F   UNL A   1      46.663  34.195  33.210  1.00  0.00    -0.200 F 
ATOM    104  C   UNL A   1      46.660  34.981  30.984  1.00  0.00     0.200 A 
ATOM    105  F   UNL A   1      46.626  35.727  28.743  1.00  0.00    -0.200 F 
ATOM    106  F   UNL A   1      47.084  36.185  31.392  1.00  0.00    -0.200 F 
ENDBRANCH  73  96
ENDBRANCH  47  48
ENDBRANCH  39  42
ENDBRANCH  37  38
ENDBRANCH  36  37
ENDBRANCH  35  36
ENDBRANCH  34  35
ENDBRANCH   1  34
TORSDOF 19
ENDMDL
MODEL 3
REMARK VINA RESULT:     -12.6      0.566      6.919
REMARK SMILES CC[C@@H](Oc1cc(Cl)ccc1Cl)C(=O)NNC(=O)[C@@H]1[C@@H]2CC[C@@H](C2)[C@@H]1C(=O)NCCCCCCNC(=O)c1ccc(-c2c3nc(c(-c4c(F)c(F)c(F)c(F)c4F)c4ccc([nH]4)c(-c4c(F)c(F)c(F)c(F)c4F)c4nc(c(-c5c(F)c(F)c(F)c(F)c5F)c5ccc2[nH]5)C=C4)C=C3)cc1
REMARK SMILES IDX 30 1 29 2 28 3 26 4 27 5 25 7 19 8 20 9 21 10 24 11 23 12
REMARK SMILES IDX 22 13 17 14 16 15 18 17 15 18 13 19 14 20 3 22 2 23 1 24
REMARK SMILES IDX 4 25 5 26 6 27 11 28 7 29 10 30 12 31 8 32 9 33 31 34 32 35
REMARK SMILES IDX 33 36 34 37 35 38 36 39 37 41 38 42 39 43 100 44 40 45 99 46
REMARK SMILES IDX 41 47 42 48 43 49 93 50 44 51 98 52 92 53 94 54 45 55 97 56
REMARK SMILES IDX 91 57 90 58 46 60 78 61 58 62 77 63 59 64 62 65 76 66 95 67
REMARK SMILES IDX 60 68 61 69 75 71 96 72 63 73 47 74 48 75 56 76 49 77 50 78
REMARK SMILES IDX 54 79 57 80 51 81 52 82 55 83 53 84 79 85 80 86 88 87 81 88
REMARK SMILES IDX 82 89 86 90 89 91 83 92 84 93 87 94 85 95 64 96 65 97 73 98
REMARK SMILES IDX 66 99 67 100 71 101 74 102 68 103 69 104 72 105 70 106
REMARK H PARENT 28 6 16 16 15 21 35 40 94 59 62 70
REMARK Flexibility Score: inf
ROOT
ATOM      1  C   UNL A   1      33.535  28.993  27.509  1.00  0.00     0.021 C 
ENDROOT
BRANCH   1   2
ATOM      2  C   UNL A   1      34.368  28.201  26.501  1.00  0.00     0.116 C 
BRANCH   2   3
ATOM      3  N   UNL A   1      34.266  28.740  25.154  1.00  0.00    -0.356 N 
ATOM      4  C   UNL A   1      33.316  28.531  24.195  1.00  0.00     0.224 C 
ATOM      5  O   UNL A   1      33.378  29.195  23.163  1.00  0.00    -0.275 OA
ATOM      6  H   UNL A   1      34.994  29.349  24.893  1.00  0.00     0.163 HD
BRANCH   4   7
ATOM      7  C   UNL A   1      32.192  27.558  24.477  1.00  0.00     0.094 C 
ATOM      8  C   UNL A   1      32.311  26.063  24.117  1.00  0.00     0.096 C 
ATOM      9  C   UNL A   1      30.955  25.752  23.423  1.00  0.00     0.002 C 
ATOM     10  C   UNL A   1      30.796  26.351  22.029  1.00  0.00     0.005 C 
ATOM     11  C   UNL A   1      30.010  26.709  24.185  1.00  0.00     0.009 C 
ATOM     12  C   UNL A   1      30.837  27.953  23.836  1.00  0.00     0.002 C 
ATOM     13  C   UNL A   1      30.847  27.864  22.294  1.00  0.00     0.005 C 
BRANCH   8  14
ATOM     14  C   UNL A   1      33.644  25.451  23.667  1.00  0.00     0.242 C 
ATOM     15  N   UNL A   1      34.468  24.710  24.457  1.00  0.00    -0.267 N 
ATOM     16  H   UNL A   1      35.348  24.465  24.089  1.00  0.00     0.191 HD
ATOM     17  O   UNL A   1      34.004  25.625  22.493  1.00  0.00    -0.273 OA
BRANCH  15  18
ATOM     18  N   UNL A   1      34.171  24.276  25.725  1.00  0.00    -0.264 N 
ATOM     19  C   UNL A   1      34.628  23.107  26.291  1.00  0.00     0.279 C 
ATOM     20  O   UNL A   1      34.683  22.992  27.518  1.00  0.00    -0.269 OA
ATOM     21  H   UNL A   1      33.585  24.846  26.274  1.00  0.00     0.191 HD
BRANCH  19  22
ATOM     22  C   UNL A   1      34.746  21.885  25.369  1.00  0.00     0.263 C 
BRANCH  22  23
ATOM     23  C   UNL A   1      36.207  21.422  25.595  1.00  0.00     0.052 C 
ATOM     24  C   UNL A   1      37.087  21.529  24.361  1.00  0.00     0.008 C 
ENDBRANCH  22  23
BRANCH  22  25
ATOM     25  O   UNL A   1      33.771  20.894  25.735  1.00  0.00    -0.479 OA
BRANCH  25  26
ATOM     26  C   UNL A   1      33.353  20.122  24.686  1.00  0.00     0.140 A 
ATOM     27  C   UNL A   1      33.734  18.778  24.675  1.00  0.00     0.068 A 
ATOM     28  C   UNL A   1      32.485  20.608  23.702  1.00  0.00     0.083 A 
ATOM     29  C   UNL A   1      33.355  17.958  23.619  1.00  0.00     0.044 A 
ATOM     30  C   UNL A   1      32.075  19.767  22.664  1.00  0.00     0.026 A 
ATOM     31  Cl  UNL A   1      31.893  22.227  23.743  1.00  0.00    -0.080 Cl
ATOM     32  Cl  UNL A   1      33.937  16.341  23.555  1.00  0.00    -0.084 Cl
ATOM     33  C   UNL A   1      32.529  18.446  22.610  1.00  0.00     0.022 A 
ENDBRANCH  25  26
ENDBRANCH  22  25
ENDBRANCH  19  22
ENDBRANCH  15  18
ENDBRANCH   8  14
ENDBRANCH   4   7
ENDBRANCH   2   3
ENDBRANCH   1   2
BRANCH   1  34
ATOM     34  C   UNL A   1      33.313  30.465  27.137  1.00  0.00     0.002 C 
BRANCH  34  35
ATOM     35  C   UNL A   1      31.861  30.858  26.841  1.00  0.00     0.002 C 
BRANCH  35  36
ATOM     36  C   UNL A   1      31.543  32.348  26.987  1.00  0.00     0.021 C 
BRANCH  36  37
ATOM     37  C   UNL A   1      32.764  33.254  27.081  1.00  0.00     0.116 C 
BRANCH  37  38
ATOM     38  N   UNL A   1      32.464  34.522  27.729  1.00  0.00    -0.352 N 
ATOM     39  C   UNL A   1      32.982  35.062  28.881  1.00  0.00     0.251 C 
ATOM     40  H   UNL A   1      31.788  35.075  27.274  1.00  0.00     0.163 HD
ATOM     41  O   UNL A   1      32.475  36.060  29.377  1.00  0.00    -0.269 OA
BRANCH  39  42
ATOM     42  C   UNL A   1      34.143  34.423  29.539  1.00  0.00     0.039 A 
ATOM     43  C   UNL A   1      33.921  33.589  30.639  1.00  0.00     0.014 A 
ATOM     44  C   UNL A   1      35.443  34.648  29.082  1.00  0.00     0.014 A 
ATOM     45  C   UNL A   1      34.997  32.931  31.238  1.00  0.00     0.010 A 
ATOM     46  C   UNL A   1      36.504  33.931  29.628  1.00  0.00     0.010 A 
ATOM     47  C   UNL A   1      36.294  33.068  30.715  1.00  0.00    -0.014 A 
BRANCH  47  48
ATOM     48  C   UNL A   1      37.440  32.319  31.290  1.00  0.00     0.031 A 
ATOM     49  C   UNL A   1      37.959  32.661  32.659  1.00  0.00     0.074 A 
ATOM     50  C   UNL A   1      38.053  31.371  30.555  1.00  0.00     0.049 A 
ATOM     51  N   UNL A   1      38.986  32.168  33.305  1.00  0.00    -0.248 NA
ATOM     52  C   UNL A   1      37.242  33.716  33.391  1.00  0.00     0.031 C 
ATOM     53  C   UNL A   1      37.671  30.973  29.199  1.00  0.00     0.029 A 
ATOM     54  N   UNL A   1      39.134  30.574  30.842  1.00  0.00    -0.354 N 
ATOM     55  C   UNL A   1      39.042  32.857  34.509  1.00  0.00     0.074 A 
ATOM     56  C   UNL A   1      37.986  33.846  34.478  1.00  0.00     0.031 C 
ATOM     57  C   UNL A   1      38.483  29.988  28.784  1.00  0.00     0.029 A 
ATOM     58  C   UNL A   1      39.472  29.717  29.823  1.00  0.00     0.049 A 
ATOM     59  H   UNL A   1      39.621  30.613  31.696  1.00  0.00     0.167 HD
ATOM     60  C   UNL A   1      39.879  32.663  35.557  1.00  0.00     0.037 A 
ATOM     61  C   UNL A   1      40.472  28.819  29.734  1.00  0.00     0.037 A 
ATOM     62  C   UNL A   1      40.922  31.671  35.587  1.00  0.00     0.049 A 
ATOM     63  C   UNL A   1      41.414  28.652  30.896  1.00  0.00     0.074 A 
ATOM     64  C   UNL A   1      41.796  31.368  36.615  1.00  0.00     0.029 A 
ATOM     65  N   UNL A   1      41.237  30.823  34.533  1.00  0.00    -0.354 N 
ATOM     66  N   UNL A   1      41.418  29.264  32.055  1.00  0.00    -0.248 NA
ATOM     67  C   UNL A   1      42.490  27.662  30.738  1.00  0.00     0.031 C 
ATOM     68  C   UNL A   1      42.676  30.378  36.165  1.00  0.00     0.029 A 
ATOM     69  C   UNL A   1      42.310  30.017  34.879  1.00  0.00     0.049 A 
ATOM     70  H   UNL A   1      40.767  30.799  33.668  1.00  0.00     0.167 HD
ATOM     71  C   UNL A   1      42.469  28.712  32.776  1.00  0.00     0.074 A 
ATOM     72  C   UNL A   1      43.071  27.705  31.928  1.00  0.00     0.031 C 
ATOM     73  C   UNL A   1      42.894  29.011  34.029  1.00  0.00     0.037 A 
BRANCH  60  74
ATOM     74  C   UNL A   1      39.702  33.550  36.758  1.00  0.00     0.064 A 
ATOM     75  C   UNL A   1      38.840  33.202  37.810  1.00  0.00     0.173 A 
ATOM     76  C   UNL A   1      40.420  34.750  36.872  1.00  0.00     0.173 A 
ATOM     77  F   UNL A   1      38.121  32.071  37.748  1.00  0.00    -0.203 F 
ATOM     78  C   UNL A   1      38.675  34.039  38.911  1.00  0.00     0.198 A 
ATOM     79  C   UNL A   1      40.281  35.567  37.992  1.00  0.00     0.198 A 
ATOM     80  F   UNL A   1      41.264  35.130  35.900  1.00  0.00    -0.203 F 
ATOM     81  F   UNL A   1      37.801  33.714  39.872  1.00  0.00    -0.200 F 
ATOM     82  C   UNL A   1      39.401  35.216  39.005  1.00  0.00     0.200 A 
ATOM     83  F   UNL A   1      40.995  36.697  38.088  1.00  0.00    -0.200 F 
ATOM     84  F   UNL A   1      39.246  36.019  40.067  1.00  0.00    -0.200 F 
ENDBRANCH  60  74
BRANCH  61  85
ATOM     85  C   UNL A   1      40.621  27.989  28.508  1.00  0.00     0.064 A 
ATOM     86  C   UNL A   1      39.997  26.738  28.408  1.00  0.00     0.173 A 
ATOM     87  C   UNL A   1      41.396  28.419  27.421  1.00  0.00     0.173 A 
ATOM     88  F   UNL A   1      39.262  26.272  29.429  1.00  0.00    -0.203 F 
ATOM     89  C   UNL A   1      40.160  25.938  27.279  1.00  0.00     0.198 A 
ATOM     90  C   UNL A   1      41.532  27.633  26.279  1.00  0.00     0.198 A 
ATOM     91  F   UNL A   1      42.011  29.610  27.462  1.00  0.00    -0.203 F 
ATOM     92  F   UNL A   1      39.595  24.725  27.232  1.00  0.00    -0.200 F 
ATOM     93  C   UNL A   1      40.924  26.389  26.212  1.00  0.00     0.200 A 
ATOM     94  F   UNL A   1      42.257  28.080  25.244  1.00  0.00    -0.200 F 
ATOM     95  F   UNL A   1      41.078  25.622  25.125  1.00  0.00    -0.200 F 
ENDBRANCH  61  85
BRANCH  73  96
ATOM     96  C   UNL A   1      44.039  28.209  34.579  1.00  0.00     0.064 A 
ATOM     97  C   UNL A   1      43.839  26.996  35.255  1.00  0.00     0.173 A 
ATOM     98  C   UNL A   1      45.361  28.644  34.393  1.00  0.00     0.173 A 
ATOM     99  F   UNL A   1      42.596  26.542  35.473  1.00  0.00    -0.203 F 
ATOM    100  C   UNL A   1      44.916  26.265  35.749  1.00  0.00     0.198 A 
ATOM    101  C   UNL A   1      46.437  27.893  34.857  1.00  0.00     0.198 A 
ATOM    102  F   UNL A   1      45.610  29.794  33.748  1.00  0.00    -0.203 F 
ATOM    103  F   UNL A   1      44.699  25.137  36.439  1.00  0.00    -0.200 F 
ATOM    104  C   UNL A   1      46.214  26.709  35.542  1.00  0.00     0.200 A 
ATOM    105  F   UNL A   1      47.691  28.316  34.641  1.00  0.00    -0.200 F 
ATOM    106  F   UNL A   1      47.250  25.999  36.010  1.00  0.00    -0.200 F 
ENDBRANCH  73  96
ENDBRANCH  47  48
ENDBRANCH  39  42
ENDBRANCH  37  38
ENDBRANCH  36  37
ENDBRANCH  35  36
ENDBRANCH  34  35
ENDBRANCH   1  34
TORSDOF 19
ENDMDL
