MODEL 1
REMARK VINA RESULT:     -12.6      0.000      0.000
REMARK SMILES Cc1nc2n(n1)[C@@H](c1ccc([N+](=O)[O-])o1)CC(C(=O)NCCCCCCNC(=O)c1ccc(-c3c4nc(c(-c5c(F)c(F)c(F)c(F)c5F)c5ccc([nH]5)c(-c5c(F)c(F)c(F)c(F)c5F)c5nc(c(-c6c(F)c(F)c(F)c(F)c6F)c6ccc3[nH]6)C=C5)C=C4)cc1)=N2
REMARK SMILES IDX 23 1 22 2 21 3 20 4 18 5 19 6 17 8 1 9 2 10 3 11 6 12 4 13
REMARK SMILES IDX 5 14 93 15 7 16 16 17 8 18 9 19 15 20 10 21 11 22 12 23
REMARK SMILES IDX 13 24 14 25 24 26 25 27 26 28 27 29 28 30 29 32 30 33 31 34
REMARK SMILES IDX 92 35 32 36 91 37 33 38 34 39 35 40 85 41 36 42 90 43 84 44
REMARK SMILES IDX 86 45 37 46 89 47 83 48 82 49 38 51 70 52 50 53 69 54 51 55
REMARK SMILES IDX 54 56 68 57 87 58 52 59 53 60 67 62 88 63 55 64 39 65 40 66
REMARK SMILES IDX 48 67 41 68 42 69 46 70 49 71 43 72 44 73 47 74 45 75 71 76
REMARK SMILES IDX 72 77 80 78 73 79 74 80 78 81 81 82 75 83 76 84 79 85 77 86
REMARK SMILES IDX 56 87 57 88 65 89 58 90 59 91 63 92 66 93 60 94 61 95 64 96
REMARK SMILES IDX 62 97
REMARK H PARENT 20 7 27 31 86 50 54 61
REMARK Flexibility Score: inf
ROOT
ATOM      1  C   UNL A   1      34.204  22.003  24.236  1.00  0.00     0.002 C 
ENDROOT
BRANCH   1   2
ATOM      2  C   UNL A   1      34.159  23.131  23.194  1.00  0.00     0.021 C 
BRANCH   2   3
ATOM      3  C   UNL A   1      32.848  23.187  22.404  1.00  0.00     0.116 C 
BRANCH   3   4
ATOM      4  N   UNL A   1      32.985  23.984  21.194  1.00  0.00    -0.351 N 
ATOM      5  C   UNL A   1      32.770  25.292  20.843  1.00  0.00     0.265 C 
ATOM      6  O   UNL A   1      32.987  25.593  19.668  1.00  0.00    -0.268 OA
ATOM      7  H   UNL A   1      33.317  23.449  20.437  1.00  0.00     0.163 HD
BRANCH   5   8
ATOM      8  C   UNL A   1      32.295  26.404  21.801  1.00  0.00     0.112 C 
ATOM      9  C   UNL A   1      28.816  30.795  23.311  1.00  0.00     0.092 C 
ATOM     10  C   UNL A   1      29.760  29.670  23.159  1.00  0.00     0.149 A 
ATOM     11  N   UNL A   1      29.708  28.805  22.098  1.00  0.00    -0.195 NA
ATOM     12  N   UNL A   1      30.750  29.431  24.029  1.00  0.00    -0.154 NA
ATOM     13  C   UNL A   1      30.717  27.983  22.297  1.00  0.00     0.249 A 
ATOM     14  N   UNL A   1      31.316  28.345  23.472  1.00  0.00    -0.219 N 
ATOM     15  N   UNL A   1      31.156  26.966  21.524  1.00  0.00    -0.211 NA
ATOM     16  C   UNL A   1      32.527  27.747  23.978  1.00  0.00     0.184 C 
ATOM     17  C   UNL A   1      33.173  26.819  22.946  1.00  0.00     0.098 C 
BRANCH  16  18
ATOM     18  C   UNL A   1      32.323  27.037  25.286  1.00  0.00     0.136 A 
ATOM     19  C   UNL A   1      32.295  27.400  26.623  1.00  0.00     0.056 A 
ATOM     20  O   UNL A   1      32.132  25.681  25.182  1.00  0.00    -0.404 OA
ATOM     21  C   UNL A   1      32.046  26.214  27.370  1.00  0.00     0.134 A 
ATOM     22  C   UNL A   1      31.941  25.211  26.441  1.00  0.00     0.433 A 
BRANCH  22  23
ATOM     23  N   UNL A   1      31.657  23.814  26.545  1.00  0.00     0.102 N 
ATOM     24  O   UNL A   1      31.070  23.301  25.578  1.00  0.00    -0.256 OA
ATOM     25  O   UNL A   1      32.033  23.225  27.562  1.00  0.00    -0.256 OA
ENDBRANCH  22  23
ENDBRANCH  16  18
ENDBRANCH   5   8
ENDBRANCH   3   4
ENDBRANCH   2   3
ENDBRANCH   1   2
BRANCH   1  26
ATOM     26  C   UNL A   1      35.067  22.291  25.472  1.00  0.00     0.002 C 
BRANCH  26  27
ATOM     27  C   UNL A   1      36.404  21.529  25.552  1.00  0.00     0.021 C 
BRANCH  27  28
ATOM     28  C   UNL A   1      37.656  22.418  25.651  1.00  0.00     0.116 C 
BRANCH  28  29
ATOM     29  N   UNL A   1      38.674  21.755  26.449  1.00  0.00    -0.352 N 
ATOM     30  C   UNL A   1      39.880  22.182  26.926  1.00  0.00     0.251 C 
ATOM     31  H   UNL A   1      38.454  20.827  26.690  1.00  0.00     0.163 HD
ATOM     32  O   UNL A   1      40.719  21.330  27.221  1.00  0.00    -0.269 OA
BRANCH  30  33
ATOM     33  C   UNL A   1      40.213  23.609  27.138  1.00  0.00     0.039 A 
ATOM     34  C   UNL A   1      41.436  24.065  26.624  1.00  0.00     0.014 A 
ATOM     35  C   UNL A   1      39.466  24.442  27.975  1.00  0.00     0.014 A 
ATOM     36  C   UNL A   1      41.902  25.344  26.926  1.00  0.00     0.010 A 
ATOM     37  C   UNL A   1      39.937  25.728  28.278  1.00  0.00     0.010 A 
ATOM     38  C   UNL A   1      41.153  26.192  27.749  1.00  0.00    -0.014 A 
BRANCH  38  39
ATOM     39  C   UNL A   1      41.606  27.596  27.880  1.00  0.00     0.031 A 
ATOM     40  C   UNL A   1      40.527  28.615  27.708  1.00  0.00     0.074 A 
ATOM     41  C   UNL A   1      42.716  27.964  28.557  1.00  0.00     0.049 A 
ATOM     42  N   UNL A   1      39.744  28.984  28.680  1.00  0.00    -0.248 NA
ATOM     43  C   UNL A   1      40.086  29.072  26.391  1.00  0.00     0.031 C 
ATOM     44  C   UNL A   1      43.188  27.296  29.775  1.00  0.00     0.029 A 
ATOM     45  N   UNL A   1      43.493  29.102  28.472  1.00  0.00    -0.354 N 
ATOM     46  C   UNL A   1      38.677  29.657  28.117  1.00  0.00     0.074 A 
ATOM     47  C   UNL A   1      38.942  29.708  26.695  1.00  0.00     0.031 C 
ATOM     48  C   UNL A   1      44.047  28.119  30.412  1.00  0.00     0.029 A 
ATOM     49  C   UNL A   1      44.306  29.303  29.587  1.00  0.00     0.049 A 
ATOM     50  H   UNL A   1      43.474  29.712  27.701  1.00  0.00     0.167 HD
ATOM     51  C   UNL A   1      37.631  30.117  28.851  1.00  0.00     0.037 A 
ATOM     52  C   UNL A   1      44.635  30.520  30.104  1.00  0.00     0.037 A 
ATOM     53  C   UNL A   1      37.706  29.877  30.260  1.00  0.00     0.049 A 
ATOM     54  C   UNL A   1      43.308  30.992  30.635  1.00  0.00     0.074 A 
ATOM     55  C   UNL A   1      37.225  28.951  31.161  1.00  0.00     0.029 A 
ATOM     56  N   UNL A   1      38.476  30.727  31.016  1.00  0.00    -0.354 N 
ATOM     57  N   UNL A   1      42.765  30.629  31.765  1.00  0.00    -0.248 NA
ATOM     58  C   UNL A   1      42.396  31.647  29.696  1.00  0.00     0.031 C 
ATOM     59  C   UNL A   1      38.106  29.024  32.288  1.00  0.00     0.029 A 
ATOM     60  C   UNL A   1      39.089  29.960  31.971  1.00  0.00     0.049 A 
ATOM     61  H   UNL A   1      38.570  31.700  30.894  1.00  0.00     0.167 HD
ATOM     62  C   UNL A   1      41.390  30.771  31.571  1.00  0.00     0.074 A 
ATOM     63  C   UNL A   1      41.233  31.439  30.296  1.00  0.00     0.031 C 
ATOM     64  C   UNL A   1      40.461  30.165  32.366  1.00  0.00     0.037 A 
BRANCH  51  65
ATOM     65  C   UNL A   1      36.522  30.947  28.344  1.00  0.00     0.064 A 
ATOM     66  C   UNL A   1      36.649  32.340  28.459  1.00  0.00     0.173 A 
ATOM     67  C   UNL A   1      35.271  30.420  28.014  1.00  0.00     0.173 A 
ATOM     68  F   UNL A   1      37.838  32.878  28.782  1.00  0.00    -0.203 F 
ATOM     69  C   UNL A   1      35.551  33.177  28.310  1.00  0.00     0.198 A 
ATOM     70  C   UNL A   1      34.171  31.264  27.852  1.00  0.00     0.198 A 
ATOM     71  F   UNL A   1      35.102  29.095  27.905  1.00  0.00    -0.203 F 
ATOM     72  F   UNL A   1      35.691  34.497  28.492  1.00  0.00    -0.200 F 
ATOM     73  C   UNL A   1      34.309  32.637  28.021  1.00  0.00     0.200 A 
ATOM     74  F   UNL A   1      32.967  30.748  27.572  1.00  0.00    -0.200 F 
ATOM     75  F   UNL A   1      33.240  33.439  27.922  1.00  0.00    -0.200 F 
ENDBRANCH  51  65
BRANCH  52  76
ATOM     76  C   UNL A   1      45.555  31.392  29.307  1.00  0.00     0.064 A 
ATOM     77  C   UNL A   1      46.812  31.725  29.854  1.00  0.00     0.173 A 
ATOM     78  C   UNL A   1      45.266  31.962  28.055  1.00  0.00     0.173 A 
ATOM     79  F   UNL A   1      47.128  31.333  31.099  1.00  0.00    -0.203 F 
ATOM     80  C   UNL A   1      47.758  32.469  29.146  1.00  0.00     0.198 A 
ATOM     81  C   UNL A   1      46.222  32.680  27.332  1.00  0.00     0.198 A 
ATOM     82  F   UNL A   1      44.054  31.835  27.498  1.00  0.00    -0.203 F 
ATOM     83  F   UNL A   1      48.949  32.737  29.699  1.00  0.00    -0.200 F 
ATOM     84  C   UNL A   1      47.473  32.919  27.870  1.00  0.00     0.200 A 
ATOM     85  F   UNL A   1      45.929  33.127  26.103  1.00  0.00    -0.200 F 
ATOM     86  F   UNL A   1      48.397  33.588  27.165  1.00  0.00    -0.200 F 
ENDBRANCH  52  76
BRANCH  64  87
ATOM     87  C   UNL A   1      41.012  29.458  33.554  1.00  0.00     0.064 A 
ATOM     88  C   UNL A   1      41.245  30.152  34.747  1.00  0.00     0.173 A 
ATOM     89  C   UNL A   1      41.310  28.088  33.517  1.00  0.00     0.173 A 
ATOM     90  F   UNL A   1      40.970  31.464  34.834  1.00  0.00    -0.203 F 
ATOM     91  C   UNL A   1      41.744  29.495  35.867  1.00  0.00     0.198 A 
ATOM     92  C   UNL A   1      41.781  27.428  34.648  1.00  0.00     0.198 A 
ATOM     93  F   UNL A   1      41.134  27.375  32.392  1.00  0.00    -0.203 F 
ATOM     94  F   UNL A   1      41.963  30.177  37.001  1.00  0.00    -0.200 F 
ATOM     95  C   UNL A   1      41.999  28.133  35.821  1.00  0.00     0.200 A 
ATOM     96  F   UNL A   1      42.011  26.108  34.606  1.00  0.00    -0.200 F 
ATOM     97  F   UNL A   1      42.447  27.495  36.912  1.00  0.00    -0.200 F 
ENDBRANCH  64  87
ENDBRANCH  38  39
ENDBRANCH  30  33
ENDBRANCH  28  29
ENDBRANCH  27  28
ENDBRANCH  26  27
ENDBRANCH   1  26
TORSDOF 15
ENDMDL
MODEL 2
REMARK VINA RESULT:     -12.6      2.954      8.041
REMARK SMILES Cc1nc2n(n1)[C@@H](c1ccc([N+](=O)[O-])o1)CC(C(=O)NCCCCCCNC(=O)c1ccc(-c3c4nc(c(-c5c(F)c(F)c(F)c(F)c5F)c5ccc([nH]5)c(-c5c(F)c(F)c(F)c(F)c5F)c5nc(c(-c6c(F)c(F)c(F)c(F)c6F)c6ccc3[nH]6)C=C5)C=C4)cc1)=N2
REMARK SMILES IDX 23 1 22 2 21 3 20 4 18 5 19 6 17 8 1 9 2 10 3 11 6 12 4 13
REMARK SMILES IDX 5 14 93 15 7 16 16 17 8 18 9 19 15 20 10 21 11 22 12 23
REMARK SMILES IDX 13 24 14 25 24 26 25 27 26 28 27 29 28 30 29 32 30 33 31 34
REMARK SMILES IDX 92 35 32 36 91 37 33 38 34 39 35 40 85 41 36 42 90 43 84 44
REMARK SMILES IDX 86 45 37 46 89 47 83 48 82 49 38 51 70 52 50 53 69 54 51 55
REMARK SMILES IDX 54 56 68 57 87 58 52 59 53 60 67 62 88 63 55 64 39 65 40 66
REMARK SMILES IDX 48 67 41 68 42 69 46 70 49 71 43 72 44 73 47 74 45 75 71 76
REMARK SMILES IDX 72 77 80 78 73 79 74 80 78 81 81 82 75 83 76 84 79 85 77 86
REMARK SMILES IDX 56 87 57 88 65 89 58 90 59 91 63 92 66 93 60 94 61 95 64 96
REMARK SMILES IDX 62 97
REMARK H PARENT 20 7 27 31 86 50 54 61
REMARK Flexibility Score: inf
ROOT
ATOM      1  C   UNL A   1      31.016  27.965  25.125  1.00  0.00     0.002 C 
ENDROOT
BRANCH   1   2
ATOM      2  C   UNL A   1      30.976  26.696  25.989  1.00  0.00     0.021 C 
BRANCH   2   3
ATOM      3  C   UNL A   1      30.094  25.584  25.411  1.00  0.00     0.116 C 
BRANCH   3   4
ATOM      4  N   UNL A   1      29.677  24.642  26.438  1.00  0.00    -0.351 N 
ATOM      5  C   UNL A   1      30.100  23.416  26.885  1.00  0.00     0.265 C 
ATOM      6  O   UNL A   1      29.447  22.905  27.796  1.00  0.00    -0.268 OA
ATOM      7  H   UNL A   1      28.893  24.967  26.938  1.00  0.00     0.163 HD
BRANCH   5   8
ATOM      8  C   UNL A   1      31.325  22.648  26.348  1.00  0.00     0.112 C 
ATOM      9  C   UNL A   1      33.962  17.910  24.285  1.00  0.00     0.092 C 
ATOM     10  C   UNL A   1      33.479  19.235  24.722  1.00  0.00     0.149 A 
ATOM     11  N   UNL A   1      32.161  19.484  24.995  1.00  0.00    -0.195 NA
ATOM     12  N   UNL A   1      34.298  20.279  24.911  1.00  0.00    -0.154 NA
ATOM     13  C   UNL A   1      32.138  20.741  25.385  1.00  0.00     0.249 A 
ATOM     14  N   UNL A   1      33.416  21.219  25.300  1.00  0.00    -0.219 N 
ATOM     15  N   UNL A   1      31.097  21.482  25.820  1.00  0.00    -0.211 NA
ATOM     16  C   UNL A   1      33.818  22.532  25.744  1.00  0.00     0.184 C 
ATOM     17  C   UNL A   1      32.697  23.236  26.512  1.00  0.00     0.098 C 
BRANCH  16  18
ATOM     18  C   UNL A   1      34.327  23.394  24.624  1.00  0.00     0.136 A 
ATOM     19  C   UNL A   1      35.564  23.680  24.070  1.00  0.00     0.056 A 
ATOM     20  O   UNL A   1      33.361  24.116  23.968  1.00  0.00    -0.404 OA
ATOM     21  C   UNL A   1      35.341  24.597  23.005  1.00  0.00     0.134 A 
ATOM     22  C   UNL A   1      33.986  24.809  22.983  1.00  0.00     0.433 A 
BRANCH  22  23
ATOM     23  N   UNL A   1      33.135  25.583  22.133  1.00  0.00     0.102 N 
ATOM     24  O   UNL A   1      31.915  25.462  22.323  1.00  0.00    -0.256 OA
ATOM     25  O   UNL A   1      33.671  26.322  21.302  1.00  0.00    -0.256 OA
ENDBRANCH  22  23
ENDBRANCH  16  18
ENDBRANCH   5   8
ENDBRANCH   3   4
ENDBRANCH   2   3
ENDBRANCH   1   2
BRANCH   1  26
ATOM     26  C   UNL A   1      32.294  28.804  25.256  1.00  0.00     0.002 C 
BRANCH  26  27
ATOM     27  C   UNL A   1      32.200  30.036  26.176  1.00  0.00     0.021 C 
BRANCH  27  28
ATOM     28  C   UNL A   1      33.334  30.169  27.206  1.00  0.00     0.116 C 
BRANCH  28  29
ATOM     29  N   UNL A   1      34.013  31.442  27.037  1.00  0.00    -0.352 N 
ATOM     30  C   UNL A   1      35.114  31.976  27.643  1.00  0.00     0.251 C 
ATOM     31  H   UNL A   1      33.603  32.029  26.362  1.00  0.00     0.163 HD
ATOM     32  O   UNL A   1      35.249  33.201  27.621  1.00  0.00    -0.269 OA
BRANCH  30  33
ATOM     33  C   UNL A   1      36.166  31.159  28.288  1.00  0.00     0.039 A 
ATOM     34  C   UNL A   1      36.531  31.502  29.598  1.00  0.00     0.014 A 
ATOM     35  C   UNL A   1      36.920  30.211  27.590  1.00  0.00     0.014 A 
ATOM     36  C   UNL A   1      37.626  30.896  30.213  1.00  0.00     0.010 A 
ATOM     37  C   UNL A   1      38.021  29.603  28.211  1.00  0.00     0.010 A 
ATOM     38  C   UNL A   1      38.377  29.934  29.529  1.00  0.00    -0.014 A 
BRANCH  38  39
ATOM     39  C   UNL A   1      39.406  29.195  30.296  1.00  0.00     0.031 A 
ATOM     40  C   UNL A   1      39.523  27.748  29.943  1.00  0.00     0.074 A 
ATOM     41  C   UNL A   1      40.469  29.786  30.885  1.00  0.00     0.049 A 
ATOM     42  N   UNL A   1      40.242  27.321  28.946  1.00  0.00    -0.248 NA
ATOM     43  C   UNL A   1      38.634  26.731  30.506  1.00  0.00     0.031 C 
ATOM     44  C   UNL A   1      41.171  30.946  30.325  1.00  0.00     0.029 A 
ATOM     45  N   UNL A   1      41.279  29.366  31.921  1.00  0.00    -0.354 N 
ATOM     46  C   UNL A   1      39.867  26.014  28.696  1.00  0.00     0.074 A 
ATOM     47  C   UNL A   1      38.882  25.683  29.704  1.00  0.00     0.031 C 
ATOM     48  C   UNL A   1      42.384  31.038  30.910  1.00  0.00     0.029 A 
ATOM     49  C   UNL A   1      42.495  30.046  31.984  1.00  0.00     0.049 A 
ATOM     50  H   UNL A   1      41.024  28.656  32.552  1.00  0.00     0.167 HD
ATOM     51  C   UNL A   1      40.374  25.290  27.665  1.00  0.00     0.037 A 
ATOM     52  C   UNL A   1      43.678  29.495  32.376  1.00  0.00     0.037 A 
ATOM     53  C   UNL A   1      41.346  25.960  26.853  1.00  0.00     0.049 A 
ATOM     54  C   UNL A   1      43.952  28.534  31.252  1.00  0.00     0.074 A 
ATOM     55  C   UNL A   1      41.371  26.653  25.662  1.00  0.00     0.029 A 
ATOM     56  N   UNL A   1      42.638  26.016  27.315  1.00  0.00    -0.354 N 
ATOM     57  N   UNL A   1      44.452  28.843  30.087  1.00  0.00    -0.248 NA
ATOM     58  C   UNL A   1      43.324  27.213  31.322  1.00  0.00     0.031 C 
ATOM     59  C   UNL A   1      42.545  27.471  25.725  1.00  0.00     0.029 A 
ATOM     60  C   UNL A   1      43.125  27.250  26.972  1.00  0.00     0.049 A 
ATOM     61  H   UNL A   1      43.122  25.308  27.800  1.00  0.00     0.167 HD
ATOM     62  C   UNL A   1      43.969  27.869  29.212  1.00  0.00     0.074 A 
ATOM     63  C   UNL A   1      43.317  26.876  30.040  1.00  0.00     0.031 C 
ATOM     64  C   UNL A   1      43.958  28.027  27.857  1.00  0.00     0.037 A 
BRANCH  51  65
ATOM     65  C   UNL A   1      40.119  23.860  27.409  1.00  0.00     0.064 A 
ATOM     66  C   UNL A   1      41.066  22.937  27.879  1.00  0.00     0.173 A 
ATOM     67  C   UNL A   1      39.147  23.415  26.510  1.00  0.00     0.173 A 
ATOM     68  F   UNL A   1      42.018  23.336  28.740  1.00  0.00    -0.203 F 
ATOM     69  C   UNL A   1      41.081  21.627  27.421  1.00  0.00     0.198 A 
ATOM     70  C   UNL A   1      39.155  22.094  26.061  1.00  0.00     0.198 A 
ATOM     71  F   UNL A   1      38.230  24.266  26.028  1.00  0.00    -0.203 F 
ATOM     72  F   UNL A   1      42.038  20.788  27.837  1.00  0.00    -0.200 F 
ATOM     73  C   UNL A   1      40.134  21.209  26.500  1.00  0.00     0.200 A 
ATOM     74  F   UNL A   1      38.242  21.683  25.170  1.00  0.00    -0.200 F 
ATOM     75  F   UNL A   1      40.175  19.957  26.023  1.00  0.00    -0.200 F 
ENDBRANCH  51  65
BRANCH  52  76
ATOM     76  C   UNL A   1      43.834  29.133  33.821  1.00  0.00     0.064 A 
ATOM     77  C   UNL A   1      45.006  29.534  34.495  1.00  0.00     0.173 A 
ATOM     78  C   UNL A   1      42.925  28.377  34.580  1.00  0.00     0.173 A 
ATOM     79  F   UNL A   1      45.990  30.153  33.821  1.00  0.00    -0.203 F 
ATOM     80  C   UNL A   1      45.197  29.304  35.859  1.00  0.00     0.198 A 
ATOM     81  C   UNL A   1      43.100  28.171  35.952  1.00  0.00     0.198 A 
ATOM     82  F   UNL A   1      41.845  27.820  34.016  1.00  0.00    -0.203 F 
ATOM     83  F   UNL A   1      46.318  29.728  36.459  1.00  0.00    -0.200 F 
ATOM     84  C   UNL A   1      44.226  28.650  36.594  1.00  0.00     0.200 A 
ATOM     85  F   UNL A   1      42.160  27.520  36.651  1.00  0.00    -0.200 F 
ATOM     86  F   UNL A   1      44.380  28.472  37.914  1.00  0.00    -0.200 F 
ENDBRANCH  52  76
BRANCH  64  87
ATOM     87  C   UNL A   1      44.639  29.254  27.360  1.00  0.00     0.064 A 
ATOM     88  C   UNL A   1      43.914  30.435  27.160  1.00  0.00     0.173 A 
ATOM     89  C   UNL A   1      46.014  29.267  27.082  1.00  0.00     0.173 A 
ATOM     90  F   UNL A   1      42.597  30.475  27.417  1.00  0.00    -0.203 F 
ATOM     91  C   UNL A   1      44.546  31.591  26.713  1.00  0.00     0.198 A 
ATOM     92  C   UNL A   1      46.647  30.432  26.663  1.00  0.00     0.198 A 
ATOM     93  F   UNL A   1      46.756  28.157  27.228  1.00  0.00    -0.203 F 
ATOM     94  F   UNL A   1      43.835  32.713  26.524  1.00  0.00    -0.200 F 
ATOM     95  C   UNL A   1      45.913  31.592  26.477  1.00  0.00     0.200 A 
ATOM     96  F   UNL A   1      47.971  30.435  26.452  1.00  0.00    -0.200 F 
ATOM     97  F   UNL A   1      46.525  32.716  26.080  1.00  0.00    -0.200 F 
ENDBRANCH  64  87
ENDBRANCH  38  39
ENDBRANCH  30  33
ENDBRANCH  28  29
ENDBRANCH  27  28
ENDBRANCH  26  27
ENDBRANCH   1  26
TORSDOF 15
ENDMDL
MODEL 3
REMARK VINA RESULT:     -12.4      5.874     10.319
REMARK SMILES Cc1nc2n(n1)[C@@H](c1ccc([N+](=O)[O-])o1)CC(C(=O)NCCCCCCNC(=O)c1ccc(-c3c4nc(c(-c5c(F)c(F)c(F)c(F)c5F)c5ccc([nH]5)c(-c5c(F)c(F)c(F)c(F)c5F)c5nc(c(-c6c(F)c(F)c(F)c(F)c6F)c6ccc3[nH]6)C=C5)C=C4)cc1)=N2
REMARK SMILES IDX 23 1 22 2 21 3 20 4 18 5 19 6 17 8 1 9 2 10 3 11 6 12 4 13
REMARK SMILES IDX 5 14 93 15 7 16 16 17 8 18 9 19 15 20 10 21 11 22 12 23
REMARK SMILES IDX 13 24 14 25 24 26 25 27 26 28 27 29 28 30 29 32 30 33 31 34
REMARK SMILES IDX 92 35 32 36 91 37 33 38 34 39 35 40 85 41 36 42 90 43 84 44
REMARK SMILES IDX 86 45 37 46 89 47 83 48 82 49 38 51 70 52 50 53 69 54 51 55
REMARK SMILES IDX 54 56 68 57 87 58 52 59 53 60 67 62 88 63 55 64 39 65 40 66
REMARK SMILES IDX 48 67 41 68 42 69 46 70 49 71 43 72 44 73 47 74 45 75 71 76
REMARK SMILES IDX 72 77 80 78 73 79 74 80 78 81 81 82 75 83 76 84 79 85 77 86
REMARK SMILES IDX 56 87 57 88 65 89 58 90 59 91 63 92 66 93 60 94 61 95 64 96
REMARK SMILES IDX 62 97
REMARK H PARENT 20 7 27 31 86 50 54 61
REMARK Flexibility Score: inf
ROOT
ATOM      1  C   UNL A   1      44.580  32.283  26.586  1.00  0.00     0.002 C 
ENDROOT
BRANCH   1   2
ATOM      2  C   UNL A   1      44.319  30.792  26.844  1.00  0.00     0.021 C 
BRANCH   2   3
ATOM      3  C   UNL A   1      45.594  29.944  26.900  1.00  0.00     0.116 C 
BRANCH   3   4
ATOM      4  N   UNL A   1      45.891  29.337  25.611  1.00  0.00    -0.351 N 
ATOM      5  C   UNL A   1      46.065  28.062  25.136  1.00  0.00     0.265 C 
ATOM      6  O   UNL A   1      46.339  27.951  23.940  1.00  0.00    -0.268 OA
ATOM      7  H   UNL A   1      45.993  30.013  24.902  1.00  0.00     0.163 HD
BRANCH   5   8
ATOM      8  C   UNL A   1      45.929  26.774  25.974  1.00  0.00     0.112 C 
ATOM      9  C   UNL A   1      44.138  23.785  30.612  1.00  0.00     0.092 C 
ATOM     10  C   UNL A   1      44.623  24.331  29.328  1.00  0.00     0.149 A 
ATOM     11  N   UNL A   1      44.369  25.618  28.935  1.00  0.00    -0.195 NA
ATOM     12  N   UNL A   1      45.367  23.619  28.473  1.00  0.00    -0.154 NA
ATOM     13  C   UNL A   1      44.987  25.735  27.779  1.00  0.00     0.249 A 
ATOM     14  N   UNL A   1      45.555  24.524  27.494  1.00  0.00    -0.219 N 
ATOM     15  N   UNL A   1      45.104  26.815  26.977  1.00  0.00    -0.211 NA
ATOM     16  C   UNL A   1      46.412  24.282  26.359  1.00  0.00     0.184 C 
ATOM     17  C   UNL A   1      46.780  25.582  25.640  1.00  0.00     0.098 C 
BRANCH  16  18
ATOM     18  C   UNL A   1      45.836  23.281  25.398  1.00  0.00     0.136 A 
ATOM     19  C   UNL A   1      44.940  23.315  24.343  1.00  0.00     0.056 A 
ATOM     20  O   UNL A   1      46.259  21.989  25.590  1.00  0.00    -0.404 OA
ATOM     21  C   UNL A   1      44.832  21.985  23.846  1.00  0.00     0.134 A 
ATOM     22  C   UNL A   1      45.666  21.232  24.631  1.00  0.00     0.433 A 
BRANCH  22  23
ATOM     23  N   UNL A   1      46.033  19.851  24.617  1.00  0.00     0.102 N 
ATOM     24  O   UNL A   1      47.202  19.590  24.944  1.00  0.00    -0.256 OA
ATOM     25  O   UNL A   1      45.164  19.029  24.309  1.00  0.00    -0.256 OA
ENDBRANCH  22  23
ENDBRANCH  16  18
ENDBRANCH   5   8
ENDBRANCH   3   4
ENDBRANCH   2   3
ENDBRANCH   1   2
BRANCH   1  26
ATOM     26  C   UNL A   1      44.017  32.825  25.265  1.00  0.00     0.002 C 
BRANCH  26  27
ATOM     27  C   UNL A   1      44.190  34.338  25.030  1.00  0.00     0.021 C 
BRANCH  27  28
ATOM     28  C   UNL A   1      45.378  34.980  25.765  1.00  0.00     0.116 C 
BRANCH  28  29
ATOM     29  N   UNL A   1      44.993  36.278  26.294  1.00  0.00    -0.352 N 
ATOM     30  C   UNL A   1      44.046  36.647  27.205  1.00  0.00     0.251 C 
ATOM     31  H   UNL A   1      45.510  37.030  25.927  1.00  0.00     0.163 HD
ATOM     32  O   UNL A   1      43.647  37.812  27.184  1.00  0.00    -0.269 OA
BRANCH  30  33
ATOM     33  C   UNL A   1      43.506  35.731  28.235  1.00  0.00     0.039 A 
ATOM     34  C   UNL A   1      44.432  35.080  29.063  1.00  0.00     0.014 A 
ATOM     35  C   UNL A   1      42.160  35.356  28.281  1.00  0.00     0.014 A 
ATOM     36  C   UNL A   1      44.021  34.076  29.940  1.00  0.00     0.010 A 
ATOM     37  C   UNL A   1      41.749  34.346  29.164  1.00  0.00     0.010 A 
ATOM     38  C   UNL A   1      42.673  33.705  30.005  1.00  0.00    -0.014 A 
BRANCH  38  39
ATOM     39  C   UNL A   1      42.270  32.772  31.082  1.00  0.00     0.031 A 
ATOM     40  C   UNL A   1      40.842  32.889  31.504  1.00  0.00     0.074 A 
ATOM     41  C   UNL A   1      42.910  31.611  31.344  1.00  0.00     0.049 A 
ATOM     42  N   UNL A   1      39.873  32.280  30.884  1.00  0.00    -0.248 NA
ATOM     43  C   UNL A   1      40.388  33.899  32.458  1.00  0.00     0.031 C 
ATOM     44  C   UNL A   1      43.516  30.763  30.312  1.00  0.00     0.029 A 
ATOM     45  N   UNL A   1      42.948  30.835  32.485  1.00  0.00    -0.354 N 
ATOM     46  C   UNL A   1      38.689  32.858  31.303  1.00  0.00     0.074 A 
ATOM     47  C   UNL A   1      39.056  33.843  32.298  1.00  0.00     0.031 C 
ATOM     48  C   UNL A   1      43.705  29.529  30.825  1.00  0.00     0.029 A 
ATOM     49  C   UNL A   1      43.377  29.529  32.254  1.00  0.00     0.049 A 
ATOM     50  H   UNL A   1      42.695  31.170  33.375  1.00  0.00     0.167 HD
ATOM     51  C   UNL A   1      37.481  32.504  30.793  1.00  0.00     0.037 A 
ATOM     52  C   UNL A   1      42.926  28.429  32.920  1.00  0.00     0.037 A 
ATOM     53  C   UNL A   1      37.501  31.474  29.799  1.00  0.00     0.049 A 
ATOM     54  C   UNL A   1      41.504  28.345  32.438  1.00  0.00     0.074 A 
ATOM     55  C   UNL A   1      37.495  31.389  28.423  1.00  0.00     0.029 A 
ATOM     56  N   UNL A   1      37.586  30.172  30.227  1.00  0.00    -0.354 N 
ATOM     57  N   UNL A   1      41.111  27.849  31.297  1.00  0.00    -0.248 NA
ATOM     58  C   UNL A   1      40.505  29.163  33.129  1.00  0.00     0.031 C 
ATOM     59  C   UNL A   1      38.049  30.104  28.120  1.00  0.00     0.029 A 
ATOM     60  C   UNL A   1      38.396  29.517  29.335  1.00  0.00     0.049 A 
ATOM     61  H   UNL A   1      37.151  29.783  31.020  1.00  0.00     0.167 HD
ATOM     62  C   UNL A   1      39.916  28.506  31.003  1.00  0.00     0.074 A 
ATOM     63  C   UNL A   1      39.578  29.269  32.187  1.00  0.00     0.031 C 
ATOM     64  C   UNL A   1      39.376  28.543  29.750  1.00  0.00     0.037 A 
BRANCH  51  65
ATOM     65  C   UNL A   1      36.170  32.983  31.273  1.00  0.00     0.064 A 
ATOM     66  C   UNL A   1      35.499  33.933  30.489  1.00  0.00     0.173 A 
ATOM     67  C   UNL A   1      35.707  32.746  32.570  1.00  0.00     0.173 A 
ATOM     68  F   UNL A   1      35.924  34.189  29.240  1.00  0.00    -0.203 F 
ATOM     69  C   UNL A   1      34.438  34.667  31.001  1.00  0.00     0.198 A 
ATOM     70  C   UNL A   1      34.632  33.475  33.078  1.00  0.00     0.198 A 
ATOM     71  F   UNL A   1      36.326  31.855  33.357  1.00  0.00    -0.203 F 
ATOM     72  F   UNL A   1      33.860  35.614  30.249  1.00  0.00    -0.200 F 
ATOM     73  C   UNL A   1      34.013  34.448  32.301  1.00  0.00     0.200 A 
ATOM     74  F   UNL A   1      34.216  33.268  34.335  1.00  0.00    -0.200 F 
ATOM     75  F   UNL A   1      33.018  35.187  32.811  1.00  0.00    -0.200 F 
ENDBRANCH  51  65
BRANCH  52  76
ATOM     76  C   UNL A   1      43.315  28.275  34.358  1.00  0.00     0.064 A 
ATOM     77  C   UNL A   1      43.768  27.016  34.804  1.00  0.00     0.173 A 
ATOM     78  C   UNL A   1      43.228  29.274  35.342  1.00  0.00     0.173 A 
ATOM     79  F   UNL A   1      43.766  25.966  33.967  1.00  0.00    -0.203 F 
ATOM     80  C   UNL A   1      44.221  26.808  36.109  1.00  0.00     0.198 A 
ATOM     81  C   UNL A   1      43.709  29.076  36.640  1.00  0.00     0.198 A 
ATOM     82  F   UNL A   1      42.681  30.467  35.074  1.00  0.00    -0.203 F 
ATOM     83  F   UNL A   1      44.667  25.599  36.477  1.00  0.00    -0.200 F 
ATOM     84  C   UNL A   1      44.221  27.849  37.017  1.00  0.00     0.200 A 
ATOM     85  F   UNL A   1      43.687  30.088  37.518  1.00  0.00    -0.200 F 
ATOM     86  F   UNL A   1      44.703  27.668  38.255  1.00  0.00    -0.200 F 
ENDBRANCH  52  76
BRANCH  64  87
ATOM     87  C   UNL A   1      40.073  27.704  28.738  1.00  0.00     0.064 A 
ATOM     88  C   UNL A   1      39.798  26.334  28.643  1.00  0.00     0.173 A 
ATOM     89  C   UNL A   1      41.015  28.252  27.856  1.00  0.00     0.173 A 
ATOM     90  F   UNL A   1      38.900  25.764  29.461  1.00  0.00    -0.203 F 
ATOM     91  C   UNL A   1      40.433  25.546  27.688  1.00  0.00     0.198 A 
ATOM     92  C   UNL A   1      41.626  27.467  26.883  1.00  0.00     0.198 A 
ATOM     93  F   UNL A   1      41.340  29.554  27.918  1.00  0.00    -0.203 F 
ATOM     94  F   UNL A   1      40.159  24.235  27.613  1.00  0.00    -0.200 F 
ATOM     95  C   UNL A   1      41.335  26.114  26.802  1.00  0.00     0.200 A 
ATOM     96  F   UNL A   1      42.485  28.022  26.017  1.00  0.00    -0.200 F 
ATOM     97  F   UNL A   1      41.919  25.360  25.860  1.00  0.00    -0.200 F 
ENDBRANCH  64  87
ENDBRANCH  38  39
ENDBRANCH  30  33
ENDBRANCH  28  29
ENDBRANCH  27  28
ENDBRANCH  26  27
ENDBRANCH   1  26
TORSDOF 15
ENDMDL
