MODEL 1
REMARK VINA RESULT:     -11.6      0.000      0.000
REMARK SMILES Cc1cc(C)n([C@H](C)[C@H](C)C(=O)NCCCCCCNC(=O)c2ccc(-c3c4nc(c(-c5c(F)c(F)c(F)c(F)c5F)c5ccc([nH]5)c(-c5c(F)c(F)c(F)c(F)c5F)c5nc(c(-c6c(F)c(F)c(F)c(F)c6F)c6ccc3[nH]6)C=C5)C=C4)cc2)n1
REMARK SMILES IDX 16 1 15 2 14 3 13 4 11 5 12 6 9 8 10 9 7 10 8 11 6 12 1 13
REMARK SMILES IDX 2 14 3 15 86 16 4 17 5 18 17 19 18 20 19 21 20 22 21 23
REMARK SMILES IDX 22 25 23 26 24 27 85 28 25 29 84 30 26 31 27 32 28 33 78 34
REMARK SMILES IDX 29 35 83 36 77 37 79 38 30 39 82 40 76 41 75 42 31 44 63 45
REMARK SMILES IDX 43 46 62 47 44 48 47 49 61 50 80 51 45 52 46 53 60 55 81 56
REMARK SMILES IDX 48 57 32 58 33 59 41 60 34 61 35 62 39 63 42 64 36 65 37 66
REMARK SMILES IDX 40 67 38 68 64 69 65 70 73 71 66 72 67 73 71 74 74 75 68 76
REMARK SMILES IDX 69 77 72 78 70 79 49 80 50 81 58 82 51 83 52 84 56 85 59 86
REMARK SMILES IDX 53 87 54 88 57 89 55 90
REMARK H PARENT 13 7 20 24 79 43 47 54
REMARK Flexibility Score: inf
ROOT
ATOM      1  C   UNL A   1      40.016  21.148  26.542  1.00  0.00     0.002 C 
ENDROOT
BRANCH   1   2
ATOM      2  C   UNL A   1      39.573  22.529  26.044  1.00  0.00     0.021 C 
BRANCH   2   3
ATOM      3  C   UNL A   1      38.066  22.740  25.998  1.00  0.00     0.116 C 
BRANCH   3   4
ATOM      4  N   UNL A   1      37.544  22.753  24.652  1.00  0.00    -0.356 N 
ATOM      5  C   UNL A   1      36.362  23.211  24.170  1.00  0.00     0.224 C 
ATOM      6  O   UNL A   1      36.203  23.165  22.946  1.00  0.00    -0.275 OA
ATOM      7  H   UNL A   1      38.143  22.367  23.972  1.00  0.00     0.163 HD
BRANCH   5   8
ATOM      8  C   UNL A   1      35.231  23.687  25.059  1.00  0.00     0.100 C 
ATOM      9  C   UNL A   1      34.598  24.936  24.419  1.00  0.00     0.020 C 
BRANCH   8  10
ATOM     10  C   UNL A   1      34.221  22.674  25.664  1.00  0.00     0.116 C 
ATOM     11  C   UNL A   1      33.158  23.188  26.646  1.00  0.00     0.034 C 
BRANCH  10  12
ATOM     12  N   UNL A   1      33.693  21.567  24.848  1.00  0.00    -0.266 N 
ATOM     13  C   UNL A   1      33.492  18.005  24.751  1.00  0.00     0.069 C 
ATOM     14  C   UNL A   1      33.384  19.464  24.534  1.00  0.00     0.060 A 
ATOM     15  C   UNL A   1      32.581  20.122  23.601  1.00  0.00     0.048 A 
ATOM     16  N   UNL A   1      34.066  20.329  25.283  1.00  0.00    -0.178 NA
ATOM     17  C   UNL A   1      32.757  21.471  23.834  1.00  0.00     0.036 A 
ATOM     18  C   UNL A   1      32.037  22.536  23.108  1.00  0.00     0.066 C 
ENDBRANCH  10  12
ENDBRANCH   8  10
ENDBRANCH   5   8
ENDBRANCH   3   4
ENDBRANCH   2   3
ENDBRANCH   1   2
BRANCH   1  19
ATOM     19  C   UNL A   1      41.269  21.072  27.430  1.00  0.00     0.002 C 
BRANCH  19  20
ATOM     20  C   UNL A   1      42.292  19.966  27.150  1.00  0.00     0.021 C 
BRANCH  20  21
ATOM     21  C   UNL A   1      42.416  19.539  25.697  1.00  0.00     0.116 C 
BRANCH  21  22
ATOM     22  N   UNL A   1      43.781  19.230  25.284  1.00  0.00    -0.352 N 
ATOM     23  C   UNL A   1      44.752  20.118  24.847  1.00  0.00     0.251 C 
ATOM     24  H   UNL A   1      44.043  18.282  25.320  1.00  0.00     0.163 HD
ATOM     25  O   UNL A   1      45.694  19.746  24.171  1.00  0.00    -0.269 OA
BRANCH  23  26
ATOM     26  C   UNL A   1      44.614  21.541  25.218  1.00  0.00     0.039 A 
ATOM     27  C   UNL A   1      43.601  22.336  24.681  1.00  0.00     0.014 A 
ATOM     28  C   UNL A   1      45.491  22.058  26.166  1.00  0.00     0.014 A 
ATOM     29  C   UNL A   1      43.425  23.623  25.187  1.00  0.00     0.010 A 
ATOM     30  C   UNL A   1      45.210  23.253  26.782  1.00  0.00     0.010 A 
ATOM     31  C   UNL A   1      44.211  24.066  26.268  1.00  0.00    -0.014 A 
BRANCH  31  32
ATOM     32  C   UNL A   1      43.910  25.335  26.931  1.00  0.00     0.031 A 
ATOM     33  C   UNL A   1      44.856  26.434  26.603  1.00  0.00     0.074 A 
ATOM     34  C   UNL A   1      42.807  25.573  27.675  1.00  0.00     0.049 A 
ATOM     35  N   UNL A   1      45.742  26.949  27.387  1.00  0.00    -0.248 NA
ATOM     36  C   UNL A   1      44.935  26.921  25.216  1.00  0.00     0.031 C 
ATOM     37  C   UNL A   1      41.636  24.713  27.886  1.00  0.00     0.029 A 
ATOM     38  N   UNL A   1      42.469  26.702  28.363  1.00  0.00    -0.354 N 
ATOM     39  C   UNL A   1      46.372  27.954  26.662  1.00  0.00     0.074 A 
ATOM     40  C   UNL A   1      45.950  27.788  25.296  1.00  0.00     0.031 C 
ATOM     41  C   UNL A   1      40.637  25.426  28.451  1.00  0.00     0.029 A 
ATOM     42  C   UNL A   1      41.155  26.729  28.816  1.00  0.00     0.049 A 
ATOM     43  H   UNL A   1      43.104  27.436  28.526  1.00  0.00     0.167 HD
ATOM     44  C   UNL A   1      47.000  28.975  27.308  1.00  0.00     0.037 A 
ATOM     45  C   UNL A   1      40.533  27.745  29.465  1.00  0.00     0.037 A 
ATOM     46  C   UNL A   1      47.222  28.640  28.695  1.00  0.00     0.049 A 
ATOM     47  C   UNL A   1      41.592  28.574  30.082  1.00  0.00     0.074 A 
ATOM     48  C   UNL A   1      47.954  27.687  29.373  1.00  0.00     0.029 A 
ATOM     49  N   UNL A   1      46.310  29.130  29.594  1.00  0.00    -0.354 N 
ATOM     50  N   UNL A   1      42.349  28.170  31.063  1.00  0.00    -0.248 NA
ATOM     51  C   UNL A   1      42.090  29.716  29.335  1.00  0.00     0.031 C 
ATOM     52  C   UNL A   1      47.159  27.346  30.511  1.00  0.00     0.029 A 
ATOM     53  C   UNL A   1      46.018  28.150  30.504  1.00  0.00     0.049 A 
ATOM     54  H   UNL A   1      45.927  30.037  29.586  1.00  0.00     0.167 HD
ATOM     55  C   UNL A   1      43.599  28.689  30.770  1.00  0.00     0.074 A 
ATOM     56  C   UNL A   1      43.348  29.736  29.781  1.00  0.00     0.031 C 
ATOM     57  C   UNL A   1      44.730  28.023  31.145  1.00  0.00     0.037 A 
BRANCH  44  58
ATOM     58  C   UNL A   1      47.018  30.413  26.835  1.00  0.00     0.064 A 
ATOM     59  C   UNL A   1      48.225  31.140  26.924  1.00  0.00     0.173 A 
ATOM     60  C   UNL A   1      45.857  31.187  26.629  1.00  0.00     0.173 A 
ATOM     61  F   UNL A   1      49.390  30.509  27.129  1.00  0.00    -0.203 F 
ATOM     62  C   UNL A   1      48.247  32.538  26.914  1.00  0.00     0.198 A 
ATOM     63  C   UNL A   1      45.892  32.580  26.568  1.00  0.00     0.198 A 
ATOM     64  F   UNL A   1      44.634  30.649  26.594  1.00  0.00    -0.203 F 
ATOM     65  F   UNL A   1      49.397  33.186  27.147  1.00  0.00    -0.200 F 
ATOM     66  C   UNL A   1      47.079  33.257  26.748  1.00  0.00     0.200 A 
ATOM     67  F   UNL A   1      44.745  33.260  26.426  1.00  0.00    -0.200 F 
ATOM     68  F   UNL A   1      47.086  34.595  26.812  1.00  0.00    -0.200 F 
ENDBRANCH  44  58
BRANCH  45  69
ATOM     69  C   UNL A   1      39.130  28.205  29.360  1.00  0.00     0.064 A 
ATOM     70  C   UNL A   1      38.335  28.369  30.507  1.00  0.00     0.173 A 
ATOM     71  C   UNL A   1      38.647  28.789  28.174  1.00  0.00     0.173 A 
ATOM     72  F   UNL A   1      38.742  27.877  31.687  1.00  0.00    -0.203 F 
ATOM     73  C   UNL A   1      37.151  29.114  30.480  1.00  0.00     0.198 A 
ATOM     74  C   UNL A   1      37.463  29.529  28.147  1.00  0.00     0.198 A 
ATOM     75  F   UNL A   1      39.367  28.743  27.044  1.00  0.00    -0.203 F 
ATOM     76  F   UNL A   1      36.459  29.313  31.611  1.00  0.00    -0.200 F 
ATOM     77  C   UNL A   1      36.725  29.706  29.304  1.00  0.00     0.200 A 
ATOM     78  F   UNL A   1      37.082  30.131  27.011  1.00  0.00    -0.200 F 
ATOM     79  F   UNL A   1      35.631  30.482  29.292  1.00  0.00    -0.200 F 
ENDBRANCH  45  69
BRANCH  57  80
ATOM     80  C   UNL A   1      44.580  26.936  32.176  1.00  0.00     0.064 A 
ATOM     81  C   UNL A   1      44.473  27.154  33.561  1.00  0.00     0.173 A 
ATOM     82  C   UNL A   1      44.438  25.619  31.720  1.00  0.00     0.173 A 
ATOM     83  F   UNL A   1      44.506  28.391  34.071  1.00  0.00    -0.203 F 
ATOM     84  C   UNL A   1      44.283  26.094  34.447  1.00  0.00     0.198 A 
ATOM     85  C   UNL A   1      44.210  24.567  32.603  1.00  0.00     0.198 A 
ATOM     86  F   UNL A   1      44.484  25.354  30.405  1.00  0.00    -0.203 F 
ATOM     87  F   UNL A   1      44.208  26.325  35.766  1.00  0.00    -0.200 F 
ATOM     88  C   UNL A   1      44.145  24.803  33.966  1.00  0.00     0.200 A 
ATOM     89  F   UNL A   1      44.031  23.327  32.128  1.00  0.00    -0.200 F 
ATOM     90  F   UNL A   1      43.928  23.787  34.814  1.00  0.00    -0.200 F 
ENDBRANCH  57  80
ENDBRANCH  31  32
ENDBRANCH  23  26
ENDBRANCH  21  22
ENDBRANCH  20  21
ENDBRANCH  19  20
ENDBRANCH   1  19
TORSDOF 15
ENDMDL
MODEL 2
REMARK VINA RESULT:     -11.4      1.137      2.136
REMARK SMILES Cc1cc(C)n([C@H](C)[C@H](C)C(=O)NCCCCCCNC(=O)c2ccc(-c3c4nc(c(-c5c(F)c(F)c(F)c(F)c5F)c5ccc([nH]5)c(-c5c(F)c(F)c(F)c(F)c5F)c5nc(c(-c6c(F)c(F)c(F)c(F)c6F)c6ccc3[nH]6)C=C5)C=C4)cc2)n1
REMARK SMILES IDX 16 1 15 2 14 3 13 4 11 5 12 6 9 8 10 9 7 10 8 11 6 12 1 13
REMARK SMILES IDX 2 14 3 15 86 16 4 17 5 18 17 19 18 20 19 21 20 22 21 23
REMARK SMILES IDX 22 25 23 26 24 27 85 28 25 29 84 30 26 31 27 32 28 33 78 34
REMARK SMILES IDX 29 35 83 36 77 37 79 38 30 39 82 40 76 41 75 42 31 44 63 45
REMARK SMILES IDX 43 46 62 47 44 48 47 49 61 50 80 51 45 52 46 53 60 55 81 56
REMARK SMILES IDX 48 57 32 58 33 59 41 60 34 61 35 62 39 63 42 64 36 65 37 66
REMARK SMILES IDX 40 67 38 68 64 69 65 70 73 71 66 72 67 73 71 74 74 75 68 76
REMARK SMILES IDX 69 77 72 78 70 79 49 80 50 81 58 82 51 83 52 84 56 85 59 86
REMARK SMILES IDX 53 87 54 88 57 89 55 90
REMARK H PARENT 13 7 20 24 79 43 47 54
REMARK Flexibility Score: inf
ROOT
ATOM      1  C   UNL A   1      39.947  21.758  26.444  1.00  0.00     0.002 C 
ENDROOT
BRANCH   1   2
ATOM      2  C   UNL A   1      39.192  23.087  26.561  1.00  0.00     0.021 C 
BRANCH   2   3
ATOM      3  C   UNL A   1      37.853  23.128  25.838  1.00  0.00     0.116 C 
BRANCH   3   4
ATOM      4  N   UNL A   1      37.261  21.820  25.683  1.00  0.00    -0.356 N 
ATOM      5  C   UNL A   1      36.006  21.459  25.316  1.00  0.00     0.224 C 
ATOM      6  O   UNL A   1      35.788  20.250  25.189  1.00  0.00    -0.275 OA
ATOM      7  H   UNL A   1      37.866  21.067  25.874  1.00  0.00     0.163 HD
BRANCH   5   8
ATOM      8  C   UNL A   1      34.874  22.451  25.140  1.00  0.00     0.100 C 
ATOM      9  C   UNL A   1      34.339  22.334  23.701  1.00  0.00     0.020 C 
BRANCH   8  10
ATOM     10  C   UNL A   1      33.786  22.611  26.237  1.00  0.00     0.116 C 
ATOM     11  C   UNL A   1      34.046  22.011  27.627  1.00  0.00     0.034 C 
BRANCH  10  12
ATOM     12  N   UNL A   1      33.003  23.854  26.338  1.00  0.00    -0.266 N 
ATOM     13  C   UNL A   1      33.212  27.357  25.688  1.00  0.00     0.069 C 
ATOM     14  C   UNL A   1      32.820  25.973  26.029  1.00  0.00     0.060 A 
ATOM     15  C   UNL A   1      31.540  25.509  26.341  1.00  0.00     0.048 A 
ATOM     16  N   UNL A   1      33.709  24.981  26.035  1.00  0.00    -0.178 NA
ATOM     17  C   UNL A   1      31.660  24.143  26.502  1.00  0.00     0.036 A 
ATOM     18  C   UNL A   1      30.525  23.242  26.778  1.00  0.00     0.066 C 
ENDBRANCH  10  12
ENDBRANCH   8  10
ENDBRANCH   5   8
ENDBRANCH   3   4
ENDBRANCH   2   3
ENDBRANCH   1   2
BRANCH   1  19
ATOM     19  C   UNL A   1      40.937  21.393  27.563  1.00  0.00     0.002 C 
BRANCH  19  20
ATOM     20  C   UNL A   1      41.919  20.243  27.317  1.00  0.00     0.021 C 
BRANCH  20  21
ATOM     21  C   UNL A   1      42.072  19.807  25.869  1.00  0.00     0.116 C 
BRANCH  21  22
ATOM     22  N   UNL A   1      43.439  19.458  25.496  1.00  0.00    -0.352 N 
ATOM     23  C   UNL A   1      44.443  20.315  25.074  1.00  0.00     0.251 C 
ATOM     24  H   UNL A   1      43.674  18.504  25.548  1.00  0.00     0.163 HD
ATOM     25  O   UNL A   1      45.392  19.911  24.427  1.00  0.00    -0.269 OA
BRANCH  23  26
ATOM     26  C   UNL A   1      44.333  21.745  25.426  1.00  0.00     0.039 A 
ATOM     27  C   UNL A   1      43.379  22.569  24.828  1.00  0.00     0.014 A 
ATOM     28  C   UNL A   1      45.174  22.242  26.417  1.00  0.00     0.014 A 
ATOM     29  C   UNL A   1      43.220  23.865  25.313  1.00  0.00     0.010 A 
ATOM     30  C   UNL A   1      44.900  23.451  27.007  1.00  0.00     0.010 A 
ATOM     31  C   UNL A   1      43.959  24.293  26.433  1.00  0.00    -0.014 A 
BRANCH  31  32
ATOM     32  C   UNL A   1      43.666  25.578  27.068  1.00  0.00     0.031 A 
ATOM     33  C   UNL A   1      44.601  26.671  26.693  1.00  0.00     0.074 A 
ATOM     34  C   UNL A   1      42.576  25.830  27.826  1.00  0.00     0.049 A 
ATOM     35  N   UNL A   1      45.499  27.210  27.447  1.00  0.00    -0.248 NA
ATOM     36  C   UNL A   1      44.651  27.122  25.293  1.00  0.00     0.031 C 
ATOM     37  C   UNL A   1      41.413  24.972  28.082  1.00  0.00     0.029 A 
ATOM     38  N   UNL A   1      42.246  26.976  28.491  1.00  0.00    -0.354 N 
ATOM     39  C   UNL A   1      46.111  28.198  26.684  1.00  0.00     0.074 A 
ATOM     40  C   UNL A   1      45.662  27.994  25.330  1.00  0.00     0.031 C 
ATOM     41  C   UNL A   1      40.422  25.695  28.648  1.00  0.00     0.029 A 
ATOM     42  C   UNL A   1      40.941  27.010  28.969  1.00  0.00     0.049 A 
ATOM     43  H   UNL A   1      42.881  27.717  28.623  1.00  0.00     0.167 HD
ATOM     44  C   UNL A   1      46.747  29.238  27.291  1.00  0.00     0.037 A 
ATOM     45  C   UNL A   1      40.328  28.039  29.603  1.00  0.00     0.037 A 
ATOM     46  C   UNL A   1      46.996  28.940  28.681  1.00  0.00     0.049 A 
ATOM     47  C   UNL A   1      41.394  28.889  30.178  1.00  0.00     0.074 A 
ATOM     48  C   UNL A   1      47.745  28.008  29.369  1.00  0.00     0.029 A 
ATOM     49  N   UNL A   1      46.100  29.450  29.584  1.00  0.00    -0.354 N 
ATOM     50  N   UNL A   1      42.171  28.514  31.154  1.00  0.00    -0.248 NA
ATOM     51  C   UNL A   1      41.873  30.013  29.392  1.00  0.00     0.031 C 
ATOM     52  C   UNL A   1      46.974  27.693  30.531  1.00  0.00     0.029 A 
ATOM     53  C   UNL A   1      45.830  28.493  30.525  1.00  0.00     0.049 A 
ATOM     54  H   UNL A   1      45.713  30.355  29.561  1.00  0.00     0.167 HD
ATOM     55  C   UNL A   1      43.413  29.030  30.823  1.00  0.00     0.074 A 
ATOM     56  C   UNL A   1      43.139  30.049  29.813  1.00  0.00     0.031 C 
ATOM     57  C   UNL A   1      44.554  28.378  31.194  1.00  0.00     0.037 A 
BRANCH  44  58
ATOM     58  C   UNL A   1      46.749  30.663  26.780  1.00  0.00     0.064 A 
ATOM     59  C   UNL A   1      47.950  31.402  26.840  1.00  0.00     0.173 A 
ATOM     60  C   UNL A   1      45.580  31.423  26.563  1.00  0.00     0.173 A 
ATOM     61  F   UNL A   1      49.123  30.785  27.050  1.00  0.00    -0.203 F 
ATOM     62  C   UNL A   1      47.962  32.799  26.793  1.00  0.00     0.198 A 
ATOM     63  C   UNL A   1      45.604  32.814  26.466  1.00  0.00     0.198 A 
ATOM     64  F   UNL A   1      44.361  30.875  26.553  1.00  0.00    -0.203 F 
ATOM     65  F   UNL A   1      49.109  33.462  26.998  1.00  0.00    -0.200 F 
ATOM     66  C   UNL A   1      46.787  33.504  26.618  1.00  0.00     0.200 A 
ATOM     67  F   UNL A   1      44.450  33.481  26.317  1.00  0.00    -0.200 F 
ATOM     68  F   UNL A   1      46.784  34.843  26.647  1.00  0.00    -0.200 F 
ENDBRANCH  44  58
BRANCH  45  69
ATOM     69  C   UNL A   1      38.920  28.491  29.514  1.00  0.00     0.064 A 
ATOM     70  C   UNL A   1      38.144  28.672  30.670  1.00  0.00     0.173 A 
ATOM     71  C   UNL A   1      38.415  29.051  28.325  1.00  0.00     0.173 A 
ATOM     72  F   UNL A   1      38.572  28.203  31.852  1.00  0.00    -0.203 F 
ATOM     73  C   UNL A   1      36.956  29.411  30.650  1.00  0.00     0.198 A 
ATOM     74  C   UNL A   1      37.227  29.786  28.305  1.00  0.00     0.198 A 
ATOM     75  F   UNL A   1      39.117  28.988  27.184  1.00  0.00    -0.203 F 
ATOM     76  F   UNL A   1      36.282  29.628  31.788  1.00  0.00    -0.200 F 
ATOM     77  C   UNL A   1      36.507  29.980  29.470  1.00  0.00     0.200 A 
ATOM     78  F   UNL A   1      36.824  30.365  27.165  1.00  0.00    -0.200 F 
ATOM     79  F   UNL A   1      35.410  30.751  29.463  1.00  0.00    -0.200 F 
ENDBRANCH  45  69
BRANCH  57  80
ATOM     80  C   UNL A   1      44.430  27.317  32.255  1.00  0.00     0.064 A 
ATOM     81  C   UNL A   1      44.245  25.947  32.000  1.00  0.00     0.173 A 
ATOM     82  C   UNL A   1      44.608  27.704  33.590  1.00  0.00     0.173 A 
ATOM     83  F   UNL A   1      44.159  25.481  30.749  1.00  0.00    -0.203 F 
ATOM     84  C   UNL A   1      44.192  25.019  33.041  1.00  0.00     0.198 A 
ATOM     85  C   UNL A   1      44.593  26.772  34.623  1.00  0.00     0.198 A 
ATOM     86  F   UNL A   1      44.835  28.993  33.892  1.00  0.00    -0.203 F 
ATOM     87  F   UNL A   1      43.991  23.720  32.773  1.00  0.00    -0.200 F 
ATOM     88  C   UNL A   1      44.373  25.432  34.350  1.00  0.00     0.200 A 
ATOM     89  F   UNL A   1      44.815  27.171  35.883  1.00  0.00    -0.200 F 
ATOM     90  F   UNL A   1      44.357  24.537  35.347  1.00  0.00    -0.200 F 
ENDBRANCH  57  80
ENDBRANCH  31  32
ENDBRANCH  23  26
ENDBRANCH  21  22
ENDBRANCH  20  21
ENDBRANCH  19  20
ENDBRANCH   1  19
TORSDOF 15
ENDMDL
MODEL 3
REMARK VINA RESULT:     -11.0      3.244      8.743
REMARK SMILES Cc1cc(C)n([C@H](C)[C@H](C)C(=O)NCCCCCCNC(=O)c2ccc(-c3c4nc(c(-c5c(F)c(F)c(F)c(F)c5F)c5ccc([nH]5)c(-c5c(F)c(F)c(F)c(F)c5F)c5nc(c(-c6c(F)c(F)c(F)c(F)c6F)c6ccc3[nH]6)C=C5)C=C4)cc2)n1
REMARK SMILES IDX 16 1 15 2 14 3 13 4 11 5 12 6 9 8 10 9 7 10 8 11 6 12 1 13
REMARK SMILES IDX 2 14 3 15 86 16 4 17 5 18 17 19 18 20 19 21 20 22 21 23
REMARK SMILES IDX 22 25 23 26 24 27 85 28 25 29 84 30 26 31 27 32 28 33 78 34
REMARK SMILES IDX 29 35 83 36 77 37 79 38 30 39 82 40 76 41 75 42 31 44 63 45
REMARK SMILES IDX 43 46 62 47 44 48 47 49 61 50 80 51 45 52 46 53 60 55 81 56
REMARK SMILES IDX 48 57 32 58 33 59 41 60 34 61 35 62 39 63 42 64 36 65 37 66
REMARK SMILES IDX 40 67 38 68 64 69 65 70 73 71 66 72 67 73 71 74 74 75 68 76
REMARK SMILES IDX 69 77 72 78 70 79 49 80 50 81 58 82 51 83 52 84 56 85 59 86
REMARK SMILES IDX 53 87 54 88 57 89 55 90
REMARK H PARENT 13 7 20 24 79 43 47 54
REMARK Flexibility Score: inf
ROOT
ATOM      1  C   UNL A   1      32.224  27.315  26.809  1.00  0.00     0.002 C 
ENDROOT
BRANCH   1   2
ATOM      2  C   UNL A   1      30.839  27.180  26.165  1.00  0.00     0.021 C 
BRANCH   2   3
ATOM      3  C   UNL A   1      30.600  25.868  25.431  1.00  0.00     0.116 C 
BRANCH   3   4
ATOM      4  N   UNL A   1      30.083  24.831  26.292  1.00  0.00    -0.356 N 
ATOM      5  C   UNL A   1      30.662  23.689  26.740  1.00  0.00     0.224 C 
ATOM      6  O   UNL A   1      30.009  23.009  27.539  1.00  0.00    -0.275 OA
ATOM      7  H   UNL A   1      29.162  24.976  26.606  1.00  0.00     0.163 HD
BRANCH   5   8
ATOM      8  C   UNL A   1      32.006  23.190  26.249  1.00  0.00     0.100 C 
ATOM      9  C   UNL A   1      32.803  22.664  27.456  1.00  0.00     0.020 C 
BRANCH   8  10
ATOM     10  C   UNL A   1      32.105  22.322  24.965  1.00  0.00     0.116 C 
ATOM     11  C   UNL A   1      32.229  23.027  23.606  1.00  0.00     0.034 C 
BRANCH  10  12
ATOM     12  N   UNL A   1      32.861  21.057  24.974  1.00  0.00    -0.266 N 
ATOM     13  C   UNL A   1      32.411  17.523  24.768  1.00  0.00     0.069 C 
ATOM     14  C   UNL A   1      32.910  18.913  24.845  1.00  0.00     0.060 A 
ATOM     15  C   UNL A   1      34.235  19.343  24.744  1.00  0.00     0.048 A 
ATOM     16  N   UNL A   1      32.076  19.942  24.993  1.00  0.00    -0.178 NA
ATOM     17  C   UNL A   1      34.190  20.722  24.791  1.00  0.00     0.036 A 
ATOM     18  C   UNL A   1      35.375  21.592  24.650  1.00  0.00     0.066 C 
ENDBRANCH  10  12
ENDBRANCH   8  10
ENDBRANCH   5   8
ENDBRANCH   3   4
ENDBRANCH   2   3
ENDBRANCH   1   2
BRANCH   1  19
ATOM     19  C   UNL A   1      33.424  27.581  25.885  1.00  0.00     0.002 C 
BRANCH  19  20
ATOM     20  C   UNL A   1      34.105  28.952  25.954  1.00  0.00     0.021 C 
BRANCH  20  21
ATOM     21  C   UNL A   1      33.868  29.740  27.233  1.00  0.00     0.116 C 
BRANCH  21  22
ATOM     22  N   UNL A   1      34.229  31.150  27.136  1.00  0.00    -0.352 N 
ATOM     23  C   UNL A   1      35.229  31.814  27.830  1.00  0.00     0.251 C 
ATOM     24  H   UNL A   1      33.703  31.692  26.506  1.00  0.00     0.163 HD
ATOM     25  O   UNL A   1      35.202  33.022  27.980  1.00  0.00    -0.269 OA
BRANCH  23  26
ATOM     26  C   UNL A   1      36.335  31.015  28.395  1.00  0.00     0.039 A 
ATOM     27  C   UNL A   1      36.232  29.632  28.539  1.00  0.00     0.014 A 
ATOM     28  C   UNL A   1      37.514  31.675  28.730  1.00  0.00     0.014 A 
ATOM     29  C   UNL A   1      37.362  28.916  28.929  1.00  0.00     0.010 A 
ATOM     30  C   UNL A   1      38.665  30.957  28.942  1.00  0.00     0.010 A 
ATOM     31  C   UNL A   1      38.593  29.580  29.094  1.00  0.00    -0.014 A 
BRANCH  31  32
ATOM     32  C   UNL A   1      39.822  28.819  29.314  1.00  0.00     0.031 A 
ATOM     33  C   UNL A   1      40.166  28.617  30.747  1.00  0.00     0.074 A 
ATOM     34  C   UNL A   1      40.540  28.218  28.340  1.00  0.00     0.049 A 
ATOM     35  N   UNL A   1      41.134  29.175  31.393  1.00  0.00    -0.248 NA
ATOM     36  C   UNL A   1      39.261  27.827  31.596  1.00  0.00     0.031 C 
ATOM     37  C   UNL A   1      40.218  28.072  26.915  1.00  0.00     0.029 A 
ATOM     38  N   UNL A   1      41.715  27.531  28.446  1.00  0.00    -0.354 N 
ATOM     39  C   UNL A   1      41.082  28.671  32.688  1.00  0.00     0.074 A 
ATOM     40  C   UNL A   1      39.826  27.974  32.798  1.00  0.00     0.031 C 
ATOM     41  C   UNL A   1      41.044  27.166  26.346  1.00  0.00     0.029 A 
ATOM     42  C   UNL A   1      42.068  26.813  27.309  1.00  0.00     0.049 A 
ATOM     43  H   UNL A   1      42.267  27.543  29.261  1.00  0.00     0.167 HD
ATOM     44  C   UNL A   1      42.195  28.679  33.472  1.00  0.00     0.037 A 
ATOM     45  C   UNL A   1      43.139  25.996  27.156  1.00  0.00     0.037 A 
ATOM     46  C   UNL A   1      43.192  29.572  32.930  1.00  0.00     0.049 A 
ATOM     47  C   UNL A   1      44.139  26.403  28.167  1.00  0.00     0.074 A 
ATOM     48  C   UNL A   1      43.277  30.929  32.698  1.00  0.00     0.029 A 
ATOM     49  N   UNL A   1      44.183  28.995  32.178  1.00  0.00    -0.354 N 
ATOM     50  N   UNL A   1      44.775  27.540  28.141  1.00  0.00    -0.248 NA
ATOM     51  C   UNL A   1      44.139  25.715  29.447  1.00  0.00     0.031 C 
ATOM     52  C   UNL A   1      44.028  31.055  31.489  1.00  0.00     0.029 A 
ATOM     53  C   UNL A   1      44.415  29.778  31.080  1.00  0.00     0.049 A 
ATOM     54  H   UNL A   1      44.650  28.155  32.392  1.00  0.00     0.167 HD
ATOM     55  C   UNL A   1      44.848  27.925  29.469  1.00  0.00     0.074 A 
ATOM     56  C   UNL A   1      44.567  26.709  30.228  1.00  0.00     0.031 C 
ATOM     57  C   UNL A   1      44.845  29.248  29.806  1.00  0.00     0.037 A 
BRANCH  44  58
ATOM     58  C   UNL A   1      42.568  27.587  34.451  1.00  0.00     0.064 A 
ATOM     59  C   UNL A   1      43.141  26.397  33.953  1.00  0.00     0.173 A 
ATOM     60  C   UNL A   1      42.084  27.518  35.774  1.00  0.00     0.173 A 
ATOM     61  F   UNL A   1      43.627  26.343  32.704  1.00  0.00    -0.203 F 
ATOM     62  C   UNL A   1      43.131  25.208  34.687  1.00  0.00     0.198 A 
ATOM     63  C   UNL A   1      42.122  26.341  36.521  1.00  0.00     0.198 A 
ATOM     64  F   UNL A   1      41.452  28.540  36.360  1.00  0.00    -0.203 F 
ATOM     65  F   UNL A   1      43.556  24.071  34.117  1.00  0.00    -0.200 F 
ATOM     66  C   UNL A   1      42.610  25.177  35.966  1.00  0.00     0.200 A 
ATOM     67  F   UNL A   1      41.594  26.327  37.754  1.00  0.00    -0.200 F 
ATOM     68  F   UNL A   1      42.531  24.025  36.644  1.00  0.00    -0.200 F 
ENDBRANCH  44  58
BRANCH  45  69
ATOM     69  C   UNL A   1      43.251  24.728  26.400  1.00  0.00     0.064 A 
ATOM     70  C   UNL A   1      44.134  24.608  25.314  1.00  0.00     0.173 A 
ATOM     71  C   UNL A   1      42.732  23.527  26.921  1.00  0.00     0.173 A 
ATOM     72  F   UNL A   1      44.704  25.701  24.783  1.00  0.00    -0.203 F 
ATOM     73  C   UNL A   1      44.514  23.360  24.809  1.00  0.00     0.198 A 
ATOM     74  C   UNL A   1      43.109  22.282  26.414  1.00  0.00     0.198 A 
ATOM     75  F   UNL A   1      41.934  23.535  27.998  1.00  0.00    -0.203 F 
ATOM     76  F   UNL A   1      45.418  23.284  23.822  1.00  0.00    -0.200 F 
ATOM     77  C   UNL A   1      44.013  22.198  25.370  1.00  0.00     0.200 A 
ATOM     78  F   UNL A   1      42.648  21.163  26.991  1.00  0.00    -0.200 F 
ATOM     79  F   UNL A   1      44.432  21.000  24.938  1.00  0.00    -0.200 F 
ENDBRANCH  45  69
BRANCH  57  80
ATOM     80  C   UNL A   1      45.126  30.241  28.710  1.00  0.00     0.064 A 
ATOM     81  C   UNL A   1      44.153  30.786  27.855  1.00  0.00     0.173 A 
ATOM     82  C   UNL A   1      46.433  30.735  28.594  1.00  0.00     0.173 A 
ATOM     83  F   UNL A   1      42.865  30.438  27.960  1.00  0.00    -0.203 F 
ATOM     84  C   UNL A   1      44.487  31.743  26.896  1.00  0.00     0.198 A 
ATOM     85  C   UNL A   1      46.756  31.717  27.664  1.00  0.00     0.198 A 
ATOM     86  F   UNL A   1      47.395  30.287  29.416  1.00  0.00    -0.203 F 
ATOM     87  F   UNL A   1      43.545  32.230  26.075  1.00  0.00    -0.200 F 
ATOM     88  C   UNL A   1      45.787  32.212  26.807  1.00  0.00     0.200 A 
ATOM     89  F   UNL A   1      48.005  32.200  27.613  1.00  0.00    -0.200 F 
ATOM     90  F   UNL A   1      46.103  33.156  25.909  1.00  0.00    -0.200 F 
ENDBRANCH  57  80
ENDBRANCH  31  32
ENDBRANCH  23  26
ENDBRANCH  21  22
ENDBRANCH  20  21
ENDBRANCH  19  20
ENDBRANCH   1  19
TORSDOF 15
ENDMDL
