MODEL 1
REMARK VINA RESULT:     -11.8      0.000      0.000
REMARK SMILES Nc1nonc1C(=O)N1[C@@H]2CC[C@H]1C[C@H](CC(=O)NCCCCCCNC(=O)c1ccc(-c3c4nc(c(-c5c(F)c(F)c(F)c(F)c5F)c5ccc([nH]5)c(-c5c(F)c(F)c(F)c(F)c5F)c5nc(c(-c6c(F)c(F)c(F)c(F)c6F)c6ccc3[nH]6)C=C5)C=C4)cc1)C2
REMARK SMILES IDX 21 1 20 2 19 3 17 4 18 5 16 7 15 8 9 9 10 10 13 11 11 12
REMARK SMILES IDX 92 13 12 14 14 15 7 16 8 17 6 18 2 19 3 20 4 21 5 22 1 23
REMARK SMILES IDX 22 26 23 27 24 28 25 29 26 30 27 31 28 33 29 34 30 35 91 36
REMARK SMILES IDX 31 37 90 38 32 39 33 40 34 41 84 42 35 43 89 44 83 45 85 46
REMARK SMILES IDX 36 47 88 48 82 49 81 50 37 52 69 53 49 54 68 55 50 56 53 57
REMARK SMILES IDX 67 58 86 59 51 60 52 61 66 63 87 64 54 65 38 66 39 67 47 68
REMARK SMILES IDX 40 69 41 70 45 71 48 72 42 73 43 74 46 75 44 76 70 77 71 78
REMARK SMILES IDX 79 79 72 80 73 81 77 82 80 83 74 84 75 85 78 86 76 87 55 88
REMARK SMILES IDX 56 89 64 90 57 91 58 92 62 93 65 94 59 95 60 96 63 97 61 98
REMARK H PARENT 19 6 1 24 1 25 26 32 85 51 53 62
REMARK Flexibility Score: inf
ROOT
ATOM      1  C   UNL A   1      34.892  32.611  29.313  1.00  0.00     0.021 C 
ENDROOT
BRANCH   1   2
ATOM      2  C   UNL A   1      34.708  31.451  28.326  1.00  0.00     0.116 C 
BRANCH   2   3
ATOM      3  N   UNL A   1      33.415  31.542  27.665  1.00  0.00    -0.356 N 
ATOM      4  C   UNL A   1      32.628  30.583  27.102  1.00  0.00     0.220 C 
ATOM      5  O   UNL A   1      31.632  30.940  26.471  1.00  0.00    -0.275 OA
ATOM      6  H   UNL A   1      33.046  32.454  27.617  1.00  0.00     0.163 HD
BRANCH   4   7
ATOM      7  C   UNL A   1      32.958  29.112  27.255  1.00  0.00     0.103 C 
BRANCH   7   8
ATOM      8  C   UNL A   1      32.822  28.291  25.952  1.00  0.00     0.002 C 
ATOM      9  N   UNL A   1      31.151  28.865  23.691  1.00  0.00    -0.331 N 
ATOM     10  C   UNL A   1      32.585  28.815  23.438  1.00  0.00     0.086 C 
ATOM     11  C   UNL A   1      30.869  27.607  24.357  1.00  0.00     0.086 C 
ATOM     12  C   UNL A   1      32.858  27.356  23.025  1.00  0.00     0.027 C 
ATOM     13  C   UNL A   1      33.275  29.171  24.757  1.00  0.00     0.029 C 
ATOM     14  C   UNL A   1      31.658  26.572  23.561  1.00  0.00     0.027 C 
ATOM     15  C   UNL A   1      31.389  27.723  25.796  1.00  0.00     0.029 C 
BRANCH   9  16
ATOM     16  C   UNL A   1      30.333  29.297  22.647  1.00  0.00     0.280 C 
ATOM     17  O   UNL A   1      30.712  29.235  21.474  1.00  0.00    -0.267 OA
BRANCH  16  18
ATOM     18  C   UNL A   1      29.053  29.880  23.043  1.00  0.00     0.216 A 
ATOM     19  C   UNL A   1      28.738  31.088  23.721  1.00  0.00     0.201 A 
ATOM     20  N   UNL A   1      27.420  31.197  23.855  1.00  0.00    -0.032 NA
ATOM     21  O   UNL A   1      26.899  30.052  23.274  1.00  0.00    -0.242 OA
ATOM     22  N   UNL A   1      27.904  29.234  22.786  1.00  0.00    -0.042 NA
BRANCH  19  23
ATOM     23  N   UNL A   1      29.593  32.004  24.207  1.00  0.00    -0.379 N 
ATOM     24  H   UNL A   1      30.429  32.201  23.727  1.00  0.00     0.158 HD
ATOM     25  H   UNL A   1      29.383  32.478  25.044  1.00  0.00     0.158 HD
ENDBRANCH  19  23
ENDBRANCH  16  18
ENDBRANCH   9  16
ENDBRANCH   7   8
ENDBRANCH   4   7
ENDBRANCH   2   3
ENDBRANCH   1   2
BRANCH   1  26
ATOM     26  C   UNL A   1      35.644  33.812  28.740  1.00  0.00     0.002 C 
BRANCH  26  27
ATOM     27  C   UNL A   1      34.748  34.918  28.172  1.00  0.00     0.002 C 
BRANCH  27  28
ATOM     28  C   UNL A   1      33.425  35.159  28.910  1.00  0.00     0.021 C 
BRANCH  28  29
ATOM     29  C   UNL A   1      33.346  36.440  29.741  1.00  0.00     0.116 C 
BRANCH  29  30
ATOM     30  N   UNL A   1      32.403  36.333  30.841  1.00  0.00    -0.352 N 
ATOM     31  C   UNL A   1      32.478  35.619  32.012  1.00  0.00     0.251 C 
ATOM     32  H   UNL A   1      31.577  36.857  30.729  1.00  0.00     0.163 HD
ATOM     33  O   UNL A   1      31.494  35.532  32.737  1.00  0.00    -0.269 OA
BRANCH  31  34
ATOM     34  C   UNL A   1      33.733  34.935  32.402  1.00  0.00     0.039 A 
ATOM     35  C   UNL A   1      33.657  33.621  32.875  1.00  0.00     0.014 A 
ATOM     36  C   UNL A   1      34.965  35.593  32.360  1.00  0.00     0.014 A 
ATOM     37  C   UNL A   1      34.821  32.946  33.253  1.00  0.00     0.010 A 
ATOM     38  C   UNL A   1      36.133  34.903  32.689  1.00  0.00     0.010 A 
ATOM     39  C   UNL A   1      36.071  33.575  33.139  1.00  0.00    -0.014 A 
BRANCH  39  40
ATOM     40  C   UNL A   1      37.323  32.860  33.493  1.00  0.00     0.031 A 
ATOM     41  C   UNL A   1      38.023  33.151  34.790  1.00  0.00     0.074 A 
ATOM     42  C   UNL A   1      37.865  31.991  32.619  1.00  0.00     0.049 A 
ATOM     43  N   UNL A   1      39.157  32.680  35.245  1.00  0.00    -0.248 NA
ATOM     44  C   UNL A   1      37.371  34.117  35.686  1.00  0.00     0.031 C 
ATOM     45  C   UNL A   1      37.301  31.645  31.313  1.00  0.00     0.029 A 
ATOM     46  N   UNL A   1      39.016  31.248  32.693  1.00  0.00    -0.354 N 
ATOM     47  C   UNL A   1      39.366  33.310  36.463  1.00  0.00     0.074 A 
ATOM     48  C   UNL A   1      38.258  34.220  36.665  1.00  0.00     0.031 C 
ATOM     49  C   UNL A   1      38.096  30.741  30.719  1.00  0.00     0.029 A 
ATOM     50  C   UNL A   1      39.240  30.468  31.586  1.00  0.00     0.049 A 
ATOM     51  H   UNL A   1      39.625  31.272  33.467  1.00  0.00     0.167 HD
ATOM     52  C   UNL A   1      40.383  33.133  37.342  1.00  0.00     0.037 A 
ATOM     53  C   UNL A   1      40.252  29.629  31.302  1.00  0.00     0.037 A 
ATOM     54  C   UNL A   1      41.462  32.200  37.163  1.00  0.00     0.049 A 
ATOM     55  C   UNL A   1      41.367  29.451  32.294  1.00  0.00     0.074 A 
ATOM     56  C   UNL A   1      42.490  31.888  38.036  1.00  0.00     0.029 A 
ATOM     57  N   UNL A   1      41.654  31.426  36.028  1.00  0.00    -0.354 N 
ATOM     58  N   UNL A   1      41.521  30.002  33.472  1.00  0.00    -0.248 NA
ATOM     59  C   UNL A   1      42.449  28.530  31.914  1.00  0.00     0.031 C 
ATOM     60  C   UNL A   1      43.323  30.948  37.417  1.00  0.00     0.029 A 
ATOM     61  C   UNL A   1      42.795  30.652  36.170  1.00  0.00     0.049 A 
ATOM     62  H   UNL A   1      41.067  31.427  35.238  1.00  0.00     0.167 HD
ATOM     63  C   UNL A   1      42.700  29.481  33.986  1.00  0.00     0.074 A 
ATOM     64  C   UNL A   1      43.220  28.563  32.993  1.00  0.00     0.031 C 
ATOM     65  C   UNL A   1      43.295  29.739  35.176  1.00  0.00     0.037 A 
BRANCH  52  66
ATOM     66  C   UNL A   1      40.371  33.976  38.583  1.00  0.00     0.064 A 
ATOM     67  C   UNL A   1      39.679  33.577  39.736  1.00  0.00     0.173 A 
ATOM     68  C   UNL A   1      41.070  35.192  38.623  1.00  0.00     0.173 A 
ATOM     69  F   UNL A   1      38.984  32.429  39.742  1.00  0.00    -0.203 F 
ATOM     70  C   UNL A   1      39.662  34.378  40.874  1.00  0.00     0.198 A 
ATOM     71  C   UNL A   1      41.071  35.979  39.771  1.00  0.00     0.198 A 
ATOM     72  F   UNL A   1      41.752  35.615  37.548  1.00  0.00    -0.203 F 
ATOM     73  F   UNL A   1      38.953  34.001  41.947  1.00  0.00    -0.200 F 
ATOM     74  C   UNL A   1      40.360  35.576  40.892  1.00  0.00     0.200 A 
ATOM     75  F   UNL A   1      41.753  37.133  39.790  1.00  0.00    -0.200 F 
ATOM     76  F   UNL A   1      40.340  36.348  41.987  1.00  0.00    -0.200 F 
ENDBRANCH  52  66
BRANCH  53  77
ATOM     77  C   UNL A   1      40.232  28.855  30.036  1.00  0.00     0.064 A 
ATOM     78  C   UNL A   1      39.599  27.607  29.978  1.00  0.00     0.173 A 
ATOM     79  C   UNL A   1      40.823  29.348  28.865  1.00  0.00     0.173 A 
ATOM     80  F   UNL A   1      39.039  27.088  31.081  1.00  0.00    -0.203 F 
ATOM     81  C   UNL A   1      39.562  26.875  28.794  1.00  0.00     0.198 A 
ATOM     82  C   UNL A   1      40.768  28.624  27.677  1.00  0.00     0.198 A 
ATOM     83  F   UNL A   1      41.438  30.540  28.873  1.00  0.00    -0.203 F 
ATOM     84  F   UNL A   1      38.972  25.672  28.770  1.00  0.00    -0.200 F 
ATOM     85  C   UNL A   1      40.141  27.387  27.642  1.00  0.00     0.200 A 
ATOM     86  F   UNL A   1      41.320  29.124  26.563  1.00  0.00    -0.200 F 
ATOM     87  F   UNL A   1      40.098  26.687  26.500  1.00  0.00    -0.200 F 
ENDBRANCH  53  77
BRANCH  65  88
ATOM     88  C   UNL A   1      44.559  28.994  35.483  1.00  0.00     0.064 A 
ATOM     89  C   UNL A   1      44.536  27.741  36.112  1.00  0.00     0.173 A 
ATOM     90  C   UNL A   1      45.804  29.525  35.113  1.00  0.00     0.173 A 
ATOM     91  F   UNL A   1      43.371  27.203  36.500  1.00  0.00    -0.203 F 
ATOM     92  C   UNL A   1      45.717  27.053  36.375  1.00  0.00     0.198 A 
ATOM     93  C   UNL A   1      46.981  28.824  35.358  1.00  0.00     0.198 A 
ATOM     94  F   UNL A   1      45.876  30.719  34.507  1.00  0.00    -0.203 F 
ATOM     95  F   UNL A   1      45.676  25.874  37.010  1.00  0.00    -0.200 F 
ATOM     96  C   UNL A   1      46.937  27.592  35.994  1.00  0.00     0.200 A 
ATOM     97  F   UNL A   1      48.159  29.342  34.983  1.00  0.00    -0.200 F 
ATOM     98  F   UNL A   1      48.073  26.926  36.245  1.00  0.00    -0.200 F 
ENDBRANCH  65  88
ENDBRANCH  39  40
ENDBRANCH  31  34
ENDBRANCH  29  30
ENDBRANCH  28  29
ENDBRANCH  27  28
ENDBRANCH  26  27
ENDBRANCH   1  26
TORSDOF 17
ENDMDL
MODEL 2
REMARK VINA RESULT:     -11.7      7.824     13.068
REMARK SMILES Nc1nonc1C(=O)N1[C@@H]2CC[C@H]1C[C@H](CC(=O)NCCCCCCNC(=O)c1ccc(-c3c4nc(c(-c5c(F)c(F)c(F)c(F)c5F)c5ccc([nH]5)c(-c5c(F)c(F)c(F)c(F)c5F)c5nc(c(-c6c(F)c(F)c(F)c(F)c6F)c6ccc3[nH]6)C=C5)C=C4)cc1)C2
REMARK SMILES IDX 21 1 20 2 19 3 17 4 18 5 16 7 15 8 9 9 10 10 13 11 11 12
REMARK SMILES IDX 92 13 12 14 14 15 7 16 8 17 6 18 2 19 3 20 4 21 5 22 1 23
REMARK SMILES IDX 22 26 23 27 24 28 25 29 26 30 27 31 28 33 29 34 30 35 91 36
REMARK SMILES IDX 31 37 90 38 32 39 33 40 34 41 84 42 35 43 89 44 83 45 85 46
REMARK SMILES IDX 36 47 88 48 82 49 81 50 37 52 69 53 49 54 68 55 50 56 53 57
REMARK SMILES IDX 67 58 86 59 51 60 52 61 66 63 87 64 54 65 38 66 39 67 47 68
REMARK SMILES IDX 40 69 41 70 45 71 48 72 42 73 43 74 46 75 44 76 70 77 71 78
REMARK SMILES IDX 79 79 72 80 73 81 77 82 80 83 74 84 75 85 78 86 76 87 55 88
REMARK SMILES IDX 56 89 64 90 57 91 58 92 62 93 65 94 59 95 60 96 63 97 61 98
REMARK H PARENT 19 6 1 24 1 25 26 32 85 51 53 62
REMARK Flexibility Score: inf
ROOT
ATOM      1  C   UNL A   1      41.507  21.865  26.295  1.00  0.00     0.021 C 
ENDROOT
BRANCH   1   2
ATOM      2  C   UNL A   1      40.001  21.572  26.333  1.00  0.00     0.116 C 
BRANCH   2   3
ATOM      3  N   UNL A   1      39.258  22.764  26.711  1.00  0.00    -0.356 N 
ATOM      4  C   UNL A   1      38.151  23.340  26.164  1.00  0.00     0.220 C 
ATOM      5  O   UNL A   1      37.794  24.440  26.587  1.00  0.00    -0.275 OA
ATOM      6  H   UNL A   1      39.617  23.236  27.498  1.00  0.00     0.163 HD
BRANCH   4   7
ATOM      7  C   UNL A   1      37.368  22.643  25.069  1.00  0.00     0.103 C 
BRANCH   7   8
ATOM      8  C   UNL A   1      35.838  22.844  25.154  1.00  0.00     0.002 C 
ATOM      9  N   UNL A   1      33.794  20.856  24.833  1.00  0.00    -0.331 N 
ATOM     10  C   UNL A   1      33.840  21.532  26.123  1.00  0.00     0.086 C 
ATOM     11  C   UNL A   1      33.749  21.941  23.871  1.00  0.00     0.086 C 
ATOM     12  C   UNL A   1      32.879  22.726  25.974  1.00  0.00     0.027 C 
ATOM     13  C   UNL A   1      35.287  21.989  26.327  1.00  0.00     0.029 C 
ATOM     14  C   UNL A   1      32.750  22.931  24.462  1.00  0.00     0.027 C 
ATOM     15  C   UNL A   1      35.157  22.545  23.795  1.00  0.00     0.029 C 
BRANCH   9  16
ATOM     16  C   UNL A   1      32.915  19.780  24.708  1.00  0.00     0.280 C 
ATOM     17  O   UNL A   1      31.770  19.837  25.163  1.00  0.00    -0.267 OA
BRANCH  16  18
ATOM     18  C   UNL A   1      33.465  18.583  24.074  1.00  0.00     0.216 A 
ATOM     19  C   UNL A   1      32.995  17.789  22.994  1.00  0.00     0.201 A 
ATOM     20  N   UNL A   1      33.845  16.791  22.769  1.00  0.00    -0.032 NA
ATOM     21  O   UNL A   1      34.846  16.944  23.714  1.00  0.00    -0.242 OA
ATOM     22  N   UNL A   1      34.606  18.038  24.527  1.00  0.00    -0.042 NA
BRANCH  19  23
ATOM     23  N   UNL A   1      31.862  17.947  22.290  1.00  0.00    -0.379 N 
ATOM     24  H   UNL A   1      31.857  18.513  21.484  1.00  0.00     0.158 HD
ATOM     25  H   UNL A   1      31.035  17.498  22.580  1.00  0.00     0.158 HD
ENDBRANCH  19  23
ENDBRANCH  16  18
ENDBRANCH   9  16
ENDBRANCH   7   8
ENDBRANCH   4   7
ENDBRANCH   2   3
ENDBRANCH   1   2
BRANCH   1  26
ATOM     26  C   UNL A   1      42.305  21.211  27.423  1.00  0.00     0.002 C 
BRANCH  26  27
ATOM     27  C   UNL A   1      42.000  19.726  27.645  1.00  0.00     0.002 C 
BRANCH  27  28
ATOM     28  C   UNL A   1      42.733  18.742  26.725  1.00  0.00     0.021 C 
BRANCH  28  29
ATOM     29  C   UNL A   1      42.765  19.109  25.241  1.00  0.00     0.116 C 
BRANCH  29  30
ATOM     30  N   UNL A   1      44.019  18.745  24.604  1.00  0.00    -0.352 N 
ATOM     31  C   UNL A   1      45.101  19.519  24.262  1.00  0.00     0.251 C 
ATOM     32  H   UNL A   1      44.107  17.790  24.381  1.00  0.00     0.163 HD
ATOM     33  O   UNL A   1      45.997  19.043  23.576  1.00  0.00    -0.269 OA
BRANCH  31  34
ATOM     34  C   UNL A   1      45.190  20.931  24.699  1.00  0.00     0.039 A 
ATOM     35  C   UNL A   1      45.642  21.201  25.995  1.00  0.00     0.014 A 
ATOM     36  C   UNL A   1      44.780  21.978  23.870  1.00  0.00     0.014 A 
ATOM     37  C   UNL A   1      45.738  22.523  26.440  1.00  0.00     0.010 A 
ATOM     38  C   UNL A   1      44.923  23.299  24.296  1.00  0.00     0.010 A 
ATOM     39  C   UNL A   1      45.401  23.583  25.585  1.00  0.00    -0.014 A 
BRANCH  39  40
ATOM     40  C   UNL A   1      45.539  24.994  26.024  1.00  0.00     0.031 A 
ATOM     41  C   UNL A   1      46.871  25.686  25.951  1.00  0.00     0.074 A 
ATOM     42  C   UNL A   1      44.478  25.637  26.547  1.00  0.00     0.049 A 
ATOM     43  N   UNL A   1      47.204  26.888  26.347  1.00  0.00    -0.248 NA
ATOM     44  C   UNL A   1      47.981  24.913  25.375  1.00  0.00     0.031 C 
ATOM     45  C   UNL A   1      43.138  25.068  26.702  1.00  0.00     0.029 A 
ATOM     46  N   UNL A   1      44.361  26.907  27.053  1.00  0.00    -0.354 N 
ATOM     47  C   UNL A   1      48.563  27.007  26.093  1.00  0.00     0.074 A 
ATOM     48  C   UNL A   1      49.001  25.743  25.536  1.00  0.00     0.031 C 
ATOM     49  C   UNL A   1      42.330  25.992  27.245  1.00  0.00     0.029 A 
ATOM     50  C   UNL A   1      43.100  27.206  27.504  1.00  0.00     0.049 A 
ATOM     51  H   UNL A   1      45.111  27.544  27.089  1.00  0.00     0.167 HD
ATOM     52  C   UNL A   1      49.370  28.077  26.291  1.00  0.00     0.037 A 
ATOM     53  C   UNL A   1      42.619  28.332  28.063  1.00  0.00     0.037 A 
ATOM     54  C   UNL A   1      48.929  29.346  26.805  1.00  0.00     0.049 A 
ATOM     55  C   UNL A   1      43.534  29.505  28.272  1.00  0.00     0.074 A 
ATOM     56  C   UNL A   1      49.652  30.516  26.960  1.00  0.00     0.029 A 
ATOM     57  N   UNL A   1      47.642  29.611  27.251  1.00  0.00    -0.354 N 
ATOM     58  N   UNL A   1      44.802  29.628  27.967  1.00  0.00    -0.248 NA
ATOM     59  C   UNL A   1      42.948  30.697  28.902  1.00  0.00     0.031 C 
ATOM     60  C   UNL A   1      48.812  31.480  27.529  1.00  0.00     0.029 A 
ATOM     61  C   UNL A   1      47.556  30.919  27.700  1.00  0.00     0.049 A 
ATOM     62  H   UNL A   1      46.900  28.965  27.249  1.00  0.00     0.167 HD
ATOM     63  C   UNL A   1      45.161  30.915  28.344  1.00  0.00     0.074 A 
ATOM     64  C   UNL A   1      43.975  31.536  28.895  1.00  0.00     0.031 C 
ATOM     65  C   UNL A   1      46.367  31.526  28.239  1.00  0.00     0.037 A 
BRANCH  52  66
ATOM     66  C   UNL A   1      50.821  27.916  25.948  1.00  0.00     0.064 A 
ATOM     67  C   UNL A   1      51.289  28.081  24.636  1.00  0.00     0.173 A 
ATOM     68  C   UNL A   1      51.756  27.603  26.946  1.00  0.00     0.173 A 
ATOM     69  F   UNL A   1      50.431  28.367  23.645  1.00  0.00    -0.203 F 
ATOM     70  C   UNL A   1      52.636  27.911  24.330  1.00  0.00     0.198 A 
ATOM     71  C   UNL A   1      53.107  27.457  26.640  1.00  0.00     0.198 A 
ATOM     72  F   UNL A   1      51.360  27.440  28.217  1.00  0.00    -0.203 F 
ATOM     73  F   UNL A   1      53.054  28.025  23.061  1.00  0.00    -0.200 F 
ATOM     74  C   UNL A   1      53.544  27.602  25.332  1.00  0.00     0.200 A 
ATOM     75  F   UNL A   1      53.985  27.167  27.611  1.00  0.00    -0.200 F 
ATOM     76  F   UNL A   1      54.840  27.434  25.035  1.00  0.00    -0.200 F 
ENDBRANCH  52  66
BRANCH  53  77
ATOM     77  C   UNL A   1      41.182  28.417  28.424  1.00  0.00     0.064 A 
ATOM     78  C   UNL A   1      40.741  27.985  29.682  1.00  0.00     0.173 A 
ATOM     79  C   UNL A   1      40.232  28.941  27.538  1.00  0.00     0.173 A 
ATOM     80  F   UNL A   1      41.614  27.458  30.553  1.00  0.00    -0.203 F 
ATOM     81  C   UNL A   1      39.398  28.071  30.040  1.00  0.00     0.198 A 
ATOM     82  C   UNL A   1      38.892  29.044  27.904  1.00  0.00     0.198 A 
ATOM     83  F   UNL A   1      40.610  29.368  26.324  1.00  0.00    -0.203 F 
ATOM     84  F   UNL A   1      38.996  27.628  31.239  1.00  0.00    -0.200 F 
ATOM     85  C   UNL A   1      38.475  28.606  29.153  1.00  0.00     0.200 A 
ATOM     86  F   UNL A   1      38.004  29.569  27.049  1.00  0.00    -0.200 F 
ATOM     87  F   UNL A   1      37.184  28.696  29.500  1.00  0.00    -0.200 F 
ENDBRANCH  53  77
BRANCH  65  88
ATOM     88  C   UNL A   1      46.454  32.949  28.700  1.00  0.00     0.064 A 
ATOM     89  C   UNL A   1      46.817  33.271  30.015  1.00  0.00     0.173 A 
ATOM     90  C   UNL A   1      46.203  34.002  27.807  1.00  0.00     0.173 A 
ATOM     91  F   UNL A   1      47.049  32.298  30.909  1.00  0.00    -0.203 F 
ATOM     92  C   UNL A   1      46.911  34.598  30.425  1.00  0.00     0.198 A 
ATOM     93  C   UNL A   1      46.318  35.327  28.215  1.00  0.00     0.198 A 
ATOM     94  F   UNL A   1      45.853  33.742  26.539  1.00  0.00    -0.203 F 
ATOM     95  F   UNL A   1      47.224  34.884  31.696  1.00  0.00    -0.200 F 
ATOM     96  C   UNL A   1      46.667  35.624  29.524  1.00  0.00     0.200 A 
ATOM     97  F   UNL A   1      46.088  36.317  27.342  1.00  0.00    -0.200 F 
ATOM     98  F   UNL A   1      46.761  36.901  29.920  1.00  0.00    -0.200 F 
ENDBRANCH  65  88
ENDBRANCH  39  40
ENDBRANCH  31  34
ENDBRANCH  29  30
ENDBRANCH  28  29
ENDBRANCH  27  28
ENDBRANCH  26  27
ENDBRANCH   1  26
TORSDOF 17
ENDMDL
MODEL 3
REMARK VINA RESULT:     -11.7      4.685      7.306
REMARK SMILES Nc1nonc1C(=O)N1[C@@H]2CC[C@H]1C[C@H](CC(=O)NCCCCCCNC(=O)c1ccc(-c3c4nc(c(-c5c(F)c(F)c(F)c(F)c5F)c5ccc([nH]5)c(-c5c(F)c(F)c(F)c(F)c5F)c5nc(c(-c6c(F)c(F)c(F)c(F)c6F)c6ccc3[nH]6)C=C5)C=C4)cc1)C2
REMARK SMILES IDX 21 1 20 2 19 3 17 4 18 5 16 7 15 8 9 9 10 10 13 11 11 12
REMARK SMILES IDX 92 13 12 14 14 15 7 16 8 17 6 18 2 19 3 20 4 21 5 22 1 23
REMARK SMILES IDX 22 26 23 27 24 28 25 29 26 30 27 31 28 33 29 34 30 35 91 36
REMARK SMILES IDX 31 37 90 38 32 39 33 40 34 41 84 42 35 43 89 44 83 45 85 46
REMARK SMILES IDX 36 47 88 48 82 49 81 50 37 52 69 53 49 54 68 55 50 56 53 57
REMARK SMILES IDX 67 58 86 59 51 60 52 61 66 63 87 64 54 65 38 66 39 67 47 68
REMARK SMILES IDX 40 69 41 70 45 71 48 72 42 73 43 74 46 75 44 76 70 77 71 78
REMARK SMILES IDX 79 79 72 80 73 81 77 82 80 83 74 84 75 85 78 86 76 87 55 88
REMARK SMILES IDX 56 89 64 90 57 91 58 92 62 93 65 94 59 95 60 96 63 97 61 98
REMARK H PARENT 19 6 1 24 1 25 26 32 85 51 53 62
REMARK Flexibility Score: inf
ROOT
ATOM      1  C   UNL A   1      30.215  28.793  23.465  1.00  0.00     0.021 C 
ENDROOT
BRANCH   1   2
ATOM      2  C   UNL A   1      30.376  27.445  22.752  1.00  0.00     0.116 C 
BRANCH   2   3
ATOM      3  N   UNL A   1      31.634  27.399  22.023  1.00  0.00    -0.356 N 
ATOM      4  C   UNL A   1      32.525  26.384  21.837  1.00  0.00     0.220 C 
ATOM      5  O   UNL A   1      33.599  26.642  21.292  1.00  0.00    -0.275 OA
ATOM      6  H   UNL A   1      31.884  28.247  21.588  1.00  0.00     0.163 HD
BRANCH   4   7
ATOM      7  C   UNL A   1      32.202  24.971  22.280  1.00  0.00     0.103 C 
BRANCH   7   8
ATOM      8  C   UNL A   1      32.238  24.760  23.810  1.00  0.00     0.002 C 
ATOM      9  N   UNL A   1      32.785  22.324  25.226  1.00  0.00    -0.331 N 
ATOM     10  C   UNL A   1      33.698  23.433  25.473  1.00  0.00     0.086 C 
ATOM     11  C   UNL A   1      31.472  22.892  25.469  1.00  0.00     0.086 C 
ATOM     12  C   UNL A   1      33.109  24.160  26.696  1.00  0.00     0.027 C 
ATOM     13  C   UNL A   1      33.667  24.312  24.220  1.00  0.00     0.029 C 
ATOM     14  C   UNL A   1      31.645  23.717  26.741  1.00  0.00     0.027 C 
ATOM     15  C   UNL A   1      31.128  23.781  24.267  1.00  0.00     0.029 C 
BRANCH   9  16
ATOM     16  C   UNL A   1      33.120  21.087  25.778  1.00  0.00     0.280 C 
ATOM     17  O   UNL A   1      33.754  21.012  26.834  1.00  0.00    -0.267 OA
BRANCH  16  18
ATOM     18  C   UNL A   1      32.735  19.917  24.991  1.00  0.00     0.216 A 
ATOM     19  C   UNL A   1      32.575  18.552  25.351  1.00  0.00     0.201 A 
ATOM     20  N   UNL A   1      32.205  17.848  24.285  1.00  0.00    -0.032 NA
ATOM     21  O   UNL A   1      32.141  18.764  23.248  1.00  0.00    -0.242 OA
ATOM     22  N   UNL A   1      32.480  20.035  23.678  1.00  0.00    -0.042 NA
BRANCH  19  23
ATOM     23  N   UNL A   1      32.784  17.989  26.553  1.00  0.00    -0.379 N 
ATOM     24  H   UNL A   1      32.349  17.135  26.779  1.00  0.00     0.158 HD
ATOM     25  H   UNL A   1      33.372  18.430  27.208  1.00  0.00     0.158 HD
ENDBRANCH  19  23
ENDBRANCH  16  18
ENDBRANCH   9  16
ENDBRANCH   7   8
ENDBRANCH   4   7
ENDBRANCH   2   3
ENDBRANCH   1   2
BRANCH   1  26
ATOM     26  C   UNL A   1      31.354  29.138  24.425  1.00  0.00     0.002 C 
BRANCH  26  27
ATOM     27  C   UNL A   1      31.727  28.020  25.405  1.00  0.00     0.002 C 
BRANCH  27  28
ATOM     28  C   UNL A   1      33.225  27.826  25.667  1.00  0.00     0.021 C 
BRANCH  28  29
ATOM     29  C   UNL A   1      33.714  28.202  27.067  1.00  0.00     0.116 C 
BRANCH  29  30
ATOM     30  N   UNL A   1      33.588  29.624  27.337  1.00  0.00    -0.352 N 
ATOM     31  C   UNL A   1      34.452  30.491  27.961  1.00  0.00     0.251 C 
ATOM     32  H   UNL A   1      32.749  30.032  27.023  1.00  0.00     0.163 HD
ATOM     33  O   UNL A   1      34.081  31.625  28.239  1.00  0.00    -0.269 OA
BRANCH  31  34
ATOM     34  C   UNL A   1      35.824  30.065  28.320  1.00  0.00     0.039 A 
ATOM     35  C   UNL A   1      36.831  30.174  27.355  1.00  0.00     0.014 A 
ATOM     36  C   UNL A   1      36.112  29.509  29.570  1.00  0.00     0.014 A 
ATOM     37  C   UNL A   1      38.137  29.781  27.660  1.00  0.00     0.010 A 
ATOM     38  C   UNL A   1      37.425  29.164  29.892  1.00  0.00     0.010 A 
ATOM     39  C   UNL A   1      38.448  29.295  28.940  1.00  0.00    -0.014 A 
BRANCH  39  40
ATOM     40  C   UNL A   1      39.838  28.914  29.297  1.00  0.00     0.031 A 
ATOM     41  C   UNL A   1      40.679  29.824  30.147  1.00  0.00     0.074 A 
ATOM     42  C   UNL A   1      40.366  27.778  28.805  1.00  0.00     0.049 A 
ATOM     43  N   UNL A   1      41.931  29.697  30.509  1.00  0.00    -0.248 NA
ATOM     44  C   UNL A   1      40.031  31.049  30.638  1.00  0.00     0.031 C 
ATOM     45  C   UNL A   1      39.665  26.825  27.943  1.00  0.00     0.029 A 
ATOM     46  N   UNL A   1      41.617  27.236  28.953  1.00  0.00    -0.354 N 
ATOM     47  C   UNL A   1      42.228  30.836  31.245  1.00  0.00     0.074 A 
ATOM     48  C   UNL A   1      41.035  31.656  31.254  1.00  0.00     0.031 C 
ATOM     49  C   UNL A   1      40.489  25.805  27.657  1.00  0.00     0.029 A 
ATOM     50  C   UNL A   1      41.784  26.047  28.288  1.00  0.00     0.049 A 
ATOM     51  H   UNL A   1      42.329  27.659  29.486  1.00  0.00     0.167 HD
ATOM     52  C   UNL A   1      43.385  31.159  31.871  1.00  0.00     0.037 A 
ATOM     53  C   UNL A   1      42.860  25.243  28.197  1.00  0.00     0.037 A 
ATOM     54  C   UNL A   1      44.558  30.326  31.898  1.00  0.00     0.049 A 
ATOM     55  C   UNL A   1      44.131  25.625  28.901  1.00  0.00     0.074 A 
ATOM     56  C   UNL A   1      45.747  30.528  32.577  1.00  0.00     0.029 A 
ATOM     57  N   UNL A   1      44.688  29.128  31.213  1.00  0.00    -0.354 N 
ATOM     58  N   UNL A   1      44.380  26.671  29.649  1.00  0.00    -0.248 NA
ATOM     59  C   UNL A   1      45.272  24.710  28.747  1.00  0.00     0.031 C 
ATOM     60  C   UNL A   1      46.610  29.467  32.277  1.00  0.00     0.029 A 
ATOM     61  C   UNL A   1      45.945  28.589  31.436  1.00  0.00     0.049 A 
ATOM     62  H   UNL A   1      43.990  28.720  30.651  1.00  0.00     0.167 HD
ATOM     63  C   UNL A   1      45.694  26.531  30.075  1.00  0.00     0.074 A 
ATOM     64  C   UNL A   1      46.189  25.294  29.507  1.00  0.00     0.031 C 
ATOM     65  C   UNL A   1      46.421  27.354  30.869  1.00  0.00     0.037 A 
BRANCH  52  66
ATOM     66  C   UNL A   1      43.436  32.481  32.580  1.00  0.00     0.064 A 
ATOM     67  C   UNL A   1      43.823  33.655  31.919  1.00  0.00     0.173 A 
ATOM     68  C   UNL A   1      43.081  32.574  33.934  1.00  0.00     0.173 A 
ATOM     69  F   UNL A   1      44.185  33.614  30.627  1.00  0.00    -0.203 F 
ATOM     70  C   UNL A   1      43.883  34.870  32.594  1.00  0.00     0.198 A 
ATOM     71  C   UNL A   1      43.118  33.796  34.601  1.00  0.00     0.198 A 
ATOM     72  F   UNL A   1      42.698  31.480  34.610  1.00  0.00    -0.203 F 
ATOM     73  F   UNL A   1      44.303  35.971  31.955  1.00  0.00    -0.200 F 
ATOM     74  C   UNL A   1      43.527  34.941  33.933  1.00  0.00     0.200 A 
ATOM     75  F   UNL A   1      42.767  33.864  35.892  1.00  0.00    -0.200 F 
ATOM     76  F   UNL A   1      43.589  36.111  34.583  1.00  0.00    -0.200 F 
ENDBRANCH  52  66
BRANCH  53  77
ATOM     77  C   UNL A   1      42.763  23.969  27.443  1.00  0.00     0.064 A 
ATOM     78  C   UNL A   1      43.134  23.915  26.093  1.00  0.00     0.173 A 
ATOM     79  C   UNL A   1      42.320  22.787  28.051  1.00  0.00     0.173 A 
ATOM     80  F   UNL A   1      43.544  25.027  25.466  1.00  0.00    -0.203 F 
ATOM     81  C   UNL A   1      43.060  22.724  25.375  1.00  0.00     0.198 A 
ATOM     82  C   UNL A   1      42.265  21.592  27.338  1.00  0.00     0.198 A 
ATOM     83  F   UNL A   1      41.957  22.791  29.342  1.00  0.00    -0.203 F 
ATOM     84  F   UNL A   1      43.397  22.703  24.079  1.00  0.00    -0.200 F 
ATOM     85  C   UNL A   1      42.632  21.561  26.000  1.00  0.00     0.200 A 
ATOM     86  F   UNL A   1      41.860  20.468  27.945  1.00  0.00    -0.200 F 
ATOM     87  F   UNL A   1      42.569  20.413  25.312  1.00  0.00    -0.200 F 
ENDBRANCH  53  77
BRANCH  65  88
ATOM     88  C   UNL A   1      47.819  26.926  31.196  1.00  0.00     0.064 A 
ATOM     89  C   UNL A   1      48.084  26.024  32.236  1.00  0.00     0.173 A 
ATOM     90  C   UNL A   1      48.903  27.399  30.440  1.00  0.00     0.173 A 
ATOM     91  F   UNL A   1      47.083  25.559  32.998  1.00  0.00    -0.203 F 
ATOM     92  C   UNL A   1      49.388  25.622  32.518  1.00  0.00     0.198 A 
ATOM     93  C   UNL A   1      50.201  26.979  30.710  1.00  0.00     0.198 A 
ATOM     94  F   UNL A   1      48.698  28.263  29.434  1.00  0.00    -0.203 F 
ATOM     95  F   UNL A   1      49.623  24.787  33.539  1.00  0.00    -0.200 F 
ATOM     96  C   UNL A   1      50.443  26.095  31.752  1.00  0.00     0.200 A 
ATOM     97  F   UNL A   1      51.219  27.431  29.966  1.00  0.00    -0.200 F 
ATOM     98  F   UNL A   1      51.696  25.704  32.022  1.00  0.00    -0.200 F 
ENDBRANCH  65  88
ENDBRANCH  39  40
ENDBRANCH  31  34
ENDBRANCH  29  30
ENDBRANCH  28  29
ENDBRANCH  27  28
ENDBRANCH  26  27
ENDBRANCH   1  26
TORSDOF 17
ENDMDL
