MODEL 1
REMARK VINA RESULT:     -12.5      0.000      0.000
REMARK SMILES C/C(=N/OCc1ccccc1Nc1c(Cl)cccc1Cl)C(=O)NCCCCCCNC(=O)c1ccc(-c2c3nc(c(-c4c(F)c(F)c(F)c(F)c4F)c4ccc([nH]4)c(-c4c(F)c(F)c(F)c(F)c4F)c4nc(c(-c5c(F)c(F)c(F)c(F)c5F)c5ccc2[nH]5)C=C4)C=C3)cc1
REMARK SMILES IDX 25 1 24 2 23 3 21 4 22 5 2 7 1 8 3 9 4 10 5 11 6 12 7 13
REMARK SMILES IDX 11 14 8 15 10 16 9 17 12 18 13 20 14 21 19 22 15 23 16 24
REMARK SMILES IDX 18 25 20 26 17 27 26 28 27 29 28 30 29 31 30 32 31 33 32 35
REMARK SMILES IDX 33 36 34 37 95 38 35 39 94 40 36 41 37 42 38 43 88 44 39 45
REMARK SMILES IDX 93 46 87 47 89 48 40 49 92 50 86 51 85 52 41 54 73 55 53 56
REMARK SMILES IDX 72 57 54 58 57 59 71 60 90 61 55 62 56 63 70 65 91 66 58 67
REMARK SMILES IDX 42 68 43 69 51 70 44 71 45 72 49 73 52 74 46 75 47 76 50 77
REMARK SMILES IDX 48 78 74 79 75 80 83 81 76 82 77 83 81 84 84 85 78 86 79 87
REMARK SMILES IDX 82 88 80 89 59 90 60 91 68 92 61 93 62 94 66 95 69 96 63 97
REMARK SMILES IDX 64 98 67 99 65 100
REMARK H PARENT 23 6 12 19 30 34 89 53 57 64
REMARK Flexibility Score: inf
ROOT
ATOM      1  C   UNL A   1      33.095  28.458  27.091  1.00  0.00     0.021 C 
ENDROOT
BRANCH   1   2
ATOM      2  C   UNL A   1      33.840  27.569  26.089  1.00  0.00     0.116 C 
BRANCH   2   3
ATOM      3  N   UNL A   1      32.987  27.239  24.979  1.00  0.00    -0.351 N 
ATOM      4  C   UNL A   1      32.084  26.229  24.781  1.00  0.00     0.268 C 
ATOM      5  O   UNL A   1      31.585  26.147  23.656  1.00  0.00    -0.268 OA
ATOM      6  H   UNL A   1      33.069  27.856  24.216  1.00  0.00     0.163 HD
BRANCH   4   7
ATOM      7  C   UNL A   1      31.549  25.265  25.837  1.00  0.00     0.141 C 
ATOM      8  C   UNL A   1      30.050  25.382  26.040  1.00  0.00     0.077 C 
ATOM      9  N   UNL A   1      32.141  24.340  26.538  1.00  0.00    -0.086 NA
BRANCH   9  10
ATOM     10  O   UNL A   1      33.507  24.227  26.343  1.00  0.00    -0.390 OA
BRANCH  10  11
ATOM     11  C   UNL A   1      33.989  22.933  26.751  1.00  0.00     0.302 C 
BRANCH  11  12
ATOM     12  C   UNL A   1      35.254  22.387  26.099  1.00  0.00     0.016 A 
ATOM     13  C   UNL A   1      36.351  23.274  26.029  1.00  0.00     0.009 A 
ATOM     14  C   UNL A   1      35.405  21.071  25.601  1.00  0.00     0.045 A 
ATOM     15  C   UNL A   1      37.560  22.894  25.452  1.00  0.00     0.001 A 
ATOM     16  C   UNL A   1      36.610  20.744  24.949  1.00  0.00     0.026 A 
ATOM     17  C   UNL A   1      37.683  21.633  24.893  1.00  0.00     0.002 A 
BRANCH  14  18
ATOM     18  N   UNL A   1      34.375  20.108  25.685  1.00  0.00    -0.353 N 
ATOM     19  H   UNL A   1      34.073  19.884  26.595  1.00  0.00     0.167 HD
BRANCH  18  20
ATOM     20  C   UNL A   1      33.717  19.421  24.633  1.00  0.00     0.076 A 
ATOM     21  C   UNL A   1      34.140  18.134  24.238  1.00  0.00     0.066 A 
ATOM     22  C   UNL A   1      32.711  20.033  23.855  1.00  0.00     0.066 A 
ATOM     23  Cl  UNL A   1      35.382  17.284  25.090  1.00  0.00    -0.082 Cl
ATOM     24  C   UNL A   1      33.547  17.469  23.156  1.00  0.00     0.023 A 
ATOM     25  C   UNL A   1      32.097  19.354  22.794  1.00  0.00     0.023 A 
ATOM     26  Cl  UNL A   1      32.197  21.662  24.146  1.00  0.00    -0.082 Cl
ATOM     27  C   UNL A   1      32.515  18.071  22.444  1.00  0.00     0.003 A 
ENDBRANCH  18  20
ENDBRANCH  14  18
ENDBRANCH  11  12
ENDBRANCH  10  11
ENDBRANCH   9  10
ENDBRANCH   4   7
ENDBRANCH   2   3
ENDBRANCH   1   2
BRANCH   1  28
ATOM     28  C   UNL A   1      33.124  29.934  26.689  1.00  0.00     0.002 C 
BRANCH  28  29
ATOM     29  C   UNL A   1      31.748  30.499  26.314  1.00  0.00     0.002 C 
BRANCH  29  30
ATOM     30  C   UNL A   1      31.554  31.987  26.621  1.00  0.00     0.021 C 
BRANCH  30  31
ATOM     31  C   UNL A   1      32.710  32.626  27.387  1.00  0.00     0.116 C 
BRANCH  31  32
ATOM     32  N   UNL A   1      32.472  34.042  27.632  1.00  0.00    -0.352 N 
ATOM     33  C   UNL A   1      33.005  34.862  28.593  1.00  0.00     0.251 C 
ATOM     34  H   UNL A   1      31.836  34.473  27.016  1.00  0.00     0.163 HD
ATOM     35  O   UNL A   1      32.505  35.957  28.824  1.00  0.00    -0.269 OA
BRANCH  33  36
ATOM     36  C   UNL A   1      34.182  34.411  29.359  1.00  0.00     0.039 A 
ATOM     37  C   UNL A   1      33.997  33.842  30.621  1.00  0.00     0.014 A 
ATOM     38  C   UNL A   1      35.466  34.551  28.826  1.00  0.00     0.014 A 
ATOM     39  C   UNL A   1      35.098  33.340  31.318  1.00  0.00     0.010 A 
ATOM     40  C   UNL A   1      36.552  33.989  29.489  1.00  0.00     0.010 A 
ATOM     41  C   UNL A   1      36.376  33.371  30.736  1.00  0.00    -0.014 A 
BRANCH  41  42
ATOM     42  C   UNL A   1      37.539  32.728  31.395  1.00  0.00     0.031 A 
ATOM     43  C   UNL A   1      38.218  31.553  30.752  1.00  0.00     0.074 A 
ATOM     44  C   UNL A   1      37.920  33.151  32.616  1.00  0.00     0.049 A 
ATOM     45  N   UNL A   1      39.176  30.794  31.220  1.00  0.00    -0.248 NA
ATOM     46  C   UNL A   1      37.740  31.163  29.418  1.00  0.00     0.031 C 
ATOM     47  C   UNL A   1      37.307  34.254  33.357  1.00  0.00     0.029 A 
ATOM     48  N   UNL A   1      38.901  32.690  33.458  1.00  0.00    -0.354 N 
ATOM     49  C   UNL A   1      39.406  29.833  30.245  1.00  0.00     0.074 A 
ATOM     50  C   UNL A   1      38.455  30.073  29.181  1.00  0.00     0.031 C 
ATOM     51  C   UNL A   1      37.933  34.394  34.535  1.00  0.00     0.029 A 
ATOM     52  C   UNL A   1      38.959  33.362  34.654  1.00  0.00     0.049 A 
ATOM     53  H   UNL A   1      39.507  31.948  33.226  1.00  0.00     0.167 HD
ATOM     54  C   UNL A   1      40.340  28.852  30.233  1.00  0.00     0.037 A 
ATOM     55  C   UNL A   1      39.737  33.157  35.734  1.00  0.00     0.037 A 
ATOM     56  C   UNL A   1      41.292  28.631  31.291  1.00  0.00     0.049 A 
ATOM     57  C   UNL A   1      40.742  32.037  35.708  1.00  0.00     0.074 A 
ATOM     58  C   UNL A   1      42.321  27.708  31.345  1.00  0.00     0.029 A 
ATOM     59  N   UNL A   1      41.321  29.335  32.486  1.00  0.00    -0.354 N 
ATOM     60  N   UNL A   1      41.004  31.182  34.749  1.00  0.00    -0.248 NA
ATOM     61  C   UNL A   1      41.559  31.853  36.915  1.00  0.00     0.031 C 
ATOM     62  C   UNL A   1      42.936  27.812  32.596  1.00  0.00     0.029 A 
ATOM     63  C   UNL A   1      42.329  28.840  33.300  1.00  0.00     0.049 A 
ATOM     64  H   UNL A   1      40.717  30.075  32.722  1.00  0.00     0.167 HD
ATOM     65  C   UNL A   1      42.027  30.375  35.225  1.00  0.00     0.074 A 
ATOM     66  C   UNL A   1      42.352  30.853  36.553  1.00  0.00     0.031 C 
ATOM     67  C   UNL A   1      42.640  29.329  34.619  1.00  0.00     0.037 A 
BRANCH  54  68
ATOM     68  C   UNL A   1      40.379  27.941  29.040  1.00  0.00     0.064 A 
ATOM     69  C   UNL A   1      39.649  26.743  29.003  1.00  0.00     0.173 A 
ATOM     70  C   UNL A   1      41.122  28.291  27.902  1.00  0.00     0.173 A 
ATOM     71  F   UNL A   1      38.930  26.357  30.068  1.00  0.00    -0.203 F 
ATOM     72  C   UNL A   1      39.684  25.917  27.882  1.00  0.00     0.198 A 
ATOM     73  C   UNL A   1      41.128  27.478  26.772  1.00  0.00     0.198 A 
ATOM     74  F   UNL A   1      41.833  29.428  27.880  1.00  0.00    -0.203 F 
ATOM     75  F   UNL A   1      39.017  24.754  27.889  1.00  0.00    -0.200 F 
ATOM     76  C   UNL A   1      40.416  26.288  26.766  1.00  0.00     0.200 A 
ATOM     77  F   UNL A   1      41.824  27.845  25.687  1.00  0.00    -0.200 F 
ATOM     78  F   UNL A   1      40.440  25.496  25.684  1.00  0.00    -0.200 F 
ENDBRANCH  54  68
BRANCH  55  79
ATOM     79  C   UNL A   1      39.597  34.032  36.927  1.00  0.00     0.064 A 
ATOM     80  C   UNL A   1      38.815  33.636  38.021  1.00  0.00     0.173 A 
ATOM     81  C   UNL A   1      40.237  35.277  37.001  1.00  0.00     0.173 A 
ATOM     82  F   UNL A   1      38.165  32.462  37.989  1.00  0.00    -0.203 F 
ATOM     83  C   UNL A   1      38.663  34.461  39.134  1.00  0.00     0.198 A 
ATOM     84  C   UNL A   1      40.110  36.088  38.127  1.00  0.00     0.198 A 
ATOM     85  F   UNL A   1      41.000  35.701  35.983  1.00  0.00    -0.203 F 
ATOM     86  F   UNL A   1      37.872  34.077  40.145  1.00  0.00    -0.200 F 
ATOM     87  C   UNL A   1      39.316  35.682  39.189  1.00  0.00     0.200 A 
ATOM     88  F   UNL A   1      40.755  37.261  38.183  1.00  0.00    -0.200 F 
ATOM     89  F   UNL A   1      39.174  36.472  40.261  1.00  0.00    -0.200 F 
ENDBRANCH  55  79
BRANCH  67  90
ATOM     90  C   UNL A   1      43.740  28.642  35.375  1.00  0.00     0.064 A 
ATOM     91  C   UNL A   1      45.079  29.040  35.245  1.00  0.00     0.173 A 
ATOM     92  C   UNL A   1      43.445  27.613  36.283  1.00  0.00     0.173 A 
ATOM     93  F   UNL A   1      45.415  30.007  34.379  1.00  0.00    -0.203 F 
ATOM     94  C   UNL A   1      46.084  28.420  35.983  1.00  0.00     0.198 A 
ATOM     95  C   UNL A   1      44.448  27.017  37.041  1.00  0.00     0.198 A 
ATOM     96  F   UNL A   1      42.180  27.199  36.448  1.00  0.00    -0.203 F 
ATOM     97  F   UNL A   1      47.362  28.786  35.812  1.00  0.00    -0.200 F 
ATOM     98  C   UNL A   1      45.767  27.416  36.887  1.00  0.00     0.200 A 
ATOM     99  F   UNL A   1      44.138  26.059  37.926  1.00  0.00    -0.200 F 
ATOM    100  F   UNL A   1      46.735  26.831  37.607  1.00  0.00    -0.200 F 
ENDBRANCH  67  90
ENDBRANCH  41  42
ENDBRANCH  33  36
ENDBRANCH  31  32
ENDBRANCH  30  31
ENDBRANCH  29  30
ENDBRANCH  28  29
ENDBRANCH   1  28
TORSDOF 18
ENDMDL
MODEL 2
REMARK VINA RESULT:     -12.5      0.900      2.190
REMARK SMILES C/C(=N/OCc1ccccc1Nc1c(Cl)cccc1Cl)C(=O)NCCCCCCNC(=O)c1ccc(-c2c3nc(c(-c4c(F)c(F)c(F)c(F)c4F)c4ccc([nH]4)c(-c4c(F)c(F)c(F)c(F)c4F)c4nc(c(-c5c(F)c(F)c(F)c(F)c5F)c5ccc2[nH]5)C=C4)C=C3)cc1
REMARK SMILES IDX 25 1 24 2 23 3 21 4 22 5 2 7 1 8 3 9 4 10 5 11 6 12 7 13
REMARK SMILES IDX 11 14 8 15 10 16 9 17 12 18 13 20 14 21 19 22 15 23 16 24
REMARK SMILES IDX 18 25 20 26 17 27 26 28 27 29 28 30 29 31 30 32 31 33 32 35
REMARK SMILES IDX 33 36 34 37 95 38 35 39 94 40 36 41 37 42 38 43 88 44 39 45
REMARK SMILES IDX 93 46 87 47 89 48 40 49 92 50 86 51 85 52 41 54 73 55 53 56
REMARK SMILES IDX 72 57 54 58 57 59 71 60 90 61 55 62 56 63 70 65 91 66 58 67
REMARK SMILES IDX 42 68 43 69 51 70 44 71 45 72 49 73 52 74 46 75 47 76 50 77
REMARK SMILES IDX 48 78 74 79 75 80 83 81 76 82 77 83 81 84 84 85 78 86 79 87
REMARK SMILES IDX 82 88 80 89 59 90 60 91 68 92 61 93 62 94 66 95 69 96 63 97
REMARK SMILES IDX 64 98 67 99 65 100
REMARK H PARENT 23 6 12 19 30 34 89 53 57 64
REMARK Flexibility Score: inf
ROOT
ATOM      1  C   UNL A   1      31.752  28.292  27.514  1.00  0.00     0.021 C 
ENDROOT
BRANCH   1   2
ATOM      2  C   UNL A   1      31.840  27.249  26.395  1.00  0.00     0.116 C 
BRANCH   2   3
ATOM      3  N   UNL A   1      31.231  26.013  26.809  1.00  0.00    -0.351 N 
ATOM      4  C   UNL A   1      30.616  25.011  26.107  1.00  0.00     0.268 C 
ATOM      5  O   UNL A   1      30.083  24.120  26.772  1.00  0.00    -0.268 OA
ATOM      6  H   UNL A   1      31.261  25.861  27.780  1.00  0.00     0.163 HD
BRANCH   4   7
ATOM      7  C   UNL A   1      30.619  24.823  24.593  1.00  0.00     0.141 C 
ATOM      8  C   UNL A   1      29.832  25.895  23.861  1.00  0.00     0.077 C 
ATOM      9  N   UNL A   1      31.217  23.948  23.834  1.00  0.00    -0.086 NA
BRANCH   9  10
ATOM     10  O   UNL A   1      31.944  22.977  24.503  1.00  0.00    -0.390 OA
BRANCH  10  11
ATOM     11  C   UNL A   1      32.757  22.213  23.593  1.00  0.00     0.302 C 
BRANCH  11  12
ATOM     12  C   UNL A   1      32.843  20.703  23.784  1.00  0.00     0.016 A 
ATOM     13  C   UNL A   1      32.208  19.915  22.798  1.00  0.00     0.009 A 
ATOM     14  C   UNL A   1      33.527  20.057  24.841  1.00  0.00     0.045 A 
ATOM     15  C   UNL A   1      32.212  18.523  22.864  1.00  0.00     0.001 A 
ATOM     16  C   UNL A   1      33.442  18.654  24.925  1.00  0.00     0.026 A 
ATOM     17  C   UNL A   1      32.814  17.893  23.940  1.00  0.00     0.002 A 
BRANCH  14  18
ATOM     18  N   UNL A   1      34.233  20.774  25.834  1.00  0.00    -0.353 N 
ATOM     19  H   UNL A   1      33.888  20.683  26.751  1.00  0.00     0.167 HD
BRANCH  18  20
ATOM     20  C   UNL A   1      35.371  21.606  25.683  1.00  0.00     0.076 A 
ATOM     21  C   UNL A   1      36.610  21.065  25.278  1.00  0.00     0.066 A 
ATOM     22  C   UNL A   1      35.356  22.968  26.053  1.00  0.00     0.066 A 
ATOM     23  Cl  UNL A   1      36.772  19.404  24.825  1.00  0.00    -0.082 Cl
ATOM     24  C   UNL A   1      37.762  21.859  25.191  1.00  0.00     0.023 A 
ATOM     25  C   UNL A   1      36.501  23.768  25.933  1.00  0.00     0.023 A 
ATOM     26  Cl  UNL A   1      33.935  23.722  26.698  1.00  0.00    -0.082 Cl
ATOM     27  C   UNL A   1      37.704  23.214  25.502  1.00  0.00     0.003 A 
ENDBRANCH  18  20
ENDBRANCH  14  18
ENDBRANCH  11  12
ENDBRANCH  10  11
ENDBRANCH   9  10
ENDBRANCH   4   7
ENDBRANCH   2   3
ENDBRANCH   1   2
BRANCH   1  28
ATOM     28  C   UNL A   1      32.518  29.572  27.174  1.00  0.00     0.002 C 
BRANCH  28  29
ATOM     29  C   UNL A   1      31.796  30.474  26.165  1.00  0.00     0.002 C 
BRANCH  29  30
ATOM     30  C   UNL A   1      31.524  31.901  26.652  1.00  0.00     0.021 C 
BRANCH  30  31
ATOM     31  C   UNL A   1      32.716  32.570  27.332  1.00  0.00     0.116 C 
BRANCH  31  32
ATOM     32  N   UNL A   1      32.464  33.983  27.583  1.00  0.00    -0.352 N 
ATOM     33  C   UNL A   1      32.986  34.802  28.552  1.00  0.00     0.251 C 
ATOM     34  H   UNL A   1      31.828  34.412  26.967  1.00  0.00     0.163 HD
ATOM     35  O   UNL A   1      32.476  35.891  28.787  1.00  0.00    -0.269 OA
BRANCH  33  36
ATOM     36  C   UNL A   1      34.163  34.357  29.322  1.00  0.00     0.039 A 
ATOM     37  C   UNL A   1      33.975  33.757  30.569  1.00  0.00     0.014 A 
ATOM     38  C   UNL A   1      35.450  34.532  28.806  1.00  0.00     0.014 A 
ATOM     39  C   UNL A   1      35.077  33.261  31.267  1.00  0.00     0.010 A 
ATOM     40  C   UNL A   1      36.539  33.976  29.469  1.00  0.00     0.010 A 
ATOM     41  C   UNL A   1      36.361  33.328  30.701  1.00  0.00    -0.014 A 
BRANCH  41  42
ATOM     42  C   UNL A   1      37.529  32.693  31.359  1.00  0.00     0.031 A 
ATOM     43  C   UNL A   1      38.205  31.512  30.724  1.00  0.00     0.074 A 
ATOM     44  C   UNL A   1      37.917  33.128  32.573  1.00  0.00     0.049 A 
ATOM     45  N   UNL A   1      39.166  30.759  31.193  1.00  0.00    -0.248 NA
ATOM     46  C   UNL A   1      37.719  31.109  29.396  1.00  0.00     0.031 C 
ATOM     47  C   UNL A   1      37.306  34.238  33.307  1.00  0.00     0.029 A 
ATOM     48  N   UNL A   1      38.904  32.677  33.414  1.00  0.00    -0.354 N 
ATOM     49  C   UNL A   1      39.391  29.788  30.227  1.00  0.00     0.074 A 
ATOM     50  C   UNL A   1      38.434  30.017  29.166  1.00  0.00     0.031 C 
ATOM     51  C   UNL A   1      37.940  34.391  34.480  1.00  0.00     0.029 A 
ATOM     52  C   UNL A   1      38.967  33.361  34.603  1.00  0.00     0.049 A 
ATOM     53  H   UNL A   1      39.508  31.933  33.186  1.00  0.00     0.167 HD
ATOM     54  C   UNL A   1      40.327  28.809  30.218  1.00  0.00     0.037 A 
ATOM     55  C   UNL A   1      39.752  33.167  35.680  1.00  0.00     0.037 A 
ATOM     56  C   UNL A   1      41.285  28.599  31.273  1.00  0.00     0.049 A 
ATOM     57  C   UNL A   1      40.758  32.048  35.659  1.00  0.00     0.074 A 
ATOM     58  C   UNL A   1      42.316  27.678  31.330  1.00  0.00     0.029 A 
ATOM     59  N   UNL A   1      41.321  29.314  32.461  1.00  0.00    -0.354 N 
ATOM     60  N   UNL A   1      41.015  31.184  34.708  1.00  0.00    -0.248 NA
ATOM     61  C   UNL A   1      41.583  31.877  36.863  1.00  0.00     0.031 C 
ATOM     62  C   UNL A   1      42.938  27.795  32.576  1.00  0.00     0.029 A 
ATOM     63  C   UNL A   1      42.335  28.829  33.274  1.00  0.00     0.049 A 
ATOM     64  H   UNL A   1      40.718  30.056  32.693  1.00  0.00     0.167 HD
ATOM     65  C   UNL A   1      42.042  30.382  35.185  1.00  0.00     0.074 A 
ATOM     66  C   UNL A   1      42.375  30.875  36.507  1.00  0.00     0.031 C 
ATOM     67  C   UNL A   1      42.653  29.331  34.586  1.00  0.00     0.037 A 
BRANCH  54  68
ATOM     68  C   UNL A   1      40.360  27.886  29.035  1.00  0.00     0.064 A 
ATOM     69  C   UNL A   1      39.650  26.675  29.023  1.00  0.00     0.173 A 
ATOM     70  C   UNL A   1      41.075  28.236  27.879  1.00  0.00     0.173 A 
ATOM     71  F   UNL A   1      38.956  26.289  30.105  1.00  0.00    -0.203 F 
ATOM     72  C   UNL A   1      39.678  25.838  27.910  1.00  0.00     0.198 A 
ATOM     73  C   UNL A   1      41.075  27.411  26.758  1.00  0.00     0.198 A 
ATOM     74  F   UNL A   1      41.767  29.384  27.833  1.00  0.00    -0.203 F 
ATOM     75  F   UNL A   1      39.031  24.664  27.942  1.00  0.00    -0.200 F 
ATOM     76  C   UNL A   1      40.384  26.210  26.777  1.00  0.00     0.200 A 
ATOM     77  F   UNL A   1      41.745  27.779  25.656  1.00  0.00    -0.200 F 
ATOM     78  F   UNL A   1      40.401  25.407  25.703  1.00  0.00    -0.200 F 
ENDBRANCH  54  68
BRANCH  55  79
ATOM     79  C   UNL A   1      39.618  34.054  36.865  1.00  0.00     0.064 A 
ATOM     80  C   UNL A   1      38.830  33.675  37.960  1.00  0.00     0.173 A 
ATOM     81  C   UNL A   1      40.272  35.293  36.930  1.00  0.00     0.173 A 
ATOM     82  F   UNL A   1      38.168  32.509  37.937  1.00  0.00    -0.203 F 
ATOM     83  C   UNL A   1      38.683  34.512  39.066  1.00  0.00     0.198 A 
ATOM     84  C   UNL A   1      40.150  36.115  38.049  1.00  0.00     0.198 A 
ATOM     85  F   UNL A   1      41.042  35.700  35.910  1.00  0.00    -0.203 F 
ATOM     86  F   UNL A   1      37.886  34.145  40.078  1.00  0.00    -0.200 F 
ATOM     87  C   UNL A   1      39.349  35.727  39.112  1.00  0.00     0.200 A 
ATOM     88  F   UNL A   1      40.807  37.281  38.096  1.00  0.00    -0.200 F 
ATOM     89  F   UNL A   1      39.213  36.527  40.177  1.00  0.00    -0.200 F 
ENDBRANCH  55  79
BRANCH  67  90
ATOM     90  C   UNL A   1      43.758  28.653  35.342  1.00  0.00     0.064 A 
ATOM     91  C   UNL A   1      45.100  29.027  35.173  1.00  0.00     0.173 A 
ATOM     92  C   UNL A   1      43.467  27.658  36.288  1.00  0.00     0.173 A 
ATOM     93  F   UNL A   1      45.432  29.961  34.269  1.00  0.00    -0.203 F 
ATOM     94  C   UNL A   1      46.111  28.416  35.910  1.00  0.00     0.198 A 
ATOM     95  C   UNL A   1      44.477  27.072  37.045  1.00  0.00     0.198 A 
ATOM     96  F   UNL A   1      42.200  27.268  36.491  1.00  0.00    -0.203 F 
ATOM     97  F   UNL A   1      47.390  28.759  35.702  1.00  0.00    -0.200 F 
ATOM     98  C   UNL A   1      45.798  27.447  36.853  1.00  0.00     0.200 A 
ATOM     99  F   UNL A   1      44.171  26.147  37.966  1.00  0.00    -0.200 F 
ATOM    100  F   UNL A   1      46.771  26.871  37.572  1.00  0.00    -0.200 F 
ENDBRANCH  67  90
ENDBRANCH  41  42
ENDBRANCH  33  36
ENDBRANCH  31  32
ENDBRANCH  30  31
ENDBRANCH  29  30
ENDBRANCH  28  29
ENDBRANCH   1  28
TORSDOF 18
ENDMDL
MODEL 3
REMARK VINA RESULT:     -12.5      1.610      3.060
REMARK SMILES C/C(=N/OCc1ccccc1Nc1c(Cl)cccc1Cl)C(=O)NCCCCCCNC(=O)c1ccc(-c2c3nc(c(-c4c(F)c(F)c(F)c(F)c4F)c4ccc([nH]4)c(-c4c(F)c(F)c(F)c(F)c4F)c4nc(c(-c5c(F)c(F)c(F)c(F)c5F)c5ccc2[nH]5)C=C4)C=C3)cc1
REMARK SMILES IDX 25 1 24 2 23 3 21 4 22 5 2 7 1 8 3 9 4 10 5 11 6 12 7 13
REMARK SMILES IDX 11 14 8 15 10 16 9 17 12 18 13 20 14 21 19 22 15 23 16 24
REMARK SMILES IDX 18 25 20 26 17 27 26 28 27 29 28 30 29 31 30 32 31 33 32 35
REMARK SMILES IDX 33 36 34 37 95 38 35 39 94 40 36 41 37 42 38 43 88 44 39 45
REMARK SMILES IDX 93 46 87 47 89 48 40 49 92 50 86 51 85 52 41 54 73 55 53 56
REMARK SMILES IDX 72 57 54 58 57 59 71 60 90 61 55 62 56 63 70 65 91 66 58 67
REMARK SMILES IDX 42 68 43 69 51 70 44 71 45 72 49 73 52 74 46 75 47 76 50 77
REMARK SMILES IDX 48 78 74 79 75 80 83 81 76 82 77 83 81 84 84 85 78 86 79 87
REMARK SMILES IDX 82 88 80 89 59 90 60 91 68 92 61 93 62 94 66 95 69 96 63 97
REMARK SMILES IDX 64 98 67 99 65 100
REMARK H PARENT 23 6 12 19 30 34 89 53 57 64
REMARK Flexibility Score: inf
ROOT
ATOM      1  C   UNL A   1      31.889  28.379  27.578  1.00  0.00     0.021 C 
ENDROOT
BRANCH   1   2
ATOM      2  C   UNL A   1      31.376  27.537  26.404  1.00  0.00     0.116 C 
BRANCH   2   3
ATOM      3  N   UNL A   1      30.658  26.388  26.886  1.00  0.00    -0.351 N 
ATOM      4  C   UNL A   1      30.145  25.290  26.248  1.00  0.00     0.268 C 
ATOM      5  O   UNL A   1      29.469  24.520  26.934  1.00  0.00    -0.268 OA
ATOM      6  H   UNL A   1      30.507  26.391  27.859  1.00  0.00     0.163 HD
BRANCH   4   7
ATOM      7  C   UNL A   1      30.414  24.864  24.807  1.00  0.00     0.141 C 
ATOM      8  C   UNL A   1      29.838  25.828  23.787  1.00  0.00     0.077 C 
ATOM      9  N   UNL A   1      31.088  23.863  24.317  1.00  0.00    -0.086 NA
BRANCH   9  10
ATOM     10  O   UNL A   1      31.622  22.990  25.250  1.00  0.00    -0.390 OA
BRANCH  10  11
ATOM     11  C   UNL A   1      32.336  21.915  24.612  1.00  0.00     0.302 C 
BRANCH  11  12
ATOM     12  C   UNL A   1      33.822  22.094  24.326  1.00  0.00     0.016 A 
ATOM     13  C   UNL A   1      34.687  21.141  24.909  1.00  0.00     0.009 A 
ATOM     14  C   UNL A   1      34.374  23.110  23.510  1.00  0.00     0.045 A 
ATOM     15  C   UNL A   1      36.067  21.200  24.726  1.00  0.00     0.001 A 
ATOM     16  C   UNL A   1      35.777  23.193  23.413  1.00  0.00     0.026 A 
ATOM     17  C   UNL A   1      36.614  22.240  23.992  1.00  0.00     0.002 A 
BRANCH  14  18
ATOM     18  N   UNL A   1      33.571  24.066  22.848  1.00  0.00    -0.353 N 
ATOM     19  H   UNL A   1      32.878  23.701  22.251  1.00  0.00     0.167 HD
BRANCH  18  20
ATOM     20  C   UNL A   1      33.632  25.481  22.929  1.00  0.00     0.076 A 
ATOM     21  C   UNL A   1      33.908  26.121  24.156  1.00  0.00     0.066 A 
ATOM     22  C   UNL A   1      33.294  26.307  21.836  1.00  0.00     0.066 A 
ATOM     23  Cl  UNL A   1      34.310  25.223  25.579  1.00  0.00    -0.082 Cl
ATOM     24  C   UNL A   1      33.903  27.518  24.269  1.00  0.00     0.023 A 
ATOM     25  C   UNL A   1      33.322  27.704  21.944  1.00  0.00     0.023 A 
ATOM     26  Cl  UNL A   1      32.800  25.648  20.311  1.00  0.00    -0.082 Cl
ATOM     27  C   UNL A   1      33.627  28.310  23.160  1.00  0.00     0.003 A 
ENDBRANCH  18  20
ENDBRANCH  14  18
ENDBRANCH  11  12
ENDBRANCH  10  11
ENDBRANCH   9  10
ENDBRANCH   4   7
ENDBRANCH   2   3
ENDBRANCH   1   2
BRANCH   1  28
ATOM     28  C   UNL A   1      32.577  29.664  27.111  1.00  0.00     0.002 C 
BRANCH  28  29
ATOM     29  C   UNL A   1      31.724  30.510  26.159  1.00  0.00     0.002 C 
BRANCH  29  30
ATOM     30  C   UNL A   1      31.469  31.948  26.623  1.00  0.00     0.021 C 
BRANCH  30  31
ATOM     31  C   UNL A   1      32.659  32.602  27.321  1.00  0.00     0.116 C 
BRANCH  31  32
ATOM     32  N   UNL A   1      32.421  34.018  27.570  1.00  0.00    -0.352 N 
ATOM     33  C   UNL A   1      32.967  34.839  28.523  1.00  0.00     0.251 C 
ATOM     34  H   UNL A   1      31.774  34.447  26.964  1.00  0.00     0.163 HD
ATOM     35  O   UNL A   1      32.468  35.933  28.762  1.00  0.00    -0.269 OA
BRANCH  33  36
ATOM     36  C   UNL A   1      34.157  34.391  29.270  1.00  0.00     0.039 A 
ATOM     37  C   UNL A   1      33.991  33.795  30.522  1.00  0.00     0.014 A 
ATOM     38  C   UNL A   1      35.435  34.561  28.729  1.00  0.00     0.014 A 
ATOM     39  C   UNL A   1      35.105  33.296  31.200  1.00  0.00     0.010 A 
ATOM     40  C   UNL A   1      36.534  34.002  29.372  1.00  0.00     0.010 A 
ATOM     41  C   UNL A   1      36.378  33.357  30.608  1.00  0.00    -0.014 A 
BRANCH  41  42
ATOM     42  C   UNL A   1      37.556  32.720  31.244  1.00  0.00     0.031 A 
ATOM     43  C   UNL A   1      38.250  31.571  30.571  1.00  0.00     0.074 A 
ATOM     44  C   UNL A   1      37.939  33.121  32.472  1.00  0.00     0.049 A 
ATOM     45  N   UNL A   1      39.224  30.817  31.015  1.00  0.00    -0.248 NA
ATOM     46  C   UNL A   1      37.769  31.204  29.231  1.00  0.00     0.031 C 
ATOM     47  C   UNL A   1      37.312  34.196  33.242  1.00  0.00     0.029 A 
ATOM     48  N   UNL A   1      38.933  32.657  33.297  1.00  0.00    -0.354 N 
ATOM     49  C   UNL A   1      39.463  29.883  30.017  1.00  0.00     0.074 A 
ATOM     50  C   UNL A   1      38.501  30.131  28.965  1.00  0.00     0.031 C 
ATOM     51  C   UNL A   1      37.944  34.320  34.419  1.00  0.00     0.029 A 
ATOM     52  C   UNL A   1      38.988  33.303  34.508  1.00  0.00     0.049 A 
ATOM     53  H   UNL A   1      39.549  31.931  33.045  1.00  0.00     0.167 HD
ATOM     54  C   UNL A   1      40.413  28.919  29.976  1.00  0.00     0.037 A 
ATOM     55  C   UNL A   1      39.777  33.086  35.578  1.00  0.00     0.037 A 
ATOM     56  C   UNL A   1      41.376  28.689  31.023  1.00  0.00     0.049 A 
ATOM     57  C   UNL A   1      40.800  31.985  35.520  1.00  0.00     0.074 A 
ATOM     58  C   UNL A   1      42.421  27.783  31.049  1.00  0.00     0.029 A 
ATOM     59  N   UNL A   1      41.402  29.366  32.233  1.00  0.00    -0.354 N 
ATOM     60  N   UNL A   1      41.069  31.156  34.540  1.00  0.00    -0.248 NA
ATOM     61  C   UNL A   1      41.628  31.787  36.717  1.00  0.00     0.031 C 
ATOM     62  C   UNL A   1      43.043  27.869  32.298  1.00  0.00     0.029 A 
ATOM     63  C   UNL A   1      42.424  28.871  33.029  1.00  0.00     0.049 A 
ATOM     64  H   UNL A   1      40.787  30.091  32.490  1.00  0.00     0.167 HD
ATOM     65  C   UNL A   1      42.109  30.356  34.991  1.00  0.00     0.074 A 
ATOM     66  C   UNL A   1      42.435  30.810  36.327  1.00  0.00     0.031 C 
ATOM     67  C   UNL A   1      42.735  29.334  34.357  1.00  0.00     0.037 A 
BRANCH  54  68
ATOM     68  C   UNL A   1      40.460  28.036  28.763  1.00  0.00     0.064 A 
ATOM     69  C   UNL A   1      41.202  28.385  27.624  1.00  0.00     0.173 A 
ATOM     70  C   UNL A   1      39.789  26.803  28.754  1.00  0.00     0.173 A 
ATOM     71  F   UNL A   1      41.855  29.556  27.576  1.00  0.00    -0.203 F 
ATOM     72  C   UNL A   1      41.247  27.547  26.512  1.00  0.00     0.198 A 
ATOM     73  C   UNL A   1      39.863  25.953  27.654  1.00  0.00     0.198 A 
ATOM     74  F   UNL A   1      39.070  26.416  29.818  1.00  0.00    -0.203 F 
ATOM     75  F   UNL A   1      41.923  27.925  25.418  1.00  0.00    -0.200 F 
ATOM     76  C   UNL A   1      40.585  26.329  26.531  1.00  0.00     0.200 A 
ATOM     77  F   UNL A   1      39.235  24.769  27.679  1.00  0.00    -0.200 F 
ATOM     78  F   UNL A   1      40.638  25.519  25.464  1.00  0.00    -0.200 F 
ENDBRANCH  54  68
BRANCH  55  79
ATOM     79  C   UNL A   1      39.630  33.932  36.792  1.00  0.00     0.064 A 
ATOM     80  C   UNL A   1      40.296  35.160  36.896  1.00  0.00     0.173 A 
ATOM     81  C   UNL A   1      38.825  33.533  37.868  1.00  0.00     0.173 A 
ATOM     82  F   UNL A   1      41.095  35.576  35.901  1.00  0.00    -0.203 F 
ATOM     83  C   UNL A   1      40.179  35.948  38.040  1.00  0.00     0.198 A 
ATOM     84  C   UNL A   1      38.683  34.336  38.999  1.00  0.00     0.198 A 
ATOM     85  F   UNL A   1      38.162  32.368  37.817  1.00  0.00    -0.203 F 
ATOM     86  F   UNL A   1      40.865  37.096  38.132  1.00  0.00    -0.200 F 
ATOM     87  C   UNL A   1      39.368  35.539  39.087  1.00  0.00     0.200 A 
ATOM     88  F   UNL A   1      37.886  33.944  40.001  1.00  0.00    -0.200 F 
ATOM     89  F   UNL A   1      39.251  36.299  40.183  1.00  0.00    -0.200 F 
ENDBRANCH  55  79
BRANCH  67  90
ATOM     90  C   UNL A   1      43.852  28.649  35.090  1.00  0.00     0.064 A 
ATOM     91  C   UNL A   1      45.177  29.100  34.996  1.00  0.00     0.173 A 
ATOM     92  C   UNL A   1      43.585  27.565  35.940  1.00  0.00     0.173 A 
ATOM     93  F   UNL A   1      45.486  30.122  34.184  1.00  0.00    -0.203 F 
ATOM     94  C   UNL A   1      46.197  28.479  35.713  1.00  0.00     0.198 A 
ATOM     95  C   UNL A   1      44.602  26.967  36.679  1.00  0.00     0.198 A 
ATOM     96  F   UNL A   1      42.334  27.099  36.070  1.00  0.00    -0.203 F 
ATOM     97  F   UNL A   1      47.462  28.899  35.576  1.00  0.00    -0.200 F 
ATOM     98  C   UNL A   1      45.907  27.420  36.561  1.00  0.00     0.200 A 
ATOM     99  F   UNL A   1      44.317  25.954  37.510  1.00  0.00    -0.200 F 
ATOM    100  F   UNL A   1      46.887  26.833  37.262  1.00  0.00    -0.200 F 
ENDBRANCH  67  90
ENDBRANCH  41  42
ENDBRANCH  33  36
ENDBRANCH  31  32
ENDBRANCH  30  31
ENDBRANCH  29  30
ENDBRANCH  28  29
ENDBRANCH   1  28
TORSDOF 18
ENDMDL
