MODEL 1
REMARK VINA RESULT:     -11.8      0.000      0.000
REMARK SMILES O=C(NCCCCCCNC(=O)c1cccn(CC[NH+]2CCCC2)c1=O)c1ccc(-c2c3nc(c(-c4c(F)c(F)c(F)c(F)c4F)c4ccc([nH]4)c(-c4c(F)c(F)c(F)c(F)c4F)c4nc(c(-c5c(F)c(F)c(F)c(F)c5F)c5ccc2[nH]5)C=C4)C=C3)cc1
REMARK SMILES IDX 7 1 6 2 5 3 4 4 3 5 1 6 2 7 27 9 28 10 89 11 29 12 88 13
REMARK SMILES IDX 30 14 31 15 32 16 82 17 33 18 87 19 81 20 83 21 34 22 86 23
REMARK SMILES IDX 80 24 79 25 35 27 67 28 47 29 66 30 48 31 51 32 65 33 84 34
REMARK SMILES IDX 49 35 50 36 64 38 85 39 52 40 36 41 37 42 45 43 38 44 39 45
REMARK SMILES IDX 43 46 46 47 40 48 41 49 44 50 42 51 68 52 69 53 77 54 70 55
REMARK SMILES IDX 71 56 75 57 78 58 72 59 73 60 76 61 74 62 53 63 54 64 62 65
REMARK SMILES IDX 55 66 56 67 60 68 63 69 57 70 58 71 61 72 59 73 8 74 9 75
REMARK SMILES IDX 10 76 11 77 12 79 13 80 14 81 25 82 15 83 17 84 26 85 16 86
REMARK SMILES IDX 18 87 19 88 20 89 21 90 24 91 22 93 23 94
REMARK H PARENT 3 8 83 26 51 37 10 78 20 92
REMARK Flexibility Score: inf
ROOT
ATOM      1  C   UNL A   1      31.798  29.261  27.248  1.00  0.00     0.002 C 
ENDROOT
BRANCH   1   2
ATOM      2  C   UNL A   1      31.912  30.314  26.142  1.00  0.00     0.002 C 
BRANCH   2   3
ATOM      3  C   UNL A   1      31.642  31.756  26.580  1.00  0.00     0.021 C 
BRANCH   3   4
ATOM      4  C   UNL A   1      32.781  32.419  27.345  1.00  0.00     0.116 C 
BRANCH   4   5
ATOM      5  N   UNL A   1      32.526  33.831  27.578  1.00  0.00    -0.352 N 
ATOM      6  O   UNL A   1      32.540  35.776  28.703  1.00  0.00    -0.269 OA
ATOM      7  C   UNL A   1      33.043  34.668  28.528  1.00  0.00     0.251 C 
ATOM      8  H   UNL A   1      31.884  34.247  26.959  1.00  0.00     0.163 HD
BRANCH   7   9
ATOM      9  C   UNL A   1      34.212  34.264  29.339  1.00  0.00     0.039 A 
ATOM     10  C   UNL A   1      35.492  34.428  28.800  1.00  0.00     0.014 A 
ATOM     11  C   UNL A   1      34.048  33.631  30.576  1.00  0.00     0.014 A 
ATOM     12  C   UNL A   1      36.607  33.956  29.494  1.00  0.00     0.010 A 
ATOM     13  C   UNL A   1      35.165  33.218  31.298  1.00  0.00     0.010 A 
ATOM     14  C   UNL A   1      36.448  33.341  30.745  1.00  0.00    -0.014 A 
BRANCH  14  15
ATOM     15  C   UNL A   1      37.590  32.696  31.437  1.00  0.00     0.031 A 
ATOM     16  C   UNL A   1      38.315  31.569  30.755  1.00  0.00     0.074 A 
ATOM     17  C   UNL A   1      37.959  33.090  32.667  1.00  0.00     0.049 A 
ATOM     18  N   UNL A   1      39.248  30.777  31.217  1.00  0.00    -0.248 NA
ATOM     19  C   UNL A   1      37.917  31.285  29.367  1.00  0.00     0.031 C 
ATOM     20  C   UNL A   1      37.353  34.185  33.422  1.00  0.00     0.029 A 
ATOM     21  N   UNL A   1      38.936  32.606  33.499  1.00  0.00    -0.354 N 
ATOM     22  C   UNL A   1      39.535  29.893  30.186  1.00  0.00     0.074 A 
ATOM     23  C   UNL A   1      38.639  30.210  29.094  1.00  0.00     0.031 C 
ATOM     24  C   UNL A   1      37.990  34.307  34.598  1.00  0.00     0.029 A 
ATOM     25  C   UNL A   1      39.015  33.270  34.696  1.00  0.00     0.049 A 
ATOM     26  H   UNL A   1      39.526  31.855  33.258  1.00  0.00     0.167 HD
ATOM     27  C   UNL A   1      40.477  28.921  30.140  1.00  0.00     0.037 A 
ATOM     28  C   UNL A   1      39.818  33.056  35.755  1.00  0.00     0.037 A 
ATOM     29  C   UNL A   1      41.377  28.619  31.222  1.00  0.00     0.049 A 
ATOM     30  C   UNL A   1      40.813  31.929  35.713  1.00  0.00     0.074 A 
ATOM     31  C   UNL A   1      42.369  27.657  31.279  1.00  0.00     0.029 A 
ATOM     32  N   UNL A   1      41.396  29.285  32.440  1.00  0.00    -0.354 N 
ATOM     33  N   UNL A   1      41.065  31.082  34.743  1.00  0.00    -0.248 NA
ATOM     34  C   UNL A   1      41.630  31.725  36.916  1.00  0.00     0.031 C 
ATOM     35  C   UNL A   1      42.963  27.715  32.546  1.00  0.00     0.029 A 
ATOM     36  C   UNL A   1      42.372  28.745  33.263  1.00  0.00     0.049 A 
ATOM     37  H   UNL A   1      40.802  30.032  32.685  1.00  0.00     0.167 HD
ATOM     38  C   UNL A   1      42.075  30.254  35.212  1.00  0.00     0.074 A 
ATOM     39  C   UNL A   1      42.405  30.715  36.547  1.00  0.00     0.031 C 
ATOM     40  C   UNL A   1      42.675  29.205  34.595  1.00  0.00     0.037 A 
BRANCH  27  41
ATOM     41  C   UNL A   1      40.567  28.114  28.877  1.00  0.00     0.064 A 
ATOM     42  C   UNL A   1      41.356  28.533  27.794  1.00  0.00     0.173 A 
ATOM     43  C   UNL A   1      39.850  26.917  28.741  1.00  0.00     0.173 A 
ATOM     44  F   UNL A   1      42.046  29.681  27.865  1.00  0.00    -0.203 F 
ATOM     45  C   UNL A   1      41.391  27.804  26.608  1.00  0.00     0.198 A 
ATOM     46  C   UNL A   1      39.916  26.172  27.566  1.00  0.00     0.198 A 
ATOM     47  F   UNL A   1      39.083  26.469  29.745  1.00  0.00    -0.203 F 
ATOM     48  F   UNL A   1      42.099  28.259  25.565  1.00  0.00    -0.200 F 
ATOM     49  C   UNL A   1      40.676  26.621  26.496  1.00  0.00     0.200 A 
ATOM     50  F   UNL A   1      39.230  25.024  27.463  1.00  0.00    -0.200 F 
ATOM     51  F   UNL A   1      40.708  25.922  25.354  1.00  0.00    -0.200 F 
ENDBRANCH  27  41
BRANCH  28  52
ATOM     52  C   UNL A   1      39.729  33.958  36.930  1.00  0.00     0.064 A 
ATOM     53  C   UNL A   1      40.410  35.182  36.938  1.00  0.00     0.173 A 
ATOM     54  C   UNL A   1      38.933  33.644  38.041  1.00  0.00     0.173 A 
ATOM     55  F   UNL A   1      41.202  35.514  35.907  1.00  0.00    -0.203 F 
ATOM     56  C   UNL A   1      40.295  36.062  38.012  1.00  0.00     0.198 A 
ATOM     57  C   UNL A   1      38.801  34.535  39.104  1.00  0.00     0.198 A 
ATOM     58  F   UNL A   1      38.262  32.484  38.080  1.00  0.00    -0.203 F 
ATOM     59  F   UNL A   1      40.972  37.218  38.003  1.00  0.00    -0.200 F 
ATOM     60  C   UNL A   1      39.483  35.743  39.089  1.00  0.00     0.200 A 
ATOM     61  F   UNL A   1      38.006  34.228  40.138  1.00  0.00    -0.200 F 
ATOM     62  F   UNL A   1      39.357  36.597  40.113  1.00  0.00    -0.200 F 
ENDBRANCH  28  52
BRANCH  40  63
ATOM     63  C   UNL A   1      43.751  28.486  35.356  1.00  0.00     0.064 A 
ATOM     64  C   UNL A   1      43.447  27.445  36.248  1.00  0.00     0.173 A 
ATOM     65  C   UNL A   1      45.102  28.815  35.168  1.00  0.00     0.173 A 
ATOM     66  F   UNL A   1      42.170  27.102  36.474  1.00  0.00    -0.203 F 
ATOM     67  C   UNL A   1      44.454  26.782  36.944  1.00  0.00     0.198 A 
ATOM     68  C   UNL A   1      46.108  28.128  35.842  1.00  0.00     0.198 A 
ATOM     69  F   UNL A   1      45.447  29.796  34.320  1.00  0.00    -0.203 F 
ATOM     70  F   UNL A   1      44.138  25.826  37.827  1.00  0.00    -0.200 F 
ATOM     71  C   UNL A   1      45.784  27.119  36.735  1.00  0.00     0.200 A 
ATOM     72  F   UNL A   1      47.392  28.445  35.629  1.00  0.00    -0.200 F 
ATOM     73  F   UNL A   1      46.752  26.475  37.402  1.00  0.00    -0.200 F 
ENDBRANCH  40  63
ENDBRANCH  14  15
ENDBRANCH   7   9
ENDBRANCH   4   5
ENDBRANCH   3   4
ENDBRANCH   2   3
ENDBRANCH   1   2
BRANCH   1  74
ATOM     74  C   UNL A   1      33.002  28.326  27.380  1.00  0.00     0.021 C 
BRANCH  74  75
ATOM     75  C   UNL A   1      33.789  28.124  26.089  1.00  0.00     0.116 C 
BRANCH  75  76
ATOM     76  N   UNL A   1      34.273  26.758  25.954  1.00  0.00    -0.352 N 
ATOM     77  C   UNL A   1      33.622  25.683  25.413  1.00  0.00     0.256 C 
ATOM     78  H   UNL A   1      35.181  26.587  26.295  1.00  0.00     0.163 HD
ATOM     79  O   UNL A   1      34.128  24.564  25.433  1.00  0.00    -0.269 OA
BRANCH  77  80
ATOM     80  C   UNL A   1      32.256  25.910  24.911  1.00  0.00     0.105 A 
ATOM     81  C   UNL A   1      31.239  25.499  25.685  1.00  0.00     0.021 A 
ATOM     82  C   UNL A   1      31.994  26.710  23.681  1.00  0.00     0.263 A 
ATOM     83  C   UNL A   1      29.886  25.883  25.373  1.00  0.00     0.019 A 
ATOM     84  N   UNL A   1      30.665  27.099  23.490  1.00  0.00    -0.309 N 
ATOM     85  O   UNL A   1      32.911  27.032  22.928  1.00  0.00    -0.268 OA
ATOM     86  C   UNL A   1      29.645  26.690  24.333  1.00  0.00     0.089 A 
BRANCH  84  87
ATOM     87  C   UNL A   1      30.344  27.925  22.326  1.00  0.00     0.186 C 
BRANCH  87  88
ATOM     88  C   UNL A   1      30.202  29.434  22.630  1.00  0.00     0.284 C 
BRANCH  88  89
ATOM     89  N   UNL A   1      28.919  29.991  22.152  1.00  0.00    -0.333 N 
ATOM     90  C   UNL A   1      29.004  31.438  21.885  1.00  0.00     0.262 C 
ATOM     91  C   UNL A   1      27.837  29.823  23.140  1.00  0.00     0.262 C 
ATOM     92  H   UNL A   1      28.716  29.476  21.296  1.00  0.00     0.348 HD
ATOM     93  C   UNL A   1      28.534  32.120  23.151  1.00  0.00     0.067 C 
ATOM     94  C   UNL A   1      27.440  31.204  23.644  1.00  0.00     0.067 C 
ENDBRANCH  88  89
ENDBRANCH  87  88
ENDBRANCH  84  87
ENDBRANCH  77  80
ENDBRANCH  75  76
ENDBRANCH  74  75
ENDBRANCH   1  74
TORSDOF 16
ENDMDL
MODEL 2
REMARK VINA RESULT:     -11.8      1.679      7.680
REMARK SMILES O=C(NCCCCCCNC(=O)c1cccn(CC[NH+]2CCCC2)c1=O)c1ccc(-c2c3nc(c(-c4c(F)c(F)c(F)c(F)c4F)c4ccc([nH]4)c(-c4c(F)c(F)c(F)c(F)c4F)c4nc(c(-c5c(F)c(F)c(F)c(F)c5F)c5ccc2[nH]5)C=C4)C=C3)cc1
REMARK SMILES IDX 7 1 6 2 5 3 4 4 3 5 1 6 2 7 27 9 28 10 89 11 29 12 88 13
REMARK SMILES IDX 30 14 31 15 32 16 82 17 33 18 87 19 81 20 83 21 34 22 86 23
REMARK SMILES IDX 80 24 79 25 35 27 67 28 47 29 66 30 48 31 51 32 65 33 84 34
REMARK SMILES IDX 49 35 50 36 64 38 85 39 52 40 36 41 37 42 45 43 38 44 39 45
REMARK SMILES IDX 43 46 46 47 40 48 41 49 44 50 42 51 68 52 69 53 77 54 70 55
REMARK SMILES IDX 71 56 75 57 78 58 72 59 73 60 76 61 74 62 53 63 54 64 62 65
REMARK SMILES IDX 55 66 56 67 60 68 63 69 57 70 58 71 61 72 59 73 8 74 9 75
REMARK SMILES IDX 10 76 11 77 12 79 13 80 14 81 25 82 15 83 17 84 26 85 16 86
REMARK SMILES IDX 18 87 19 88 20 89 21 90 24 91 22 93 23 94
REMARK H PARENT 3 8 83 26 51 37 10 78 20 92
REMARK Flexibility Score: inf
ROOT
ATOM      1  C   UNL A   1      34.417  31.948  28.918  1.00  0.00     0.002 C 
ENDROOT
BRANCH   1   2
ATOM      2  C   UNL A   1      34.614  33.452  28.705  1.00  0.00     0.002 C 
BRANCH   2   3
ATOM      3  C   UNL A   1      33.340  34.298  28.781  1.00  0.00     0.021 C 
BRANCH   3   4
ATOM      4  C   UNL A   1      33.555  35.747  29.202  1.00  0.00     0.116 C 
BRANCH   4   5
ATOM      5  N   UNL A   1      32.661  36.136  30.279  1.00  0.00    -0.352 N 
ATOM      6  O   UNL A   1      31.693  36.027  32.305  1.00  0.00    -0.269 OA
ATOM      7  C   UNL A   1      32.663  35.764  31.595  1.00  0.00     0.251 C 
ATOM      8  H   UNL A   1      31.945  36.761  30.022  1.00  0.00     0.163 HD
BRANCH   7   9
ATOM      9  C   UNL A   1      33.824  35.062  32.183  1.00  0.00     0.039 A 
ATOM     10  C   UNL A   1      35.067  35.703  32.181  1.00  0.00     0.014 A 
ATOM     11  C   UNL A   1      33.716  33.743  32.636  1.00  0.00     0.014 A 
ATOM     12  C   UNL A   1      36.202  35.025  32.627  1.00  0.00     0.010 A 
ATOM     13  C   UNL A   1      34.836  33.089  33.141  1.00  0.00     0.010 A 
ATOM     14  C   UNL A   1      36.094  33.709  33.102  1.00  0.00    -0.014 A 
BRANCH  14  15
ATOM     15  C   UNL A   1      37.296  32.910  33.441  1.00  0.00     0.031 A 
ATOM     16  C   UNL A   1      37.986  33.150  34.756  1.00  0.00     0.074 A 
ATOM     17  C   UNL A   1      37.783  32.001  32.580  1.00  0.00     0.049 A 
ATOM     18  N   UNL A   1      39.116  32.668  35.205  1.00  0.00    -0.248 NA
ATOM     19  C   UNL A   1      37.317  34.078  35.682  1.00  0.00     0.031 C 
ATOM     20  C   UNL A   1      37.191  31.659  31.288  1.00  0.00     0.029 A 
ATOM     21  N   UNL A   1      38.893  31.201  32.666  1.00  0.00    -0.354 N 
ATOM     22  C   UNL A   1      39.300  33.247  36.454  1.00  0.00     0.074 A 
ATOM     23  C   UNL A   1      38.196  34.157  36.667  1.00  0.00     0.031 C 
ATOM     24  C   UNL A   1      37.932  30.698  30.712  1.00  0.00     0.029 A 
ATOM     25  C   UNL A   1      39.072  30.393  31.573  1.00  0.00     0.049 A 
ATOM     26  H   UNL A   1      39.502  31.205  33.441  1.00  0.00     0.167 HD
ATOM     27  C   UNL A   1      40.287  33.022  37.354  1.00  0.00     0.037 A 
ATOM     28  C   UNL A   1      40.054  29.514  31.296  1.00  0.00     0.037 A 
ATOM     29  C   UNL A   1      41.376  32.105  37.145  1.00  0.00     0.049 A 
ATOM     30  C   UNL A   1      41.177  29.327  32.278  1.00  0.00     0.074 A 
ATOM     31  C   UNL A   1      42.427  31.800  37.992  1.00  0.00     0.029 A 
ATOM     32  N   UNL A   1      41.549  31.335  36.002  1.00  0.00    -0.354 N 
ATOM     33  N   UNL A   1      41.359  29.892  33.448  1.00  0.00    -0.248 NA
ATOM     34  C   UNL A   1      42.236  28.383  31.896  1.00  0.00     0.031 C 
ATOM     35  C   UNL A   1      43.256  30.876  37.346  1.00  0.00     0.029 A 
ATOM     36  C   UNL A   1      42.699  30.568  36.115  1.00  0.00     0.049 A 
ATOM     37  H   UNL A   1      40.945  31.335  35.224  1.00  0.00     0.167 HD
ATOM     38  C   UNL A   1      42.542  29.366  33.947  1.00  0.00     0.074 A 
ATOM     39  C   UNL A   1      43.024  28.418  32.962  1.00  0.00     0.031 C 
ATOM     40  C   UNL A   1      43.173  29.643  35.116  1.00  0.00     0.037 A 
BRANCH  27  41
ATOM     41  C   UNL A   1      40.227  33.793  38.641  1.00  0.00     0.064 A 
ATOM     42  C   UNL A   1      39.427  33.370  39.714  1.00  0.00     0.173 A 
ATOM     43  C   UNL A   1      40.968  34.974  38.802  1.00  0.00     0.173 A 
ATOM     44  F   UNL A   1      38.684  32.258  39.604  1.00  0.00    -0.203 F 
ATOM     45  C   UNL A   1      39.339  34.120  40.883  1.00  0.00     0.198 A 
ATOM     46  C   UNL A   1      40.904  35.703  39.987  1.00  0.00     0.198 A 
ATOM     47  F   UNL A   1      41.751  35.423  37.810  1.00  0.00    -0.203 F 
ATOM     48  F   UNL A   1      38.517  33.730  41.868  1.00  0.00    -0.200 F 
ATOM     49  C   UNL A   1      40.081  35.283  41.021  1.00  0.00     0.200 A 
ATOM     50  F   UNL A   1      41.630  36.822  40.122  1.00  0.00    -0.200 F 
ATOM     51  F   UNL A   1      39.994  36.006  42.146  1.00  0.00    -0.200 F 
ENDBRANCH  27  41
BRANCH  28  52
ATOM     52  C   UNL A   1      39.990  28.722  30.042  1.00  0.00     0.064 A 
ATOM     53  C   UNL A   1      40.571  29.211  28.865  1.00  0.00     0.173 A 
ATOM     54  C   UNL A   1      39.395  27.454  30.002  1.00  0.00     0.173 A 
ATOM     55  F   UNL A   1      41.131  30.430  28.850  1.00  0.00    -0.203 F 
ATOM     56  C   UNL A   1      40.563  28.457  27.693  1.00  0.00     0.198 A 
ATOM     57  C   UNL A   1      39.407  26.692  28.835  1.00  0.00     0.198 A 
ATOM     58  F   UNL A   1      38.825  26.944  31.104  1.00  0.00    -0.203 F 
ATOM     59  F   UNL A   1      41.110  28.955  26.575  1.00  0.00    -0.200 F 
ATOM     60  C   UNL A   1      39.991  27.194  27.682  1.00  0.00     0.200 A 
ATOM     61  F   UNL A   1      38.863  25.467  28.832  1.00  0.00    -0.200 F 
ATOM     62  F   UNL A   1      40.000  26.462  26.560  1.00  0.00    -0.200 F 
ENDBRANCH  28  52
BRANCH  40  63
ATOM     63  C   UNL A   1      44.454  28.911  35.393  1.00  0.00     0.064 A 
ATOM     64  C   UNL A   1      45.699  29.443  35.022  1.00  0.00     0.173 A 
ATOM     65  C   UNL A   1      44.443  27.680  36.068  1.00  0.00     0.173 A 
ATOM     66  F   UNL A   1      45.763  30.610  34.363  1.00  0.00    -0.203 F 
ATOM     67  C   UNL A   1      46.880  28.758  35.290  1.00  0.00     0.198 A 
ATOM     68  C   UNL A   1      45.628  27.011  36.361  1.00  0.00     0.198 A 
ATOM     69  F   UNL A   1      43.281  27.130  36.452  1.00  0.00    -0.203 F 
ATOM     70  F   UNL A   1      48.052  29.261  34.882  1.00  0.00    -0.200 F 
ATOM     71  C   UNL A   1      46.845  27.546  35.965  1.00  0.00     0.200 A 
ATOM     72  F   UNL A   1      45.593  25.848  37.026  1.00  0.00    -0.200 F 
ATOM     73  F   UNL A   1      47.983  26.889  36.227  1.00  0.00    -0.200 F 
ENDBRANCH  40  63
ENDBRANCH  14  15
ENDBRANCH   7   9
ENDBRANCH   4   5
ENDBRANCH   3   4
ENDBRANCH   2   3
ENDBRANCH   1   2
BRANCH   1  74
ATOM     74  C   UNL A   1      35.225  31.049  27.980  1.00  0.00     0.021 C 
BRANCH  74  75
ATOM     75  C   UNL A   1      34.380  30.162  27.071  1.00  0.00     0.116 C 
BRANCH  75  76
ATOM     76  N   UNL A   1      33.408  29.382  27.820  1.00  0.00    -0.352 N 
ATOM     77  C   UNL A   1      32.582  28.395  27.357  1.00  0.00     0.256 C 
ATOM     78  H   UNL A   1      33.336  29.591  28.780  1.00  0.00     0.163 HD
ATOM     79  O   UNL A   1      31.751  27.870  28.095  1.00  0.00    -0.269 OA
BRANCH  77  80
ATOM     80  C   UNL A   1      32.659  28.077  25.921  1.00  0.00     0.105 A 
ATOM     81  C   UNL A   1      33.382  27.003  25.565  1.00  0.00     0.021 A 
ATOM     82  C   UNL A   1      31.839  28.805  24.911  1.00  0.00     0.263 A 
ATOM     83  C   UNL A   1      33.322  26.500  24.217  1.00  0.00     0.019 A 
ATOM     84  N   UNL A   1      31.780  28.211  23.647  1.00  0.00    -0.309 N 
ATOM     85  O   UNL A   1      31.230  29.829  25.210  1.00  0.00    -0.268 OA
ATOM     86  C   UNL A   1      32.508  27.077  23.326  1.00  0.00     0.089 A 
BRANCH  84  87
ATOM     87  C   UNL A   1      30.956  28.848  22.619  1.00  0.00     0.186 C 
BRANCH  87  88
ATOM     88  C   UNL A   1      29.458  28.473  22.674  1.00  0.00     0.284 C 
BRANCH  88  89
ATOM     89  N   UNL A   1      28.585  29.535  22.133  1.00  0.00    -0.333 N 
ATOM     90  C   UNL A   1      29.262  30.843  22.082  1.00  0.00     0.262 C 
ATOM     91  C   UNL A   1      27.377  29.735  22.956  1.00  0.00     0.262 C 
ATOM     92  H   UNL A   1      28.340  29.216  21.196  1.00  0.00     0.348 HD
ATOM     93  C   UNL A   1      28.893  31.550  23.368  1.00  0.00     0.067 C 
ATOM     94  C   UNL A   1      27.467  31.113  23.597  1.00  0.00     0.067 C 
ENDBRANCH  88  89
ENDBRANCH  87  88
ENDBRANCH  84  87
ENDBRANCH  77  80
ENDBRANCH  75  76
ENDBRANCH  74  75
ENDBRANCH   1  74
TORSDOF 16
ENDMDL
MODEL 3
REMARK VINA RESULT:     -11.6      3.154      5.294
REMARK SMILES O=C(NCCCCCCNC(=O)c1cccn(CC[NH+]2CCCC2)c1=O)c1ccc(-c2c3nc(c(-c4c(F)c(F)c(F)c(F)c4F)c4ccc([nH]4)c(-c4c(F)c(F)c(F)c(F)c4F)c4nc(c(-c5c(F)c(F)c(F)c(F)c5F)c5ccc2[nH]5)C=C4)C=C3)cc1
REMARK SMILES IDX 7 1 6 2 5 3 4 4 3 5 1 6 2 7 27 9 28 10 89 11 29 12 88 13
REMARK SMILES IDX 30 14 31 15 32 16 82 17 33 18 87 19 81 20 83 21 34 22 86 23
REMARK SMILES IDX 80 24 79 25 35 27 67 28 47 29 66 30 48 31 51 32 65 33 84 34
REMARK SMILES IDX 49 35 50 36 64 38 85 39 52 40 36 41 37 42 45 43 38 44 39 45
REMARK SMILES IDX 43 46 46 47 40 48 41 49 44 50 42 51 68 52 69 53 77 54 70 55
REMARK SMILES IDX 71 56 75 57 78 58 72 59 73 60 76 61 74 62 53 63 54 64 62 65
REMARK SMILES IDX 55 66 56 67 60 68 63 69 57 70 58 71 61 72 59 73 8 74 9 75
REMARK SMILES IDX 10 76 11 77 12 79 13 80 14 81 25 82 15 83 17 84 26 85 16 86
REMARK SMILES IDX 18 87 19 88 20 89 21 90 24 91 22 93 23 94
REMARK H PARENT 3 8 83 26 51 37 10 78 20 92
REMARK Flexibility Score: inf
ROOT
ATOM      1  C   UNL A   1      30.679  27.681  24.098  1.00  0.00     0.002 C 
ENDROOT
BRANCH   1   2
ATOM      2  C   UNL A   1      32.192  27.653  23.868  1.00  0.00     0.002 C 
BRANCH   2   3
ATOM      3  C   UNL A   1      32.949  28.901  24.332  1.00  0.00     0.021 C 
BRANCH   3   4
ATOM      4  C   UNL A   1      32.929  29.142  25.837  1.00  0.00     0.116 C 
BRANCH   4   5
ATOM      5  N   UNL A   1      32.615  30.523  26.160  1.00  0.00    -0.352 N 
ATOM      6  O   UNL A   1      32.671  32.436  27.338  1.00  0.00    -0.269 OA
ATOM      7  C   UNL A   1      33.217  31.374  27.045  1.00  0.00     0.251 C 
ATOM      8  H   UNL A   1      31.853  30.904  25.666  1.00  0.00     0.163 HD
BRANCH   7   9
ATOM      9  C   UNL A   1      34.528  31.042  27.644  1.00  0.00     0.039 A 
ATOM     10  C   UNL A   1      34.777  29.718  28.022  1.00  0.00     0.014 A 
ATOM     11  C   UNL A   1      35.464  32.040  27.931  1.00  0.00     0.014 A 
ATOM     12  C   UNL A   1      35.958  29.394  28.690  1.00  0.00     0.010 A 
ATOM     13  C   UNL A   1      36.671  31.706  28.540  1.00  0.00     0.010 A 
ATOM     14  C   UNL A   1      36.909  30.389  28.960  1.00  0.00    -0.014 A 
BRANCH  14  15
ATOM     15  C   UNL A   1      38.101  30.110  29.797  1.00  0.00     0.031 A 
ATOM     16  C   UNL A   1      39.188  29.227  29.248  1.00  0.00     0.074 A 
ATOM     17  C   UNL A   1      38.204  30.615  31.037  1.00  0.00     0.049 A 
ATOM     18  N   UNL A   1      40.249  28.744  29.841  1.00  0.00    -0.248 NA
ATOM     19  C   UNL A   1      39.045  28.816  27.842  1.00  0.00     0.031 C 
ATOM     20  C   UNL A   1      37.232  31.504  31.671  1.00  0.00     0.029 A 
ATOM     21  N   UNL A   1      39.179  30.447  31.987  1.00  0.00    -0.354 N 
ATOM     22  C   UNL A   1      40.887  27.961  28.889  1.00  0.00     0.074 A 
ATOM     23  C   UNL A   1      40.067  27.988  27.698  1.00  0.00     0.031 C 
ATOM     24  C   UNL A   1      37.673  31.824  32.899  1.00  0.00     0.029 A 
ATOM     25  C   UNL A   1      38.932  31.126  33.152  1.00  0.00     0.049 A 
ATOM     26  H   UNL A   1      39.980  29.892  31.844  1.00  0.00     0.167 HD
ATOM     27  C   UNL A   1      42.065  27.299  28.988  1.00  0.00     0.037 A 
ATOM     28  C   UNL A   1      39.639  31.170  34.297  1.00  0.00     0.037 A 
ATOM     29  C   UNL A   1      42.887  27.287  30.169  1.00  0.00     0.049 A 
ATOM     30  C   UNL A   1      40.910  30.375  34.411  1.00  0.00     0.074 A 
ATOM     31  C   UNL A   1      44.098  26.651  30.375  1.00  0.00     0.029 A 
ATOM     32  N   UNL A   1      42.580  27.952  31.349  1.00  0.00    -0.354 N 
ATOM     33  N   UNL A   1      41.498  29.619  33.516  1.00  0.00    -0.248 NA
ATOM     34  C   UNL A   1      41.611  30.436  35.700  1.00  0.00     0.031 C 
ATOM     35  C   UNL A   1      44.505  26.899  31.691  1.00  0.00     0.029 A 
ATOM     36  C   UNL A   1      43.571  27.729  32.292  1.00  0.00     0.049 A 
ATOM     37  H   UNL A   1      41.775  28.501  31.495  1.00  0.00     0.167 HD
ATOM     38  C   UNL A   1      42.643  29.124  34.125  1.00  0.00     0.074 A 
ATOM     39  C   UNL A   1      42.677  29.684  35.462  1.00  0.00     0.031 C 
ATOM     40  C   UNL A   1      43.580  28.280  33.624  1.00  0.00     0.037 A 
BRANCH  27  41
ATOM     41  C   UNL A   1      42.520  26.530  27.781  1.00  0.00     0.064 A 
ATOM     42  C   UNL A   1      42.131  25.198  27.571  1.00  0.00     0.173 A 
ATOM     43  C   UNL A   1      43.363  27.124  26.830  1.00  0.00     0.173 A 
ATOM     44  F   UNL A   1      41.341  24.577  28.460  1.00  0.00    -0.203 F 
ATOM     45  C   UNL A   1      42.599  24.477  26.475  1.00  0.00     0.198 A 
ATOM     46  C   UNL A   1      43.802  26.411  25.717  1.00  0.00     0.198 A 
ATOM     47  F   UNL A   1      43.765  28.394  26.981  1.00  0.00    -0.203 F 
ATOM     48  F   UNL A   1      42.266  23.187  26.331  1.00  0.00    -0.200 F 
ATOM     49  C   UNL A   1      43.431  25.086  25.547  1.00  0.00     0.200 A 
ATOM     50  F   UNL A   1      44.598  27.003  24.816  1.00  0.00    -0.200 F 
ATOM     51  F   UNL A   1      43.884  24.391  24.494  1.00  0.00    -0.200 F 
ENDBRANCH  27  41
BRANCH  28  52
ATOM     52  C   UNL A   1      39.167  32.030  35.411  1.00  0.00     0.064 A 
ATOM     53  C   UNL A   1      38.365  31.495  36.428  1.00  0.00     0.173 A 
ATOM     54  C   UNL A   1      39.540  33.377  35.511  1.00  0.00     0.173 A 
ATOM     55  F   UNL A   1      37.965  30.217  36.363  1.00  0.00    -0.203 F 
ATOM     56  C   UNL A   1      37.957  32.277  37.507  1.00  0.00     0.198 A 
ATOM     57  C   UNL A   1      39.149  34.152  36.601  1.00  0.00     0.198 A 
ATOM     58  F   UNL A   1      40.307  33.934  34.561  1.00  0.00    -0.203 F 
ATOM     59  F   UNL A   1      37.175  31.746  38.457  1.00  0.00    -0.200 F 
ATOM     60  C   UNL A   1      38.358  33.601  37.598  1.00  0.00     0.200 A 
ATOM     61  F   UNL A   1      39.548  35.428  36.692  1.00  0.00    -0.200 F 
ATOM     62  F   UNL A   1      37.981  34.347  38.645  1.00  0.00    -0.200 F 
ENDBRANCH  28  52
BRANCH  40  63
ATOM     63  C   UNL A   1      44.723  27.913  34.526  1.00  0.00     0.064 A 
ATOM     64  C   UNL A   1      45.878  28.706  34.605  1.00  0.00     0.173 A 
ATOM     65  C   UNL A   1      44.650  26.776  35.346  1.00  0.00     0.173 A 
ATOM     66  F   UNL A   1      46.002  29.794  33.832  1.00  0.00    -0.203 F 
ATOM     67  C   UNL A   1      46.929  28.358  35.449  1.00  0.00     0.198 A 
ATOM     68  C   UNL A   1      45.690  26.448  36.211  1.00  0.00     0.198 A 
ATOM     69  F   UNL A   1      43.565  25.988  35.315  1.00  0.00    -0.203 F 
ATOM     70  F   UNL A   1      48.043  29.102  35.472  1.00  0.00    -0.200 F 
ATOM     71  C   UNL A   1      46.831  27.234  36.257  1.00  0.00     0.200 A 
ATOM     72  F   UNL A   1      45.588  25.370  37.001  1.00  0.00    -0.200 F 
ATOM     73  F   UNL A   1      47.841  26.903  37.074  1.00  0.00    -0.200 F 
ENDBRANCH  40  63
ENDBRANCH  14  15
ENDBRANCH   7   9
ENDBRANCH   4   5
ENDBRANCH   3   4
ENDBRANCH   2   3
ENDBRANCH   1   2
BRANCH   1  74
ATOM     74  C   UNL A   1      30.054  26.333  24.462  1.00  0.00     0.021 C 
BRANCH  74  75
ATOM     75  C   UNL A   1      30.859  25.513  25.465  1.00  0.00     0.116 C 
BRANCH  75  76
ATOM     76  N   UNL A   1      30.003  24.740  26.350  1.00  0.00    -0.352 N 
ATOM     77  C   UNL A   1      30.282  23.552  26.969  1.00  0.00     0.256 C 
ATOM     78  H   UNL A   1      29.111  25.119  26.526  1.00  0.00     0.163 HD
ATOM     79  O   UNL A   1      29.429  22.971  27.634  1.00  0.00    -0.269 OA
BRANCH  77  80
ATOM     80  C   UNL A   1      31.604  22.956  26.708  1.00  0.00     0.105 A 
ATOM     81  C   UNL A   1      32.500  22.981  27.708  1.00  0.00     0.021 A 
ATOM     82  C   UNL A   1      31.893  22.206  25.452  1.00  0.00     0.263 A 
ATOM     83  C   UNL A   1      33.723  22.226  27.607  1.00  0.00     0.019 A 
ATOM     84  N   UNL A   1      33.065  21.446  25.465  1.00  0.00    -0.309 N 
ATOM     85  O   UNL A   1      31.111  22.234  24.505  1.00  0.00    -0.268 OA
ATOM     86  C   UNL A   1      33.948  21.462  26.532  1.00  0.00     0.089 A 
BRANCH  84  87
ATOM     87  C   UNL A   1      33.387  20.647  24.281  1.00  0.00     0.186 C 
BRANCH  87  88
ATOM     88  C   UNL A   1      32.775  19.229  24.279  1.00  0.00     0.284 C 
BRANCH  88  89
ATOM     89  N   UNL A   1      33.567  18.266  25.073  1.00  0.00    -0.333 N 
ATOM     90  C   UNL A   1      34.648  17.649  24.285  1.00  0.00     0.262 C 
ATOM     91  C   UNL A   1      32.743  17.151  25.577  1.00  0.00     0.262 C 
ATOM     92  H   UNL A   1      33.946  18.816  25.842  1.00  0.00     0.348 HD
ATOM     93  C   UNL A   1      34.082  16.350  23.752  1.00  0.00     0.067 C 
ATOM     94  C   UNL A   1      33.201  15.876  24.882  1.00  0.00     0.067 C 
ENDBRANCH  88  89
ENDBRANCH  87  88
ENDBRANCH  84  87
ENDBRANCH  77  80
ENDBRANCH  75  76
ENDBRANCH  74  75
ENDBRANCH   1  74
TORSDOF 16
ENDMDL
