MODEL 1
REMARK VINA RESULT:     -11.1      0.000      0.000
REMARK SMILES COc1ccc(/C=C2/C(=O)N(c3ccccc3)C(=O)[NH+]=C2NCCCCCCNC(=O)c2ccc(-c3c4nc(c(-c5c(F)c(F)c(F)c(F)c5F)c5ccc([nH]5)c(-c5c(F)c(F)c(F)c(F)c5F)c5nc(c(-c6c(F)c(F)c(F)c(F)c6F)c6ccc3[nH]6)C=C5)C=C4)cc2)cc1C(=O)[O-]
REMARK SMILES IDX 26 1 25 2 24 3 23 4 22 5 7 6 8 7 9 8 21 9 10 10 11 11 20 12
REMARK SMILES IDX 18 13 19 16 6 17 3 18 4 19 96 20 5 21 95 22 2 23 1 24 97 25
REMARK SMILES IDX 98 26 99 27 12 28 13 29 17 30 14 31 16 32 15 33 27 34 28 35
REMARK SMILES IDX 29 36 30 37 31 39 32 40 33 41 94 42 34 43 93 44 35 45 36 46
REMARK SMILES IDX 37 47 87 48 38 49 92 50 86 51 88 52 39 53 91 54 85 55 84 56
REMARK SMILES IDX 40 58 72 59 52 60 71 61 53 62 56 63 70 64 89 65 54 66 55 67
REMARK SMILES IDX 69 69 90 70 57 71 41 72 42 73 50 74 43 75 44 76 48 77 51 78
REMARK SMILES IDX 45 79 46 80 49 81 47 82 73 83 74 84 82 85 75 86 76 87 80 88
REMARK SMILES IDX 83 89 77 90 78 91 81 92 79 93 58 94 59 95 67 96 60 97 61 98
REMARK SMILES IDX 65 99 68 100 62 101 63 102 66 103 64 104
REMARK H PARENT 20 14 22 15 29 38 88 57 56 68
REMARK Flexibility Score: inf
ROOT
ATOM      1  C   UNL A   1      42.947  22.855  25.317  1.00  0.00     0.002 C 
ENDROOT
BRANCH   1   2
ATOM      2  C   UNL A   1      42.954  24.297  25.904  1.00  0.00     0.003 C 
BRANCH   2   3
ATOM      3  C   UNL A   1      43.379  25.856  25.164  1.00  0.00     0.037 C 
BRANCH   3   4
ATOM      4  C   UNL A   1      44.175  27.774  25.859  1.00  0.00     0.194 C 
BRANCH   4   5
ATOM      5  N   UNL A   1      43.505  28.895  26.850  1.00  0.00    -0.305 N 
ATOM      6  C   UNL A   1      46.237  30.074  26.314  1.00  0.00     0.030 C 
ATOM      7  C   UNL A   1      45.158  30.800  26.628  1.00  0.00     0.129 C 
ATOM      8  C   UNL A   1      45.136  32.271  26.541  1.00  0.00     0.328 C 
ATOM      9  C   UNL A   1      43.949  30.159  27.195  1.00  0.00     0.236 C 
ATOM     10  O   UNL A   1      45.782  32.862  25.681  1.00  0.00    -0.249 OA
ATOM     11  N   UNL A   1      44.352  32.836  27.530  1.00  0.00    -0.155 N 
ATOM     12  N   UNL A   1      43.303  30.805  28.124  1.00  0.00    -0.209 N 
ATOM     13  C   UNL A   1      43.802  32.033  28.526  1.00  0.00     0.448 C 
ATOM     14  H   UNL A   1      42.487  30.432  28.528  1.00  0.00     0.270 HD
ATOM     15  H   UNL A   1      42.654  28.626  27.265  1.00  0.00     0.256 HD
ATOM     16  O   UNL A   1      43.779  32.367  29.708  1.00  0.00    -0.212 OA
BRANCH   6  17
ATOM     17  C   UNL A   1      46.036  28.633  26.275  1.00  0.00    -0.024 A 
ATOM     18  C   UNL A   1      47.128  25.202  26.533  1.00  0.00     0.127 A 
ATOM     19  C   UNL A   1      46.885  25.941  24.902  1.00  0.00     0.048 A 
ATOM     20  C   UNL A   1      46.896  26.194  28.006  1.00  0.00     0.040 A 
ATOM     21  C   UNL A   1      46.260  27.650  24.759  1.00  0.00     0.012 A 
ATOM     22  C   UNL A   1      46.318  27.877  27.884  1.00  0.00     0.022 A 
BRANCH  18  23
ATOM     23  O   UNL A   1      47.380  23.858  26.590  1.00  0.00    -0.496 OA
ATOM     24  C   UNL A   1      46.157  23.117  26.659  1.00  0.00     0.278 C 
ENDBRANCH  18  23
BRANCH  20  25
ATOM     25  C   UNL A   1      47.260  25.751  29.355  1.00  0.00     0.075 C 
ATOM     26  O   UNL A   1      46.473  25.530  30.253  1.00  0.00    -0.545 OA
ATOM     27  O   UNL A   1      48.587  25.713  29.522  1.00  0.00    -0.545 OA
ENDBRANCH  20  25
ENDBRANCH   6  17
BRANCH  11  28
ATOM     28  C   UNL A   1      44.376  34.240  27.682  1.00  0.00     0.111 A 
ATOM     29  C   UNL A   1      45.433  34.886  28.329  1.00  0.00     0.044 A 
ATOM     30  C   UNL A   1      43.334  34.988  27.119  1.00  0.00     0.044 A 
ATOM     31  C   UNL A   1      45.448  36.281  28.404  1.00  0.00     0.004 A 
ATOM     32  C   UNL A   1      43.348  36.379  27.208  1.00  0.00     0.004 A 
ATOM     33  C   UNL A   1      44.407  37.025  27.846  1.00  0.00     0.000 A 
ENDBRANCH  11  28
ENDBRANCH   4   5
ENDBRANCH   3   4
ENDBRANCH   2   3
ENDBRANCH   1   2
BRANCH   1  34
ATOM     34  C   UNL A   1      41.986  21.784  25.855  1.00  0.00     0.021 C 
BRANCH  34  35
ATOM     35  C   UNL A   1      40.867  22.300  26.750  1.00  0.00     0.116 C 
BRANCH  35  36
ATOM     36  N   UNL A   1      39.642  22.598  26.035  1.00  0.00    -0.352 N 
ATOM     37  C   UNL A   1      38.833  23.701  26.189  1.00  0.00     0.251 C 
ATOM     38  H   UNL A   1      39.356  21.936  25.364  1.00  0.00     0.163 HD
ATOM     39  O   UNL A   1      37.732  23.743  25.647  1.00  0.00    -0.269 OA
BRANCH  37  40
ATOM     40  C   UNL A   1      39.277  24.840  27.034  1.00  0.00     0.039 A 
ATOM     41  C   UNL A   1      38.932  24.852  28.388  1.00  0.00     0.014 A 
ATOM     42  C   UNL A   1      39.989  25.916  26.492  1.00  0.00     0.014 A 
ATOM     43  C   UNL A   1      39.308  25.930  29.197  1.00  0.00     0.010 A 
ATOM     44  C   UNL A   1      40.414  26.965  27.313  1.00  0.00     0.010 A 
ATOM     45  C   UNL A   1      40.056  26.996  28.670  1.00  0.00    -0.014 A 
BRANCH  45  46
ATOM     46  C   UNL A   1      40.408  28.167  29.520  1.00  0.00     0.031 A 
ATOM     47  C   UNL A   1      41.778  28.275  30.137  1.00  0.00     0.074 A 
ATOM     48  C   UNL A   1      39.503  29.142  29.740  1.00  0.00     0.049 A 
ATOM     49  N   UNL A   1      42.280  29.230  30.883  1.00  0.00    -0.248 NA
ATOM     50  C   UNL A   1      42.702  27.157  29.899  1.00  0.00     0.031 C 
ATOM     51  C   UNL A   1      38.132  29.151  29.231  1.00  0.00     0.029 A 
ATOM     52  N   UNL A   1      39.604  30.316  30.447  1.00  0.00    -0.354 N 
ATOM     53  C   UNL A   1      43.569  28.824  31.202  1.00  0.00     0.074 A 
ATOM     54  C   UNL A   1      43.755  27.512  30.620  1.00  0.00     0.031 C 
ATOM     55  C   UNL A   1      37.530  30.289  29.614  1.00  0.00     0.029 A 
ATOM     56  C   UNL A   1      38.461  31.078  30.419  1.00  0.00     0.049 A 
ATOM     57  H   UNL A   1      40.420  30.587  30.927  1.00  0.00     0.167 HD
ATOM     58  C   UNL A   1      44.526  29.493  31.892  1.00  0.00     0.037 A 
ATOM     59  C   UNL A   1      38.193  32.276  30.975  1.00  0.00     0.037 A 
ATOM     60  C   UNL A   1      44.358  30.808  32.452  1.00  0.00     0.049 A 
ATOM     61  C   UNL A   1      39.266  32.989  31.757  1.00  0.00     0.074 A 
ATOM     62  C   UNL A   1      45.288  31.588  33.120  1.00  0.00     0.029 A 
ATOM     63  N   UNL A   1      43.178  31.538  32.416  1.00  0.00    -0.354 N 
ATOM     64  N   UNL A   1      40.503  32.625  31.989  1.00  0.00    -0.248 NA
ATOM     65  C   UNL A   1      38.904  34.286  32.348  1.00  0.00     0.031 C 
ATOM     66  C   UNL A   1      44.658  32.767  33.531  1.00  0.00     0.029 A 
ATOM     67  C   UNL A   1      43.350  32.746  33.073  1.00  0.00     0.049 A 
ATOM     68  H   UNL A   1      42.344  31.241  31.986  1.00  0.00     0.167 HD
ATOM     69  C   UNL A   1      41.072  33.654  32.727  1.00  0.00     0.074 A 
ATOM     70  C   UNL A   1      40.052  34.667  32.890  1.00  0.00     0.031 C 
ATOM     71  C   UNL A   1      42.330  33.751  33.226  1.00  0.00     0.037 A 
BRANCH  58  72
ATOM     72  C   UNL A   1      45.853  28.814  32.077  1.00  0.00     0.064 A 
ATOM     73  C   UNL A   1      46.959  29.128  31.270  1.00  0.00     0.173 A 
ATOM     74  C   UNL A   1      46.036  27.871  33.100  1.00  0.00     0.173 A 
ATOM     75  F   UNL A   1      46.835  30.016  30.273  1.00  0.00    -0.203 F 
ATOM     76  C   UNL A   1      48.187  28.502  31.463  1.00  0.00     0.198 A 
ATOM     77  C   UNL A   1      47.274  27.271  33.309  1.00  0.00     0.198 A 
ATOM     78  F   UNL A   1      45.015  27.541  33.905  1.00  0.00    -0.203 F 
ATOM     79  F   UNL A   1      49.215  28.783  30.649  1.00  0.00    -0.200 F 
ATOM     80  C   UNL A   1      48.347  27.580  32.486  1.00  0.00     0.200 A 
ATOM     81  F   UNL A   1      47.431  26.391  34.308  1.00  0.00    -0.200 F 
ATOM     82  F   UNL A   1      49.532  26.984  32.675  1.00  0.00    -0.200 F 
ENDBRANCH  58  72
BRANCH  59  83
ATOM     83  C   UNL A   1      36.853  32.896  30.796  1.00  0.00     0.064 A 
ATOM     84  C   UNL A   1      36.545  33.627  29.640  1.00  0.00     0.173 A 
ATOM     85  C   UNL A   1      35.861  32.783  31.780  1.00  0.00     0.173 A 
ATOM     86  F   UNL A   1      37.470  33.784  28.681  1.00  0.00    -0.203 F 
ATOM     87  C   UNL A   1      35.304  34.241  29.486  1.00  0.00     0.198 A 
ATOM     88  C   UNL A   1      34.610  33.372  31.612  1.00  0.00     0.198 A 
ATOM     89  F   UNL A   1      36.104  32.092  32.903  1.00  0.00    -0.203 F 
ATOM     90  F   UNL A   1      35.053  34.976  28.394  1.00  0.00    -0.200 F 
ATOM     91  C   UNL A   1      34.335  34.108  30.470  1.00  0.00     0.200 A 
ATOM     92  F   UNL A   1      33.672  33.230  32.559  1.00  0.00    -0.200 F 
ATOM     93  F   UNL A   1      33.140  34.696  30.320  1.00  0.00    -0.200 F 
ENDBRANCH  59  83
BRANCH  71  94
ATOM     94  C   UNL A   1      42.684  35.003  33.975  1.00  0.00     0.064 A 
ATOM     95  C   UNL A   1      42.575  35.083  35.370  1.00  0.00     0.173 A 
ATOM     96  C   UNL A   1      43.183  36.124  33.291  1.00  0.00     0.173 A 
ATOM     97  F   UNL A   1      42.090  34.046  36.070  1.00  0.00    -0.203 F 
ATOM     98  C   UNL A   1      42.928  36.245  36.052  1.00  0.00     0.198 A 
ATOM     99  C   UNL A   1      43.564  37.273  33.978  1.00  0.00     0.198 A 
ATOM    100  F   UNL A   1      43.315  36.098  31.957  1.00  0.00    -0.203 F 
ATOM    101  F   UNL A   1      42.771  36.314  37.381  1.00  0.00    -0.200 F 
ATOM    102  C   UNL A   1      43.430  37.336  35.356  1.00  0.00     0.200 A 
ATOM    103  F   UNL A   1      44.062  38.320  33.306  1.00  0.00    -0.200 F 
ATOM    104  F   UNL A   1      43.778  38.449  36.016  1.00  0.00    -0.200 F 
ENDBRANCH  71  94
ENDBRANCH  45  46
ENDBRANCH  37  40
ENDBRANCH  35  36
ENDBRANCH  34  35
ENDBRANCH   1  34
TORSDOF 16
ENDMDL
MODEL 2
REMARK VINA RESULT:     -10.7      5.616     11.883
REMARK SMILES COc1ccc(/C=C2/C(=O)N(c3ccccc3)C(=O)[NH+]=C2NCCCCCCNC(=O)c2ccc(-c3c4nc(c(-c5c(F)c(F)c(F)c(F)c5F)c5ccc([nH]5)c(-c5c(F)c(F)c(F)c(F)c5F)c5nc(c(-c6c(F)c(F)c(F)c(F)c6F)c6ccc3[nH]6)C=C5)C=C4)cc2)cc1C(=O)[O-]
REMARK SMILES IDX 26 1 25 2 24 3 23 4 22 5 7 6 8 7 9 8 21 9 10 10 11 11 20 12
REMARK SMILES IDX 18 13 19 16 6 17 3 18 4 19 96 20 5 21 95 22 2 23 1 24 97 25
REMARK SMILES IDX 98 26 99 27 12 28 13 29 17 30 14 31 16 32 15 33 27 34 28 35
REMARK SMILES IDX 29 36 30 37 31 39 32 40 33 41 94 42 34 43 93 44 35 45 36 46
REMARK SMILES IDX 37 47 87 48 38 49 92 50 86 51 88 52 39 53 91 54 85 55 84 56
REMARK SMILES IDX 40 58 72 59 52 60 71 61 53 62 56 63 70 64 89 65 54 66 55 67
REMARK SMILES IDX 69 69 90 70 57 71 41 72 42 73 50 74 43 75 44 76 48 77 51 78
REMARK SMILES IDX 45 79 46 80 49 81 47 82 73 83 74 84 82 85 75 86 76 87 80 88
REMARK SMILES IDX 83 89 77 90 78 91 81 92 79 93 58 94 59 95 67 96 60 97 61 98
REMARK SMILES IDX 65 99 68 100 62 101 63 102 66 103 64 104
REMARK H PARENT 20 14 22 15 29 38 88 57 56 68
REMARK Flexibility Score: inf
ROOT
ATOM      1  C   UNL A   1      34.162  31.000  27.945  1.00  0.00     0.002 C 
ENDROOT
BRANCH   1   2
ATOM      2  C   UNL A   1      34.074  29.633  27.206  1.00  0.00     0.003 C 
BRANCH   2   3
ATOM      3  C   UNL A   1      33.075  29.112  25.832  1.00  0.00     0.037 C 
BRANCH   3   4
ATOM      4  C   UNL A   1      32.418  27.202  24.986  1.00  0.00     0.194 C 
BRANCH   4   5
ATOM      5  N   UNL A   1      32.162  25.758  25.719  1.00  0.00    -0.305 N 
ATOM      6  C   UNL A   1      32.101  25.002  22.793  1.00  0.00     0.030 C 
ATOM      7  C   UNL A   1      32.443  24.161  23.775  1.00  0.00     0.129 C 
ATOM      8  C   UNL A   1      33.029  22.833  23.516  1.00  0.00     0.328 C 
ATOM      9  C   UNL A   1      32.141  24.480  25.188  1.00  0.00     0.236 C 
ATOM     10  O   UNL A   1      33.764  22.645  22.551  1.00  0.00    -0.249 OA
ATOM     11  N   UNL A   1      32.625  21.899  24.452  1.00  0.00    -0.155 N 
ATOM     12  N   UNL A   1      31.769  23.499  25.963  1.00  0.00    -0.209 N 
ATOM     13  C   UNL A   1      31.667  22.236  25.404  1.00  0.00     0.448 C 
ATOM     14  H   UNL A   1      31.567  23.652  26.913  1.00  0.00     0.270 HD
ATOM     15  H   UNL A   1      31.998  25.808  26.689  1.00  0.00     0.256 HD
ATOM     16  O   UNL A   1      30.754  21.478  25.723  1.00  0.00    -0.212 OA
BRANCH   6  17
ATOM     17  C   UNL A   1      31.711  26.339  23.217  1.00  0.00    -0.024 A 
ATOM     18  C   UNL A   1      29.919  29.453  22.871  1.00  0.00     0.127 A 
ATOM     19  C   UNL A   1      31.677  29.384  22.458  1.00  0.00     0.048 A 
ATOM     20  C   UNL A   1      29.063  27.965  23.378  1.00  0.00     0.040 A 
ATOM     21  C   UNL A   1      32.612  27.835  22.702  1.00  0.00     0.012 A 
ATOM     22  C   UNL A   1      29.952  26.433  23.588  1.00  0.00     0.022 A 
BRANCH  18  23
ATOM     23  O   UNL A   1      29.319  30.684  22.885  1.00  0.00    -0.496 OA
ATOM     24  C   UNL A   1      28.808  31.010  21.587  1.00  0.00     0.278 C 
ENDBRANCH  18  23
BRANCH  20  25
ATOM     25  C   UNL A   1      27.608  27.874  23.538  1.00  0.00     0.075 C 
ATOM     26  O   UNL A   1      26.816  28.737  23.219  1.00  0.00    -0.545 OA
ATOM     27  O   UNL A   1      27.249  26.755  24.178  1.00  0.00    -0.545 OA
ENDBRANCH  20  25
ENDBRANCH   6  17
BRANCH  11  28
ATOM     28  C   UNL A   1      32.964  20.545  24.234  1.00  0.00     0.111 A 
ATOM     29  C   UNL A   1      32.232  19.742  23.354  1.00  0.00     0.044 A 
ATOM     30  C   UNL A   1      34.092  20.029  24.882  1.00  0.00     0.044 A 
ATOM     31  C   UNL A   1      32.638  18.426  23.121  1.00  0.00     0.004 A 
ATOM     32  C   UNL A   1      34.485  18.710  24.656  1.00  0.00     0.004 A 
ATOM     33  C   UNL A   1      33.760  17.911  23.771  1.00  0.00     0.000 A 
ENDBRANCH  11  28
ENDBRANCH   4   5
ENDBRANCH   3   4
ENDBRANCH   2   3
ENDBRANCH   1   2
BRANCH   1  34
ATOM     34  C   UNL A   1      33.782  32.310  27.239  1.00  0.00     0.021 C 
BRANCH  34  35
ATOM     35  C   UNL A   1      32.443  32.908  27.647  1.00  0.00     0.116 C 
BRANCH  35  36
ATOM     36  N   UNL A   1      32.466  34.352  27.771  1.00  0.00    -0.352 N 
ATOM     37  C   UNL A   1      33.245  35.105  28.620  1.00  0.00     0.251 C 
ATOM     38  H   UNL A   1      31.855  34.851  27.181  1.00  0.00     0.163 HD
ATOM     39  O   UNL A   1      33.038  36.308  28.749  1.00  0.00    -0.269 OA
BRANCH  37  40
ATOM     40  C   UNL A   1      34.329  34.460  29.408  1.00  0.00     0.039 A 
ATOM     41  C   UNL A   1      35.639  34.517  28.926  1.00  0.00     0.014 A 
ATOM     42  C   UNL A   1      34.056  33.763  30.590  1.00  0.00     0.014 A 
ATOM     43  C   UNL A   1      36.672  33.889  29.630  1.00  0.00     0.010 A 
ATOM     44  C   UNL A   1      35.096  33.186  31.323  1.00  0.00     0.010 A 
ATOM     45  C   UNL A   1      36.414  33.220  30.838  1.00  0.00    -0.014 A 
BRANCH  45  46
ATOM     46  C   UNL A   1      37.505  32.506  31.557  1.00  0.00     0.031 A 
ATOM     47  C   UNL A   1      38.197  31.332  30.917  1.00  0.00     0.074 A 
ATOM     48  C   UNL A   1      37.883  32.909  32.787  1.00  0.00     0.049 A 
ATOM     49  N   UNL A   1      39.185  30.600  31.373  1.00  0.00    -0.248 NA
ATOM     50  C   UNL A   1      37.705  30.912  29.596  1.00  0.00     0.031 C 
ATOM     51  C   UNL A   1      37.280  34.009  33.537  1.00  0.00     0.029 A 
ATOM     52  N   UNL A   1      38.871  32.439  33.620  1.00  0.00    -0.354 N 
ATOM     53  C   UNL A   1      39.426  29.638  30.400  1.00  0.00     0.074 A 
ATOM     54  C   UNL A   1      38.445  29.840  29.356  1.00  0.00     0.031 C 
ATOM     55  C   UNL A   1      37.930  34.152  34.704  1.00  0.00     0.029 A 
ATOM     56  C   UNL A   1      38.976  33.136  34.799  1.00  0.00     0.049 A 
ATOM     57  H   UNL A   1      39.449  31.676  33.392  1.00  0.00     0.167 HD
ATOM     58  C   UNL A   1      40.394  28.690  30.362  1.00  0.00     0.037 A 
ATOM     59  C   UNL A   1      39.822  32.979  35.837  1.00  0.00     0.037 A 
ATOM     60  C   UNL A   1      41.389  28.499  31.385  1.00  0.00     0.049 A 
ATOM     61  C   UNL A   1      40.875  31.902  35.781  1.00  0.00     0.074 A 
ATOM     62  C   UNL A   1      42.443  27.601  31.408  1.00  0.00     0.029 A 
ATOM     63  N   UNL A   1      41.450  29.215  32.572  1.00  0.00    -0.354 N 
ATOM     64  N   UNL A   1      41.136  31.047  34.823  1.00  0.00    -0.248 NA
ATOM     65  C   UNL A   1      41.756  31.775  36.952  1.00  0.00     0.031 C 
ATOM     66  C   UNL A   1      43.112  27.739  32.628  1.00  0.00     0.029 A 
ATOM     67  C   UNL A   1      42.507  28.760  33.344  1.00  0.00     0.049 A 
ATOM     68  H   UNL A   1      40.835  29.941  32.826  1.00  0.00     0.167 HD
ATOM     69  C   UNL A   1      42.223  30.302  35.261  1.00  0.00     0.074 A 
ATOM     70  C   UNL A   1      42.584  30.816  36.565  1.00  0.00     0.031 C 
ATOM     71  C   UNL A   1      42.863  29.281  34.639  1.00  0.00     0.037 A 
BRANCH  58  72
ATOM     72  C   UNL A   1      40.432  27.782  29.166  1.00  0.00     0.064 A 
ATOM     73  C   UNL A   1      39.634  26.629  29.091  1.00  0.00     0.173 A 
ATOM     74  C   UNL A   1      41.243  28.090  28.063  1.00  0.00     0.173 A 
ATOM     75  F   UNL A   1      38.848  26.285  30.123  1.00  0.00    -0.203 F 
ATOM     76  C   UNL A   1      39.669  25.805  27.970  1.00  0.00     0.198 A 
ATOM     77  C   UNL A   1      41.251  27.280  26.931  1.00  0.00     0.198 A 
ATOM     78  F   UNL A   1      42.019  29.184  28.078  1.00  0.00    -0.203 F 
ATOM     79  F   UNL A   1      38.934  24.684  27.941  1.00  0.00    -0.200 F 
ATOM     80  C   UNL A   1      40.470  26.134  26.887  1.00  0.00     0.200 A 
ATOM     81  F   UNL A   1      42.016  27.608  25.879  1.00  0.00    -0.200 F 
ATOM     82  F   UNL A   1      40.497  25.344  25.805  1.00  0.00    -0.200 F 
ENDBRANCH  58  72
BRANCH  59  83
ATOM     83  C   UNL A   1      39.726  33.878  37.017  1.00  0.00     0.064 A 
ATOM     84  C   UNL A   1      38.945  33.530  38.128  1.00  0.00     0.173 A 
ATOM     85  C   UNL A   1      40.398  35.109  37.051  1.00  0.00     0.173 A 
ATOM     86  F   UNL A   1      38.264  32.375  38.132  1.00  0.00    -0.203 F 
ATOM     87  C   UNL A   1      38.822  34.388  39.219  1.00  0.00     0.198 A 
ATOM     88  C   UNL A   1      40.298  35.953  38.156  1.00  0.00     0.198 A 
ATOM     89  F   UNL A   1      41.159  35.488  36.015  1.00  0.00    -0.203 F 
ATOM     90  F   UNL A   1      38.031  34.053  40.247  1.00  0.00    -0.200 F 
ATOM     91  C   UNL A   1      39.504  35.596  39.235  1.00  0.00     0.200 A 
ATOM     92  F   UNL A   1      40.969  37.113  38.171  1.00  0.00    -0.200 F 
ATOM     93  F   UNL A   1      39.388  36.420  40.285  1.00  0.00    -0.200 F 
ENDBRANCH  59  83
BRANCH  71  94
ATOM     94  C   UNL A   1      44.037  28.666  35.344  1.00  0.00     0.064 A 
ATOM     95  C   UNL A   1      45.344  29.130  35.140  1.00  0.00     0.173 A 
ATOM     96  C   UNL A   1      43.846  27.628  36.271  1.00  0.00     0.173 A 
ATOM     97  F   UNL A   1      45.583  30.110  34.255  1.00  0.00    -0.203 F 
ATOM     98  C   UNL A   1      46.421  28.563  35.819  1.00  0.00     0.198 A 
ATOM     99  C   UNL A   1      44.921  27.085  36.970  1.00  0.00     0.198 A 
ATOM    100  F   UNL A   1      42.616  27.152  36.509  1.00  0.00    -0.203 F 
ATOM    101  F   UNL A   1      47.666  28.992  35.573  1.00  0.00    -0.200 F 
ATOM    102  C   UNL A   1      46.207  27.547  36.738  1.00  0.00     0.200 A 
ATOM    103  F   UNL A   1      44.711  26.113  37.869  1.00  0.00    -0.200 F 
ATOM    104  F   UNL A   1      47.243  27.010  37.397  1.00  0.00    -0.200 F 
ENDBRANCH  71  94
ENDBRANCH  45  46
ENDBRANCH  37  40
ENDBRANCH  35  36
ENDBRANCH  34  35
ENDBRANCH   1  34
TORSDOF 16
ENDMDL
MODEL 3
REMARK VINA RESULT:     -10.7      5.129      9.667
REMARK SMILES COc1ccc(/C=C2/C(=O)N(c3ccccc3)C(=O)[NH+]=C2NCCCCCCNC(=O)c2ccc(-c3c4nc(c(-c5c(F)c(F)c(F)c(F)c5F)c5ccc([nH]5)c(-c5c(F)c(F)c(F)c(F)c5F)c5nc(c(-c6c(F)c(F)c(F)c(F)c6F)c6ccc3[nH]6)C=C5)C=C4)cc2)cc1C(=O)[O-]
REMARK SMILES IDX 26 1 25 2 24 3 23 4 22 5 7 6 8 7 9 8 21 9 10 10 11 11 20 12
REMARK SMILES IDX 18 13 19 16 6 17 3 18 4 19 96 20 5 21 95 22 2 23 1 24 97 25
REMARK SMILES IDX 98 26 99 27 12 28 13 29 17 30 14 31 16 32 15 33 27 34 28 35
REMARK SMILES IDX 29 36 30 37 31 39 32 40 33 41 94 42 34 43 93 44 35 45 36 46
REMARK SMILES IDX 37 47 87 48 38 49 92 50 86 51 88 52 39 53 91 54 85 55 84 56
REMARK SMILES IDX 40 58 72 59 52 60 71 61 53 62 56 63 70 64 89 65 54 66 55 67
REMARK SMILES IDX 69 69 90 70 57 71 41 72 42 73 50 74 43 75 44 76 48 77 51 78
REMARK SMILES IDX 45 79 46 80 49 81 47 82 73 83 74 84 82 85 75 86 76 87 80 88
REMARK SMILES IDX 83 89 77 90 78 91 81 92 79 93 58 94 59 95 67 96 60 97 61 98
REMARK SMILES IDX 65 99 68 100 62 101 63 102 66 103 64 104
REMARK H PARENT 20 14 22 15 29 38 88 57 56 68
REMARK Flexibility Score: inf
ROOT
ATOM      1  C   UNL A   1      39.076  22.245  26.127  1.00  0.00     0.002 C 
ENDROOT
BRANCH   1   2
ATOM      2  C   UNL A   1      37.737  22.969  25.802  1.00  0.00     0.003 C 
BRANCH   2   3
ATOM      3  C   UNL A   1      36.075  22.352  25.685  1.00  0.00     0.037 C 
BRANCH   3   4
ATOM      4  C   UNL A   1      34.152  23.109  24.958  1.00  0.00     0.194 C 
BRANCH   4   5
ATOM      5  N   UNL A   1      33.830  24.299  23.878  1.00  0.00    -0.305 N 
ATOM      6  C   UNL A   1      31.085  23.693  24.991  1.00  0.00     0.030 C 
ATOM      7  C   UNL A   1      31.439  24.878  24.480  1.00  0.00     0.129 C 
ATOM      8  C   UNL A   1      30.593  26.079  24.596  1.00  0.00     0.328 C 
ATOM      9  C   UNL A   1      32.666  25.016  23.662  1.00  0.00     0.236 C 
ATOM     10  O   UNL A   1      29.889  26.262  25.585  1.00  0.00    -0.249 OA
ATOM     11  N   UNL A   1      30.693  26.891  23.481  1.00  0.00    -0.155 N 
ATOM     12  N   UNL A   1      32.619  25.818  22.636  1.00  0.00    -0.209 N 
ATOM     13  C   UNL A   1      31.424  26.467  22.375  1.00  0.00     0.448 C 
ATOM     14  H   UNL A   1      33.408  25.957  22.064  1.00  0.00     0.270 HD
ATOM     15  H   UNL A   1      34.582  24.541  23.291  1.00  0.00     0.256 HD
ATOM     16  O   UNL A   1      31.032  26.626  21.221  1.00  0.00    -0.212 OA
BRANCH   6  17
ATOM     17  C   UNL A   1      32.110  22.660  24.954  1.00  0.00    -0.024 A 
ATOM     18  C   UNL A   1      33.261  19.239  24.934  1.00  0.00     0.127 A 
ATOM     19  C   UNL A   1      33.362  20.206  26.457  1.00  0.00     0.048 A 
ATOM     20  C   UNL A   1      32.526  19.958  23.468  1.00  0.00     0.040 A 
ATOM     21  C   UNL A   1      32.855  21.959  26.460  1.00  0.00     0.012 A 
ATOM     22  C   UNL A   1      31.993  21.660  23.462  1.00  0.00     0.022 A 
BRANCH  18  23
ATOM     23  O   UNL A   1      33.857  18.006  24.924  1.00  0.00    -0.496 OA
ATOM     24  C   UNL A   1      32.952  17.004  25.401  1.00  0.00     0.278 C 
ENDBRANCH  18  23
BRANCH  20  25
ATOM     25  C   UNL A   1      32.216  19.198  22.253  1.00  0.00     0.075 C 
ATOM     26  O   UNL A   1      32.259  17.988  22.157  1.00  0.00    -0.545 OA
ATOM     27  O   UNL A   1      31.974  20.004  21.213  1.00  0.00    -0.545 OA
ENDBRANCH  20  25
ENDBRANCH   6  17
BRANCH  11  28
ATOM     28  C   UNL A   1      29.808  27.987  23.371  1.00  0.00     0.111 A 
ATOM     29  C   UNL A   1      28.449  27.803  23.103  1.00  0.00     0.044 A 
ATOM     30  C   UNL A   1      30.314  29.274  23.590  1.00  0.00     0.044 A 
ATOM     31  C   UNL A   1      27.597  28.910  23.063  1.00  0.00     0.004 A 
ATOM     32  C   UNL A   1      29.462  30.376  23.536  1.00  0.00     0.004 A 
ATOM     33  C   UNL A   1      28.103  30.193  23.277  1.00  0.00     0.000 A 
ENDBRANCH  11  28
ENDBRANCH   4   5
ENDBRANCH   3   4
ENDBRANCH   2   3
ENDBRANCH   1   2
BRANCH   1  34
ATOM     34  C   UNL A   1      39.440  20.912  25.456  1.00  0.00     0.021 C 
BRANCH  34  35
ATOM     35  C   UNL A   1      39.702  19.751  26.406  1.00  0.00     0.116 C 
BRANCH  35  36
ATOM     36  N   UNL A   1      40.847  18.945  26.035  1.00  0.00    -0.352 N 
ATOM     37  C   UNL A   1      42.154  19.359  25.906  1.00  0.00     0.251 C 
ATOM     38  H   UNL A   1      40.672  17.992  25.854  1.00  0.00     0.163 HD
ATOM     39  O   UNL A   1      42.995  18.613  25.413  1.00  0.00    -0.269 OA
BRANCH  37  40
ATOM     40  C   UNL A   1      42.551  20.724  26.340  1.00  0.00     0.039 A 
ATOM     41  C   UNL A   1      42.481  21.048  27.698  1.00  0.00     0.014 A 
ATOM     42  C   UNL A   1      42.945  21.698  25.417  1.00  0.00     0.014 A 
ATOM     43  C   UNL A   1      42.816  22.336  28.129  1.00  0.00     0.010 A 
ATOM     44  C   UNL A   1      43.335  22.967  25.854  1.00  0.00     0.010 A 
ATOM     45  C   UNL A   1      43.250  23.309  27.213  1.00  0.00    -0.014 A 
BRANCH  45  46
ATOM     46  C   UNL A   1      43.554  24.694  27.667  1.00  0.00     0.031 A 
ATOM     47  C   UNL A   1      44.981  25.162  27.781  1.00  0.00     0.074 A 
ATOM     48  C   UNL A   1      42.552  25.542  27.975  1.00  0.00     0.049 A 
ATOM     49  N   UNL A   1      45.445  26.337  28.132  1.00  0.00    -0.248 NA
ATOM     50  C   UNL A   1      46.028  24.175  27.478  1.00  0.00     0.031 C 
ATOM     51  C   UNL A   1      41.128  25.213  27.939  1.00  0.00     0.029 A 
ATOM     52  N   UNL A   1      42.581  26.856  28.375  1.00  0.00    -0.354 N 
ATOM     53  C   UNL A   1      46.829  26.227  28.094  1.00  0.00     0.074 A 
ATOM     54  C   UNL A   1      47.132  24.856  27.744  1.00  0.00     0.031 C 
ATOM     55  C   UNL A   1      40.417  26.304  28.269  1.00  0.00     0.029 A 
ATOM     56  C   UNL A   1      41.335  27.402  28.570  1.00  0.00     0.049 A 
ATOM     57  H   UNL A   1      43.416  27.360  28.508  1.00  0.00     0.167 HD
ATOM     58  C   UNL A   1      47.765  27.185  28.302  1.00  0.00     0.037 A 
ATOM     59  C   UNL A   1      40.971  28.645  28.943  1.00  0.00     0.037 A 
ATOM     60  C   UNL A   1      47.470  28.557  28.625  1.00  0.00     0.049 A 
ATOM     61  C   UNL A   1      42.032  29.686  29.191  1.00  0.00     0.074 A 
ATOM     62  C   UNL A   1      48.350  29.611  28.799  1.00  0.00     0.029 A 
ATOM     63  N   UNL A   1      46.195  29.064  28.830  1.00  0.00    -0.354 N 
ATOM     64  N   UNL A   1      43.334  29.586  29.081  1.00  0.00    -0.248 NA
ATOM     65  C   UNL A   1      41.568  31.018  29.608  1.00  0.00     0.031 C 
ATOM     66  C   UNL A   1      47.614  30.745  29.158  1.00  0.00     0.029 A 
ATOM     67  C   UNL A   1      46.269  30.409  29.155  1.00  0.00     0.049 A 
ATOM     68  H   UNL A   1      45.362  28.545  28.754  1.00  0.00     0.167 HD
ATOM     69  C   UNL A   1      43.841  30.842  29.388  1.00  0.00     0.074 A 
ATOM     70  C   UNL A   1      42.707  31.694  29.673  1.00  0.00     0.031 C 
ATOM     71  C   UNL A   1      45.133  31.251  29.432  1.00  0.00     0.037 A 
BRANCH  58  72
ATOM     72  C   UNL A   1      49.208  26.786  28.179  1.00  0.00     0.064 A 
ATOM     73  C   UNL A   1      49.853  26.735  26.933  1.00  0.00     0.173 A 
ATOM     74  C   UNL A   1      49.967  26.495  29.322  1.00  0.00     0.173 A 
ATOM     75  F   UNL A   1      49.170  26.995  25.808  1.00  0.00    -0.203 F 
ATOM     76  C   UNL A   1      51.195  26.378  26.835  1.00  0.00     0.198 A 
ATOM     77  C   UNL A   1      51.317  26.169  29.222  1.00  0.00     0.198 A 
ATOM     78  F   UNL A   1      49.403  26.538  30.538  1.00  0.00    -0.203 F 
ATOM     79  F   UNL A   1      51.777  26.288  25.630  1.00  0.00    -0.200 F 
ATOM     80  C   UNL A   1      51.928  26.103  27.979  1.00  0.00     0.200 A 
ATOM     81  F   UNL A   1      52.028  25.919  30.330  1.00  0.00    -0.200 F 
ATOM     82  F   UNL A   1      53.222  25.768  27.884  1.00  0.00    -0.200 F 
ENDBRANCH  58  72
BRANCH  59  83
ATOM     83  C   UNL A   1      39.531  28.987  29.087  1.00  0.00     0.064 A 
ATOM     84  C   UNL A   1      38.885  28.884  30.326  1.00  0.00     0.173 A 
ATOM     85  C   UNL A   1      38.770  29.407  27.987  1.00  0.00     0.173 A 
ATOM     86  F   UNL A   1      39.566  28.463  31.403  1.00  0.00    -0.203 F 
ATOM     87  C   UNL A   1      37.527  29.166  30.456  1.00  0.00     0.198 A 
ATOM     88  C   UNL A   1      37.418  29.718  28.124  1.00  0.00     0.198 A 
ATOM     89  F   UNL A   1      39.340  29.524  26.779  1.00  0.00    -0.203 F 
ATOM     90  F   UNL A   1      36.923  29.012  31.642  1.00  0.00    -0.200 F 
ATOM     91  C   UNL A   1      36.796  29.589  29.356  1.00  0.00     0.200 A 
ATOM     92  F   UNL A   1      36.719  30.139  27.061  1.00  0.00    -0.200 F 
ATOM     93  F   UNL A   1      35.491  29.864  29.482  1.00  0.00    -0.200 F 
ENDBRANCH  59  83
BRANCH  71  94
ATOM     94  C   UNL A   1      45.393  32.690  29.775  1.00  0.00     0.064 A 
ATOM     95  C   UNL A   1      45.642  33.099  31.093  1.00  0.00     0.173 A 
ATOM     96  C   UNL A   1      45.438  33.665  28.766  1.00  0.00     0.173 A 
ATOM     97  F   UNL A   1      45.597  32.209  32.096  1.00  0.00    -0.203 F 
ATOM     98  C   UNL A   1      45.903  34.434  31.392  1.00  0.00     0.198 A 
ATOM     99  C   UNL A   1      45.730  34.993  29.065  1.00  0.00     0.198 A 
ATOM    100  F   UNL A   1      45.215  33.326  27.488  1.00  0.00    -0.203 F 
ATOM    101  F   UNL A   1      46.092  34.809  32.665  1.00  0.00    -0.200 F 
ATOM    102  C   UNL A   1      45.954  35.378  30.377  1.00  0.00     0.200 A 
ATOM    103  F   UNL A   1      45.793  35.902  28.081  1.00  0.00    -0.200 F 
ATOM    104  F   UNL A   1      46.215  36.661  30.667  1.00  0.00    -0.200 F 
ENDBRANCH  71  94
ENDBRANCH  45  46
ENDBRANCH  37  40
ENDBRANCH  35  36
ENDBRANCH  34  35
ENDBRANCH   1  34
TORSDOF 16
ENDMDL
