MODEL 1
REMARK VINA RESULT:     -14.1      0.000      0.000
REMARK SMILES Cc1c(CC(=O)NCCCCCCNC(=O)c2ccc(-c3c4nc(c(-c5c(F)c(F)c(F)c(F)c5F)c5ccc([nH]5)c(-c5c(F)c(F)c(F)c(F)c5F)c5nc(c(-c6c(F)c(F)c(F)c(F)c6F)c6ccc3[nH]6)C=C5)C=C4)cc2)c2cc(O)ccc2n1C(=O)c1ccc(Cl)cc1
REMARK SMILES IDX 10 1 9 2 8 3 7 4 5 5 6 6 4 8 3 9 1 10 2 11 87 12 80 13 86 14
REMARK SMILES IDX 81 15 85 16 82 17 84 18 88 19 89 20 90 21 91 22 96 23 92 24
REMARK SMILES IDX 95 25 93 26 94 27 83 28 11 30 12 31 13 32 14 33 15 34 16 36
REMARK SMILES IDX 17 37 18 38 79 39 19 40 78 41 20 42 21 43 22 44 72 45 23 46
REMARK SMILES IDX 77 47 71 48 73 49 24 50 76 51 70 52 69 53 25 55 57 56 37 57
REMARK SMILES IDX 56 58 38 59 41 60 55 61 74 62 39 63 40 64 54 66 75 67 42 68
REMARK SMILES IDX 26 69 27 70 35 71 28 72 29 73 33 74 36 75 30 76 31 77 34 78
REMARK SMILES IDX 32 79 58 80 59 81 67 82 60 83 61 84 65 85 68 86 62 87 63 88
REMARK SMILES IDX 66 89 64 90 43 91 44 92 52 93 45 94 46 95 50 96 53 97 47 98
REMARK SMILES IDX 48 99 51 100 49 101
REMARK H PARENT 7 7 83 29 14 35 73 54 41 65
REMARK Flexibility Score: inf
ROOT
ATOM      1  C   UNL A   1      31.966  27.106  26.577  1.00  0.00     0.002 C 
ENDROOT
BRANCH   1   2
ATOM      2  C   UNL A   1      30.990  27.053  25.394  1.00  0.00     0.021 C 
BRANCH   2   3
ATOM      3  C   UNL A   1      30.010  25.882  25.476  1.00  0.00     0.116 C 
BRANCH   3   4
ATOM      4  N   UNL A   1      30.439  24.911  26.460  1.00  0.00    -0.356 N 
ATOM      5  C   UNL A   1      30.984  23.676  26.259  1.00  0.00     0.224 C 
ATOM      6  O   UNL A   1      31.221  22.974  27.245  1.00  0.00    -0.275 OA
ATOM      7  H   UNL A   1      30.322  25.178  27.401  1.00  0.00     0.163 HD
BRANCH   5   8
ATOM      8  C   UNL A   1      31.351  23.223  24.855  1.00  0.00     0.138 C 
BRANCH   8   9
ATOM      9  C   UNL A   1      32.716  22.601  24.749  1.00  0.00    -0.009 A 
ATOM     10  C   UNL A   1      34.213  24.720  24.920  1.00  0.00     0.065 C 
ATOM     11  C   UNL A   1      33.941  23.256  24.761  1.00  0.00     0.028 A 
ATOM     12  N   UNL A   1      34.957  22.316  24.540  1.00  0.00    -0.280 N 
ATOM     13  C   UNL A   1      32.987  21.207  24.665  1.00  0.00     0.008 A 
ATOM     14  C   UNL A   1      34.378  21.040  24.634  1.00  0.00     0.057 A 
ATOM     15  C   UNL A   1      32.153  20.066  24.638  1.00  0.00     0.056 A 
ATOM     16  C   UNL A   1      34.930  19.741  24.671  1.00  0.00     0.031 A 
ATOM     17  C   UNL A   1      32.716  18.795  24.595  1.00  0.00     0.116 A 
ATOM     18  C   UNL A   1      34.087  18.627  24.626  1.00  0.00     0.048 A 
BRANCH  12  19
ATOM     19  C   UNL A   1      36.319  22.621  24.252  1.00  0.00     0.262 C 
ATOM     20  O   UNL A   1      36.637  22.918  23.097  1.00  0.00    -0.268 OA
BRANCH  19  21
ATOM     21  C   UNL A   1      37.416  22.611  25.230  1.00  0.00     0.040 A 
ATOM     22  C   UNL A   1      37.711  23.752  25.986  1.00  0.00     0.015 A 
ATOM     23  C   UNL A   1      38.183  21.448  25.352  1.00  0.00     0.015 A 
ATOM     24  C   UNL A   1      38.847  23.753  26.800  1.00  0.00     0.021 A 
ATOM     25  C   UNL A   1      39.310  21.453  26.174  1.00  0.00     0.021 A 
ATOM     26  C   UNL A   1      39.649  22.611  26.875  1.00  0.00     0.041 A 
ATOM     27  Cl  UNL A   1      41.088  22.642  27.819  1.00  0.00    -0.084 Cl
ENDBRANCH  19  21
ENDBRANCH  12  19
BRANCH  17  28
ATOM     28  O   UNL A   1      31.872  17.728  24.539  1.00  0.00    -0.508 OA
ATOM     29  H   UNL A   1      31.183  17.708  23.904  1.00  0.00     0.293 HD
ENDBRANCH  17  28
ENDBRANCH   8   9
ENDBRANCH   5   8
ENDBRANCH   3   4
ENDBRANCH   2   3
ENDBRANCH   1   2
BRANCH   1  30
ATOM     30  C   UNL A   1      31.657  28.196  27.611  1.00  0.00     0.002 C 
BRANCH  30  31
ATOM     31  C   UNL A   1      32.173  29.592  27.249  1.00  0.00     0.021 C 
BRANCH  31  32
ATOM     32  C   UNL A   1      33.680  29.768  27.443  1.00  0.00     0.116 C 
BRANCH  32  33
ATOM     33  N   UNL A   1      34.102  31.151  27.525  1.00  0.00    -0.352 N 
ATOM     34  C   UNL A   1      35.294  31.778  27.758  1.00  0.00     0.251 C 
ATOM     35  H   UNL A   1      33.361  31.784  27.380  1.00  0.00     0.163 HD
ATOM     36  O   UNL A   1      35.305  33.005  27.633  1.00  0.00    -0.269 OA
BRANCH  34  37
ATOM     37  C   UNL A   1      36.527  31.099  28.235  1.00  0.00     0.039 A 
ATOM     38  C   UNL A   1      37.515  31.682  29.026  1.00  0.00     0.014 A 
ATOM     39  C   UNL A   1      36.729  29.789  27.762  1.00  0.00     0.014 A 
ATOM     40  C   UNL A   1      38.737  31.050  29.196  1.00  0.00     0.010 A 
ATOM     41  C   UNL A   1      37.934  29.132  27.964  1.00  0.00     0.010 A 
ATOM     42  C   UNL A   1      38.962  29.799  28.620  1.00  0.00    -0.014 A 
BRANCH  42  43
ATOM     43  C   UNL A   1      40.271  29.194  28.825  1.00  0.00     0.031 A 
ATOM     44  C   UNL A   1      40.604  28.936  30.254  1.00  0.00     0.074 A 
ATOM     45  C   UNL A   1      41.075  28.834  27.804  1.00  0.00     0.049 A 
ATOM     46  N   UNL A   1      41.598  29.391  30.945  1.00  0.00    -0.248 NA
ATOM     47  C   UNL A   1      39.625  28.169  31.047  1.00  0.00     0.031 C 
ATOM     48  C   UNL A   1      40.760  28.806  26.373  1.00  0.00     0.029 A 
ATOM     49  N   UNL A   1      42.340  28.326  27.844  1.00  0.00    -0.354 N 
ATOM     50  C   UNL A   1      41.465  28.834  32.215  1.00  0.00     0.074 A 
ATOM     51  C   UNL A   1      40.171  28.206  32.262  1.00  0.00     0.031 C 
ATOM     52  C   UNL A   1      41.707  28.099  25.717  1.00  0.00     0.029 A 
ATOM     53  C   UNL A   1      42.761  27.749  26.652  1.00  0.00     0.049 A 
ATOM     54  H   UNL A   1      42.906  28.365  28.649  1.00  0.00     0.167 HD
ATOM     55  C   UNL A   1      42.520  28.733  33.068  1.00  0.00     0.037 A 
ATOM     56  C   UNL A   1      43.866  26.984  26.475  1.00  0.00     0.037 A 
ATOM     57  C   UNL A   1      43.562  29.666  32.738  1.00  0.00     0.049 A 
ATOM     58  C   UNL A   1      44.779  27.260  27.609  1.00  0.00     0.074 A 
ATOM     59  C   UNL A   1      43.673  31.041  32.737  1.00  0.00     0.029 A 
ATOM     60  N   UNL A   1      44.614  29.202  31.994  1.00  0.00    -0.354 N 
ATOM     61  N   UNL A   1      45.389  28.395  27.799  1.00  0.00    -0.248 NA
ATOM     62  C   UNL A   1      44.700  26.388  28.770  1.00  0.00     0.031 C 
ATOM     63  C   UNL A   1      44.513  31.346  31.626  1.00  0.00     0.029 A 
ATOM     64  C   UNL A   1      44.907  30.142  31.042  1.00  0.00     0.049 A 
ATOM     65  H   UNL A   1      45.077  28.342  32.121  1.00  0.00     0.167 HD
ATOM     66  C   UNL A   1      45.390  28.566  29.174  1.00  0.00     0.074 A 
ATOM     67  C   UNL A   1      45.058  27.255  29.721  1.00  0.00     0.031 C 
ATOM     68  C   UNL A   1      45.388  29.817  29.719  1.00  0.00     0.037 A 
BRANCH  55  69
ATOM     69  C   UNL A   1      42.746  27.536  33.956  1.00  0.00     0.064 A 
ATOM     70  C   UNL A   1      43.329  26.368  33.431  1.00  0.00     0.173 A 
ATOM     71  C   UNL A   1      42.147  27.400  35.229  1.00  0.00     0.173 A 
ATOM     72  F   UNL A   1      43.880  26.370  32.208  1.00  0.00    -0.203 F 
ATOM     73  C   UNL A   1      43.283  25.149  34.117  1.00  0.00     0.198 A 
ATOM     74  C   UNL A   1      42.150  26.199  35.933  1.00  0.00     0.198 A 
ATOM     75  F   UNL A   1      41.436  28.388  35.787  1.00  0.00    -0.203 F 
ATOM     76  F   UNL A   1      43.754  24.039  33.535  1.00  0.00    -0.200 F 
ATOM     77  C   UNL A   1      42.696  25.067  35.369  1.00  0.00     0.200 A 
ATOM     78  F   UNL A   1      41.548  26.135  37.129  1.00  0.00    -0.200 F 
ATOM     79  F   UNL A   1      42.609  23.892  36.005  1.00  0.00    -0.200 F 
ENDBRANCH  55  69
BRANCH  56  80
ATOM     80  C   UNL A   1      44.030  25.780  25.621  1.00  0.00     0.064 A 
ATOM     81  C   UNL A   1      45.297  25.411  25.134  1.00  0.00     0.173 A 
ATOM     82  C   UNL A   1      43.017  24.807  25.525  1.00  0.00     0.173 A 
ATOM     83  F   UNL A   1      46.328  26.264  25.225  1.00  0.00    -0.203 F 
ATOM     84  C   UNL A   1      45.545  24.131  24.626  1.00  0.00     0.198 A 
ATOM     85  C   UNL A   1      43.264  23.533  25.011  1.00  0.00     0.198 A 
ATOM     86  F   UNL A   1      41.794  25.034  26.024  1.00  0.00    -0.203 F 
ATOM     87  F   UNL A   1      46.784  23.792  24.245  1.00  0.00    -0.200 F 
ATOM     88  C   UNL A   1      44.532  23.190  24.579  1.00  0.00     0.200 A 
ATOM     89  F   UNL A   1      42.284  22.618  25.004  1.00  0.00    -0.200 F 
ATOM     90  F   UNL A   1      44.784  21.941  24.161  1.00  0.00    -0.200 F 
ENDBRANCH  56  80
BRANCH  68  91
ATOM     91  C   UNL A   1      45.690  30.971  28.803  1.00  0.00     0.064 A 
ATOM     92  C   UNL A   1      46.988  31.409  28.484  1.00  0.00     0.173 A 
ATOM     93  C   UNL A   1      44.624  31.566  28.115  1.00  0.00     0.173 A 
ATOM     94  F   UNL A   1      48.065  30.829  29.028  1.00  0.00    -0.203 F 
ATOM     95  C   UNL A   1      47.201  32.419  27.546  1.00  0.00     0.198 A 
ATOM     96  C   UNL A   1      44.841  32.547  27.152  1.00  0.00     0.198 A 
ATOM     97  F   UNL A   1      43.367  31.153  28.342  1.00  0.00    -0.203 F 
ATOM     98  F   UNL A   1      48.448  32.825  27.264  1.00  0.00    -0.200 F 
ATOM     99  C   UNL A   1      46.127  32.979  26.874  1.00  0.00     0.200 A 
ATOM    100  F   UNL A   1      43.803  33.050  26.470  1.00  0.00    -0.200 F 
ATOM    101  F   UNL A   1      46.334  33.915  25.937  1.00  0.00    -0.200 F 
ENDBRANCH  68  91
ENDBRANCH  42  43
ENDBRANCH  34  37
ENDBRANCH  32  33
ENDBRANCH  31  32
ENDBRANCH  30  31
ENDBRANCH   1  30
TORSDOF 17
ENDMDL
MODEL 2
REMARK VINA RESULT:     -13.6      3.033      8.901
REMARK SMILES Cc1c(CC(=O)NCCCCCCNC(=O)c2ccc(-c3c4nc(c(-c5c(F)c(F)c(F)c(F)c5F)c5ccc([nH]5)c(-c5c(F)c(F)c(F)c(F)c5F)c5nc(c(-c6c(F)c(F)c(F)c(F)c6F)c6ccc3[nH]6)C=C5)C=C4)cc2)c2cc(O)ccc2n1C(=O)c1ccc(Cl)cc1
REMARK SMILES IDX 10 1 9 2 8 3 7 4 5 5 6 6 4 8 3 9 1 10 2 11 87 12 80 13 86 14
REMARK SMILES IDX 81 15 85 16 82 17 84 18 88 19 89 20 90 21 91 22 96 23 92 24
REMARK SMILES IDX 95 25 93 26 94 27 83 28 11 30 12 31 13 32 14 33 15 34 16 36
REMARK SMILES IDX 17 37 18 38 79 39 19 40 78 41 20 42 21 43 22 44 72 45 23 46
REMARK SMILES IDX 77 47 71 48 73 49 24 50 76 51 70 52 69 53 25 55 57 56 37 57
REMARK SMILES IDX 56 58 38 59 41 60 55 61 74 62 39 63 40 64 54 66 75 67 42 68
REMARK SMILES IDX 26 69 27 70 35 71 28 72 29 73 33 74 36 75 30 76 31 77 34 78
REMARK SMILES IDX 32 79 58 80 59 81 67 82 60 83 61 84 65 85 68 86 62 87 63 88
REMARK SMILES IDX 66 89 64 90 43 91 44 92 52 93 45 94 46 95 50 96 53 97 47 98
REMARK SMILES IDX 48 99 51 100 49 101
REMARK H PARENT 7 7 83 29 14 35 73 54 41 65
REMARK Flexibility Score: inf
ROOT
ATOM      1  C   UNL A   1      40.871  21.485  27.412  1.00  0.00     0.002 C 
ENDROOT
BRANCH   1   2
ATOM      2  C   UNL A   1      40.087  21.515  26.094  1.00  0.00     0.021 C 
BRANCH   2   3
ATOM      3  C   UNL A   1      38.695  22.130  26.236  1.00  0.00     0.116 C 
BRANCH   3   4
ATOM      4  N   UNL A   1      38.138  22.462  24.941  1.00  0.00    -0.356 N 
ATOM      5  C   UNL A   1      37.041  23.224  24.655  1.00  0.00     0.224 C 
ATOM      6  O   UNL A   1      36.696  23.330  23.476  1.00  0.00    -0.275 OA
ATOM      7  H   UNL A   1      38.614  22.090  24.164  1.00  0.00     0.163 HD
BRANCH   5   8
ATOM      8  C   UNL A   1      36.321  23.974  25.764  1.00  0.00     0.138 C 
BRANCH   8   9
ATOM      9  C   UNL A   1      34.822  23.885  25.690  1.00  0.00    -0.009 A 
ATOM     10  C   UNL A   1      34.197  26.408  25.724  1.00  0.00     0.065 C 
ATOM     11  C   UNL A   1      33.916  24.938  25.690  1.00  0.00     0.028 A 
ATOM     12  N   UNL A   1      32.616  24.414  25.708  1.00  0.00    -0.280 N 
ATOM     13  C   UNL A   1      34.069  22.684  25.558  1.00  0.00     0.008 A 
ATOM     14  C   UNL A   1      32.715  23.033  25.472  1.00  0.00     0.057 A 
ATOM     15  C   UNL A   1      34.439  21.322  25.477  1.00  0.00     0.056 A 
ATOM     16  C   UNL A   1      31.749  22.036  25.214  1.00  0.00     0.031 A 
ATOM     17  C   UNL A   1      33.464  20.348  25.302  1.00  0.00     0.116 A 
ATOM     18  C   UNL A   1      32.134  20.694  25.156  1.00  0.00     0.048 A 
BRANCH  12  19
ATOM     19  C   UNL A   1      31.425  25.161  25.946  1.00  0.00     0.262 C 
ATOM     20  O   UNL A   1      30.731  24.887  26.929  1.00  0.00    -0.268 OA
BRANCH  19  21
ATOM     21  C   UNL A   1      30.929  26.256  25.102  1.00  0.00     0.040 A 
ATOM     22  C   UNL A   1      30.136  25.991  23.979  1.00  0.00     0.015 A 
ATOM     23  C   UNL A   1      31.306  27.564  25.425  1.00  0.00     0.015 A 
ATOM     24  C   UNL A   1      29.802  27.041  23.120  1.00  0.00     0.021 A 
ATOM     25  C   UNL A   1      30.961  28.608  24.568  1.00  0.00     0.021 A 
ATOM     26  C   UNL A   1      30.231  28.339  23.409  1.00  0.00     0.041 A 
ATOM     27  Cl  UNL A   1      29.881  29.616  22.309  1.00  0.00    -0.084 Cl
ENDBRANCH  19  21
ENDBRANCH  12  19
BRANCH  17  28
ATOM     28  O   UNL A   1      33.865  19.046  25.261  1.00  0.00    -0.508 OA
ATOM     29  H   UNL A   1      34.743  18.835  25.007  1.00  0.00     0.293 HD
ENDBRANCH  17  28
ENDBRANCH   8   9
ENDBRANCH   5   8
ENDBRANCH   3   4
ENDBRANCH   2   3
ENDBRANCH   1   2
BRANCH   1  30
ATOM     30  C   UNL A   1      41.905  20.358  27.515  1.00  0.00     0.002 C 
BRANCH  30  31
ATOM     31  C   UNL A   1      41.907  19.377  26.338  1.00  0.00     0.021 C 
BRANCH  31  32
ATOM     32  C   UNL A   1      43.269  18.743  26.056  1.00  0.00     0.116 C 
BRANCH  32  33
ATOM     33  N   UNL A   1      43.815  19.080  24.758  1.00  0.00    -0.352 N 
ATOM     34  C   UNL A   1      44.409  20.190  24.226  1.00  0.00     0.251 C 
ATOM     35  H   UNL A   1      43.742  18.342  24.111  1.00  0.00     0.163 HD
ATOM     36  O   UNL A   1      44.871  20.077  23.088  1.00  0.00    -0.269 OA
BRANCH  34  37
ATOM     37  C   UNL A   1      44.448  21.524  24.881  1.00  0.00     0.039 A 
ATOM     38  C   UNL A   1      45.271  21.875  25.950  1.00  0.00     0.014 A 
ATOM     39  C   UNL A   1      43.505  22.462  24.421  1.00  0.00     0.014 A 
ATOM     40  C   UNL A   1      45.045  23.051  26.649  1.00  0.00     0.010 A 
ATOM     41  C   UNL A   1      43.302  23.661  25.090  1.00  0.00     0.010 A 
ATOM     42  C   UNL A   1      44.026  23.916  26.248  1.00  0.00    -0.014 A 
BRANCH  42  43
ATOM     43  C   UNL A   1      43.831  25.129  27.032  1.00  0.00     0.031 A 
ATOM     44  C   UNL A   1      44.916  26.138  26.868  1.00  0.00     0.074 A 
ATOM     45  C   UNL A   1      42.731  25.344  27.780  1.00  0.00     0.049 A 
ATOM     46  N   UNL A   1      45.692  26.641  27.773  1.00  0.00    -0.248 NA
ATOM     47  C   UNL A   1      45.258  26.542  25.492  1.00  0.00     0.031 C 
ATOM     48  C   UNL A   1      41.500  24.549  27.824  1.00  0.00     0.029 A 
ATOM     49  N   UNL A   1      42.446  26.388  28.609  1.00  0.00    -0.354 N 
ATOM     50  C   UNL A   1      46.510  27.551  27.108  1.00  0.00     0.074 A 
ATOM     51  C   UNL A   1      46.297  27.352  25.699  1.00  0.00     0.031 C 
ATOM     52  C   UNL A   1      40.530  25.256  28.448  1.00  0.00     0.029 A 
ATOM     53  C   UNL A   1      41.106  26.482  28.968  1.00  0.00     0.049 A 
ATOM     54  H   UNL A   1      43.130  27.021  28.926  1.00  0.00     0.167 HD
ATOM     55  C   UNL A   1      47.141  28.561  27.765  1.00  0.00     0.037 A 
ATOM     56  C   UNL A   1      40.512  27.531  29.589  1.00  0.00     0.037 A 
ATOM     57  C   UNL A   1      47.278  28.280  29.167  1.00  0.00     0.049 A 
ATOM     58  C   UNL A   1      41.583  28.323  30.239  1.00  0.00     0.074 A 
ATOM     59  C   UNL A   1      47.967  27.344  29.910  1.00  0.00     0.029 A 
ATOM     60  N   UNL A   1      46.350  28.826  30.014  1.00  0.00    -0.354 N 
ATOM     61  N   UNL A   1      42.290  27.907  31.250  1.00  0.00    -0.248 NA
ATOM     62  C   UNL A   1      42.146  29.439  29.496  1.00  0.00     0.031 C 
ATOM     63  C   UNL A   1      47.123  27.057  31.023  1.00  0.00     0.029 A 
ATOM     64  C   UNL A   1      45.991  27.866  30.924  1.00  0.00     0.049 A 
ATOM     65  H   UNL A   1      46.001  29.747  29.975  1.00  0.00     0.167 HD
ATOM     66  C   UNL A   1      43.561  28.409  31.018  1.00  0.00     0.074 A 
ATOM     67  C   UNL A   1      43.385  29.431  29.993  1.00  0.00     0.031 C 
ATOM     68  C   UNL A   1      44.664  27.752  31.482  1.00  0.00     0.037 A 
BRANCH  55  69
ATOM     69  C   UNL A   1      47.289  29.947  27.190  1.00  0.00     0.064 A 
ATOM     70  C   UNL A   1      48.529  30.610  27.256  1.00  0.00     0.173 A 
ATOM     71  C   UNL A   1      46.185  30.754  26.836  1.00  0.00     0.173 A 
ATOM     72  F   UNL A   1      49.636  29.951  27.634  1.00  0.00    -0.203 F 
ATOM     73  C   UNL A   1      48.644  31.984  27.020  1.00  0.00     0.198 A 
ATOM     74  C   UNL A   1      46.311  32.111  26.548  1.00  0.00     0.198 A 
ATOM     75  F   UNL A   1      44.929  30.290  26.868  1.00  0.00    -0.203 F 
ATOM     76  F   UNL A   1      49.822  32.595  27.200  1.00  0.00    -0.200 F 
ATOM     77  C   UNL A   1      47.535  32.732  26.662  1.00  0.00     0.200 A 
ATOM     78  F   UNL A   1      45.218  32.821  26.234  1.00  0.00    -0.200 F 
ATOM     79  F   UNL A   1      47.634  34.055  26.482  1.00  0.00    -0.200 F 
ENDBRANCH  55  69
BRANCH  56  80
ATOM     80  C   UNL A   1      39.160  28.098  29.356  1.00  0.00     0.064 A 
ATOM     81  C   UNL A   1      38.275  28.313  30.429  1.00  0.00     0.173 A 
ATOM     82  C   UNL A   1      38.827  28.725  28.140  1.00  0.00     0.173 A 
ATOM     83  F   UNL A   1      38.539  27.787  31.634  1.00  0.00    -0.203 F 
ATOM     84  C   UNL A   1      37.154  29.140  30.303  1.00  0.00     0.198 A 
ATOM     85  C   UNL A   1      37.704  29.543  28.013  1.00  0.00     0.198 A 
ATOM     86  F   UNL A   1      39.641  28.641  27.077  1.00  0.00    -0.203 F 
ATOM     87  F   UNL A   1      36.379  29.382  31.370  1.00  0.00    -0.200 F 
ATOM     88  C   UNL A   1      36.878  29.765  29.100  1.00  0.00     0.200 A 
ATOM     89  F   UNL A   1      37.468  30.173  26.854  1.00  0.00    -0.200 F 
ATOM     90  F   UNL A   1      35.847  30.616  28.997  1.00  0.00    -0.200 F 
ENDBRANCH  56  80
BRANCH  68  91
ATOM     91  C   UNL A   1      44.444  26.659  32.492  1.00  0.00     0.064 A 
ATOM     92  C   UNL A   1      44.275  25.301  32.164  1.00  0.00     0.173 A 
ATOM     93  C   UNL A   1      44.547  26.983  33.851  1.00  0.00     0.173 A 
ATOM     94  F   UNL A   1      44.259  24.897  30.889  1.00  0.00    -0.203 F 
ATOM     95  C   UNL A   1      44.179  24.324  33.155  1.00  0.00     0.198 A 
ATOM     96  C   UNL A   1      44.490  26.003  34.837  1.00  0.00     0.198 A 
ATOM     97  F   UNL A   1      44.760  28.256  34.221  1.00  0.00    -0.203 F 
ATOM     98  F   UNL A   1      44.011  23.037  32.817  1.00  0.00    -0.200 F 
ATOM     99  C   UNL A   1      44.297  24.676  34.490  1.00  0.00     0.200 A 
ATOM    100  F   UNL A   1      44.655  26.341  36.123  1.00  0.00    -0.200 F 
ATOM    101  F   UNL A   1      44.256  23.731  35.440  1.00  0.00    -0.200 F 
ENDBRANCH  68  91
ENDBRANCH  42  43
ENDBRANCH  34  37
ENDBRANCH  32  33
ENDBRANCH  31  32
ENDBRANCH  30  31
ENDBRANCH   1  30
TORSDOF 17
ENDMDL
MODEL 3
REMARK VINA RESULT:     -13.4      1.867      3.180
REMARK SMILES Cc1c(CC(=O)NCCCCCCNC(=O)c2ccc(-c3c4nc(c(-c5c(F)c(F)c(F)c(F)c5F)c5ccc([nH]5)c(-c5c(F)c(F)c(F)c(F)c5F)c5nc(c(-c6c(F)c(F)c(F)c(F)c6F)c6ccc3[nH]6)C=C5)C=C4)cc2)c2cc(O)ccc2n1C(=O)c1ccc(Cl)cc1
REMARK SMILES IDX 10 1 9 2 8 3 7 4 5 5 6 6 4 8 3 9 1 10 2 11 87 12 80 13 86 14
REMARK SMILES IDX 81 15 85 16 82 17 84 18 88 19 89 20 90 21 91 22 96 23 92 24
REMARK SMILES IDX 95 25 93 26 94 27 83 28 11 30 12 31 13 32 14 33 15 34 16 36
REMARK SMILES IDX 17 37 18 38 79 39 19 40 78 41 20 42 21 43 22 44 72 45 23 46
REMARK SMILES IDX 77 47 71 48 73 49 24 50 76 51 70 52 69 53 25 55 57 56 37 57
REMARK SMILES IDX 56 58 38 59 41 60 55 61 74 62 39 63 40 64 54 66 75 67 42 68
REMARK SMILES IDX 26 69 27 70 35 71 28 72 29 73 33 74 36 75 30 76 31 77 34 78
REMARK SMILES IDX 32 79 58 80 59 81 67 82 60 83 61 84 65 85 68 86 62 87 63 88
REMARK SMILES IDX 66 89 64 90 43 91 44 92 52 93 45 94 46 95 50 96 53 97 47 98
REMARK SMILES IDX 48 99 51 100 49 101
REMARK H PARENT 7 7 83 29 14 35 73 54 41 65
REMARK Flexibility Score: inf
ROOT
ATOM      1  C   UNL A   1      31.881  29.639  25.441  1.00  0.00     0.002 C 
ENDROOT
BRANCH   1   2
ATOM      2  C   UNL A   1      31.575  28.907  24.128  1.00  0.00     0.021 C 
BRANCH   2   3
ATOM      3  C   UNL A   1      32.760  28.878  23.164  1.00  0.00     0.116 C 
BRANCH   3   4
ATOM      4  N   UNL A   1      32.809  27.629  22.435  1.00  0.00    -0.356 N 
ATOM      5  C   UNL A   1      33.462  26.475  22.761  1.00  0.00     0.224 C 
ATOM      6  O   UNL A   1      33.426  25.538  21.961  1.00  0.00    -0.275 OA
ATOM      7  H   UNL A   1      32.303  27.609  21.591  1.00  0.00     0.163 HD
BRANCH   5   8
ATOM      8  C   UNL A   1      34.147  26.341  24.112  1.00  0.00     0.138 C 
BRANCH   8   9
ATOM      9  C   UNL A   1      33.762  25.103  24.873  1.00  0.00    -0.009 A 
ATOM     10  C   UNL A   1      36.077  23.940  25.083  1.00  0.00     0.065 C 
ATOM     11  C   UNL A   1      34.597  24.067  25.272  1.00  0.00     0.028 A 
ATOM     12  N   UNL A   1      33.820  23.064  25.867  1.00  0.00    -0.280 N 
ATOM     13  C   UNL A   1      32.459  24.802  25.362  1.00  0.00     0.008 A 
ATOM     14  C   UNL A   1      32.530  23.588  26.056  1.00  0.00     0.057 A 
ATOM     15  C   UNL A   1      31.224  25.486  25.289  1.00  0.00     0.056 A 
ATOM     16  C   UNL A   1      31.398  23.109  26.751  1.00  0.00     0.031 A 
ATOM     17  C   UNL A   1      30.101  24.957  25.913  1.00  0.00     0.116 A 
ATOM     18  C   UNL A   1      30.182  23.792  26.650  1.00  0.00     0.048 A 
BRANCH  12  19
ATOM     19  C   UNL A   1      34.269  21.751  26.192  1.00  0.00     0.262 C 
ATOM     20  O   UNL A   1      34.875  21.569  27.251  1.00  0.00    -0.268 OA
BRANCH  19  21
ATOM     21  C   UNL A   1      34.078  20.558  25.356  1.00  0.00     0.040 A 
ATOM     22  C   UNL A   1      32.805  20.207  24.891  1.00  0.00     0.015 A 
ATOM     23  C   UNL A   1      35.192  19.760  25.078  1.00  0.00     0.015 A 
ATOM     24  C   UNL A   1      32.637  18.992  24.222  1.00  0.00     0.021 A 
ATOM     25  C   UNL A   1      35.018  18.553  24.401  1.00  0.00     0.021 A 
ATOM     26  C   UNL A   1      33.739  18.164  23.997  1.00  0.00     0.041 A 
ATOM     27  Cl  UNL A   1      33.516  16.635  23.239  1.00  0.00    -0.084 Cl
ENDBRANCH  19  21
ENDBRANCH  12  19
BRANCH  17  28
ATOM     28  O   UNL A   1      28.926  25.636  25.789  1.00  0.00    -0.508 OA
ATOM     29  H   UNL A   1      28.124  25.167  25.668  1.00  0.00     0.293 HD
ENDBRANCH  17  28
ENDBRANCH   8   9
ENDBRANCH   5   8
ENDBRANCH   3   4
ENDBRANCH   2   3
ENDBRANCH   1   2
BRANCH   1  30
ATOM     30  C   UNL A   1      32.059  28.722  26.657  1.00  0.00     0.002 C 
BRANCH  30  31
ATOM     31  C   UNL A   1      33.496  28.615  27.177  1.00  0.00     0.021 C 
BRANCH  31  32
ATOM     32  C   UNL A   1      34.336  29.873  26.952  1.00  0.00     0.116 C 
BRANCH  32  33
ATOM     33  N   UNL A   1      34.192  30.868  27.994  1.00  0.00    -0.352 N 
ATOM     34  C   UNL A   1      35.033  31.410  28.926  1.00  0.00     0.251 C 
ATOM     35  H   UNL A   1      33.281  31.239  28.042  1.00  0.00     0.163 HD
ATOM     36  O   UNL A   1      34.587  32.347  29.592  1.00  0.00    -0.269 OA
BRANCH  34  37
ATOM     37  C   UNL A   1      36.388  30.890  29.245  1.00  0.00     0.039 A 
ATOM     38  C   UNL A   1      37.584  31.582  29.060  1.00  0.00     0.014 A 
ATOM     39  C   UNL A   1      36.445  29.554  29.688  1.00  0.00     0.014 A 
ATOM     40  C   UNL A   1      38.797  30.916  29.144  1.00  0.00     0.010 A 
ATOM     41  C   UNL A   1      37.658  28.893  29.816  1.00  0.00     0.010 A 
ATOM     42  C   UNL A   1      38.827  29.559  29.470  1.00  0.00    -0.014 A 
BRANCH  42  43
ATOM     43  C   UNL A   1      40.132  28.915  29.529  1.00  0.00     0.031 A 
ATOM     44  C   UNL A   1      40.678  28.774  30.909  1.00  0.00     0.074 A 
ATOM     45  C   UNL A   1      40.753  28.425  28.438  1.00  0.00     0.049 A 
ATOM     46  N   UNL A   1      41.783  29.245  31.390  1.00  0.00    -0.248 NA
ATOM     47  C   UNL A   1      39.813  28.130  31.914  1.00  0.00     0.031 C 
ATOM     48  C   UNL A   1      40.215  28.281  27.082  1.00  0.00     0.029 A 
ATOM     49  N   UNL A   1      41.992  27.865  28.332  1.00  0.00    -0.354 N 
ATOM     50  C   UNL A   1      41.835  28.814  32.714  1.00  0.00     0.074 A 
ATOM     51  C   UNL A   1      40.545  28.254  33.021  1.00  0.00     0.031 C 
ATOM     52  C   UNL A   1      41.024  27.472  26.360  1.00  0.00     0.029 A 
ATOM     53  C   UNL A   1      42.201  27.162  27.152  1.00  0.00     0.049 A 
ATOM     54  H   UNL A   1      42.678  27.951  29.032  1.00  0.00     0.167 HD
ATOM     55  C   UNL A   1      43.007  28.742  33.399  1.00  0.00     0.037 A 
ATOM     56  C   UNL A   1      43.239  26.332  26.883  1.00  0.00     0.037 A 
ATOM     57  C   UNL A   1      44.013  29.591  32.824  1.00  0.00     0.049 A 
ATOM     58  C   UNL A   1      44.328  26.668  27.829  1.00  0.00     0.074 A 
ATOM     59  C   UNL A   1      44.166  30.953  32.670  1.00  0.00     0.029 A 
ATOM     60  N   UNL A   1      44.919  29.011  31.976  1.00  0.00    -0.354 N 
ATOM     61  N   UNL A   1      44.996  27.786  27.811  1.00  0.00    -0.248 NA
ATOM     62  C   UNL A   1      44.406  25.912  29.069  1.00  0.00     0.031 C 
ATOM     63  C   UNL A   1      44.830  31.115  31.418  1.00  0.00     0.029 A 
ATOM     64  C   UNL A   1      45.088  29.845  30.902  1.00  0.00     0.049 A 
ATOM     65  H   UNL A   1      45.369  28.146  32.114  1.00  0.00     0.167 HD
ATOM     66  C   UNL A   1      45.220  28.083  29.145  1.00  0.00     0.074 A 
ATOM     67  C   UNL A   1      44.936  26.845  29.863  1.00  0.00     0.031 C 
ATOM     68  C   UNL A   1      45.344  29.377  29.559  1.00  0.00     0.037 A 
BRANCH  55  69
ATOM     69  C   UNL A   1      43.332  27.623  34.356  1.00  0.00     0.064 A 
ATOM     70  C   UNL A   1      43.563  26.323  33.868  1.00  0.00     0.173 A 
ATOM     71  C   UNL A   1      43.141  27.726  35.752  1.00  0.00     0.173 A 
ATOM     72  F   UNL A   1      43.706  26.103  32.553  1.00  0.00    -0.203 F 
ATOM     73  C   UNL A   1      43.566  25.208  34.715  1.00  0.00     0.198 A 
ATOM     74  C   UNL A   1      43.199  26.621  36.599  1.00  0.00     0.198 A 
ATOM     75  F   UNL A   1      42.776  28.875  36.335  1.00  0.00    -0.203 F 
ATOM     76  F   UNL A   1      43.682  23.979  34.196  1.00  0.00    -0.200 F 
ATOM     77  C   UNL A   1      43.388  25.360  36.079  1.00  0.00     0.200 A 
ATOM     78  F   UNL A   1      42.991  26.788  37.913  1.00  0.00    -0.200 F 
ATOM     79  F   UNL A   1      43.343  24.291  36.884  1.00  0.00    -0.200 F 
ENDBRANCH  55  69
BRANCH  56  80
ATOM     80  C   UNL A   1      43.228  25.049  26.136  1.00  0.00     0.064 A 
ATOM     81  C   UNL A   1      44.204  24.775  25.162  1.00  0.00     0.173 A 
ATOM     82  C   UNL A   1      42.461  23.952  26.575  1.00  0.00     0.173 A 
ATOM     83  F   UNL A   1      45.006  25.754  24.718  1.00  0.00    -0.203 F 
ATOM     84  C   UNL A   1      44.430  23.477  24.691  1.00  0.00     0.198 A 
ATOM     85  C   UNL A   1      42.682  22.659  26.099  1.00  0.00     0.198 A 
ATOM     86  F   UNL A   1      41.553  24.094  27.552  1.00  0.00    -0.203 F 
ATOM     87  F   UNL A   1      45.422  23.244  23.820  1.00  0.00    -0.200 F 
ATOM     88  C   UNL A   1      43.678  22.419  25.171  1.00  0.00     0.200 A 
ATOM     89  F   UNL A   1      41.973  21.637  26.600  1.00  0.00    -0.200 F 
ATOM     90  F   UNL A   1      43.941  21.165  24.777  1.00  0.00    -0.200 F 
ENDBRANCH  56  80
BRANCH  68  91
ATOM     91  C   UNL A   1      45.534  30.427  28.499  1.00  0.00     0.064 A 
ATOM     92  C   UNL A   1      44.480  31.080  27.835  1.00  0.00     0.173 A 
ATOM     93  C   UNL A   1      46.834  30.886  28.248  1.00  0.00     0.173 A 
ATOM     94  F   UNL A   1      43.204  30.764  28.087  1.00  0.00    -0.203 F 
ATOM     95  C   UNL A   1      44.724  32.118  26.936  1.00  0.00     0.198 A 
ATOM     96  C   UNL A   1      47.073  31.947  27.380  1.00  0.00     0.198 A 
ATOM     97  F   UNL A   1      47.875  30.334  28.891  1.00  0.00    -0.203 F 
ATOM     98  F   UNL A   1      43.703  32.720  26.309  1.00  0.00    -0.200 F 
ATOM     99  C   UNL A   1      46.020  32.557  26.718  1.00  0.00     0.200 A 
ATOM    100  F   UNL A   1      48.323  32.400  27.210  1.00  0.00    -0.200 F 
ATOM    101  F   UNL A   1      46.251  33.588  25.892  1.00  0.00    -0.200 F 
ENDBRANCH  68  91
ENDBRANCH  42  43
ENDBRANCH  34  37
ENDBRANCH  32  33
ENDBRANCH  31  32
ENDBRANCH  30  31
ENDBRANCH   1  30
TORSDOF 17
ENDMDL
