MODEL 1
REMARK VINA RESULT:     -12.8      0.000      0.000
REMARK SMILES CSCC[C@H](C(=O)NCCCCCCNC(=O)c1ccc(-c2c3nc(c(-c4c(F)c(F)c(F)c(F)c4F)c4ccc([nH]4)c(-c4c(F)c(F)c(F)c(F)c4F)c4nc(c(-c5c(F)c(F)c(F)c(F)c5F)c5ccc2[nH]5)C=C4)C=C3)cc1)N1C(=O)/C(=C/c2ccc3ncccc3c2)SC1=S
REMARK SMILES IDX 11 1 10 2 9 3 8 4 6 5 7 6 5 8 4 9 3 10 2 11 1 12 81 13 82 14
REMARK SMILES IDX 97 15 83 16 84 17 96 18 98 19 85 20 86 21 87 22 95 23 88 24
REMARK SMILES IDX 94 25 89 26 93 27 90 28 92 29 91 30 12 31 13 32 14 33 15 34
REMARK SMILES IDX 16 35 17 37 18 38 19 39 80 40 20 41 79 42 21 43 22 44 23 45
REMARK SMILES IDX 73 46 24 47 78 48 72 49 74 50 25 51 77 52 71 53 70 54 26 56
REMARK SMILES IDX 58 57 38 58 57 59 39 60 42 61 56 62 75 63 40 64 41 65 55 67
REMARK SMILES IDX 76 68 43 69 27 70 28 71 36 72 29 73 30 74 34 75 37 76 31 77
REMARK SMILES IDX 32 78 35 79 33 80 59 81 60 82 68 83 61 84 62 85 66 86 69 87
REMARK SMILES IDX 63 88 64 89 67 90 65 91 44 92 45 93 53 94 46 95 47 96 51 97
REMARK SMILES IDX 54 98 48 99 49 100 52 101 50 102
REMARK H PARENT 8 7 15 36 74 55 42 66
REMARK Flexibility Score: inf
ROOT
ATOM      1  C   UNL A   1      37.574  21.936  25.181  1.00  0.00     0.002 C 
ENDROOT
BRANCH   1   2
ATOM      2  C   UNL A   1      36.846  23.044  24.419  1.00  0.00     0.021 C 
BRANCH   2   3
ATOM      3  C   UNL A   1      35.986  23.961  25.277  1.00  0.00     0.116 C 
BRANCH   3   4
ATOM      4  N   UNL A   1      35.208  23.252  26.275  1.00  0.00    -0.354 N 
ATOM      5  C   UNL A   1      34.158  22.393  26.168  1.00  0.00     0.243 C 
ATOM      6  O   UNL A   1      33.963  21.654  27.142  1.00  0.00    -0.273 OA
ATOM      7  H   UNL A   1      35.494  23.423  27.201  1.00  0.00     0.163 HD
BRANCH   5   8
ATOM      8  C   UNL A   1      33.272  22.247  24.914  1.00  0.00     0.182 C 
BRANCH   8   9
ATOM      9  C   UNL A   1      32.805  20.871  24.425  1.00  0.00     0.046 C 
BRANCH   9  10
ATOM     10  C   UNL A   1      33.670  19.639  24.763  1.00  0.00     0.072 C 
BRANCH  10  11
ATOM     11  S   UNL A   1      33.348  18.045  23.934  1.00  0.00    -0.165 SA
ATOM     12  C   UNL A   1      33.380  16.900  25.344  1.00  0.00     0.085 C 
ENDBRANCH  10  11
ENDBRANCH   9  10
ENDBRANCH   8   9
BRANCH   8  13
ATOM     13  N   UNL A   1      32.271  23.340  24.763  1.00  0.00    -0.280 N 
ATOM     14  C   UNL A   1      32.465  24.222  23.704  1.00  0.00     0.266 C 
ATOM     15  C   UNL A   1      31.137  23.570  25.514  1.00  0.00     0.149 C 
ATOM     16  O   UNL A   1      33.260  24.087  22.784  1.00  0.00    -0.268 OA
ATOM     17  C   UNL A   1      31.558  25.386  23.822  1.00  0.00     0.081 C 
ATOM     18  S   UNL A   1      30.447  25.135  25.098  1.00  0.00    -0.054 SA
ATOM     19  S   UNL A   1      30.403  22.643  26.684  1.00  0.00    -0.052 S 
ATOM     20  C   UNL A   1      31.716  26.488  23.076  1.00  0.00     0.029 C 
BRANCH  20  21
ATOM     21  C   UNL A   1      31.067  27.758  23.403  1.00  0.00    -0.024 A 
ATOM     22  C   UNL A   1      31.588  28.653  24.332  1.00  0.00     0.010 A 
ATOM     23  C   UNL A   1      29.912  28.100  22.691  1.00  0.00     0.018 A 
ATOM     24  C   UNL A   1      30.958  29.889  24.527  1.00  0.00     0.029 A 
ATOM     25  C   UNL A   1      29.298  29.345  22.879  1.00  0.00     0.001 A 
ATOM     26  C   UNL A   1      29.825  30.263  23.809  1.00  0.00     0.070 A 
ATOM     27  C   UNL A   1      28.169  29.713  22.138  1.00  0.00     0.012 A 
ATOM     28  N   UNL A   1      29.270  31.473  24.003  1.00  0.00    -0.256 NA
ATOM     29  C   UNL A   1      27.602  30.964  22.331  1.00  0.00     0.021 A 
ATOM     30  C   UNL A   1      28.184  31.800  23.265  1.00  0.00     0.112 A 
ENDBRANCH  20  21
ENDBRANCH   8  13
ENDBRANCH   5   8
ENDBRANCH   3   4
ENDBRANCH   2   3
ENDBRANCH   1   2
BRANCH   1  31
ATOM     31  C   UNL A   1      37.189  20.508  24.785  1.00  0.00     0.002 C 
BRANCH  31  32
ATOM     32  C   UNL A   1      38.200  19.428  25.171  1.00  0.00     0.021 C 
BRANCH  32  33
ATOM     33  C   UNL A   1      39.512  19.948  25.748  1.00  0.00     0.116 C 
BRANCH  33  34
ATOM     34  N   UNL A   1      40.521  18.909  25.849  1.00  0.00    -0.352 N 
ATOM     35  C   UNL A   1      41.875  19.043  26.047  1.00  0.00     0.251 C 
ATOM     36  H   UNL A   1      40.192  17.986  25.765  1.00  0.00     0.163 HD
ATOM     37  O   UNL A   1      42.624  18.084  25.941  1.00  0.00    -0.269 OA
BRANCH  35  38
ATOM     38  C   UNL A   1      42.421  20.377  26.372  1.00  0.00     0.039 A 
ATOM     39  C   UNL A   1      43.071  21.106  25.374  1.00  0.00     0.014 A 
ATOM     40  C   UNL A   1      42.270  20.908  27.657  1.00  0.00     0.014 A 
ATOM     41  C   UNL A   1      43.523  22.398  25.648  1.00  0.00     0.010 A 
ATOM     42  C   UNL A   1      42.669  22.217  27.910  1.00  0.00     0.010 A 
ATOM     43  C   UNL A   1      43.303  22.972  26.910  1.00  0.00    -0.014 A 
BRANCH  43  44
ATOM     44  C   UNL A   1      43.738  24.358  27.214  1.00  0.00     0.031 A 
ATOM     45  C   UNL A   1      42.735  25.362  27.712  1.00  0.00     0.074 A 
ATOM     46  C   UNL A   1      45.008  24.732  26.966  1.00  0.00     0.049 A 
ATOM     47  N   UNL A   1      42.886  26.643  27.935  1.00  0.00    -0.248 NA
ATOM     48  C   UNL A   1      41.373  24.864  27.965  1.00  0.00     0.031 C 
ATOM     49  C   UNL A   1      46.061  23.861  26.442  1.00  0.00     0.029 A 
ATOM     50  N   UNL A   1      45.625  25.951  27.107  1.00  0.00    -0.354 N 
ATOM     51  C   UNL A   1      41.636  27.106  28.324  1.00  0.00     0.074 A 
ATOM     52  C   UNL A   1      40.729  25.980  28.275  1.00  0.00     0.031 C 
ATOM     53  C   UNL A   1      47.195  24.569  26.315  1.00  0.00     0.029 A 
ATOM     54  C   UNL A   1      46.942  25.950  26.715  1.00  0.00     0.049 A 
ATOM     55  H   UNL A   1      45.167  26.749  27.454  1.00  0.00     0.167 HD
ATOM     56  C   UNL A   1      41.283  28.357  28.703  1.00  0.00     0.037 A 
ATOM     57  C   UNL A   1      47.838  26.954  26.675  1.00  0.00     0.037 A 
ATOM     58  C   UNL A   1      42.200  29.461  28.804  1.00  0.00     0.049 A 
ATOM     59  C   UNL A   1      47.419  28.330  27.121  1.00  0.00     0.074 A 
ATOM     60  C   UNL A   1      41.960  30.741  29.270  1.00  0.00     0.029 A 
ATOM     61  N   UNL A   1      43.536  29.412  28.434  1.00  0.00    -0.354 N 
ATOM     62  N   UNL A   1      46.255  28.738  27.565  1.00  0.00    -0.248 NA
ATOM     63  C   UNL A   1      48.441  29.386  27.065  1.00  0.00     0.031 C 
ATOM     64  C   UNL A   1      43.139  31.480  29.144  1.00  0.00     0.029 A 
ATOM     65  C   UNL A   1      44.126  30.648  28.640  1.00  0.00     0.049 A 
ATOM     66  H   UNL A   1      43.996  28.618  28.078  1.00  0.00     0.167 HD
ATOM     67  C   UNL A   1      46.415  30.082  27.874  1.00  0.00     0.074 A 
ATOM     68  C   UNL A   1      47.789  30.421  27.574  1.00  0.00     0.031 C 
ATOM     69  C   UNL A   1      45.503  30.958  28.360  1.00  0.00     0.037 A 
BRANCH  56  70
ATOM     70  C   UNL A   1      39.845  28.608  29.045  1.00  0.00     0.064 A 
ATOM     71  C   UNL A   1      39.349  28.396  30.340  1.00  0.00     0.173 A 
ATOM     72  C   UNL A   1      38.968  29.128  28.081  1.00  0.00     0.173 A 
ATOM     73  F   UNL A   1      40.145  27.889  31.293  1.00  0.00    -0.203 F 
ATOM     74  C   UNL A   1      38.023  28.681  30.652  1.00  0.00     0.198 A 
ATOM     75  C   UNL A   1      37.650  29.436  28.404  1.00  0.00     0.198 A 
ATOM     76  F   UNL A   1      39.395  29.352  26.829  1.00  0.00    -0.203 F 
ATOM     77  F   UNL A   1      37.560  28.439  31.887  1.00  0.00    -0.200 F 
ATOM     78  C   UNL A   1      37.177  29.208  29.688  1.00  0.00     0.200 A 
ATOM     79  F   UNL A   1      36.837  29.957  27.474  1.00  0.00    -0.200 F 
ATOM     80  F   UNL A   1      35.904  29.494  29.994  1.00  0.00    -0.200 F 
ENDBRANCH  56  70
BRANCH  57  81
ATOM     81  C   UNL A   1      49.228  26.703  26.211  1.00  0.00     0.064 A 
ATOM     82  C   UNL A   1      49.601  26.972  24.886  1.00  0.00     0.173 A 
ATOM     83  C   UNL A   1      50.198  26.163  27.065  1.00  0.00     0.173 A 
ATOM     84  F   UNL A   1      48.700  27.469  24.026  1.00  0.00    -0.203 F 
ATOM     85  C   UNL A   1      50.884  26.682  24.426  1.00  0.00     0.198 A 
ATOM     86  C   UNL A   1      51.490  25.899  26.612  1.00  0.00     0.198 A 
ATOM     87  F   UNL A   1      49.894  25.891  28.343  1.00  0.00    -0.203 F 
ATOM     88  F   UNL A   1      51.196  26.896  23.140  1.00  0.00    -0.200 F 
ATOM     89  C   UNL A   1      51.828  26.147  25.290  1.00  0.00     0.200 A 
ATOM     90  F   UNL A   1      52.403  25.393  27.452  1.00  0.00    -0.200 F 
ATOM     91  F   UNL A   1      53.059  25.862  24.845  1.00  0.00    -0.200 F 
ENDBRANCH  57  81
BRANCH  69  92
ATOM     92  C   UNL A   1      45.972  32.353  28.649  1.00  0.00     0.064 A 
ATOM     93  C   UNL A   1      46.530  32.700  29.887  1.00  0.00     0.173 A 
ATOM     94  C   UNL A   1      45.910  33.340  27.653  1.00  0.00     0.173 A 
ATOM     95  F   UNL A   1      46.597  31.794  30.874  1.00  0.00    -0.203 F 
ATOM     96  C   UNL A   1      46.992  33.991  30.125  1.00  0.00     0.198 A 
ATOM     97  C   UNL A   1      46.397  34.623  27.885  1.00  0.00     0.198 A 
ATOM     98  F   UNL A   1      45.390  33.055  26.450  1.00  0.00    -0.203 F 
ATOM     99  F   UNL A   1      47.485  34.312  31.329  1.00  0.00    -0.200 F 
ATOM    100  C   UNL A   1      46.932  34.948  29.122  1.00  0.00     0.200 A 
ATOM    101  F   UNL A   1      46.351  35.543  26.912  1.00  0.00    -0.200 F 
ATOM    102  F   UNL A   1      47.387  36.188  29.350  1.00  0.00    -0.200 F 
ENDBRANCH  69  92
ENDBRANCH  43  44
ENDBRANCH  35  38
ENDBRANCH  33  34
ENDBRANCH  32  33
ENDBRANCH  31  32
ENDBRANCH   1  31
TORSDOF 18
ENDMDL
MODEL 2
REMARK VINA RESULT:     -12.5      0.663      7.071
REMARK SMILES CSCC[C@H](C(=O)NCCCCCCNC(=O)c1ccc(-c2c3nc(c(-c4c(F)c(F)c(F)c(F)c4F)c4ccc([nH]4)c(-c4c(F)c(F)c(F)c(F)c4F)c4nc(c(-c5c(F)c(F)c(F)c(F)c5F)c5ccc2[nH]5)C=C4)C=C3)cc1)N1C(=O)/C(=C/c2ccc3ncccc3c2)SC1=S
REMARK SMILES IDX 11 1 10 2 9 3 8 4 6 5 7 6 5 8 4 9 3 10 2 11 1 12 81 13 82 14
REMARK SMILES IDX 97 15 83 16 84 17 96 18 98 19 85 20 86 21 87 22 95 23 88 24
REMARK SMILES IDX 94 25 89 26 93 27 90 28 92 29 91 30 12 31 13 32 14 33 15 34
REMARK SMILES IDX 16 35 17 37 18 38 19 39 80 40 20 41 79 42 21 43 22 44 23 45
REMARK SMILES IDX 73 46 24 47 78 48 72 49 74 50 25 51 77 52 71 53 70 54 26 56
REMARK SMILES IDX 58 57 38 58 57 59 39 60 42 61 56 62 75 63 40 64 41 65 55 67
REMARK SMILES IDX 76 68 43 69 27 70 28 71 36 72 29 73 30 74 34 75 37 76 31 77
REMARK SMILES IDX 32 78 35 79 33 80 59 81 60 82 68 83 61 84 62 85 66 86 69 87
REMARK SMILES IDX 63 88 64 89 67 90 65 91 44 92 45 93 53 94 46 95 47 96 51 97
REMARK SMILES IDX 54 98 48 99 49 100 52 101 50 102
REMARK H PARENT 8 7 15 36 74 55 42 66
REMARK Flexibility Score: inf
ROOT
ATOM      1  C   UNL A   1      37.422  21.852  24.891  1.00  0.00     0.002 C 
ENDROOT
BRANCH   1   2
ATOM      2  C   UNL A   1      36.499  22.849  24.189  1.00  0.00     0.021 C 
BRANCH   2   3
ATOM      3  C   UNL A   1      35.833  23.868  25.104  1.00  0.00     0.116 C 
BRANCH   3   4
ATOM      4  N   UNL A   1      35.126  23.264  26.218  1.00  0.00    -0.354 N 
ATOM      5  C   UNL A   1      34.051  22.432  26.269  1.00  0.00     0.243 C 
ATOM      6  O   UNL A   1      33.922  21.780  27.313  1.00  0.00    -0.273 OA
ATOM      7  H   UNL A   1      35.493  23.500  27.100  1.00  0.00     0.163 HD
BRANCH   5   8
ATOM      8  C   UNL A   1      33.059  22.212  25.109  1.00  0.00     0.182 C 
BRANCH   8   9
ATOM      9  C   UNL A   1      32.509  20.817  24.785  1.00  0.00     0.046 C 
BRANCH   9  10
ATOM     10  C   UNL A   1      33.424  19.823  24.041  1.00  0.00     0.072 C 
BRANCH  10  11
ATOM     11  S   UNL A   1      33.718  18.161  24.737  1.00  0.00    -0.165 SA
ATOM     12  C   UNL A   1      33.722  17.142  23.233  1.00  0.00     0.085 C 
ENDBRANCH  10  11
ENDBRANCH   9  10
ENDBRANCH   8   9
BRANCH   8  13
ATOM     13  N   UNL A   1      32.084  23.325  24.941  1.00  0.00    -0.280 N 
ATOM     14  C   UNL A   1      32.283  24.171  23.854  1.00  0.00     0.266 C 
ATOM     15  C   UNL A   1      30.969  23.607  25.703  1.00  0.00     0.149 C 
ATOM     16  O   UNL A   1      33.059  23.988  22.925  1.00  0.00    -0.268 OA
ATOM     17  C   UNL A   1      31.409  25.361  23.952  1.00  0.00     0.081 C 
ATOM     18  S   UNL A   1      30.314  25.177  25.252  1.00  0.00    -0.054 SA
ATOM     19  S   UNL A   1      30.231  22.735  26.912  1.00  0.00    -0.052 S 
ATOM     20  C   UNL A   1      31.582  26.436  23.170  1.00  0.00     0.029 C 
BRANCH  20  21
ATOM     21  C   UNL A   1      30.972  27.731  23.469  1.00  0.00    -0.024 A 
ATOM     22  C   UNL A   1      31.535  28.643  24.358  1.00  0.00     0.010 A 
ATOM     23  C   UNL A   1      29.811  28.080  22.771  1.00  0.00     0.018 A 
ATOM     24  C   UNL A   1      30.939  29.900  24.526  1.00  0.00     0.029 A 
ATOM     25  C   UNL A   1      29.232  29.345  22.931  1.00  0.00     0.001 A 
ATOM     26  C   UNL A   1      29.801  30.279  23.820  1.00  0.00     0.070 A 
ATOM     27  C   UNL A   1      28.097  29.718  22.202  1.00  0.00     0.012 A 
ATOM     28  N   UNL A   1      29.281  31.508  23.987  1.00  0.00    -0.256 NA
ATOM     29  C   UNL A   1      27.565  30.989  22.366  1.00  0.00     0.021 A 
ATOM     30  C   UNL A   1      28.187  31.839  23.261  1.00  0.00     0.112 A 
ENDBRANCH  20  21
ENDBRANCH   8  13
ENDBRANCH   5   8
ENDBRANCH   3   4
ENDBRANCH   2   3
ENDBRANCH   1   2
BRANCH   1  31
ATOM     31  C   UNL A   1      37.104  20.377  24.640  1.00  0.00     0.002 C 
BRANCH  31  32
ATOM     32  C   UNL A   1      38.170  19.388  25.113  1.00  0.00     0.021 C 
BRANCH  32  33
ATOM     33  C   UNL A   1      39.389  20.022  25.775  1.00  0.00     0.116 C 
BRANCH  33  34
ATOM     34  N   UNL A   1      40.448  19.058  26.018  1.00  0.00    -0.352 N 
ATOM     35  C   UNL A   1      41.778  19.291  26.276  1.00  0.00     0.251 C 
ATOM     36  H   UNL A   1      40.178  18.112  25.995  1.00  0.00     0.163 HD
ATOM     37  O   UNL A   1      42.585  18.375  26.292  1.00  0.00    -0.269 OA
BRANCH  35  38
ATOM     38  C   UNL A   1      42.227  20.679  26.516  1.00  0.00     0.039 A 
ATOM     39  C   UNL A   1      42.517  21.496  25.421  1.00  0.00     0.014 A 
ATOM     40  C   UNL A   1      42.340  21.169  27.820  1.00  0.00     0.014 A 
ATOM     41  C   UNL A   1      42.869  22.831  25.633  1.00  0.00     0.010 A 
ATOM     42  C   UNL A   1      42.633  22.513  28.026  1.00  0.00     0.010 A 
ATOM     43  C   UNL A   1      42.904  23.355  26.935  1.00  0.00    -0.014 A 
BRANCH  43  44
ATOM     44  C   UNL A   1      43.235  24.780  27.184  1.00  0.00     0.031 A 
ATOM     45  C   UNL A   1      44.628  25.279  26.920  1.00  0.00     0.074 A 
ATOM     46  C   UNL A   1      42.311  25.600  27.722  1.00  0.00     0.049 A 
ATOM     47  N   UNL A   1      45.149  26.454  27.169  1.00  0.00    -0.248 NA
ATOM     48  C   UNL A   1      45.571  24.319  26.322  1.00  0.00     0.031 C 
ATOM     49  C   UNL A   1      40.938  25.222  28.062  1.00  0.00     0.029 A 
ATOM     50  N   UNL A   1      42.393  26.920  28.092  1.00  0.00    -0.354 N 
ATOM     51  C   UNL A   1      46.481  26.364  26.787  1.00  0.00     0.074 A 
ATOM     52  C   UNL A   1      46.701  25.011  26.322  1.00  0.00     0.031 C 
ATOM     53  C   UNL A   1      40.304  26.286  28.581  1.00  0.00     0.029 A 
ATOM     54  C   UNL A   1      41.233  27.410  28.643  1.00  0.00     0.049 A 
ATOM     55  H   UNL A   1      43.205  27.462  27.975  1.00  0.00     0.167 HD
ATOM     56  C   UNL A   1      47.430  27.328  26.809  1.00  0.00     0.037 A 
ATOM     57  C   UNL A   1      40.957  28.628  29.148  1.00  0.00     0.037 A 
ATOM     58  C   UNL A   1      47.193  28.687  27.220  1.00  0.00     0.049 A 
ATOM     59  C   UNL A   1      42.030  29.685  29.141  1.00  0.00     0.074 A 
ATOM     60  C   UNL A   1      48.064  29.762  27.187  1.00  0.00     0.029 A 
ATOM     61  N   UNL A   1      45.995  29.157  27.736  1.00  0.00    -0.354 N 
ATOM     62  N   UNL A   1      43.263  29.612  28.702  1.00  0.00    -0.248 NA
ATOM     63  C   UNL A   1      41.670  30.999  29.696  1.00  0.00     0.031 C 
ATOM     64  C   UNL A   1      47.407  30.873  27.722  1.00  0.00     0.029 A 
ATOM     65  C   UNL A   1      46.112  30.501  28.048  1.00  0.00     0.049 A 
ATOM     66  H   UNL A   1      45.183  28.615  27.863  1.00  0.00     0.167 HD
ATOM     67  C   UNL A   1      43.811  30.873  28.893  1.00  0.00     0.074 A 
ATOM     68  C   UNL A   1      42.776  31.696  29.482  1.00  0.00     0.031 C 
ATOM     69  C   UNL A   1      45.062  31.309  28.609  1.00  0.00     0.037 A 
BRANCH  56  70
ATOM     70  C   UNL A   1      48.816  26.961  26.372  1.00  0.00     0.064 A 
ATOM     71  C   UNL A   1      49.756  26.434  27.269  1.00  0.00     0.173 A 
ATOM     72  C   UNL A   1      49.187  27.078  25.024  1.00  0.00     0.173 A 
ATOM     73  F   UNL A   1      49.453  26.314  28.571  1.00  0.00    -0.203 F 
ATOM     74  C   UNL A   1      51.023  26.053  26.836  1.00  0.00     0.198 A 
ATOM     75  C   UNL A   1      50.445  26.671  24.590  1.00  0.00     0.198 A 
ATOM     76  F   UNL A   1      48.323  27.573  24.125  1.00  0.00    -0.203 F 
ATOM     77  F   UNL A   1      51.917  25.584  27.717  1.00  0.00    -0.200 F 
ATOM     78  C   UNL A   1      51.364  26.163  25.496  1.00  0.00     0.200 A 
ATOM     79  F   UNL A   1      50.769  26.768  23.292  1.00  0.00    -0.200 F 
ATOM     80  F   UNL A   1      52.579  25.783  25.078  1.00  0.00    -0.200 F 
ENDBRANCH  56  70
BRANCH  57  81
ATOM     81  C   UNL A   1      39.607  28.928  29.691  1.00  0.00     0.064 A 
ATOM     82  C   UNL A   1      39.317  28.721  31.047  1.00  0.00     0.173 A 
ATOM     83  C   UNL A   1      38.573  29.394  28.867  1.00  0.00     0.173 A 
ATOM     84  F   UNL A   1      40.268  28.255  31.870  1.00  0.00    -0.203 F 
ATOM     85  C   UNL A   1      38.037  28.940  31.552  1.00  0.00     0.198 A 
ATOM     86  C   UNL A   1      37.300  29.639  29.378  1.00  0.00     0.198 A 
ATOM     87  F   UNL A   1      38.799  29.611  27.563  1.00  0.00    -0.203 F 
ATOM     88  F   UNL A   1      37.775  28.680  32.841  1.00  0.00    -0.200 F 
ATOM     89  C   UNL A   1      37.030  29.401  30.718  1.00  0.00     0.200 A 
ATOM     90  F   UNL A   1      36.332  30.096  28.571  1.00  0.00    -0.200 F 
ATOM     91  F   UNL A   1      35.798  29.606  31.202  1.00  0.00    -0.200 F 
ENDBRANCH  57  81
BRANCH  69  92
ATOM     92  C   UNL A   1      45.367  32.752  28.881  1.00  0.00     0.064 A 
ATOM     93  C   UNL A   1      45.045  33.758  27.959  1.00  0.00     0.173 A 
ATOM     94  C   UNL A   1      45.942  33.135  30.103  1.00  0.00     0.173 A 
ATOM     95  F   UNL A   1      44.508  33.439  26.772  1.00  0.00    -0.203 F 
ATOM     96  C   UNL A   1      45.304  35.096  28.243  1.00  0.00     0.198 A 
ATOM     97  C   UNL A   1      46.175  34.476  30.394  1.00  0.00     0.198 A 
ATOM     98  F   UNL A   1      46.262  32.210  31.018  1.00  0.00    -0.203 F 
ATOM     99  F   UNL A   1      45.025  36.038  27.332  1.00  0.00    -0.200 F 
ATOM    100  C   UNL A   1      45.862  35.453  29.463  1.00  0.00     0.200 A 
ATOM    101  F   UNL A   1      46.701  34.821  31.577  1.00  0.00    -0.200 F 
ATOM    102  F   UNL A   1      46.101  36.743  29.738  1.00  0.00    -0.200 F 
ENDBRANCH  69  92
ENDBRANCH  43  44
ENDBRANCH  35  38
ENDBRANCH  33  34
ENDBRANCH  32  33
ENDBRANCH  31  32
ENDBRANCH   1  31
TORSDOF 18
ENDMDL
MODEL 3
REMARK VINA RESULT:     -12.2      4.324      8.319
REMARK SMILES CSCC[C@H](C(=O)NCCCCCCNC(=O)c1ccc(-c2c3nc(c(-c4c(F)c(F)c(F)c(F)c4F)c4ccc([nH]4)c(-c4c(F)c(F)c(F)c(F)c4F)c4nc(c(-c5c(F)c(F)c(F)c(F)c5F)c5ccc2[nH]5)C=C4)C=C3)cc1)N1C(=O)/C(=C/c2ccc3ncccc3c2)SC1=S
REMARK SMILES IDX 11 1 10 2 9 3 8 4 6 5 7 6 5 8 4 9 3 10 2 11 1 12 81 13 82 14
REMARK SMILES IDX 97 15 83 16 84 17 96 18 98 19 85 20 86 21 87 22 95 23 88 24
REMARK SMILES IDX 94 25 89 26 93 27 90 28 92 29 91 30 12 31 13 32 14 33 15 34
REMARK SMILES IDX 16 35 17 37 18 38 19 39 80 40 20 41 79 42 21 43 22 44 23 45
REMARK SMILES IDX 73 46 24 47 78 48 72 49 74 50 25 51 77 52 71 53 70 54 26 56
REMARK SMILES IDX 58 57 38 58 57 59 39 60 42 61 56 62 75 63 40 64 41 65 55 67
REMARK SMILES IDX 76 68 43 69 27 70 28 71 36 72 29 73 30 74 34 75 37 76 31 77
REMARK SMILES IDX 32 78 35 79 33 80 59 81 60 82 68 83 61 84 62 85 66 86 69 87
REMARK SMILES IDX 63 88 64 89 67 90 65 91 44 92 45 93 53 94 46 95 47 96 51 97
REMARK SMILES IDX 54 98 48 99 49 100 52 101 50 102
REMARK H PARENT 8 7 15 36 74 55 42 66
REMARK Flexibility Score: inf
ROOT
ATOM      1  C   UNL A   1      38.945  23.115  26.561  1.00  0.00     0.002 C 
ENDROOT
BRANCH   1   2
ATOM      2  C   UNL A   1      37.867  24.108  26.121  1.00  0.00     0.021 C 
BRANCH   2   3
ATOM      3  C   UNL A   1      36.621  23.481  25.511  1.00  0.00     0.116 C 
BRANCH   3   4
ATOM      4  N   UNL A   1      35.603  23.155  26.491  1.00  0.00    -0.354 N 
ATOM      5  C   UNL A   1      34.391  22.549  26.377  1.00  0.00     0.243 C 
ATOM      6  O   UNL A   1      33.930  22.061  27.416  1.00  0.00    -0.273 OA
ATOM      7  H   UNL A   1      35.832  23.423  27.411  1.00  0.00     0.163 HD
BRANCH   5   8
ATOM      8  C   UNL A   1      33.619  22.380  25.052  1.00  0.00     0.182 C 
BRANCH   8   9
ATOM      9  C   UNL A   1      33.255  20.991  24.514  1.00  0.00     0.046 C 
BRANCH   9  10
ATOM     10  C   UNL A   1      34.147  19.795  24.905  1.00  0.00     0.072 C 
BRANCH  10  11
ATOM     11  S   UNL A   1      33.828  18.148  24.184  1.00  0.00    -0.165 SA
ATOM     12  C   UNL A   1      32.591  17.489  25.339  1.00  0.00     0.085 C 
ENDBRANCH  10  11
ENDBRANCH   9  10
ENDBRANCH   8   9
BRANCH   8  13
ATOM     13  N   UNL A   1      32.589  23.431  24.825  1.00  0.00    -0.280 N 
ATOM     14  C   UNL A   1      32.875  24.387  23.855  1.00  0.00     0.266 C 
ATOM     15  C   UNL A   1      31.353  23.558  25.424  1.00  0.00     0.149 C 
ATOM     16  O   UNL A   1      33.794  24.349  23.048  1.00  0.00    -0.268 OA
ATOM     17  C   UNL A   1      31.897  25.497  23.912  1.00  0.00     0.081 C 
ATOM     18  S   UNL A   1      30.640  25.113  25.006  1.00  0.00    -0.054 SA
ATOM     19  S   UNL A   1      30.520  22.525  26.427  1.00  0.00    -0.052 S 
ATOM     20  C   UNL A   1      32.093  26.650  23.259  1.00  0.00     0.029 C 
BRANCH  20  21
ATOM     21  C   UNL A   1      31.336  27.864  23.563  1.00  0.00    -0.024 A 
ATOM     22  C   UNL A   1      31.742  28.784  24.527  1.00  0.00     0.010 A 
ATOM     23  C   UNL A   1      30.196  28.130  22.797  1.00  0.00     0.018 A 
ATOM     24  C   UNL A   1      31.013  29.967  24.701  1.00  0.00     0.029 A 
ATOM     25  C   UNL A   1      29.483  29.324  22.965  1.00  0.00     0.001 A 
ATOM     26  C   UNL A   1      29.893  30.266  23.930  1.00  0.00     0.070 A 
ATOM     27  C   UNL A   1      28.369  29.618  22.171  1.00  0.00     0.012 A 
ATOM     28  N   UNL A   1      29.241  31.429  24.106  1.00  0.00    -0.256 NA
ATOM     29  C   UNL A   1      27.702  30.821  22.346  1.00  0.00     0.021 A 
ATOM     30  C   UNL A   1      28.172  31.685  23.317  1.00  0.00     0.112 A 
ENDBRANCH  20  21
ENDBRANCH   8  13
ENDBRANCH   5   8
ENDBRANCH   3   4
ENDBRANCH   2   3
ENDBRANCH   1   2
BRANCH   1  31
ATOM     31  C   UNL A   1      38.967  21.791  25.794  1.00  0.00     0.002 C 
BRANCH  31  32
ATOM     32  C   UNL A   1      40.076  20.819  26.200  1.00  0.00     0.021 C 
BRANCH  32  33
ATOM     33  C   UNL A   1      41.347  21.475  26.727  1.00  0.00     0.116 C 
BRANCH  33  34
ATOM     34  N   UNL A   1      42.257  21.852  25.659  1.00  0.00    -0.352 N 
ATOM     35  C   UNL A   1      42.815  23.081  25.401  1.00  0.00     0.251 C 
ATOM     36  H   UNL A   1      42.507  21.131  25.038  1.00  0.00     0.163 HD
ATOM     37  O   UNL A   1      43.429  23.288  24.366  1.00  0.00    -0.269 OA
BRANCH  35  38
ATOM     38  C   UNL A   1      42.643  24.166  26.390  1.00  0.00     0.039 A 
ATOM     39  C   UNL A   1      42.964  25.475  26.022  1.00  0.00     0.014 A 
ATOM     40  C   UNL A   1      42.148  23.886  27.667  1.00  0.00     0.014 A 
ATOM     41  C   UNL A   1      42.735  26.518  26.922  1.00  0.00     0.010 A 
ATOM     42  C   UNL A   1      41.866  24.933  28.539  1.00  0.00     0.010 A 
ATOM     43  C   UNL A   1      42.159  26.258  28.176  1.00  0.00    -0.014 A 
BRANCH  43  44
ATOM     44  C   UNL A   1      41.868  27.353  29.134  1.00  0.00     0.031 A 
ATOM     45  C   UNL A   1      42.752  27.549  30.334  1.00  0.00     0.074 A 
ATOM     46  C   UNL A   1      40.769  28.114  28.968  1.00  0.00     0.049 A 
ATOM     47  N   UNL A   1      42.612  28.373  31.341  1.00  0.00    -0.248 NA
ATOM     48  C   UNL A   1      43.937  26.679  30.430  1.00  0.00     0.031 C 
ATOM     49  C   UNL A   1      39.812  27.993  27.868  1.00  0.00     0.029 A 
ATOM     50  N   UNL A   1      40.262  29.133  29.738  1.00  0.00    -0.354 N 
ATOM     51  C   UNL A   1      43.669  28.102  32.199  1.00  0.00     0.074 A 
ATOM     52  C   UNL A   1      44.424  27.015  31.616  1.00  0.00     0.031 C 
ATOM     53  C   UNL A   1      38.840  28.907  28.026  1.00  0.00     0.029 A 
ATOM     54  C   UNL A   1      39.086  29.655  29.256  1.00  0.00     0.049 A 
ATOM     55  H   UNL A   1      40.700  29.458  30.557  1.00  0.00     0.167 HD
ATOM     56  C   UNL A   1      43.988  28.717  33.362  1.00  0.00     0.037 A 
ATOM     57  C   UNL A   1      38.293  30.621  29.757  1.00  0.00     0.037 A 
ATOM     58  C   UNL A   1      43.267  29.835  33.910  1.00  0.00     0.049 A 
ATOM     59  C   UNL A   1      38.686  31.298  31.043  1.00  0.00     0.074 A 
ATOM     60  C   UNL A   1      43.567  30.589  35.031  1.00  0.00     0.029 A 
ATOM     61  N   UNL A   1      42.101  30.361  33.374  1.00  0.00    -0.354 N 
ATOM     62  N   UNL A   1      39.733  31.089  31.804  1.00  0.00    -0.248 NA
ATOM     63  C   UNL A   1      37.788  32.353  31.539  1.00  0.00     0.031 C 
ATOM     64  C   UNL A   1      42.561  31.544  35.197  1.00  0.00     0.029 A 
ATOM     65  C   UNL A   1      41.657  31.414  34.155  1.00  0.00     0.049 A 
ATOM     66  H   UNL A   1      41.656  30.033  32.559  1.00  0.00     0.167 HD
ATOM     67  C   UNL A   1      39.638  32.005  32.843  1.00  0.00     0.074 A 
ATOM     68  C   UNL A   1      38.437  32.778  32.613  1.00  0.00     0.031 C 
ATOM     69  C   UNL A   1      40.472  32.188  33.895  1.00  0.00     0.037 A 
BRANCH  56  70
ATOM     70  C   UNL A   1      45.172  28.206  34.125  1.00  0.00     0.064 A 
ATOM     71  C   UNL A   1      46.456  28.736  33.934  1.00  0.00     0.173 A 
ATOM     72  C   UNL A   1      45.008  27.218  35.108  1.00  0.00     0.173 A 
ATOM     73  F   UNL A   1      46.667  29.674  32.998  1.00  0.00    -0.203 F 
ATOM     74  C   UNL A   1      47.537  28.283  34.686  1.00  0.00     0.198 A 
ATOM     75  C   UNL A   1      46.085  26.787  35.877  1.00  0.00     0.198 A 
ATOM     76  F   UNL A   1      43.800  26.682  35.333  1.00  0.00    -0.203 F 
ATOM     77  F   UNL A   1      48.762  28.779  34.463  1.00  0.00    -0.200 F 
ATOM     78  C   UNL A   1      47.349  27.316  35.663  1.00  0.00     0.200 A 
ATOM     79  F   UNL A   1      45.900  25.860  36.828  1.00  0.00    -0.200 F 
ATOM     80  F   UNL A   1      48.388  26.891  36.396  1.00  0.00    -0.200 F 
ENDBRANCH  56  70
BRANCH  57  81
ATOM     81  C   UNL A   1      37.055  31.023  29.041  1.00  0.00     0.064 A 
ATOM     82  C   UNL A   1      36.934  32.304  28.480  1.00  0.00     0.173 A 
ATOM     83  C   UNL A   1      35.959  30.158  28.929  1.00  0.00     0.173 A 
ATOM     84  F   UNL A   1      37.948  33.175  28.581  1.00  0.00    -0.203 F 
ATOM     85  C   UNL A   1      35.754  32.711  27.862  1.00  0.00     0.198 A 
ATOM     86  C   UNL A   1      34.788  30.556  28.287  1.00  0.00     0.198 A 
ATOM     87  F   UNL A   1      36.024  28.921  29.445  1.00  0.00    -0.203 F 
ATOM     88  F   UNL A   1      35.647  33.960  27.386  1.00  0.00    -0.200 F 
ATOM     89  C   UNL A   1      34.683  31.837  27.764  1.00  0.00     0.200 A 
ATOM     90  F   UNL A   1      33.759  29.704  28.183  1.00  0.00    -0.200 F 
ATOM     91  F   UNL A   1      33.545  32.231  27.175  1.00  0.00    -0.200 F 
ENDBRANCH  57  81
BRANCH  69  92
ATOM     92  C   UNL A   1      40.145  33.298  34.850  1.00  0.00     0.064 A 
ATOM     93  C   UNL A   1      39.341  33.083  35.978  1.00  0.00     0.173 A 
ATOM     94  C   UNL A   1      40.687  34.578  34.658  1.00  0.00     0.173 A 
ATOM     95  F   UNL A   1      38.789  31.880  36.194  1.00  0.00    -0.203 F 
ATOM     96  C   UNL A   1      39.076  34.116  36.872  1.00  0.00     0.198 A 
ATOM     97  C   UNL A   1      40.442  35.602  35.568  1.00  0.00     0.198 A 
ATOM     98  F   UNL A   1      41.467  34.830  33.597  1.00  0.00    -0.203 F 
ATOM     99  F   UNL A   1      38.274  33.900  37.923  1.00  0.00    -0.200 F 
ATOM    100  C   UNL A   1      39.633  35.371  36.671  1.00  0.00     0.200 A 
ATOM    101  F   UNL A   1      40.991  36.810  35.381  1.00  0.00    -0.200 F 
ATOM    102  F   UNL A   1      39.385  36.362  37.539  1.00  0.00    -0.200 F 
ENDBRANCH  69  92
ENDBRANCH  43  44
ENDBRANCH  35  38
ENDBRANCH  33  34
ENDBRANCH  32  33
ENDBRANCH  31  32
ENDBRANCH   1  31
TORSDOF 18
ENDMDL
