MODEL 1
REMARK VINA RESULT:     -12.6      0.000      0.000
REMARK SMILES C[C@H]1[C@H]([NH+]2CCC(CC(=O)NCCCCCCNC(=O)c3ccc(-c4c5nc(c(-c6c(F)c(F)c(F)c(F)c6F)c6ccc([nH]6)c(-c6c(F)c(F)c(F)c(F)c6F)c6nc(c(-c7c(F)c(F)c(F)c(F)c7F)c7ccc4[nH]7)C=C6)C=C5)cc3)CC2)CCC[C@@H]1C
REMARK SMILES IDX 14 1 13 2 12 3 11 4 9 5 10 6 8 8 7 9 4 10 5 11 85 12 6 14
REMARK SMILES IDX 84 15 3 16 1 17 2 18 89 19 86 20 88 21 90 22 87 23 15 24
REMARK SMILES IDX 16 25 17 26 18 27 19 28 20 30 21 31 22 32 83 33 23 34 82 35
REMARK SMILES IDX 24 36 25 37 26 38 76 39 27 40 81 41 75 42 77 43 28 44 80 45
REMARK SMILES IDX 74 46 73 47 29 49 61 50 41 51 60 52 42 53 45 54 59 55 78 56
REMARK SMILES IDX 43 57 44 58 58 60 79 61 46 62 30 63 31 64 39 65 32 66 33 67
REMARK SMILES IDX 37 68 40 69 34 70 35 71 38 72 36 73 62 74 63 75 71 76 64 77
REMARK SMILES IDX 65 78 69 79 72 80 66 81 67 82 70 83 68 84 47 85 48 86 56 87
REMARK SMILES IDX 49 88 50 89 54 90 57 91 51 92 52 93 55 94 53 95
REMARK H PARENT 11 7 4 13 18 29 77 48 45 59
REMARK Flexibility Score: inf
ROOT
ATOM      1  C   UNL A   1      32.437  30.025  26.757  1.00  0.00     0.002 C 
ENDROOT
BRANCH   1   2
ATOM      2  C   UNL A   1      31.876  28.763  27.409  1.00  0.00     0.021 C 
BRANCH   2   3
ATOM      3  C   UNL A   1      32.252  27.470  26.678  1.00  0.00     0.116 C 
BRANCH   3   4
ATOM      4  N   UNL A   1      31.233  26.456  26.880  1.00  0.00    -0.356 N 
ATOM      5  C   UNL A   1      31.110  25.202  26.359  1.00  0.00     0.220 C 
ATOM      6  O   UNL A   1      30.063  24.587  26.567  1.00  0.00    -0.275 OA
ATOM      7  H   UNL A   1      30.511  26.717  27.497  1.00  0.00     0.163 HD
BRANCH   5   8
ATOM      8  C   UNL A   1      32.244  24.560  25.584  1.00  0.00     0.104 C 
BRANCH   8   9
ATOM      9  C   UNL A   1      33.325  23.853  26.439  1.00  0.00     0.009 C 
ATOM     10  N   UNL A   1      34.607  21.209  26.010  1.00  0.00    -0.332 N 
ATOM     11  C   UNL A   1      35.400  22.419  25.877  1.00  0.00     0.262 C 
ATOM     12  C   UNL A   1      33.654  21.310  27.097  1.00  0.00     0.262 C 
ATOM     13  H   UNL A   1      35.282  20.501  26.296  1.00  0.00     0.348 HD
ATOM     14  C   UNL A   1      34.571  23.652  25.559  1.00  0.00     0.066 C 
ATOM     15  C   UNL A   1      32.792  22.574  27.112  1.00  0.00     0.066 C 
BRANCH  10  16
ATOM     16  C   UNL A   1      34.330  20.338  24.850  1.00  0.00     0.187 C 
ATOM     17  C   UNL A   1      36.320  18.751  24.705  1.00  0.00     0.014 C 
ATOM     18  C   UNL A   1      34.806  18.845  24.929  1.00  0.00     0.047 C 
ATOM     19  C   UNL A   1      34.128  17.863  23.931  1.00  0.00    -0.006 C 
ATOM     20  C   UNL A   1      32.835  20.490  24.485  1.00  0.00     0.065 C 
ATOM     21  C   UNL A   1      32.631  18.120  23.780  1.00  0.00     0.004 C 
ATOM     22  C   UNL A   1      34.343  16.399  24.357  1.00  0.00     0.008 C 
ATOM     23  C   UNL A   1      32.387  19.560  23.370  1.00  0.00     0.006 C 
ENDBRANCH  10  16
ENDBRANCH   8   9
ENDBRANCH   5   8
ENDBRANCH   3   4
ENDBRANCH   2   3
ENDBRANCH   1   2
BRANCH   1  24
ATOM     24  C   UNL A   1      31.391  30.880  26.037  1.00  0.00     0.002 C 
BRANCH  24  25
ATOM     25  C   UNL A   1      31.295  32.338  26.502  1.00  0.00     0.021 C 
BRANCH  25  26
ATOM     26  C   UNL A   1      32.520  32.866  27.245  1.00  0.00     0.116 C 
BRANCH  26  27
ATOM     27  N   UNL A   1      32.365  34.260  27.631  1.00  0.00    -0.352 N 
ATOM     28  C   UNL A   1      32.979  34.971  28.631  1.00  0.00     0.251 C 
ATOM     29  H   UNL A   1      31.721  34.772  27.091  1.00  0.00     0.163 HD
ATOM     30  O   UNL A   1      32.557  36.077  28.949  1.00  0.00    -0.269 OA
BRANCH  28  31
ATOM     31  C   UNL A   1      34.146  34.402  29.334  1.00  0.00     0.039 A 
ATOM     32  C   UNL A   1      33.945  33.736  30.546  1.00  0.00     0.014 A 
ATOM     33  C   UNL A   1      35.437  34.557  28.822  1.00  0.00     0.014 A 
ATOM     34  C   UNL A   1      35.035  33.178  31.218  1.00  0.00     0.010 A 
ATOM     35  C   UNL A   1      36.514  33.946  29.459  1.00  0.00     0.010 A 
ATOM     36  C   UNL A   1      36.323  33.256  30.666  1.00  0.00    -0.014 A 
BRANCH  36  37
ATOM     37  C   UNL A   1      37.485  32.620  31.336  1.00  0.00     0.031 A 
ATOM     38  C   UNL A   1      38.208  31.480  30.677  1.00  0.00     0.074 A 
ATOM     39  C   UNL A   1      37.843  33.025  32.569  1.00  0.00     0.049 A 
ATOM     40  N   UNL A   1      39.194  30.750  31.133  1.00  0.00    -0.248 NA
ATOM     41  C   UNL A   1      37.743  31.090  29.336  1.00  0.00     0.031 C 
ATOM     42  C   UNL A   1      37.188  34.090  33.331  1.00  0.00     0.029 A 
ATOM     43  N   UNL A   1      38.839  32.584  33.403  1.00  0.00    -0.354 N 
ATOM     44  C   UNL A   1      39.452  29.805  30.148  1.00  0.00     0.074 A 
ATOM     45  C   UNL A   1      38.492  30.025  29.088  1.00  0.00     0.031 C 
ATOM     46  C   UNL A   1      37.810  34.231  34.513  1.00  0.00     0.029 A 
ATOM     47  C   UNL A   1      38.883  33.244  34.606  1.00  0.00     0.049 A 
ATOM     48  H   UNL A   1      39.462  31.860  33.162  1.00  0.00     0.167 HD
ATOM     49  C   UNL A   1      40.415  28.853  30.124  1.00  0.00     0.037 A 
ATOM     50  C   UNL A   1      39.694  33.071  35.668  1.00  0.00     0.037 A 
ATOM     51  C   UNL A   1      41.390  28.662  31.166  1.00  0.00     0.049 A 
ATOM     52  C   UNL A   1      40.764  32.017  35.609  1.00  0.00     0.074 A 
ATOM     53  C   UNL A   1      42.452  27.776  31.201  1.00  0.00     0.029 A 
ATOM     54  N   UNL A   1      41.418  29.367  32.361  1.00  0.00    -0.354 N 
ATOM     55  N   UNL A   1      41.044  31.174  34.644  1.00  0.00    -0.248 NA
ATOM     56  C   UNL A   1      41.637  31.892  36.784  1.00  0.00     0.031 C 
ATOM     57  C   UNL A   1      43.096  27.914  32.435  1.00  0.00     0.029 A 
ATOM     58  C   UNL A   1      42.467  28.920  33.148  1.00  0.00     0.049 A 
ATOM     59  H   UNL A   1      40.788  30.080  32.610  1.00  0.00     0.167 HD
ATOM     60  C   UNL A   1      42.136  30.439  35.082  1.00  0.00     0.074 A 
ATOM     61  C   UNL A   1      42.478  30.944  36.396  1.00  0.00     0.031 C 
ATOM     62  C   UNL A   1      42.796  29.437  34.452  1.00  0.00     0.037 A 
BRANCH  49  63
ATOM     63  C   UNL A   1      40.467  27.943  28.932  1.00  0.00     0.064 A 
ATOM     64  C   UNL A   1      41.256  28.241  27.811  1.00  0.00     0.173 A 
ATOM     65  C   UNL A   1      39.753  26.735  28.928  1.00  0.00     0.173 A 
ATOM     66  F   UNL A   1      41.950  29.389  27.758  1.00  0.00    -0.203 F 
ATOM     67  C   UNL A   1      41.309  27.376  26.721  1.00  0.00     0.198 A 
ATOM     68  C   UNL A   1      39.832  25.858  27.849  1.00  0.00     0.198 A 
ATOM     69  F   UNL A   1      38.987  26.399  29.978  1.00  0.00    -0.203 F 
ATOM     70  F   UNL A   1      42.034  27.703  25.642  1.00  0.00    -0.200 F 
ATOM     71  C   UNL A   1      40.603  26.183  26.744  1.00  0.00     0.200 A 
ATOM     72  F   UNL A   1      39.159  24.699  27.879  1.00  0.00    -0.200 F 
ATOM     73  F   UNL A   1      40.663  25.347  25.698  1.00  0.00    -0.200 F 
ENDBRANCH  49  63
BRANCH  50  74
ATOM     74  C   UNL A   1      39.540  33.939  36.863  1.00  0.00     0.064 A 
ATOM     75  C   UNL A   1      38.774  33.521  37.960  1.00  0.00     0.173 A 
ATOM     76  C   UNL A   1      40.164  35.192  36.941  1.00  0.00     0.173 A 
ATOM     77  F   UNL A   1      38.144  32.338  37.923  1.00  0.00    -0.203 F 
ATOM     78  C   UNL A   1      38.624  34.332  39.083  1.00  0.00     0.198 A 
ATOM     79  C   UNL A   1      40.035  35.990  38.075  1.00  0.00     0.198 A 
ATOM     80  F   UNL A   1      40.913  35.634  35.920  1.00  0.00    -0.203 F 
ATOM     81  F   UNL A   1      37.854  33.924  40.101  1.00  0.00    -0.200 F 
ATOM     82  C   UNL A   1      39.259  35.562  39.142  1.00  0.00     0.200 A 
ATOM     83  F   UNL A   1      40.663  37.172  38.136  1.00  0.00    -0.200 F 
ATOM     84  F   UNL A   1      39.122  36.338  40.227  1.00  0.00    -0.200 F 
ENDBRANCH  50  74
BRANCH  62  85
ATOM     85  C   UNL A   1      43.976  28.837  35.161  1.00  0.00     0.064 A 
ATOM     86  C   UNL A   1      45.272  29.345  34.990  1.00  0.00     0.173 A 
ATOM     87  C   UNL A   1      43.799  27.770  36.055  1.00  0.00     0.173 A 
ATOM     88  F   UNL A   1      45.495  30.354  34.135  1.00  0.00    -0.203 F 
ATOM     89  C   UNL A   1      46.351  28.792  35.674  1.00  0.00     0.198 A 
ATOM     90  C   UNL A   1      44.876  27.240  36.758  1.00  0.00     0.198 A 
ATOM     91  F   UNL A   1      42.578  27.254  36.258  1.00  0.00    -0.203 F 
ATOM     92  F   UNL A   1      47.588  29.263  35.462  1.00  0.00    -0.200 F 
ATOM     93  C   UNL A   1      46.151  27.746  36.562  1.00  0.00     0.200 A 
ATOM     94  F   UNL A   1      44.679  26.238  37.627  1.00  0.00    -0.200 F 
ATOM     95  F   UNL A   1      47.191  27.219  37.225  1.00  0.00    -0.200 F 
ENDBRANCH  62  85
ENDBRANCH  36  37
ENDBRANCH  28  31
ENDBRANCH  26  27
ENDBRANCH  25  26
ENDBRANCH  24  25
ENDBRANCH   1  24
TORSDOF 15
ENDMDL
MODEL 2
REMARK VINA RESULT:     -12.6      1.027      2.460
REMARK SMILES C[C@H]1[C@H]([NH+]2CCC(CC(=O)NCCCCCCNC(=O)c3ccc(-c4c5nc(c(-c6c(F)c(F)c(F)c(F)c6F)c6ccc([nH]6)c(-c6c(F)c(F)c(F)c(F)c6F)c6nc(c(-c7c(F)c(F)c(F)c(F)c7F)c7ccc4[nH]7)C=C6)C=C5)cc3)CC2)CCC[C@@H]1C
REMARK SMILES IDX 14 1 13 2 12 3 11 4 9 5 10 6 8 8 7 9 4 10 5 11 85 12 6 14
REMARK SMILES IDX 84 15 3 16 1 17 2 18 89 19 86 20 88 21 90 22 87 23 15 24
REMARK SMILES IDX 16 25 17 26 18 27 19 28 20 30 21 31 22 32 83 33 23 34 82 35
REMARK SMILES IDX 24 36 25 37 26 38 76 39 27 40 81 41 75 42 77 43 28 44 80 45
REMARK SMILES IDX 74 46 73 47 29 49 61 50 41 51 60 52 42 53 45 54 59 55 78 56
REMARK SMILES IDX 43 57 44 58 58 60 79 61 46 62 30 63 31 64 39 65 32 66 33 67
REMARK SMILES IDX 37 68 40 69 34 70 35 71 38 72 36 73 62 74 63 75 71 76 64 77
REMARK SMILES IDX 65 78 69 79 72 80 66 81 67 82 70 83 68 84 47 85 48 86 56 87
REMARK SMILES IDX 49 88 50 89 54 90 57 91 51 92 52 93 55 94 53 95
REMARK H PARENT 11 7 4 13 18 29 77 48 45 59
REMARK Flexibility Score: inf
ROOT
ATOM      1  C   UNL A   1      32.348  29.930  27.037  1.00  0.00     0.002 C 
ENDROOT
BRANCH   1   2
ATOM      2  C   UNL A   1      31.778  28.541  27.319  1.00  0.00     0.021 C 
BRANCH   2   3
ATOM      3  C   UNL A   1      32.226  27.475  26.314  1.00  0.00     0.116 C 
BRANCH   3   4
ATOM      4  N   UNL A   1      31.642  26.187  26.645  1.00  0.00    -0.356 N 
ATOM      5  C   UNL A   1      30.625  25.494  26.058  1.00  0.00     0.220 C 
ATOM      6  O   UNL A   1      30.209  24.482  26.624  1.00  0.00    -0.275 OA
ATOM      7  H   UNL A   1      32.050  25.739  27.421  1.00  0.00     0.163 HD
BRANCH   5   8
ATOM      8  C   UNL A   1      30.050  25.926  24.722  1.00  0.00     0.104 C 
BRANCH   8   9
ATOM      9  C   UNL A   1      30.688  25.268  23.473  1.00  0.00     0.009 C 
ATOM     10  N   UNL A   1      33.160  23.634  23.285  1.00  0.00    -0.332 N 
ATOM     11  C   UNL A   1      31.870  23.011  23.043  1.00  0.00     0.262 C 
ATOM     12  C   UNL A   1      33.216  24.977  22.744  1.00  0.00     0.262 C 
ATOM     13  H   UNL A   1      33.810  23.082  22.727  1.00  0.00     0.348 HD
ATOM     14  C   UNL A   1      30.713  23.747  23.697  1.00  0.00     0.066 C 
ATOM     15  C   UNL A   1      32.049  25.895  23.117  1.00  0.00     0.066 C 
BRANCH  10  16
ATOM     16  C   UNL A   1      33.991  23.260  24.447  1.00  0.00     0.187 C 
ATOM     17  C   UNL A   1      33.790  20.726  24.635  1.00  0.00     0.014 C 
ATOM     18  C   UNL A   1      34.755  21.892  24.387  1.00  0.00     0.047 C 
ATOM     19  C   UNL A   1      35.940  21.732  25.382  1.00  0.00    -0.006 C 
ATOM     20  C   UNL A   1      34.903  24.462  24.788  1.00  0.00     0.065 C 
ATOM     21  C   UNL A   1      36.776  23.002  25.508  1.00  0.00     0.004 C 
ATOM     22  C   UNL A   1      36.860  20.568  24.971  1.00  0.00     0.008 C 
ATOM     23  C   UNL A   1      35.894  24.171  25.904  1.00  0.00     0.006 C 
ENDBRANCH  10  16
ENDBRANCH   8   9
ENDBRANCH   5   8
ENDBRANCH   3   4
ENDBRANCH   2   3
ENDBRANCH   1   2
BRANCH   1  24
ATOM     24  C   UNL A   1      31.446  30.817  26.174  1.00  0.00     0.002 C 
BRANCH  24  25
ATOM     25  C   UNL A   1      31.349  32.283  26.610  1.00  0.00     0.021 C 
BRANCH  25  26
ATOM     26  C   UNL A   1      32.619  32.865  27.226  1.00  0.00     0.116 C 
BRANCH  26  27
ATOM     27  N   UNL A   1      32.438  34.246  27.646  1.00  0.00    -0.352 N 
ATOM     28  C   UNL A   1      33.028  34.939  28.673  1.00  0.00     0.251 C 
ATOM     29  H   UNL A   1      31.795  34.764  27.110  1.00  0.00     0.163 HD
ATOM     30  O   UNL A   1      32.586  36.030  29.014  1.00  0.00    -0.269 OA
BRANCH  28  31
ATOM     31  C   UNL A   1      34.192  34.368  29.378  1.00  0.00     0.039 A 
ATOM     32  C   UNL A   1      33.984  33.671  30.572  1.00  0.00     0.014 A 
ATOM     33  C   UNL A   1      35.488  34.551  28.888  1.00  0.00     0.014 A 
ATOM     34  C   UNL A   1      35.072  33.110  31.245  1.00  0.00     0.010 A 
ATOM     35  C   UNL A   1      36.564  33.938  29.524  1.00  0.00     0.010 A 
ATOM     36  C   UNL A   1      36.366  33.217  30.712  1.00  0.00    -0.014 A 
BRANCH  36  37
ATOM     37  C   UNL A   1      37.526  32.580  31.383  1.00  0.00     0.031 A 
ATOM     38  C   UNL A   1      38.238  31.428  30.731  1.00  0.00     0.074 A 
ATOM     39  C   UNL A   1      37.894  32.995  32.610  1.00  0.00     0.049 A 
ATOM     40  N   UNL A   1      39.221  30.695  31.190  1.00  0.00    -0.248 NA
ATOM     41  C   UNL A   1      37.763  31.028  29.398  1.00  0.00     0.031 C 
ATOM     42  C   UNL A   1      37.251  34.072  33.364  1.00  0.00     0.029 A 
ATOM     43  N   UNL A   1      38.891  32.554  33.444  1.00  0.00    -0.354 N 
ATOM     44  C   UNL A   1      39.468  29.739  30.214  1.00  0.00     0.074 A 
ATOM     45  C   UNL A   1      38.504  29.955  29.157  1.00  0.00     0.031 C 
ATOM     46  C   UNL A   1      37.880  34.220  34.541  1.00  0.00     0.029 A 
ATOM     47  C   UNL A   1      38.946  33.227  34.639  1.00  0.00     0.049 A 
ATOM     48  H   UNL A   1      39.508  31.824  33.207  1.00  0.00     0.167 HD
ATOM     49  C   UNL A   1      40.423  28.779  30.195  1.00  0.00     0.037 A 
ATOM     50  C   UNL A   1      39.761  33.058  35.698  1.00  0.00     0.037 A 
ATOM     51  C   UNL A   1      41.402  28.591  31.233  1.00  0.00     0.049 A 
ATOM     52  C   UNL A   1      40.823  31.996  35.645  1.00  0.00     0.074 A 
ATOM     53  C   UNL A   1      42.458  27.698  31.272  1.00  0.00     0.029 A 
ATOM     54  N   UNL A   1      41.442  29.309  32.421  1.00  0.00    -0.354 N 
ATOM     55  N   UNL A   1      41.092  31.142  34.687  1.00  0.00    -0.248 NA
ATOM     56  C   UNL A   1      41.702  31.877  36.817  1.00  0.00     0.031 C 
ATOM     57  C   UNL A   1      43.110  27.844  32.501  1.00  0.00     0.029 A 
ATOM     58  C   UNL A   1      42.491  28.863  33.207  1.00  0.00     0.049 A 
ATOM     59  H   UNL A   1      40.818  30.029  32.666  1.00  0.00     0.167 HD
ATOM     60  C   UNL A   1      42.181  30.403  35.127  1.00  0.00     0.074 A 
ATOM     61  C   UNL A   1      42.534  30.919  36.434  1.00  0.00     0.031 C 
ATOM     62  C   UNL A   1      42.831  29.390  34.504  1.00  0.00     0.037 A 
BRANCH  49  63
ATOM     63  C   UNL A   1      40.462  27.857  29.011  1.00  0.00     0.064 A 
ATOM     64  C   UNL A   1      39.696  26.683  28.966  1.00  0.00     0.173 A 
ATOM     65  C   UNL A   1      41.241  28.174  27.888  1.00  0.00     0.173 A 
ATOM     66  F   UNL A   1      38.942  26.327  30.018  1.00  0.00    -0.203 F 
ATOM     67  C   UNL A   1      39.727  25.848  27.852  1.00  0.00     0.198 A 
ATOM     68  C   UNL A   1      41.248  27.353  26.764  1.00  0.00     0.198 A 
ATOM     69  F   UNL A   1      41.989  29.289  27.876  1.00  0.00    -0.203 F 
ATOM     70  F   UNL A   1      39.022  24.709  27.850  1.00  0.00    -0.200 F 
ATOM     71  C   UNL A   1      40.497  26.188  26.749  1.00  0.00     0.200 A 
ATOM     72  F   UNL A   1      41.982  27.689  25.694  1.00  0.00    -0.200 F 
ATOM     73  F   UNL A   1      40.519  25.388  25.674  1.00  0.00    -0.200 F 
ENDBRANCH  49  63
BRANCH  50  74
ATOM     74  C   UNL A   1      39.620  33.939  36.886  1.00  0.00     0.064 A 
ATOM     75  C   UNL A   1      40.257  35.187  36.934  1.00  0.00     0.173 A 
ATOM     76  C   UNL A   1      38.838  33.562  37.987  1.00  0.00     0.173 A 
ATOM     77  F   UNL A   1      41.030  35.582  35.912  1.00  0.00    -0.203 F 
ATOM     78  C   UNL A   1      40.131  36.017  38.046  1.00  0.00     0.198 A 
ATOM     79  C   UNL A   1      38.691  34.404  39.087  1.00  0.00     0.198 A 
ATOM     80  F   UNL A   1      38.203  32.380  37.987  1.00  0.00    -0.203 F 
ATOM     81  F   UNL A   1      40.782  37.187  38.081  1.00  0.00    -0.200 F 
ATOM     82  C   UNL A   1      39.343  35.627  39.118  1.00  0.00     0.200 A 
ATOM     83  F   UNL A   1      37.917  34.031  40.115  1.00  0.00    -0.200 F 
ATOM     84  F   UNL A   1      39.215  36.430  40.184  1.00  0.00    -0.200 F 
ENDBRANCH  50  74
BRANCH  62  85
ATOM     85  C   UNL A   1      44.010  28.789  35.213  1.00  0.00     0.064 A 
ATOM     86  C   UNL A   1      45.309  29.285  35.029  1.00  0.00     0.173 A 
ATOM     87  C   UNL A   1      43.830  27.734  36.120  1.00  0.00     0.173 A 
ATOM     88  F   UNL A   1      45.535  30.281  34.161  1.00  0.00    -0.203 F 
ATOM     89  C   UNL A   1      46.388  28.730  35.713  1.00  0.00     0.198 A 
ATOM     90  C   UNL A   1      44.907  27.203  36.823  1.00  0.00     0.198 A 
ATOM     91  F   UNL A   1      42.606  27.230  36.336  1.00  0.00    -0.203 F 
ATOM     92  F   UNL A   1      47.627  29.190  35.489  1.00  0.00    -0.200 F 
ATOM     93  C   UNL A   1      46.185  27.696  36.614  1.00  0.00     0.200 A 
ATOM     94  F   UNL A   1      44.707  26.212  37.704  1.00  0.00    -0.200 F 
ATOM     95  F   UNL A   1      47.225  27.169  37.277  1.00  0.00    -0.200 F 
ENDBRANCH  62  85
ENDBRANCH  36  37
ENDBRANCH  28  31
ENDBRANCH  26  27
ENDBRANCH  25  26
ENDBRANCH  24  25
ENDBRANCH   1  24
TORSDOF 15
ENDMDL
MODEL 3
REMARK VINA RESULT:     -12.4      1.280      2.143
REMARK SMILES C[C@H]1[C@H]([NH+]2CCC(CC(=O)NCCCCCCNC(=O)c3ccc(-c4c5nc(c(-c6c(F)c(F)c(F)c(F)c6F)c6ccc([nH]6)c(-c6c(F)c(F)c(F)c(F)c6F)c6nc(c(-c7c(F)c(F)c(F)c(F)c7F)c7ccc4[nH]7)C=C6)C=C5)cc3)CC2)CCC[C@@H]1C
REMARK SMILES IDX 14 1 13 2 12 3 11 4 9 5 10 6 8 8 7 9 4 10 5 11 85 12 6 14
REMARK SMILES IDX 84 15 3 16 1 17 2 18 89 19 86 20 88 21 90 22 87 23 15 24
REMARK SMILES IDX 16 25 17 26 18 27 19 28 20 30 21 31 22 32 83 33 23 34 82 35
REMARK SMILES IDX 24 36 25 37 26 38 76 39 27 40 81 41 75 42 77 43 28 44 80 45
REMARK SMILES IDX 74 46 73 47 29 49 61 50 41 51 60 52 42 53 45 54 59 55 78 56
REMARK SMILES IDX 43 57 44 58 58 60 79 61 46 62 30 63 31 64 39 65 32 66 33 67
REMARK SMILES IDX 37 68 40 69 34 70 35 71 38 72 36 73 62 74 63 75 71 76 64 77
REMARK SMILES IDX 65 78 69 79 72 80 66 81 67 82 70 83 68 84 47 85 48 86 56 87
REMARK SMILES IDX 49 88 50 89 54 90 57 91 51 92 52 93 55 94 53 95
REMARK H PARENT 11 7 4 13 18 29 77 48 45 59
REMARK Flexibility Score: inf
ROOT
ATOM      1  C   UNL A   1      31.932  29.817  27.229  1.00  0.00     0.002 C 
ENDROOT
BRANCH   1   2
ATOM      2  C   UNL A   1      32.640  28.578  26.686  1.00  0.00     0.021 C 
BRANCH   2   3
ATOM      3  C   UNL A   1      34.000  28.876  26.044  1.00  0.00     0.116 C 
BRANCH   3   4
ATOM      4  N   UNL A   1      33.859  29.036  24.607  1.00  0.00    -0.356 N 
ATOM      5  C   UNL A   1      33.917  28.119  23.600  1.00  0.00     0.220 C 
ATOM      6  O   UNL A   1      33.920  28.531  22.439  1.00  0.00    -0.275 OA
ATOM      7  H   UNL A   1      33.692  29.961  24.312  1.00  0.00     0.163 HD
BRANCH   5   8
ATOM      8  C   UNL A   1      33.932  26.631  23.893  1.00  0.00     0.104 C 
BRANCH   8   9
ATOM      9  C   UNL A   1      32.551  25.992  24.186  1.00  0.00     0.009 C 
ATOM     10  N   UNL A   1      31.802  23.119  24.237  1.00  0.00    -0.332 N 
ATOM     11  C   UNL A   1      31.790  23.884  25.472  1.00  0.00     0.262 C 
ATOM     12  C   UNL A   1      31.324  23.904  23.117  1.00  0.00     0.262 C 
ATOM     13  H   UNL A   1      31.100  22.395  24.389  1.00  0.00     0.348 HD
ATOM     14  C   UNL A   1      32.694  25.104  25.435  1.00  0.00     0.066 C 
ATOM     15  C   UNL A   1      31.963  25.285  22.951  1.00  0.00     0.066 C 
BRANCH  10  16
ATOM     16  C   UNL A   1      32.757  22.014  24.024  1.00  0.00     0.187 C 
ATOM     17  C   UNL A   1      34.953  23.133  23.373  1.00  0.00     0.014 C 
ATOM     18  C   UNL A   1      34.255  22.258  24.421  1.00  0.00     0.047 C 
ATOM     19  C   UNL A   1      35.123  20.981  24.610  1.00  0.00    -0.006 C 
ATOM     20  C   UNL A   1      32.153  20.734  24.648  1.00  0.00     0.065 C 
ATOM     21  C   UNL A   1      34.374  19.863  25.331  1.00  0.00     0.004 C 
ATOM     22  C   UNL A   1      36.416  21.295  25.385  1.00  0.00     0.008 C 
ATOM     23  C   UNL A   1      33.088  19.537  24.595  1.00  0.00     0.006 C 
ENDBRANCH  10  16
ENDBRANCH   8   9
ENDBRANCH   5   8
ENDBRANCH   3   4
ENDBRANCH   2   3
ENDBRANCH   1   2
BRANCH   1  24
ATOM     24  C   UNL A   1      31.419  30.773  26.148  1.00  0.00     0.002 C 
BRANCH  24  25
ATOM     25  C   UNL A   1      31.324  32.246  26.559  1.00  0.00     0.021 C 
BRANCH  25  26
ATOM     26  C   UNL A   1      32.587  32.829  27.190  1.00  0.00     0.116 C 
BRANCH  26  27
ATOM     27  N   UNL A   1      32.400  34.209  27.610  1.00  0.00    -0.352 N 
ATOM     28  C   UNL A   1      32.979  34.901  28.644  1.00  0.00     0.251 C 
ATOM     29  H   UNL A   1      31.760  34.726  27.070  1.00  0.00     0.163 HD
ATOM     30  O   UNL A   1      32.532  35.991  28.983  1.00  0.00    -0.269 OA
BRANCH  28  31
ATOM     31  C   UNL A   1      34.139  34.331  29.358  1.00  0.00     0.039 A 
ATOM     32  C   UNL A   1      33.919  33.600  30.528  1.00  0.00     0.014 A 
ATOM     33  C   UNL A   1      35.441  34.549  28.899  1.00  0.00     0.014 A 
ATOM     34  C   UNL A   1      35.002  33.040  31.209  1.00  0.00     0.010 A 
ATOM     35  C   UNL A   1      36.514  33.937  29.541  1.00  0.00     0.010 A 
ATOM     36  C   UNL A   1      36.305  33.182  30.706  1.00  0.00    -0.014 A 
BRANCH  36  37
ATOM     37  C   UNL A   1      37.463  32.547  31.383  1.00  0.00     0.031 A 
ATOM     38  C   UNL A   1      38.175  31.391  30.740  1.00  0.00     0.074 A 
ATOM     39  C   UNL A   1      37.827  32.968  32.609  1.00  0.00     0.049 A 
ATOM     40  N   UNL A   1      39.156  30.659  31.205  1.00  0.00    -0.248 NA
ATOM     41  C   UNL A   1      37.704  30.985  29.407  1.00  0.00     0.031 C 
ATOM     42  C   UNL A   1      37.183  34.050  33.356  1.00  0.00     0.029 A 
ATOM     43  N   UNL A   1      38.821  32.531  33.448  1.00  0.00    -0.354 N 
ATOM     44  C   UNL A   1      39.404  29.698  30.235  1.00  0.00     0.074 A 
ATOM     45  C   UNL A   1      38.444  29.910  29.174  1.00  0.00     0.031 C 
ATOM     46  C   UNL A   1      37.808  34.203  34.534  1.00  0.00     0.029 A 
ATOM     47  C   UNL A   1      38.873  33.210  34.641  1.00  0.00     0.049 A 
ATOM     48  H   UNL A   1      39.437  31.799  33.217  1.00  0.00     0.167 HD
ATOM     49  C   UNL A   1      40.359  28.737  30.224  1.00  0.00     0.037 A 
ATOM     50  C   UNL A   1      39.685  33.045  35.703  1.00  0.00     0.037 A 
ATOM     51  C   UNL A   1      41.334  28.554  31.266  1.00  0.00     0.049 A 
ATOM     52  C   UNL A   1      40.745  31.982  35.658  1.00  0.00     0.074 A 
ATOM     53  C   UNL A   1      42.389  27.659  31.313  1.00  0.00     0.029 A 
ATOM     54  N   UNL A   1      41.371  29.277  32.450  1.00  0.00    -0.354 N 
ATOM     55  N   UNL A   1      41.016  31.122  34.706  1.00  0.00    -0.248 NA
ATOM     56  C   UNL A   1      41.620  31.868  36.834  1.00  0.00     0.031 C 
ATOM     57  C   UNL A   1      43.037  27.811  32.544  1.00  0.00     0.029 A 
ATOM     58  C   UNL A   1      42.417  28.834  33.242  1.00  0.00     0.049 A 
ATOM     59  H   UNL A   1      40.747  29.999  32.690  1.00  0.00     0.167 HD
ATOM     60  C   UNL A   1      42.103  30.384  35.153  1.00  0.00     0.074 A 
ATOM     61  C   UNL A   1      42.452  30.907  36.458  1.00  0.00     0.031 C 
ATOM     62  C   UNL A   1      42.754  29.367  34.538  1.00  0.00     0.037 A 
BRANCH  49  63
ATOM     63  C   UNL A   1      40.400  27.809  29.045  1.00  0.00     0.064 A 
ATOM     64  C   UNL A   1      39.647  26.626  29.012  1.00  0.00     0.173 A 
ATOM     65  C   UNL A   1      41.168  28.129  27.915  1.00  0.00     0.173 A 
ATOM     66  F   UNL A   1      38.904  26.268  30.071  1.00  0.00    -0.203 F 
ATOM     67  C   UNL A   1      39.681  25.785  27.902  1.00  0.00     0.198 A 
ATOM     68  C   UNL A   1      41.176  27.301  26.796  1.00  0.00     0.198 A 
ATOM     69  F   UNL A   1      41.903  29.251  27.892  1.00  0.00    -0.203 F 
ATOM     70  F   UNL A   1      38.988  24.638  27.911  1.00  0.00    -0.200 F 
ATOM     71  C   UNL A   1      40.439  26.128  26.793  1.00  0.00     0.200 A 
ATOM     72  F   UNL A   1      41.900  27.639  25.719  1.00  0.00    -0.200 F 
ATOM     73  F   UNL A   1      40.463  25.322  25.722  1.00  0.00    -0.200 F 
ENDBRANCH  49  63
BRANCH  50  74
ATOM     74  C   UNL A   1      39.541  33.933  36.886  1.00  0.00     0.064 A 
ATOM     75  C   UNL A   1      38.751  33.550  37.978  1.00  0.00     0.173 A 
ATOM     76  C   UNL A   1      40.196  35.171  36.954  1.00  0.00     0.173 A 
ATOM     77  F   UNL A   1      38.090  32.384  37.950  1.00  0.00    -0.203 F 
ATOM     78  C   UNL A   1      38.610  34.379  39.089  1.00  0.00     0.198 A 
ATOM     79  C   UNL A   1      40.076  35.987  38.077  1.00  0.00     0.198 A 
ATOM     80  F   UNL A   1      40.969  35.579  35.936  1.00  0.00    -0.203 F 
ATOM     81  F   UNL A   1      37.819  34.006  40.104  1.00  0.00    -0.200 F 
ATOM     82  C   UNL A   1      39.277  35.593  39.140  1.00  0.00     0.200 A 
ATOM     83  F   UNL A   1      40.735  37.152  38.129  1.00  0.00    -0.200 F 
ATOM     84  F   UNL A   1      39.149  36.387  40.213  1.00  0.00    -0.200 F 
ENDBRANCH  50  74
BRANCH  62  85
ATOM     85  C   UNL A   1      43.929  28.769  35.253  1.00  0.00     0.064 A 
ATOM     86  C   UNL A   1      45.239  29.211  35.013  1.00  0.00     0.173 A 
ATOM     87  C   UNL A   1      43.738  27.772  36.222  1.00  0.00     0.173 A 
ATOM     88  F   UNL A   1      45.475  30.150  34.086  1.00  0.00    -0.203 F 
ATOM     89  C   UNL A   1      46.316  28.661  35.703  1.00  0.00     0.198 A 
ATOM     90  C   UNL A   1      44.814  27.246  36.930  1.00  0.00     0.198 A 
ATOM     91  F   UNL A   1      42.504  27.321  36.492  1.00  0.00    -0.203 F 
ATOM     92  F   UNL A   1      47.563  29.066  35.427  1.00  0.00    -0.200 F 
ATOM     93  C   UNL A   1      46.102  27.685  36.666  1.00  0.00     0.200 A 
ATOM     94  F   UNL A   1      44.604  26.313  37.870  1.00  0.00    -0.200 F 
ATOM     95  F   UNL A   1      47.140  27.162  37.334  1.00  0.00    -0.200 F 
ENDBRANCH  62  85
ENDBRANCH  36  37
ENDBRANCH  28  31
ENDBRANCH  26  27
ENDBRANCH  25  26
ENDBRANCH  24  25
ENDBRANCH   1  24
TORSDOF 15
ENDMDL
