MODEL 1
REMARK VINA RESULT:     -12.6      0.000      0.000
REMARK SMILES C[C@H](Nc1cccc(F)c1C(=O)NCCCCCCNC(=O)c1ccc(-c2c3nc(c(-c4c(F)c(F)c(F)c(F)c4F)c4ccc([nH]4)c(-c4c(F)c(F)c(F)c(F)c4F)c4nc(c(-c5c(F)c(F)c(F)c(F)c5F)c5ccc2[nH]5)C=C4)C=C3)cc1)c1cccc(Cl)c1
REMARK SMILES IDX 16 1 15 2 14 3 13 4 11 5 12 6 10 8 4 9 5 10 6 11 8 12 7 13
REMARK SMILES IDX 9 14 3 15 2 17 1 18 86 19 87 20 92 21 88 22 90 23 89 24
REMARK SMILES IDX 91 25 17 26 18 27 19 28 20 29 21 30 22 32 23 33 24 34 85 35
REMARK SMILES IDX 25 36 84 37 26 38 27 39 28 40 78 41 29 42 83 43 77 44 79 45
REMARK SMILES IDX 30 46 82 47 76 48 75 49 31 51 63 52 43 53 62 54 44 55 47 56
REMARK SMILES IDX 61 57 80 58 45 59 46 60 60 62 81 63 48 64 32 65 33 66 41 67
REMARK SMILES IDX 34 68 35 69 39 70 42 71 36 72 37 73 40 74 38 75 64 76 65 77
REMARK SMILES IDX 73 78 66 79 67 80 71 81 74 82 68 83 69 84 72 85 70 86 49 87
REMARK SMILES IDX 50 88 58 89 51 90 52 91 56 92 59 93 53 94 54 95 57 96 55 97
REMARK H PARENT 13 7 3 16 20 31 79 50 47 61
REMARK Flexibility Score: inf
ROOT
ATOM      1  C   UNL A   1      33.047  30.372  26.695  1.00  0.00     0.002 C 
ENDROOT
BRANCH   1   2
ATOM      2  C   UNL A   1      33.170  28.914  27.141  1.00  0.00     0.021 C 
BRANCH   2   3
ATOM      3  C   UNL A   1      33.696  27.918  26.111  1.00  0.00     0.116 C 
BRANCH   3   4
ATOM      4  N   UNL A   1      34.162  28.531  24.885  1.00  0.00    -0.352 N 
ATOM      5  C   UNL A   1      34.032  28.169  23.564  1.00  0.00     0.256 C 
ATOM      6  O   UNL A   1      34.552  28.931  22.742  1.00  0.00    -0.269 OA
ATOM      7  H   UNL A   1      34.667  29.366  25.022  1.00  0.00     0.163 HD
BRANCH   5   8
ATOM      8  C   UNL A   1      33.396  26.898  23.091  1.00  0.00     0.098 A 
ATOM      9  C   UNL A   1      32.262  26.957  22.233  1.00  0.00     0.050 A 
ATOM     10  C   UNL A   1      31.760  25.768  21.670  1.00  0.00     0.027 A 
ATOM     11  C   UNL A   1      32.295  24.528  22.009  1.00  0.00     0.005 A 
ATOM     12  C   UNL A   1      33.819  25.636  23.515  1.00  0.00     0.138 A 
ATOM     13  C   UNL A   1      33.298  24.462  22.966  1.00  0.00     0.040 A 
ATOM     14  F   UNL A   1      34.681  25.490  24.532  1.00  0.00    -0.206 F 
BRANCH   9  15
ATOM     15  N   UNL A   1      31.511  28.144  22.082  1.00  0.00    -0.378 N 
ATOM     16  H   UNL A   1      31.866  28.910  21.574  1.00  0.00     0.161 HD
BRANCH  15  17
ATOM     17  C   UNL A   1      30.176  28.196  22.712  1.00  0.00     0.106 C 
ATOM     18  C   UNL A   1      30.278  27.687  24.166  1.00  0.00     0.036 C 
BRANCH  17  19
ATOM     19  C   UNL A   1      29.576  29.605  22.662  1.00  0.00    -0.025 A 
ATOM     20  C   UNL A   1      29.525  30.389  23.833  1.00  0.00     0.006 A 
ATOM     21  C   UNL A   1      29.017  30.153  21.493  1.00  0.00     0.026 A 
ATOM     22  C   UNL A   1      29.001  31.685  23.827  1.00  0.00     0.002 A 
ATOM     23  C   UNL A   1      28.489  31.448  21.490  1.00  0.00     0.041 A 
ATOM     24  C   UNL A   1      28.487  32.219  22.650  1.00  0.00     0.020 A 
ATOM     25  Cl  UNL A   1      27.828  32.100  20.040  1.00  0.00    -0.084 Cl
ENDBRANCH  17  19
ENDBRANCH  15  17
ENDBRANCH   9  15
ENDBRANCH   5   8
ENDBRANCH   3   4
ENDBRANCH   2   3
ENDBRANCH   1   2
BRANCH   1  26
ATOM     26  C   UNL A   1      31.629  30.933  26.555  1.00  0.00     0.002 C 
BRANCH  26  27
ATOM     27  C   UNL A   1      31.466  32.435  26.796  1.00  0.00     0.021 C 
BRANCH  27  28
ATOM     28  C   UNL A   1      32.707  33.167  27.297  1.00  0.00     0.116 C 
BRANCH  28  29
ATOM     29  N   UNL A   1      32.419  34.511  27.767  1.00  0.00    -0.352 N 
ATOM     30  C   UNL A   1      32.979  35.218  28.803  1.00  0.00     0.251 C 
ATOM     31  H   UNL A   1      31.715  34.986  27.269  1.00  0.00     0.163 HD
ATOM     32  O   UNL A   1      32.493  36.287  29.154  1.00  0.00    -0.269 OA
BRANCH  30  33
ATOM     33  C   UNL A   1      34.156  34.679  29.519  1.00  0.00     0.039 A 
ATOM     34  C   UNL A   1      33.972  34.119  30.787  1.00  0.00     0.014 A 
ATOM     35  C   UNL A   1      35.436  34.731  28.957  1.00  0.00     0.014 A 
ATOM     36  C   UNL A   1      35.055  33.548  31.458  1.00  0.00     0.010 A 
ATOM     37  C   UNL A   1      36.501  34.098  29.595  1.00  0.00     0.010 A 
ATOM     38  C   UNL A   1      36.320  33.495  30.849  1.00  0.00    -0.014 A 
BRANCH  38  39
ATOM     39  C   UNL A   1      37.454  32.787  31.498  1.00  0.00     0.031 A 
ATOM     40  C   UNL A   1      38.094  31.600  30.836  1.00  0.00     0.074 A 
ATOM     41  C   UNL A   1      37.870  33.184  32.717  1.00  0.00     0.049 A 
ATOM     42  N   UNL A   1      39.051  30.824  31.278  1.00  0.00    -0.248 NA
ATOM     43  C   UNL A   1      37.579  31.220  29.511  1.00  0.00     0.031 C 
ATOM     44  C   UNL A   1      37.302  34.298  33.478  1.00  0.00     0.029 A 
ATOM     45  N   UNL A   1      38.859  32.695  33.534  1.00  0.00    -0.354 N 
ATOM     46  C   UNL A   1      39.248  29.866  30.293  1.00  0.00     0.074 A 
ATOM     47  C   UNL A   1      38.277  30.123  29.253  1.00  0.00     0.031 C 
ATOM     48  C   UNL A   1      37.970  34.426  34.634  1.00  0.00     0.029 A 
ATOM     49  C   UNL A   1      38.981  33.377  34.721  1.00  0.00     0.049 A 
ATOM     50  H   UNL A   1      39.427  31.929  33.292  1.00  0.00     0.167 HD
ATOM     51  C   UNL A   1      40.173  28.878  30.253  1.00  0.00     0.037 A 
ATOM     52  C   UNL A   1      39.805  33.175  35.767  1.00  0.00     0.037 A 
ATOM     53  C   UNL A   1      41.151  28.641  31.283  1.00  0.00     0.049 A 
ATOM     54  C   UNL A   1      40.803  32.050  35.709  1.00  0.00     0.074 A 
ATOM     55  C   UNL A   1      42.166  27.700  31.303  1.00  0.00     0.029 A 
ATOM     56  N   UNL A   1      41.235  29.345  32.474  1.00  0.00    -0.354 N 
ATOM     57  N   UNL A   1      41.019  31.188  34.746  1.00  0.00    -0.248 NA
ATOM     58  C   UNL A   1      41.670  31.869  36.882  1.00  0.00     0.031 C 
ATOM     59  C   UNL A   1      42.825  27.795  32.531  1.00  0.00     0.029 A 
ATOM     60  C   UNL A   1      42.263  28.837  33.251  1.00  0.00     0.049 A 
ATOM     61  H   UNL A   1      40.650  30.095  32.730  1.00  0.00     0.167 HD
ATOM     62  C   UNL A   1      42.057  30.377  35.184  1.00  0.00     0.074 A 
ATOM     63  C   UNL A   1      42.440  30.859  36.495  1.00  0.00     0.031 C 
ATOM     64  C   UNL A   1      42.637  29.327  34.554  1.00  0.00     0.037 A 
BRANCH  51  65
ATOM     65  C   UNL A   1      40.190  27.976  29.052  1.00  0.00     0.064 A 
ATOM     66  C   UNL A   1      39.528  26.738  29.082  1.00  0.00     0.173 A 
ATOM     67  C   UNL A   1      40.936  28.293  27.907  1.00  0.00     0.173 A 
ATOM     68  F   UNL A   1      38.807  26.382  30.156  1.00  0.00    -0.203 F 
ATOM     69  C   UNL A   1      39.627  25.846  28.018  1.00  0.00     0.198 A 
ATOM     70  C   UNL A   1      41.007  27.411  26.831  1.00  0.00     0.198 A 
ATOM     71  F   UNL A   1      41.581  29.466  27.824  1.00  0.00    -0.203 F 
ATOM     72  F   UNL A   1      39.020  24.654  28.086  1.00  0.00    -0.200 F 
ATOM     73  C   UNL A   1      40.363  26.185  26.893  1.00  0.00     0.200 A 
ATOM     74  F   UNL A   1      41.701  27.749  25.735  1.00  0.00    -0.200 F 
ATOM     75  F   UNL A   1      40.454  25.326  25.866  1.00  0.00    -0.200 F 
ENDBRANCH  51  65
BRANCH  52  76
ATOM     76  C   UNL A   1      39.732  34.079  36.944  1.00  0.00     0.064 A 
ATOM     77  C   UNL A   1      40.482  35.264  37.003  1.00  0.00     0.173 A 
ATOM     78  C   UNL A   1      38.937  33.758  38.052  1.00  0.00     0.173 A 
ATOM     79  F   UNL A   1      41.262  35.618  35.970  1.00  0.00    -0.203 F 
ATOM     80  C   UNL A   1      40.459  36.077  38.134  1.00  0.00     0.198 A 
ATOM     81  C   UNL A   1      38.891  34.586  39.172  1.00  0.00     0.198 A 
ATOM     82  F   UNL A   1      38.186  32.647  38.035  1.00  0.00    -0.203 F 
ATOM     83  F   UNL A   1      41.216  37.181  38.180  1.00  0.00    -0.200 F 
ATOM     84  C   UNL A   1      39.659  35.739  39.216  1.00  0.00     0.200 A 
ATOM     85  F   UNL A   1      38.099  34.270  40.204  1.00  0.00    -0.200 F 
ATOM     86  F   UNL A   1      39.629  36.526  40.300  1.00  0.00    -0.200 F 
ENDBRANCH  52  76
BRANCH  64  87
ATOM     87  C   UNL A   1      43.761  28.622  35.258  1.00  0.00     0.064 A 
ATOM     88  C   UNL A   1      43.490  27.602  36.184  1.00  0.00     0.173 A 
ATOM     89  C   UNL A   1      45.094  29.018  35.089  1.00  0.00     0.173 A 
ATOM     90  F   UNL A   1      42.230  27.192  36.390  1.00  0.00    -0.203 F 
ATOM     91  C   UNL A   1      44.512  27.024  36.932  1.00  0.00     0.198 A 
ATOM     92  C   UNL A   1      46.118  28.415  35.815  1.00  0.00     0.198 A 
ATOM     93  F   UNL A   1      45.406  29.979  34.206  1.00  0.00    -0.203 F 
ATOM     94  F   UNL A   1      44.224  26.084  37.843  1.00  0.00    -0.200 F 
ATOM     95  C   UNL A   1      45.825  27.428  36.744  1.00  0.00     0.200 A 
ATOM     96  F   UNL A   1      47.389  28.790  35.616  1.00  0.00    -0.200 F 
ATOM     97  F   UNL A   1      46.809  26.866  37.461  1.00  0.00    -0.200 F 
ENDBRANCH  64  87
ENDBRANCH  38  39
ENDBRANCH  30  33
ENDBRANCH  28  29
ENDBRANCH  27  28
ENDBRANCH  26  27
ENDBRANCH   1  26
TORSDOF 16
ENDMDL
MODEL 2
REMARK VINA RESULT:     -12.6      1.224      7.300
REMARK SMILES C[C@H](Nc1cccc(F)c1C(=O)NCCCCCCNC(=O)c1ccc(-c2c3nc(c(-c4c(F)c(F)c(F)c(F)c4F)c4ccc([nH]4)c(-c4c(F)c(F)c(F)c(F)c4F)c4nc(c(-c5c(F)c(F)c(F)c(F)c5F)c5ccc2[nH]5)C=C4)C=C3)cc1)c1cccc(Cl)c1
REMARK SMILES IDX 16 1 15 2 14 3 13 4 11 5 12 6 10 8 4 9 5 10 6 11 8 12 7 13
REMARK SMILES IDX 9 14 3 15 2 17 1 18 86 19 87 20 92 21 88 22 90 23 89 24
REMARK SMILES IDX 91 25 17 26 18 27 19 28 20 29 21 30 22 32 23 33 24 34 85 35
REMARK SMILES IDX 25 36 84 37 26 38 27 39 28 40 78 41 29 42 83 43 77 44 79 45
REMARK SMILES IDX 30 46 82 47 76 48 75 49 31 51 63 52 43 53 62 54 44 55 47 56
REMARK SMILES IDX 61 57 80 58 45 59 46 60 60 62 81 63 48 64 32 65 33 66 41 67
REMARK SMILES IDX 34 68 35 69 39 70 42 71 36 72 37 73 40 74 38 75 64 76 65 77
REMARK SMILES IDX 73 78 66 79 67 80 71 81 74 82 68 83 69 84 72 85 70 86 49 87
REMARK SMILES IDX 50 88 58 89 51 90 52 91 56 92 59 93 53 94 54 95 57 96 55 97
REMARK H PARENT 13 7 3 16 20 31 79 50 47 61
REMARK Flexibility Score: inf
ROOT
ATOM      1  C   UNL A   1      31.794  29.628  27.130  1.00  0.00     0.002 C 
ENDROOT
BRANCH   1   2
ATOM      2  C   UNL A   1      33.098  28.829  27.089  1.00  0.00     0.021 C 
BRANCH   2   3
ATOM      3  C   UNL A   1      32.993  27.355  26.709  1.00  0.00     0.116 C 
BRANCH   3   4
ATOM      4  N   UNL A   1      31.649  26.820  26.791  1.00  0.00    -0.352 N 
ATOM      5  C   UNL A   1      30.861  26.162  25.876  1.00  0.00     0.256 C 
ATOM      6  O   UNL A   1      29.741  25.826  26.273  1.00  0.00    -0.269 OA
ATOM      7  H   UNL A   1      31.220  26.952  27.668  1.00  0.00     0.163 HD
BRANCH   5   8
ATOM      8  C   UNL A   1      31.238  25.922  24.447  1.00  0.00     0.098 A 
ATOM      9  C   UNL A   1      31.101  26.974  23.498  1.00  0.00     0.050 A 
ATOM     10  C   UNL A   1      31.595  26.795  22.192  1.00  0.00     0.027 A 
ATOM     11  C   UNL A   1      32.135  25.577  21.786  1.00  0.00     0.005 A 
ATOM     12  C   UNL A   1      31.656  24.676  23.972  1.00  0.00     0.138 A 
ATOM     13  C   UNL A   1      32.124  24.505  22.668  1.00  0.00     0.040 A 
ATOM     14  F   UNL A   1      31.543  23.569  24.719  1.00  0.00    -0.206 F 
BRANCH   9  15
ATOM     15  N   UNL A   1      30.314  28.116  23.770  1.00  0.00    -0.378 N 
ATOM     16  H   UNL A   1      30.540  28.725  24.510  1.00  0.00     0.161 HD
BRANCH  15  17
ATOM     17  C   UNL A   1      29.142  28.363  22.904  1.00  0.00     0.106 C 
ATOM     18  C   UNL A   1      27.898  27.696  23.529  1.00  0.00     0.036 C 
BRANCH  17  19
ATOM     19  C   UNL A   1      28.908  29.861  22.675  1.00  0.00    -0.025 A 
ATOM     20  C   UNL A   1      29.098  30.771  23.736  1.00  0.00     0.006 A 
ATOM     21  C   UNL A   1      28.460  30.383  21.449  1.00  0.00     0.026 A 
ATOM     22  C   UNL A   1      28.911  32.146  23.565  1.00  0.00     0.002 A 
ATOM     23  C   UNL A   1      28.270  31.757  21.281  1.00  0.00     0.041 A 
ATOM     24  C   UNL A   1      28.502  32.642  22.332  1.00  0.00     0.020 A 
ATOM     25  Cl  UNL A   1      27.737  32.370  19.762  1.00  0.00    -0.084 Cl
ENDBRANCH  17  19
ENDBRANCH  15  17
ENDBRANCH   9  15
ENDBRANCH   5   8
ENDBRANCH   3   4
ENDBRANCH   2   3
ENDBRANCH   1   2
BRANCH   1  26
ATOM     26  C   UNL A   1      31.622  30.722  26.073  1.00  0.00     0.002 C 
BRANCH  26  27
ATOM     27  C   UNL A   1      31.437  32.148  26.594  1.00  0.00     0.021 C 
BRANCH  27  28
ATOM     28  C   UNL A   1      32.681  32.810  27.177  1.00  0.00     0.116 C 
BRANCH  28  29
ATOM     29  N   UNL A   1      32.437  34.166  27.638  1.00  0.00    -0.352 N 
ATOM     30  C   UNL A   1      33.034  34.868  28.656  1.00  0.00     0.251 C 
ATOM     31  H   UNL A   1      31.738  34.654  27.147  1.00  0.00     0.163 HD
ATOM     32  O   UNL A   1      32.583  35.955  29.003  1.00  0.00    -0.269 OA
BRANCH  30  33
ATOM     33  C   UNL A   1      34.209  34.306  29.358  1.00  0.00     0.039 A 
ATOM     34  C   UNL A   1      34.001  33.545  30.511  1.00  0.00     0.014 A 
ATOM     35  C   UNL A   1      35.509  34.533  28.895  1.00  0.00     0.014 A 
ATOM     36  C   UNL A   1      35.087  32.951  31.157  1.00  0.00     0.010 A 
ATOM     37  C   UNL A   1      36.584  33.882  29.497  1.00  0.00     0.010 A 
ATOM     38  C   UNL A   1      36.384  33.080  30.631  1.00  0.00    -0.014 A 
BRANCH  38  39
ATOM     39  C   UNL A   1      37.532  32.359  31.237  1.00  0.00     0.031 A 
ATOM     40  C   UNL A   1      38.037  32.734  32.601  1.00  0.00     0.074 A 
ATOM     41  C   UNL A   1      38.158  31.398  30.528  1.00  0.00     0.049 A 
ATOM     42  N   UNL A   1      39.061  32.258  33.263  1.00  0.00    -0.248 NA
ATOM     43  C   UNL A   1      37.309  33.798  33.309  1.00  0.00     0.031 C 
ATOM     44  C   UNL A   1      37.785  30.972  29.178  1.00  0.00     0.029 A 
ATOM     45  N   UNL A   1      39.240  30.612  30.836  1.00  0.00    -0.354 N 
ATOM     46  C   UNL A   1      39.103  32.964  34.457  1.00  0.00     0.074 A 
ATOM     47  C   UNL A   1      38.036  33.939  34.409  1.00  0.00     0.031 C 
ATOM     48  C   UNL A   1      38.604  29.983  28.788  1.00  0.00     0.029 A 
ATOM     49  C   UNL A   1      39.589  29.736  29.836  1.00  0.00     0.049 A 
ATOM     50  H   UNL A   1      39.720  30.669  31.694  1.00  0.00     0.167 HD
ATOM     51  C   UNL A   1      39.943  32.795  35.505  1.00  0.00     0.037 A 
ATOM     52  C   UNL A   1      40.595  28.843  29.765  1.00  0.00     0.037 A 
ATOM     53  C   UNL A   1      40.990  31.809  35.555  1.00  0.00     0.049 A 
ATOM     54  C   UNL A   1      41.532  28.697  30.933  1.00  0.00     0.074 A 
ATOM     55  C   UNL A   1      41.853  31.524  36.599  1.00  0.00     0.029 A 
ATOM     56  N   UNL A   1      41.319  30.948  34.518  1.00  0.00    -0.354 N 
ATOM     57  N   UNL A   1      41.525  29.331  32.080  1.00  0.00    -0.248 NA
ATOM     58  C   UNL A   1      42.617  27.715  30.797  1.00  0.00     0.031 C 
ATOM     59  C   UNL A   1      42.743  30.535  36.172  1.00  0.00     0.029 A 
ATOM     60  C   UNL A   1      42.394  30.156  34.886  1.00  0.00     0.049 A 
ATOM     61  H   UNL A   1      40.857  30.907  33.649  1.00  0.00     0.167 HD
ATOM     62  C   UNL A   1      42.585  28.812  32.810  1.00  0.00     0.074 A 
ATOM     63  C   UNL A   1      43.207  27.799  31.983  1.00  0.00     0.031 C 
ATOM     64  C   UNL A   1      43.004  29.149  34.054  1.00  0.00     0.037 A 
BRANCH  51  65
ATOM     65  C   UNL A   1      39.765  33.687  36.702  1.00  0.00     0.064 A 
ATOM     66  C   UNL A   1      38.919  33.304  37.754  1.00  0.00     0.173 A 
ATOM     67  C   UNL A   1      40.358  34.956  36.765  1.00  0.00     0.173 A 
ATOM     68  F   UNL A   1      38.320  32.104  37.739  1.00  0.00    -0.203 F 
ATOM     69  C   UNL A   1      38.659  34.168  38.816  1.00  0.00     0.198 A 
ATOM     70  C   UNL A   1      40.121  35.804  37.844  1.00  0.00     0.198 A 
ATOM     71  F   UNL A   1      41.182  35.367  35.789  1.00  0.00    -0.203 F 
ATOM     72  F   UNL A   1      37.816  33.796  39.788  1.00  0.00    -0.200 F 
ATOM     73  C   UNL A   1      39.263  35.415  38.861  1.00  0.00     0.200 A 
ATOM     74  F   UNL A   1      40.723  37.001  37.898  1.00  0.00    -0.200 F 
ATOM     75  F   UNL A   1      39.017  36.243  39.886  1.00  0.00    -0.200 F 
ENDBRANCH  51  65
BRANCH  52  76
ATOM     76  C   UNL A   1      40.743  28.002  28.549  1.00  0.00     0.064 A 
ATOM     77  C   UNL A   1      40.138  26.739  28.455  1.00  0.00     0.173 A 
ATOM     78  C   UNL A   1      41.527  28.429  27.468  1.00  0.00     0.173 A 
ATOM     79  F   UNL A   1      39.380  26.280  29.462  1.00  0.00    -0.203 F 
ATOM     80  C   UNL A   1      40.332  25.927  27.339  1.00  0.00     0.198 A 
ATOM     81  C   UNL A   1      41.696  27.629  26.340  1.00  0.00     0.198 A 
ATOM     82  F   UNL A   1      42.109  29.637  27.501  1.00  0.00    -0.203 F 
ATOM     83  F   UNL A   1      39.776  24.709  27.293  1.00  0.00    -0.200 F 
ATOM     84  C   UNL A   1      41.108  26.376  26.280  1.00  0.00     0.200 A 
ATOM     85  F   UNL A   1      42.425  28.076  25.308  1.00  0.00    -0.200 F 
ATOM     86  F   UNL A   1      41.286  25.600  25.202  1.00  0.00    -0.200 F 
ENDBRANCH  52  76
BRANCH  64  87
ATOM     87  C   UNL A   1      44.186  28.415  34.618  1.00  0.00     0.064 A 
ATOM     88  C   UNL A   1      44.004  27.232  35.353  1.00  0.00     0.173 A 
ATOM     89  C   UNL A   1      45.486  28.929  34.514  1.00  0.00     0.173 A 
ATOM     90  F   UNL A   1      42.779  26.703  35.489  1.00  0.00    -0.203 F 
ATOM     91  C   UNL A   1      45.076  26.607  35.983  1.00  0.00     0.198 A 
ATOM     92  C   UNL A   1      46.561  28.283  35.119  1.00  0.00     0.198 A 
ATOM     93  F   UNL A   1      45.715  30.049  33.812  1.00  0.00    -0.203 F 
ATOM     94  F   UNL A   1      44.870  25.505  36.717  1.00  0.00    -0.200 F 
ATOM     95  C   UNL A   1      46.354  27.131  35.863  1.00  0.00     0.200 A 
ATOM     96  F   UNL A   1      47.800  28.778  34.982  1.00  0.00    -0.200 F 
ATOM     97  F   UNL A   1      47.387  26.525  36.465  1.00  0.00    -0.200 F 
ENDBRANCH  64  87
ENDBRANCH  38  39
ENDBRANCH  30  33
ENDBRANCH  28  29
ENDBRANCH  27  28
ENDBRANCH  26  27
ENDBRANCH   1  26
TORSDOF 16
ENDMDL
MODEL 3
REMARK VINA RESULT:     -12.5      1.485      2.802
REMARK SMILES C[C@H](Nc1cccc(F)c1C(=O)NCCCCCCNC(=O)c1ccc(-c2c3nc(c(-c4c(F)c(F)c(F)c(F)c4F)c4ccc([nH]4)c(-c4c(F)c(F)c(F)c(F)c4F)c4nc(c(-c5c(F)c(F)c(F)c(F)c5F)c5ccc2[nH]5)C=C4)C=C3)cc1)c1cccc(Cl)c1
REMARK SMILES IDX 16 1 15 2 14 3 13 4 11 5 12 6 10 8 4 9 5 10 6 11 8 12 7 13
REMARK SMILES IDX 9 14 3 15 2 17 1 18 86 19 87 20 92 21 88 22 90 23 89 24
REMARK SMILES IDX 91 25 17 26 18 27 19 28 20 29 21 30 22 32 23 33 24 34 85 35
REMARK SMILES IDX 25 36 84 37 26 38 27 39 28 40 78 41 29 42 83 43 77 44 79 45
REMARK SMILES IDX 30 46 82 47 76 48 75 49 31 51 63 52 43 53 62 54 44 55 47 56
REMARK SMILES IDX 61 57 80 58 45 59 46 60 60 62 81 63 48 64 32 65 33 66 41 67
REMARK SMILES IDX 34 68 35 69 39 70 42 71 36 72 37 73 40 74 38 75 64 76 65 77
REMARK SMILES IDX 73 78 66 79 67 80 71 81 74 82 68 83 69 84 72 85 70 86 49 87
REMARK SMILES IDX 50 88 58 89 51 90 52 91 56 92 59 93 53 94 54 95 57 96 55 97
REMARK H PARENT 13 7 3 16 20 31 79 50 47 61
REMARK Flexibility Score: inf
ROOT
ATOM      1  C   UNL A   1      31.775  29.165  27.009  1.00  0.00     0.002 C 
ENDROOT
BRANCH   1   2
ATOM      2  C   UNL A   1      33.073  28.362  27.111  1.00  0.00     0.021 C 
BRANCH   2   3
ATOM      3  C   UNL A   1      33.250  27.206  26.130  1.00  0.00     0.116 C 
BRANCH   3   4
ATOM      4  N   UNL A   1      32.386  26.073  26.395  1.00  0.00    -0.352 N 
ATOM      5  C   UNL A   1      32.549  24.722  26.195  1.00  0.00     0.256 C 
ATOM      6  O   UNL A   1      31.603  24.008  26.545  1.00  0.00    -0.269 OA
ATOM      7  H   UNL A   1      31.519  26.317  26.795  1.00  0.00     0.163 HD
BRANCH   5   8
ATOM      8  C   UNL A   1      33.730  24.101  25.517  1.00  0.00     0.098 A 
ATOM      9  C   UNL A   1      33.807  24.107  24.095  1.00  0.00     0.050 A 
ATOM     10  C   UNL A   1      34.984  23.659  23.466  1.00  0.00     0.027 A 
ATOM     11  C   UNL A   1      36.038  23.127  24.203  1.00  0.00     0.005 A 
ATOM     12  C   UNL A   1      34.742  23.437  26.214  1.00  0.00     0.138 A 
ATOM     13  C   UNL A   1      35.897  22.977  25.576  1.00  0.00     0.040 A 
ATOM     14  F   UNL A   1      34.614  23.132  27.514  1.00  0.00    -0.206 F 
BRANCH   9  15
ATOM     15  N   UNL A   1      32.673  24.367  23.295  1.00  0.00    -0.378 N 
ATOM     16  H   UNL A   1      31.951  23.702  23.202  1.00  0.00     0.161 HD
BRANCH  15  17
ATOM     17  C   UNL A   1      32.606  25.671  22.603  1.00  0.00     0.106 C 
ATOM     18  C   UNL A   1      32.782  25.452  21.085  1.00  0.00     0.036 C 
BRANCH  17  19
ATOM     19  C   UNL A   1      31.297  26.411  22.906  1.00  0.00    -0.025 A 
ATOM     20  C   UNL A   1      30.255  25.745  23.585  1.00  0.00     0.006 A 
ATOM     21  C   UNL A   1      31.057  27.734  22.493  1.00  0.00     0.026 A 
ATOM     22  C   UNL A   1      29.053  26.388  23.894  1.00  0.00     0.002 A 
ATOM     23  C   UNL A   1      29.853  28.373  22.800  1.00  0.00     0.041 A 
ATOM     24  C   UNL A   1      28.854  27.708  23.506  1.00  0.00     0.020 A 
ATOM     25  Cl  UNL A   1      29.594  29.999  22.297  1.00  0.00    -0.084 Cl
ENDBRANCH  17  19
ENDBRANCH  15  17
ENDBRANCH   9  15
ENDBRANCH   5   8
ENDBRANCH   3   4
ENDBRANCH   2   3
ENDBRANCH   1   2
BRANCH   1  26
ATOM     26  C   UNL A   1      31.771  30.349  26.039  1.00  0.00     0.002 C 
BRANCH  26  27
ATOM     27  C   UNL A   1      31.514  31.728  26.651  1.00  0.00     0.021 C 
BRANCH  27  28
ATOM     28  C   UNL A   1      32.738  32.449  27.204  1.00  0.00     0.116 C 
BRANCH  28  29
ATOM     29  N   UNL A   1      32.473  33.837  27.540  1.00  0.00    -0.352 N 
ATOM     30  C   UNL A   1      33.054  34.636  28.495  1.00  0.00     0.251 C 
ATOM     31  H   UNL A   1      31.771  34.270  27.003  1.00  0.00     0.163 HD
ATOM     32  O   UNL A   1      32.586  35.743  28.740  1.00  0.00    -0.269 OA
BRANCH  30  33
ATOM     33  C   UNL A   1      34.231  34.155  29.250  1.00  0.00     0.039 A 
ATOM     34  C   UNL A   1      34.023  33.378  30.394  1.00  0.00     0.014 A 
ATOM     35  C   UNL A   1      35.532  34.473  28.848  1.00  0.00     0.014 A 
ATOM     36  C   UNL A   1      35.117  32.861  31.090  1.00  0.00     0.010 A 
ATOM     37  C   UNL A   1      36.621  33.897  29.500  1.00  0.00     0.010 A 
ATOM     38  C   UNL A   1      36.424  33.080  30.624  1.00  0.00    -0.014 A 
BRANCH  38  39
ATOM     39  C   UNL A   1      37.591  32.439  31.284  1.00  0.00     0.031 A 
ATOM     40  C   UNL A   1      38.326  31.313  30.613  1.00  0.00     0.074 A 
ATOM     41  C   UNL A   1      37.952  32.838  32.520  1.00  0.00     0.049 A 
ATOM     42  N   UNL A   1      39.325  30.596  31.062  1.00  0.00    -0.248 NA
ATOM     43  C   UNL A   1      37.867  30.928  29.270  1.00  0.00     0.031 C 
ATOM     44  C   UNL A   1      37.292  33.893  33.290  1.00  0.00     0.029 A 
ATOM     45  N   UNL A   1      38.955  32.402  33.350  1.00  0.00    -0.354 N 
ATOM     46  C   UNL A   1      39.609  29.676  30.062  1.00  0.00     0.074 A 
ATOM     47  C   UNL A   1      38.644  29.887  29.006  1.00  0.00     0.031 C 
ATOM     48  C   UNL A   1      37.925  34.043  34.463  1.00  0.00     0.029 A 
ATOM     49  C   UNL A   1      39.005  33.065  34.552  1.00  0.00     0.049 A 
ATOM     50  H   UNL A   1      39.581  31.682  33.105  1.00  0.00     0.167 HD
ATOM     51  C   UNL A   1      40.602  28.756  30.024  1.00  0.00     0.037 A 
ATOM     52  C   UNL A   1      39.819  32.898  35.612  1.00  0.00     0.037 A 
ATOM     53  C   UNL A   1      41.572  28.565  31.070  1.00  0.00     0.049 A 
ATOM     54  C   UNL A   1      40.894  31.847  35.554  1.00  0.00     0.074 A 
ATOM     55  C   UNL A   1      42.650  27.697  31.094  1.00  0.00     0.029 A 
ATOM     56  N   UNL A   1      41.581  29.248  32.277  1.00  0.00    -0.354 N 
ATOM     57  N   UNL A   1      41.190  31.022  34.579  1.00  0.00    -0.248 NA
ATOM     58  C   UNL A   1      41.747  31.701  36.742  1.00  0.00     0.031 C 
ATOM     59  C   UNL A   1      43.274  27.811  32.339  1.00  0.00     0.029 A 
ATOM     60  C   UNL A   1      42.626  28.796  33.066  1.00  0.00     0.049 A 
ATOM     61  H   UNL A   1      40.941  29.950  32.535  1.00  0.00     0.167 HD
ATOM     62  C   UNL A   1      42.273  30.277  35.025  1.00  0.00     0.074 A 
ATOM     63  C   UNL A   1      42.593  30.756  36.352  1.00  0.00     0.031 C 
ATOM     64  C   UNL A   1      42.938  29.283  34.387  1.00  0.00     0.037 A 
BRANCH  51  65
ATOM     65  C   UNL A   1      40.707  27.883  28.805  1.00  0.00     0.064 A 
ATOM     66  C   UNL A   1      41.495  28.278  27.713  1.00  0.00     0.173 A 
ATOM     67  C   UNL A   1      39.958  26.703  28.681  1.00  0.00     0.173 A 
ATOM     68  F   UNL A   1      42.225  29.402  27.777  1.00  0.00    -0.203 F 
ATOM     69  C   UNL A   1      41.514  27.534  26.536  1.00  0.00     0.198 A 
ATOM     70  C   UNL A   1      40.005  25.945  27.513  1.00  0.00     0.198 A 
ATOM     71  F   UNL A   1      39.195  26.277  29.698  1.00  0.00    -0.203 F 
ATOM     72  F   UNL A   1      42.243  27.953  25.492  1.00  0.00    -0.200 F 
ATOM     73  C   UNL A   1      40.772  26.367  26.439  1.00  0.00     0.200 A 
ATOM     74  F   UNL A   1      39.304  24.806  27.429  1.00  0.00    -0.200 F 
ATOM     75  F   UNL A   1      40.796  25.649  25.307  1.00  0.00    -0.200 F 
ENDBRANCH  51  65
BRANCH  52  76
ATOM     76  C   UNL A   1      39.658  33.770  36.804  1.00  0.00     0.064 A 
ATOM     77  C   UNL A   1      38.849  33.388  37.886  1.00  0.00     0.173 A 
ATOM     78  C   UNL A   1      40.282  35.023  36.870  1.00  0.00     0.173 A 
ATOM     79  F   UNL A   1      38.226  32.201  37.873  1.00  0.00    -0.203 F 
ATOM     80  C   UNL A   1      38.652  34.237  38.973  1.00  0.00     0.198 A 
ATOM     81  C   UNL A   1      40.108  35.859  37.972  1.00  0.00     0.198 A 
ATOM     82  F   UNL A   1      41.082  35.424  35.871  1.00  0.00    -0.203 F 
ATOM     83  F   UNL A   1      37.842  33.864  39.974  1.00  0.00    -0.200 F 
ATOM     84  C   UNL A   1      39.286  35.470  39.017  1.00  0.00     0.200 A 
ATOM     85  F   UNL A   1      40.742  37.038  38.022  1.00  0.00    -0.200 F 
ATOM     86  F   UNL A   1      39.103  36.282  40.068  1.00  0.00    -0.200 F 
ENDBRANCH  52  76
BRANCH  64  87
ATOM     87  C   UNL A   1      44.093  28.643  35.101  1.00  0.00     0.064 A 
ATOM     88  C   UNL A   1      45.397  29.132  34.924  1.00  0.00     0.173 A 
ATOM     89  C   UNL A   1      43.925  27.491  35.882  1.00  0.00     0.173 A 
ATOM     90  F   UNL A   1      45.613  30.226  34.178  1.00  0.00    -0.203 F 
ATOM     91  C   UNL A   1      46.490  28.476  35.482  1.00  0.00     0.198 A 
ATOM     92  C   UNL A   1      45.017  26.857  36.466  1.00  0.00     0.198 A 
ATOM     93  F   UNL A   1      42.697  26.992  36.093  1.00  0.00    -0.203 F 
ATOM     94  F   UNL A   1      47.730  28.935  35.262  1.00  0.00    -0.200 F 
ATOM     95  C   UNL A   1      46.300  27.341  36.256  1.00  0.00     0.200 A 
ATOM     96  F   UNL A   1      44.830  25.773  37.233  1.00  0.00    -0.200 F 
ATOM     97  F   UNL A   1      47.353  26.714  36.797  1.00  0.00    -0.200 F 
ENDBRANCH  64  87
ENDBRANCH  38  39
ENDBRANCH  30  33
ENDBRANCH  28  29
ENDBRANCH  27  28
ENDBRANCH  26  27
ENDBRANCH   1  26
TORSDOF 16
ENDMDL
