MODEL 1
REMARK VINA RESULT:     -12.9      0.000      0.000
REMARK SMILES C[C@@H](Oc1ccc2c(c1)OCO2)C(=O)N1CCn2nc(C(=O)NCCCCCCNC(=O)c3ccc(-c4c5nc(c(-c6c(F)c(F)c(F)c(F)c6F)c6ccc([nH]6)c(-c6c(F)c(F)c(F)c(F)c6F)c6nc(c(-c7c(F)c(F)c(F)c(F)c7F)c7ccc4[nH]7)C=C6)C=C5)cc3)cc2C1
REMARK SMILES IDX 25 1 24 2 23 3 21 4 22 5 20 7 15 8 16 9 98 10 17 11 97 12
REMARK SMILES IDX 18 13 96 14 19 15 13 16 14 17 2 18 1 19 3 20 4 21 5 22 9 23
REMARK SMILES IDX 6 24 8 25 7 26 10 27 12 28 11 29 26 30 27 31 28 32 29 33
REMARK SMILES IDX 30 34 31 35 32 37 33 38 34 39 95 40 35 41 94 42 36 43 37 44
REMARK SMILES IDX 38 45 88 46 39 47 93 48 87 49 89 50 40 51 92 52 86 53 85 54
REMARK SMILES IDX 41 56 73 57 53 58 72 59 54 60 57 61 71 62 90 63 55 64 56 65
REMARK SMILES IDX 70 67 91 68 58 69 42 70 43 71 51 72 44 73 45 74 49 75 52 76
REMARK SMILES IDX 46 77 47 78 50 79 48 80 74 81 75 82 83 83 76 84 77 85 81 86
REMARK SMILES IDX 84 87 78 88 79 89 82 90 80 91 59 92 60 93 68 94 61 95 62 96
REMARK SMILES IDX 66 97 69 98 63 99 64 100 67 101 65 102
REMARK H PARENT 23 6 30 36 89 55 57 66
REMARK Flexibility Score: inf
ROOT
ATOM      1  C   UNL A   1      34.141  31.005  27.247  1.00  0.00     0.021 C 
ENDROOT
BRANCH   1   2
ATOM      2  C   UNL A   1      32.961  30.037  27.324  1.00  0.00     0.116 C 
BRANCH   2   3
ATOM      3  N   UNL A   1      31.976  30.348  26.312  1.00  0.00    -0.351 N 
ATOM      4  C   UNL A   1      31.568  29.687  25.177  1.00  0.00     0.271 C 
ATOM      5  O   UNL A   1      30.659  30.234  24.542  1.00  0.00    -0.267 OA
ATOM      6  H   UNL A   1      31.506  31.200  26.466  1.00  0.00     0.163 HD
BRANCH   4   7
ATOM      7  C   UNL A   1      32.145  28.386  24.777  1.00  0.00     0.150 A 
ATOM      8  N   UNL A   1      34.059  24.318  23.809  1.00  0.00    -0.332 N 
ATOM      9  C   UNL A   1      32.796  24.249  23.054  1.00  0.00     0.143 C 
ATOM     10  C   UNL A   1      34.321  25.414  24.729  1.00  0.00     0.175 C 
ATOM     11  C   UNL A   1      31.651  25.165  23.480  1.00  0.00     0.166 C 
ATOM     12  C   UNL A   1      33.385  26.538  24.571  1.00  0.00     0.059 A 
ATOM     13  N   UNL A   1      32.142  26.379  24.069  1.00  0.00    -0.265 N 
ATOM     14  C   UNL A   1      33.473  27.877  24.874  1.00  0.00     0.061 A 
ATOM     15  N   UNL A   1      31.350  27.443  24.226  1.00  0.00    -0.167 NA
BRANCH   8  16
ATOM     16  C   UNL A   1      35.113  23.412  23.672  1.00  0.00     0.263 C 
ATOM     17  O   UNL A   1      35.800  23.392  22.644  1.00  0.00    -0.271 OA
BRANCH  16  18
ATOM     18  C   UNL A   1      35.379  22.374  24.778  1.00  0.00     0.259 C 
ATOM     19  C   UNL A   1      36.255  22.924  25.896  1.00  0.00     0.064 C 
BRANCH  18  20
ATOM     20  O   UNL A   1      34.081  21.953  25.222  1.00  0.00    -0.481 OA
BRANCH  20  21
ATOM     21  C   UNL A   1      33.702  20.729  24.752  1.00  0.00     0.124 A 
ATOM     22  C   UNL A   1      32.545  20.634  23.962  1.00  0.00     0.050 A 
ATOM     23  C   UNL A   1      34.558  19.638  24.911  1.00  0.00     0.097 A 
ATOM     24  C   UNL A   1      32.200  19.428  23.356  1.00  0.00     0.054 A 
ATOM     25  C   UNL A   1      34.201  18.461  24.284  1.00  0.00     0.169 A 
ATOM     26  C   UNL A   1      33.053  18.361  23.532  1.00  0.00     0.166 A 
ATOM     27  O   UNL A   1      34.911  17.301  24.293  1.00  0.00    -0.453 OA
ATOM     28  O   UNL A   1      32.894  17.129  22.981  1.00  0.00    -0.454 OA
ATOM     29  C   UNL A   1      34.091  16.471  23.443  1.00  0.00     0.468 C 
ENDBRANCH  20  21
ENDBRANCH  18  20
ENDBRANCH  16  18
ENDBRANCH   8  16
ENDBRANCH   4   7
ENDBRANCH   2   3
ENDBRANCH   1   2
BRANCH   1  30
ATOM     30  C   UNL A   1      34.189  31.995  28.419  1.00  0.00     0.002 C 
BRANCH  30  31
ATOM     31  C   UNL A   1      34.252  33.483  28.029  1.00  0.00     0.002 C 
BRANCH  31  32
ATOM     32  C   UNL A   1      33.201  34.400  28.673  1.00  0.00     0.021 C 
BRANCH  32  33
ATOM     33  C   UNL A   1      33.801  35.577  29.427  1.00  0.00     0.116 C 
BRANCH  33  34
ATOM     34  N   UNL A   1      33.198  35.745  30.751  1.00  0.00    -0.352 N 
ATOM     35  C   UNL A   1      33.389  34.986  31.882  1.00  0.00     0.251 C 
ATOM     36  H   UNL A   1      32.575  36.501  30.846  1.00  0.00     0.163 HD
ATOM     37  O   UNL A   1      32.577  35.008  32.814  1.00  0.00    -0.269 OA
BRANCH  35  38
ATOM     38  C   UNL A   1      34.585  34.144  31.969  1.00  0.00     0.039 A 
ATOM     39  C   UNL A   1      34.517  32.751  31.872  1.00  0.00     0.014 A 
ATOM     40  C   UNL A   1      35.807  34.796  32.091  1.00  0.00     0.014 A 
ATOM     41  C   UNL A   1      35.704  32.027  31.816  1.00  0.00     0.010 A 
ATOM     42  C   UNL A   1      36.962  34.106  31.846  1.00  0.00     0.010 A 
ATOM     43  C   UNL A   1      36.926  32.717  31.786  1.00  0.00    -0.014 A 
BRANCH  43  44
ATOM     44  C   UNL A   1      38.189  32.010  31.627  1.00  0.00     0.031 A 
ATOM     45  C   UNL A   1      38.926  31.732  32.893  1.00  0.00     0.074 A 
ATOM     46  C   UNL A   1      38.538  31.435  30.456  1.00  0.00     0.049 A 
ATOM     47  N   UNL A   1      40.088  32.165  33.254  1.00  0.00    -0.248 NA
ATOM     48  C   UNL A   1      38.233  30.955  33.934  1.00  0.00     0.031 C 
ATOM     49  C   UNL A   1      37.744  31.321  29.222  1.00  0.00     0.029 A 
ATOM     50  N   UNL A   1      39.652  30.717  30.152  1.00  0.00    -0.354 N 
ATOM     51  C   UNL A   1      40.357  31.571  34.487  1.00  0.00     0.074 A 
ATOM     52  C   UNL A   1      39.121  30.979  34.928  1.00  0.00     0.031 C 
ATOM     53  C   UNL A   1      38.285  30.385  28.415  1.00  0.00     0.029 A 
ATOM     54  C   UNL A   1      39.559  29.987  28.975  1.00  0.00     0.049 A 
ATOM     55  H   UNL A   1      40.457  30.714  30.720  1.00  0.00     0.167 HD
ATOM     56  C   UNL A   1      41.636  31.405  34.926  1.00  0.00     0.037 A 
ATOM     57  C   UNL A   1      40.462  29.096  28.506  1.00  0.00     0.037 A 
ATOM     58  C   UNL A   1      42.547  32.231  34.176  1.00  0.00     0.049 A 
ATOM     59  C   UNL A   1      41.743  29.378  29.195  1.00  0.00     0.074 A 
ATOM     60  C   UNL A   1      42.741  33.585  34.010  1.00  0.00     0.029 A 
ATOM     61  N   UNL A   1      43.219  31.620  33.148  1.00  0.00    -0.354 N 
ATOM     62  N   UNL A   1      42.429  30.477  29.046  1.00  0.00    -0.248 NA
ATOM     63  C   UNL A   1      42.066  28.597  30.377  1.00  0.00     0.031 C 
ATOM     64  C   UNL A   1      43.149  33.740  32.651  1.00  0.00     0.029 A 
ATOM     65  C   UNL A   1      43.236  32.471  32.076  1.00  0.00     0.049 A 
ATOM     66  H   UNL A   1      43.621  30.722  33.177  1.00  0.00     0.167 HD
ATOM     67  C   UNL A   1      42.958  30.737  30.300  1.00  0.00     0.074 A 
ATOM     68  C   UNL A   1      42.810  29.487  31.038  1.00  0.00     0.031 C 
ATOM     69  C   UNL A   1      43.199  32.020  30.701  1.00  0.00     0.037 A 
BRANCH  56  70
ATOM     70  C   UNL A   1      42.132  30.218  35.727  1.00  0.00     0.064 A 
ATOM     71  C   UNL A   1      43.073  30.433  36.758  1.00  0.00     0.173 A 
ATOM     72  C   UNL A   1      41.977  28.873  35.325  1.00  0.00     0.173 A 
ATOM     73  F   UNL A   1      43.317  31.671  37.213  1.00  0.00    -0.203 F 
ATOM     74  C   UNL A   1      43.857  29.398  37.275  1.00  0.00     0.198 A 
ATOM     75  C   UNL A   1      42.723  27.835  35.882  1.00  0.00     0.198 A 
ATOM     76  F   UNL A   1      41.191  28.519  34.303  1.00  0.00    -0.203 F 
ATOM     77  F   UNL A   1      44.830  29.674  38.154  1.00  0.00    -0.200 F 
ATOM     78  C   UNL A   1      43.687  28.100  36.831  1.00  0.00     0.200 A 
ATOM     79  F   UNL A   1      42.557  26.586  35.423  1.00  0.00    -0.200 F 
ATOM     80  F   UNL A   1      44.481  27.117  37.274  1.00  0.00    -0.200 F 
ENDBRANCH  56  70
BRANCH  57  81
ATOM     81  C   UNL A   1      40.204  27.838  27.772  1.00  0.00     0.064 A 
ATOM     82  C   UNL A   1      40.894  27.541  26.586  1.00  0.00     0.173 A 
ATOM     83  C   UNL A   1      39.495  26.777  28.371  1.00  0.00     0.173 A 
ATOM     84  F   UNL A   1      41.626  28.486  25.980  1.00  0.00    -0.203 F 
ATOM     85  C   UNL A   1      40.904  26.249  26.050  1.00  0.00     0.198 A 
ATOM     86  C   UNL A   1      39.501  25.490  27.831  1.00  0.00     0.198 A 
ATOM     87  F   UNL A   1      38.866  26.947  29.542  1.00  0.00    -0.203 F 
ATOM     88  F   UNL A   1      41.630  25.986  24.954  1.00  0.00    -0.200 F 
ATOM     89  C   UNL A   1      40.219  25.223  26.679  1.00  0.00     0.200 A 
ATOM     90  F   UNL A   1      38.865  24.498  28.470  1.00  0.00    -0.200 F 
ATOM     91  F   UNL A   1      40.285  23.971  26.203  1.00  0.00    -0.200 F 
ENDBRANCH  57  81
BRANCH  69  92
ATOM     92  C   UNL A   1      43.211  33.091  29.647  1.00  0.00     0.064 A 
ATOM     93  C   UNL A   1      42.138  33.959  29.385  1.00  0.00     0.173 A 
ATOM     94  C   UNL A   1      44.420  33.343  28.984  1.00  0.00     0.173 A 
ATOM     95  F   UNL A   1      40.978  33.839  30.039  1.00  0.00    -0.203 F 
ATOM     96  C   UNL A   1      42.264  35.013  28.479  1.00  0.00     0.198 A 
ATOM     97  C   UNL A   1      44.556  34.416  28.109  1.00  0.00     0.198 A 
ATOM     98  F   UNL A   1      45.493  32.576  29.234  1.00  0.00    -0.203 F 
ATOM     99  F   UNL A   1      41.224  35.827  28.244  1.00  0.00    -0.200 F 
ATOM    100  C   UNL A   1      43.477  35.247  27.852  1.00  0.00     0.200 A 
ATOM    101  F   UNL A   1      45.742  34.665  27.541  1.00  0.00    -0.200 F 
ATOM    102  F   UNL A   1      43.614  36.287  27.019  1.00  0.00    -0.200 F 
ENDBRANCH  69  92
ENDBRANCH  43  44
ENDBRANCH  35  38
ENDBRANCH  33  34
ENDBRANCH  32  33
ENDBRANCH  31  32
ENDBRANCH  30  31
ENDBRANCH   1  30
TORSDOF 17
ENDMDL
MODEL 2
REMARK VINA RESULT:     -12.7      2.798      4.315
REMARK SMILES C[C@@H](Oc1ccc2c(c1)OCO2)C(=O)N1CCn2nc(C(=O)NCCCCCCNC(=O)c3ccc(-c4c5nc(c(-c6c(F)c(F)c(F)c(F)c6F)c6ccc([nH]6)c(-c6c(F)c(F)c(F)c(F)c6F)c6nc(c(-c7c(F)c(F)c(F)c(F)c7F)c7ccc4[nH]7)C=C6)C=C5)cc3)cc2C1
REMARK SMILES IDX 25 1 24 2 23 3 21 4 22 5 20 7 15 8 16 9 98 10 17 11 97 12
REMARK SMILES IDX 18 13 96 14 19 15 13 16 14 17 2 18 1 19 3 20 4 21 5 22 9 23
REMARK SMILES IDX 6 24 8 25 7 26 10 27 12 28 11 29 26 30 27 31 28 32 29 33
REMARK SMILES IDX 30 34 31 35 32 37 33 38 34 39 95 40 35 41 94 42 36 43 37 44
REMARK SMILES IDX 38 45 88 46 39 47 93 48 87 49 89 50 40 51 92 52 86 53 85 54
REMARK SMILES IDX 41 56 73 57 53 58 72 59 54 60 57 61 71 62 90 63 55 64 56 65
REMARK SMILES IDX 70 67 91 68 58 69 42 70 43 71 51 72 44 73 45 74 49 75 52 76
REMARK SMILES IDX 46 77 47 78 50 79 48 80 74 81 75 82 83 83 76 84 77 85 81 86
REMARK SMILES IDX 84 87 78 88 79 89 82 90 80 91 59 92 60 93 68 94 61 95 62 96
REMARK SMILES IDX 66 97 69 98 63 99 64 100 67 101 65 102
REMARK H PARENT 23 6 30 36 89 55 57 66
REMARK Flexibility Score: inf
ROOT
ATOM      1  C   UNL A   1      32.726  29.500  24.677  1.00  0.00     0.021 C 
ENDROOT
BRANCH   1   2
ATOM      2  C   UNL A   1      31.245  29.362  25.028  1.00  0.00     0.116 C 
BRANCH   2   3
ATOM      3  N   UNL A   1      30.428  29.430  23.837  1.00  0.00    -0.351 N 
ATOM      4  C   UNL A   1      30.170  28.526  22.833  1.00  0.00     0.271 C 
ATOM      5  O   UNL A   1      29.380  28.909  21.963  1.00  0.00    -0.267 OA
ATOM      6  H   UNL A   1      29.966  30.292  23.723  1.00  0.00     0.163 HD
BRANCH   4   7
ATOM      7  C   UNL A   1      30.760  27.170  22.827  1.00  0.00     0.150 A 
ATOM      8  N   UNL A   1      32.314  22.842  22.815  1.00  0.00    -0.332 N 
ATOM      9  C   UNL A   1      33.304  23.524  21.965  1.00  0.00     0.143 C 
ATOM     10  C   UNL A   1      31.112  23.529  23.264  1.00  0.00     0.175 C 
ATOM     11  C   UNL A   1      32.904  24.845  21.312  1.00  0.00     0.166 C 
ATOM     12  C   UNL A   1      31.168  24.985  23.059  1.00  0.00     0.059 A 
ATOM     13  N   UNL A   1      31.939  25.552  22.105  1.00  0.00    -0.265 N 
ATOM     14  C   UNL A   1      30.525  26.040  23.663  1.00  0.00     0.061 A 
ATOM     15  N   UNL A   1      31.683  26.846  21.895  1.00  0.00    -0.167 NA
BRANCH   8  16
ATOM     16  C   UNL A   1      32.457  21.544  23.310  1.00  0.00     0.263 C 
ATOM     17  O   UNL A   1      31.935  20.585  22.728  1.00  0.00    -0.271 OA
BRANCH  16  18
ATOM     18  C   UNL A   1      33.207  21.305  24.632  1.00  0.00     0.259 C 
ATOM     19  C   UNL A   1      32.586  20.190  25.464  1.00  0.00     0.064 C 
BRANCH  18  20
ATOM     20  O   UNL A   1      34.568  21.047  24.254  1.00  0.00    -0.481 OA
BRANCH  20  21
ATOM     21  C   UNL A   1      35.466  21.939  24.764  1.00  0.00     0.124 A 
ATOM     22  C   UNL A   1      35.008  23.198  25.182  1.00  0.00     0.050 A 
ATOM     23  C   UNL A   1      36.773  21.523  25.024  1.00  0.00     0.097 A 
ATOM     24  C   UNL A   1      35.869  24.085  25.828  1.00  0.00     0.054 A 
ATOM     25  C   UNL A   1      37.598  22.414  25.681  1.00  0.00     0.169 A 
ATOM     26  C   UNL A   1      37.156  23.659  26.068  1.00  0.00     0.166 A 
ATOM     27  O   UNL A   1      38.887  22.189  26.050  1.00  0.00    -0.453 OA
ATOM     28  O   UNL A   1      38.111  24.374  26.719  1.00  0.00    -0.454 OA
ATOM     29  C   UNL A   1      39.197  23.425  26.731  1.00  0.00     0.468 C 
ENDBRANCH  20  21
ENDBRANCH  18  20
ENDBRANCH  16  18
ENDBRANCH   8  16
ENDBRANCH   4   7
ENDBRANCH   2   3
ENDBRANCH   1   2
BRANCH   1  30
ATOM     30  C   UNL A   1      33.532  28.221  24.938  1.00  0.00     0.002 C 
BRANCH  30  31
ATOM     31  C   UNL A   1      34.060  28.050  26.373  1.00  0.00     0.002 C 
BRANCH  31  32
ATOM     32  C   UNL A   1      33.851  29.241  27.321  1.00  0.00     0.021 C 
BRANCH  32  33
ATOM     33  C   UNL A   1      34.987  30.252  27.288  1.00  0.00     0.116 C 
BRANCH  33  34
ATOM     34  N   UNL A   1      34.766  31.356  28.225  1.00  0.00    -0.352 N 
ATOM     35  C   UNL A   1      35.341  31.563  29.457  1.00  0.00     0.251 C 
ATOM     36  H   UNL A   1      34.120  32.041  27.936  1.00  0.00     0.163 HD
ATOM     37  O   UNL A   1      34.825  32.319  30.287  1.00  0.00    -0.269 OA
BRANCH  35  38
ATOM     38  C   UNL A   1      36.593  30.869  29.773  1.00  0.00     0.039 A 
ATOM     39  C   UNL A   1      36.611  29.542  30.213  1.00  0.00     0.014 A 
ATOM     40  C   UNL A   1      37.774  31.569  29.556  1.00  0.00     0.014 A 
ATOM     41  C   UNL A   1      37.839  28.902  30.352  1.00  0.00     0.010 A 
ATOM     42  C   UNL A   1      38.958  30.887  29.510  1.00  0.00     0.010 A 
ATOM     43  C   UNL A   1      39.010  29.580  29.981  1.00  0.00    -0.014 A 
BRANCH  43  44
ATOM     44  C   UNL A   1      40.308  28.920  30.014  1.00  0.00     0.031 A 
ATOM     45  C   UNL A   1      40.919  28.784  31.367  1.00  0.00     0.074 A 
ATOM     46  C   UNL A   1      40.799  28.264  28.940  1.00  0.00     0.049 A 
ATOM     47  N   UNL A   1      42.020  29.299  31.803  1.00  0.00    -0.248 NA
ATOM     48  C   UNL A   1      40.149  28.068  32.398  1.00  0.00     0.031 C 
ATOM     49  C   UNL A   1      40.142  28.010  27.647  1.00  0.00     0.029 A 
ATOM     50  N   UNL A   1      41.963  27.574  28.815  1.00  0.00    -0.354 N 
ATOM     51  C   UNL A   1      42.180  28.824  33.106  1.00  0.00     0.074 A 
ATOM     52  C   UNL A   1      40.927  28.217  33.471  1.00  0.00     0.031 C 
ATOM     53  C   UNL A   1      40.798  27.034  26.986  1.00  0.00     0.029 A 
ATOM     54  C   UNL A   1      42.021  26.743  27.704  1.00  0.00     0.049 A 
ATOM     55  H   UNL A   1      42.704  27.656  29.459  1.00  0.00     0.167 HD
ATOM     56  C   UNL A   1      43.411  28.755  33.684  1.00  0.00     0.037 A 
ATOM     57  C   UNL A   1      42.999  25.858  27.411  1.00  0.00     0.037 A 
ATOM     58  C   UNL A   1      44.365  29.554  32.959  1.00  0.00     0.049 A 
ATOM     59  C   UNL A   1      44.190  26.255  28.197  1.00  0.00     0.074 A 
ATOM     60  C   UNL A   1      44.526  30.897  32.694  1.00  0.00     0.029 A 
ATOM     61  N   UNL A   1      45.163  28.890  32.063  1.00  0.00    -0.354 N 
ATOM     62  N   UNL A   1      44.848  27.367  28.020  1.00  0.00    -0.248 NA
ATOM     63  C   UNL A   1      44.415  25.592  29.471  1.00  0.00     0.031 C 
ATOM     64  C   UNL A   1      45.068  30.954  31.375  1.00  0.00     0.029 A 
ATOM     65  C   UNL A   1      45.261  29.646  30.927  1.00  0.00     0.049 A 
ATOM     66  H   UNL A   1      45.592  28.016  32.213  1.00  0.00     0.167 HD
ATOM     67  C   UNL A   1      45.232  27.757  29.294  1.00  0.00     0.074 A 
ATOM     68  C   UNL A   1      45.054  26.568  30.121  1.00  0.00     0.031 C 
ATOM     69  C   UNL A   1      45.384  29.079  29.601  1.00  0.00     0.037 A 
BRANCH  56  70
ATOM     70  C   UNL A   1      43.864  27.664  34.634  1.00  0.00     0.064 A 
ATOM     71  C   UNL A   1      43.832  26.321  34.198  1.00  0.00     0.173 A 
ATOM     72  C   UNL A   1      44.012  27.840  36.027  1.00  0.00     0.173 A 
ATOM     73  F   UNL A   1      43.680  26.027  32.898  1.00  0.00    -0.203 F 
ATOM     74  C   UNL A   1      43.856  25.248  35.094  1.00  0.00     0.198 A 
ATOM     75  C   UNL A   1      44.090  26.767  36.913  1.00  0.00     0.198 A 
ATOM     76  F   UNL A   1      43.971  29.047  36.603  1.00  0.00    -0.203 F 
ATOM     77  F   UNL A   1      43.686  23.998  34.643  1.00  0.00    -0.200 F 
ATOM     78  C   UNL A   1      43.977  25.473  36.453  1.00  0.00     0.200 A 
ATOM     79  F   UNL A   1      44.187  27.005  38.229  1.00  0.00    -0.200 F 
ATOM     80  F   UNL A   1      43.932  24.453  37.319  1.00  0.00    -0.200 F 
ENDBRANCH  56  70
BRANCH  57  81
ATOM     81  C   UNL A   1      42.865  24.531  26.769  1.00  0.00     0.064 A 
ATOM     82  C   UNL A   1      43.359  24.303  25.475  1.00  0.00     0.173 A 
ATOM     83  C   UNL A   1      42.516  23.391  27.520  1.00  0.00     0.173 A 
ATOM     84  F   UNL A   1      43.751  25.334  24.715  1.00  0.00    -0.203 F 
ATOM     85  C   UNL A   1      43.527  23.008  24.975  1.00  0.00     0.198 A 
ATOM     86  C   UNL A   1      42.679  22.100  27.017  1.00  0.00     0.198 A 
ATOM     87  F   UNL A   1      42.105  23.505  28.791  1.00  0.00    -0.203 F 
ATOM     88  F   UNL A   1      44.065  22.826  23.760  1.00  0.00    -0.200 F 
ATOM     89  C   UNL A   1      43.199  21.908  25.750  1.00  0.00     0.200 A 
ATOM     90  F   UNL A   1      42.394  21.043  27.792  1.00  0.00    -0.200 F 
ATOM     91  F   UNL A   1      43.425  20.667  25.296  1.00  0.00    -0.200 F 
ENDBRANCH  57  81
BRANCH  69  92
ATOM     92  C   UNL A   1      45.467  30.055  28.462  1.00  0.00     0.064 A 
ATOM     93  C   UNL A   1      44.358  30.685  27.874  1.00  0.00     0.173 A 
ATOM     94  C   UNL A   1      46.739  30.484  28.058  1.00  0.00     0.173 A 
ATOM     95  F   UNL A   1      43.111  30.395  28.265  1.00  0.00    -0.203 F 
ATOM     96  C   UNL A   1      44.517  31.677  26.906  1.00  0.00     0.198 A 
ATOM     97  C   UNL A   1      46.897  31.498  27.120  1.00  0.00     0.198 A 
ATOM     98  F   UNL A   1      47.835  29.951  28.624  1.00  0.00    -0.203 F 
ATOM     99  F   UNL A   1      43.442  32.262  26.356  1.00  0.00    -0.200 F 
ATOM    100  C   UNL A   1      45.787  32.090  26.540  1.00  0.00     0.200 A 
ATOM    101  F   UNL A   1      48.127  31.925  26.804  1.00  0.00    -0.200 F 
ATOM    102  F   UNL A   1      45.943  33.077  25.646  1.00  0.00    -0.200 F 
ENDBRANCH  69  92
ENDBRANCH  43  44
ENDBRANCH  35  38
ENDBRANCH  33  34
ENDBRANCH  32  33
ENDBRANCH  31  32
ENDBRANCH  30  31
ENDBRANCH   1  30
TORSDOF 17
ENDMDL
MODEL 3
REMARK VINA RESULT:     -12.6      2.711      9.112
REMARK SMILES C[C@@H](Oc1ccc2c(c1)OCO2)C(=O)N1CCn2nc(C(=O)NCCCCCCNC(=O)c3ccc(-c4c5nc(c(-c6c(F)c(F)c(F)c(F)c6F)c6ccc([nH]6)c(-c6c(F)c(F)c(F)c(F)c6F)c6nc(c(-c7c(F)c(F)c(F)c(F)c7F)c7ccc4[nH]7)C=C6)C=C5)cc3)cc2C1
REMARK SMILES IDX 25 1 24 2 23 3 21 4 22 5 20 7 15 8 16 9 98 10 17 11 97 12
REMARK SMILES IDX 18 13 96 14 19 15 13 16 14 17 2 18 1 19 3 20 4 21 5 22 9 23
REMARK SMILES IDX 6 24 8 25 7 26 10 27 12 28 11 29 26 30 27 31 28 32 29 33
REMARK SMILES IDX 30 34 31 35 32 37 33 38 34 39 95 40 35 41 94 42 36 43 37 44
REMARK SMILES IDX 38 45 88 46 39 47 93 48 87 49 89 50 40 51 92 52 86 53 85 54
REMARK SMILES IDX 41 56 73 57 53 58 72 59 54 60 57 61 71 62 90 63 55 64 56 65
REMARK SMILES IDX 70 67 91 68 58 69 42 70 43 71 51 72 44 73 45 74 49 75 52 76
REMARK SMILES IDX 46 77 47 78 50 79 48 80 74 81 75 82 83 83 76 84 77 85 81 86
REMARK SMILES IDX 84 87 78 88 79 89 82 90 80 91 59 92 60 93 68 94 61 95 62 96
REMARK SMILES IDX 66 97 69 98 63 99 64 100 67 101 65 102
REMARK H PARENT 23 6 30 36 89 55 57 66
REMARK Flexibility Score: inf
ROOT
ATOM      1  C   UNL A   1      35.660  21.834  24.214  1.00  0.00     0.021 C 
ENDROOT
BRANCH   1   2
ATOM      2  C   UNL A   1      35.162  21.222  25.523  1.00  0.00     0.116 C 
BRANCH   2   3
ATOM      3  N   UNL A   1      34.112  20.261  25.272  1.00  0.00    -0.351 N 
ATOM      4  C   UNL A   1      32.765  20.397  25.025  1.00  0.00     0.271 C 
ATOM      5  O   UNL A   1      32.154  19.343  24.817  1.00  0.00    -0.267 OA
ATOM      6  H   UNL A   1      34.421  19.326  25.278  1.00  0.00     0.163 HD
BRANCH   4   7
ATOM      7  C   UNL A   1      32.110  21.721  24.964  1.00  0.00     0.150 A 
ATOM      8  N   UNL A   1      29.932  25.746  24.518  1.00  0.00    -0.332 N 
ATOM      9  C   UNL A   1      29.967  25.578  25.981  1.00  0.00     0.143 C 
ATOM     10  C   UNL A   1      30.356  24.674  23.631  1.00  0.00     0.175 C 
ATOM     11  C   UNL A   1      30.155  24.170  26.540  1.00  0.00     0.166 C 
ATOM     12  C   UNL A   1      31.087  23.603  24.327  1.00  0.00     0.059 A 
ATOM     13  N   UNL A   1      30.916  23.347  25.642  1.00  0.00    -0.265 N 
ATOM     14  C   UNL A   1      32.000  22.667  23.902  1.00  0.00     0.061 A 
ATOM     15  N   UNL A   1      31.463  22.199  26.049  1.00  0.00    -0.167 NA
BRANCH   8  16
ATOM     16  C   UNL A   1      29.566  26.926  23.866  1.00  0.00     0.263 C 
ATOM     17  O   UNL A   1      28.398  27.112  23.503  1.00  0.00    -0.271 OA
BRANCH  16  18
ATOM     18  C   UNL A   1      30.638  27.978  23.527  1.00  0.00     0.259 C 
ATOM     19  C   UNL A   1      30.384  28.660  22.188  1.00  0.00     0.064 C 
BRANCH  18  20
ATOM     20  O   UNL A   1      30.643  28.886  24.640  1.00  0.00    -0.481 OA
BRANCH  20  21
ATOM     21  C   UNL A   1      31.794  28.862  25.371  1.00  0.00     0.124 A 
ATOM     22  C   UNL A   1      32.742  27.859  25.113  1.00  0.00     0.050 A 
ATOM     23  C   UNL A   1      32.085  29.928  26.226  1.00  0.00     0.097 A 
ATOM     24  C   UNL A   1      33.984  27.881  25.746  1.00  0.00     0.054 A 
ATOM     25  C   UNL A   1      33.329  29.932  26.824  1.00  0.00     0.169 A 
ATOM     26  C   UNL A   1      34.249  28.935  26.591  1.00  0.00     0.166 A 
ATOM     27  O   UNL A   1      33.812  30.890  27.660  1.00  0.00    -0.453 OA
ATOM     28  O   UNL A   1      35.417  29.135  27.255  1.00  0.00    -0.454 OA
ATOM     29  C   UNL A   1      35.145  30.392  27.907  1.00  0.00     0.468 C 
ENDBRANCH  20  21
ENDBRANCH  18  20
ENDBRANCH  16  18
ENDBRANCH   8  16
ENDBRANCH   4   7
ENDBRANCH   2   3
ENDBRANCH   1   2
BRANCH   1  30
ATOM     30  C   UNL A   1      36.765  22.879  24.416  1.00  0.00     0.002 C 
BRANCH  30  31
ATOM     31  C   UNL A   1      37.525  22.792  25.751  1.00  0.00     0.002 C 
BRANCH  31  32
ATOM     32  C   UNL A   1      38.766  21.886  25.771  1.00  0.00     0.021 C 
BRANCH  32  33
ATOM     33  C   UNL A   1      39.856  22.367  26.716  1.00  0.00     0.116 C 
BRANCH  33  34
ATOM     34  N   UNL A   1      41.159  22.452  26.051  1.00  0.00    -0.352 N 
ATOM     35  C   UNL A   1      41.955  23.557  25.864  1.00  0.00     0.251 C 
ATOM     36  H   UNL A   1      41.512  21.606  25.692  1.00  0.00     0.163 HD
ATOM     37  O   UNL A   1      42.840  23.571  25.001  1.00  0.00    -0.269 OA
BRANCH  35  38
ATOM     38  C   UNL A   1      41.740  24.730  26.715  1.00  0.00     0.039 A 
ATOM     39  C   UNL A   1      42.283  24.821  27.999  1.00  0.00     0.014 A 
ATOM     40  C   UNL A   1      41.020  25.784  26.164  1.00  0.00     0.014 A 
ATOM     41  C   UNL A   1      42.162  26.022  28.692  1.00  0.00     0.010 A 
ATOM     42  C   UNL A   1      41.067  27.013  26.763  1.00  0.00     0.010 A 
ATOM     43  C   UNL A   1      41.564  27.121  28.056  1.00  0.00    -0.014 A 
BRANCH  43  44
ATOM     44  C   UNL A   1      41.503  28.426  28.702  1.00  0.00     0.031 A 
ATOM     45  C   UNL A   1      42.584  29.377  28.318  1.00  0.00     0.074 A 
ATOM     46  C   UNL A   1      40.415  28.823  29.397  1.00  0.00     0.049 A 
ATOM     47  N   UNL A   1      43.499  29.894  29.069  1.00  0.00    -0.248 NA
ATOM     48  C   UNL A   1      42.728  29.712  26.891  1.00  0.00     0.031 C 
ATOM     49  C   UNL A   1      39.128  28.127  29.557  1.00  0.00     0.029 A 
ATOM     50  N   UNL A   1      40.185  30.007  30.024  1.00  0.00    -0.354 N 
ATOM     51  C   UNL A   1      44.223  30.764  28.253  1.00  0.00     0.074 A 
ATOM     52  C   UNL A   1      43.816  30.484  26.901  1.00  0.00     0.031 C 
ATOM     53  C   UNL A   1      38.195  28.990  30.007  1.00  0.00     0.029 A 
ATOM     54  C   UNL A   1      38.856  30.229  30.360  1.00  0.00     0.049 A 
ATOM     55  H   UNL A   1      40.901  30.654  30.224  1.00  0.00     0.167 HD
ATOM     56  C   UNL A   1      44.918  31.811  28.781  1.00  0.00     0.037 A 
ATOM     57  C   UNL A   1      38.333  31.367  30.870  1.00  0.00     0.037 A 
ATOM     58  C   UNL A   1      45.100  31.643  30.199  1.00  0.00     0.049 A 
ATOM     59  C   UNL A   1      39.460  32.142  31.439  1.00  0.00     0.074 A 
ATOM     60  C   UNL A   1      45.765  30.748  31.009  1.00  0.00     0.029 A 
ATOM     61  N   UNL A   1      44.216  32.308  31.011  1.00  0.00    -0.354 N 
ATOM     62  N   UNL A   1      40.172  31.756  32.461  1.00  0.00    -0.248 NA
ATOM     63  C   UNL A   1      40.064  33.172  30.610  1.00  0.00     0.031 C 
ATOM     64  C   UNL A   1      44.945  30.613  32.169  1.00  0.00     0.029 A 
ATOM     65  C   UNL A   1      43.852  31.472  32.032  1.00  0.00     0.049 A 
ATOM     66  H   UNL A   1      43.898  33.231  30.880  1.00  0.00     0.167 HD
ATOM     67  C   UNL A   1      41.461  32.177  32.173  1.00  0.00     0.074 A 
ATOM     68  C   UNL A   1      41.308  33.148  31.095  1.00  0.00     0.031 C 
ATOM     69  C   UNL A   1      42.541  31.485  32.642  1.00  0.00     0.037 A 
BRANCH  56  70
ATOM     70  C   UNL A   1      45.071  33.169  28.125  1.00  0.00     0.064 A 
ATOM     71  C   UNL A   1      46.370  33.667  27.878  1.00  0.00     0.173 A 
ATOM     72  C   UNL A   1      44.033  34.122  28.028  1.00  0.00     0.173 A 
ATOM     73  F   UNL A   1      47.438  32.859  27.956  1.00  0.00    -0.203 F 
ATOM     74  C   UNL A   1      46.613  35.023  27.645  1.00  0.00     0.198 A 
ATOM     75  C   UNL A   1      44.275  35.465  27.742  1.00  0.00     0.198 A 
ATOM     76  F   UNL A   1      42.762  33.825  28.319  1.00  0.00    -0.203 F 
ATOM     77  F   UNL A   1      47.873  35.468  27.553  1.00  0.00    -0.200 F 
ATOM     78  C   UNL A   1      45.565  35.923  27.585  1.00  0.00     0.200 A 
ATOM     79  F   UNL A   1      43.247  36.325  27.707  1.00  0.00    -0.200 F 
ATOM     80  F   UNL A   1      45.799  37.233  27.430  1.00  0.00    -0.200 F 
ENDBRANCH  56  70
BRANCH  57  81
ATOM     81  C   UNL A   1      37.004  31.960  30.601  1.00  0.00     0.064 A 
ATOM     82  C   UNL A   1      35.990  31.924  31.570  1.00  0.00     0.173 A 
ATOM     83  C   UNL A   1      36.801  32.825  29.507  1.00  0.00     0.173 A 
ATOM     84  F   UNL A   1      36.129  31.158  32.660  1.00  0.00    -0.203 F 
ATOM     85  C   UNL A   1      34.854  32.733  31.468  1.00  0.00     0.198 A 
ATOM     86  C   UNL A   1      35.664  33.627  29.404  1.00  0.00     0.198 A 
ATOM     87  F   UNL A   1      37.746  32.980  28.569  1.00  0.00    -0.203 F 
ATOM     88  F   UNL A   1      33.937  32.724  32.447  1.00  0.00    -0.200 F 
ATOM     89  C   UNL A   1      34.698  33.593  30.393  1.00  0.00     0.200 A 
ATOM     90  F   UNL A   1      35.543  34.483  28.379  1.00  0.00    -0.200 F 
ATOM     91  F   UNL A   1      33.643  34.418  30.332  1.00  0.00    -0.200 F 
ENDBRANCH  57  81
BRANCH  69  92
ATOM     92  C   UNL A   1      42.307  30.489  33.743  1.00  0.00     0.064 A 
ATOM     93  C   UNL A   1      42.025  29.128  33.536  1.00  0.00     0.173 A 
ATOM     94  C   UNL A   1      42.532  30.906  35.062  1.00  0.00     0.173 A 
ATOM     95  F   UNL A   1      41.882  28.633  32.301  1.00  0.00    -0.203 F 
ATOM     96  C   UNL A   1      41.946  28.235  34.604  1.00  0.00     0.198 A 
ATOM     97  C   UNL A   1      42.489  30.007  36.122  1.00  0.00     0.198 A 
ATOM     98  F   UNL A   1      42.854  32.185  35.313  1.00  0.00    -0.203 F 
ATOM     99  F   UNL A   1      41.673  26.940  34.381  1.00  0.00    -0.200 F 
ATOM    100  C   UNL A   1      42.190  28.673  35.895  1.00  0.00     0.200 A 
ATOM    101  F   UNL A   1      42.771  30.428  37.362  1.00  0.00    -0.200 F 
ATOM    102  F   UNL A   1      42.162  27.807  36.917  1.00  0.00    -0.200 F 
ENDBRANCH  69  92
ENDBRANCH  43  44
ENDBRANCH  35  38
ENDBRANCH  33  34
ENDBRANCH  32  33
ENDBRANCH  31  32
ENDBRANCH  30  31
ENDBRANCH   1  30
TORSDOF 17
ENDMDL
