MODEL 1
REMARK VINA RESULT:     -11.7      0.000      0.000
REMARK SMILES C[C@H]1CC[C@H]([N@@H+](CC(=O)NCCCCCCNC(=O)c2ccc(-c3c4nc(c(-c5c(F)c(F)c(F)c(F)c5F)c5ccc([nH]5)c(-c5c(F)c(F)c(F)c(F)c5F)c5nc(c(-c6c(F)c(F)c(F)c(F)c6F)c6ccc3[nH]6)C=C5)C=C4)cc2)C(C)(C)C)C[C@@H]1C
REMARK SMILES IDX 13 1 12 2 11 3 10 4 8 5 9 6 7 8 6 9 5 11 1 12 2 13 3 14
REMARK SMILES IDX 88 15 4 16 87 17 89 18 83 19 84 20 85 21 86 22 14 23 15 24
REMARK SMILES IDX 16 25 17 26 18 27 19 29 20 30 21 31 82 32 22 33 81 34 23 35
REMARK SMILES IDX 24 36 25 37 75 38 26 39 80 40 74 41 76 42 27 43 79 44 73 45
REMARK SMILES IDX 72 46 28 48 60 49 40 50 59 51 41 52 44 53 58 54 77 55 42 56
REMARK SMILES IDX 43 57 57 59 78 60 45 61 29 62 30 63 38 64 31 65 32 66 36 67
REMARK SMILES IDX 39 68 33 69 34 70 37 71 35 72 61 73 62 74 70 75 63 76 64 77
REMARK SMILES IDX 68 78 71 79 65 80 66 81 69 82 67 83 46 84 47 85 55 86 48 87
REMARK SMILES IDX 49 88 53 89 56 90 50 91 51 92 54 93 52 94
REMARK H PARENT 10 7 6 10 17 28 76 47 44 58
REMARK Flexibility Score: inf
ROOT
ATOM      1  C   UNL A   1      30.958  28.982  23.312  1.00  0.00     0.002 C 
ENDROOT
BRANCH   1   2
ATOM      2  C   UNL A   1      30.220  27.633  23.204  1.00  0.00     0.021 C 
BRANCH   2   3
ATOM      3  C   UNL A   1      31.018  26.371  23.597  1.00  0.00     0.116 C 
BRANCH   3   4
ATOM      4  N   UNL A   1      32.342  26.254  23.007  1.00  0.00    -0.351 N 
ATOM      5  C   UNL A   1      33.165  25.184  22.783  1.00  0.00     0.275 C 
ATOM      6  O   UNL A   1      34.079  25.368  21.973  1.00  0.00    -0.269 OA
ATOM      7  H   UNL A   1      32.721  27.112  22.709  1.00  0.00     0.163 HD
BRANCH   5   8
ATOM      8  C   UNL A   1      32.987  23.837  23.509  1.00  0.00     0.364 C 
BRANCH   8   9
ATOM      9  N   UNL A   1      33.371  23.845  24.954  1.00  0.00    -0.321 N 
ATOM     10  H   UNL A   1      33.540  24.809  25.241  1.00  0.00     0.349 HD
BRANCH   9  11
ATOM     11  C   UNL A   1      34.686  23.207  25.147  1.00  0.00     0.185 C 
ATOM     12  C   UNL A   1      38.584  21.394  25.633  1.00  0.00     0.008 C 
ATOM     13  C   UNL A   1      37.500  22.272  25.001  1.00  0.00    -0.011 C 
ATOM     14  C   UNL A   1      36.318  21.372  24.574  1.00  0.00     0.010 C 
ATOM     15  C   UNL A   1      37.046  23.390  25.961  1.00  0.00    -0.006 C 
ATOM     16  C   UNL A   1      35.083  22.151  24.099  1.00  0.00     0.065 C 
ATOM     17  C   UNL A   1      35.859  24.161  25.390  1.00  0.00     0.068 C 
ATOM     18  C   UNL A   1      38.150  24.363  26.374  1.00  0.00     0.008 C 
ENDBRANCH   9  11
BRANCH   9  19
ATOM     19  C   UNL A   1      32.288  23.729  25.974  1.00  0.00     0.090 C 
ATOM     20  C   UNL A   1      31.788  25.050  26.599  1.00  0.00     0.078 C 
ATOM     21  C   UNL A   1      31.050  22.998  25.400  1.00  0.00     0.078 C 
ATOM     22  C   UNL A   1      32.758  22.842  27.160  1.00  0.00     0.078 C 
ENDBRANCH   9  19
ENDBRANCH   8   9
ENDBRANCH   5   8
ENDBRANCH   3   4
ENDBRANCH   2   3
ENDBRANCH   1   2
BRANCH   1  23
ATOM     23  C   UNL A   1      31.048  29.596  24.713  1.00  0.00     0.002 C 
BRANCH  23  24
ATOM     24  C   UNL A   1      32.446  29.650  25.335  1.00  0.00     0.021 C 
BRANCH  24  25
ATOM     25  C   UNL A   1      32.525  30.063  26.804  1.00  0.00     0.116 C 
BRANCH  25  26
ATOM     26  N   UNL A   1      32.462  31.500  27.029  1.00  0.00    -0.352 N 
ATOM     27  C   UNL A   1      33.436  32.329  27.541  1.00  0.00     0.251 C 
ATOM     28  H   UNL A   1      31.614  31.935  26.784  1.00  0.00     0.163 HD
ATOM     29  O   UNL A   1      33.227  33.526  27.712  1.00  0.00    -0.269 OA
BRANCH  27  30
ATOM     30  C   UNL A   1      34.734  31.747  27.943  1.00  0.00     0.039 A 
ATOM     31  C   UNL A   1      35.842  32.589  28.035  1.00  0.00     0.014 A 
ATOM     32  C   UNL A   1      34.832  30.400  28.310  1.00  0.00     0.014 A 
ATOM     33  C   UNL A   1      37.030  32.104  28.584  1.00  0.00     0.010 A 
ATOM     34  C   UNL A   1      36.000  29.934  28.913  1.00  0.00     0.010 A 
ATOM     35  C   UNL A   1      37.105  30.786  29.072  1.00  0.00    -0.014 A 
BRANCH  35  36
ATOM     36  C   UNL A   1      38.324  30.333  29.791  1.00  0.00     0.031 A 
ATOM     37  C   UNL A   1      38.603  30.783  31.197  1.00  0.00     0.074 A 
ATOM     38  C   UNL A   1      39.192  29.515  29.164  1.00  0.00     0.049 A 
ATOM     39  N   UNL A   1      39.559  30.406  32.009  1.00  0.00    -0.248 NA
ATOM     40  C   UNL A   1      37.705  31.803  31.757  1.00  0.00     0.031 C 
ATOM     41  C   UNL A   1      39.080  29.072  27.773  1.00  0.00     0.029 A 
ATOM     42  N   UNL A   1      40.335  28.902  29.615  1.00  0.00    -0.354 N 
ATOM     43  C   UNL A   1      39.372  31.134  33.175  1.00  0.00     0.074 A 
ATOM     44  C   UNL A   1      38.254  32.022  32.943  1.00  0.00     0.031 C 
ATOM     45  C   UNL A   1      40.084  28.224  27.498  1.00  0.00     0.029 A 
ATOM     46  C   UNL A   1      40.919  28.075  28.686  1.00  0.00     0.049 A 
ATOM     47  H   UNL A   1      40.700  29.041  30.519  1.00  0.00     0.167 HD
ATOM     48  C   UNL A   1      40.053  31.048  34.344  1.00  0.00     0.037 A 
ATOM     49  C   UNL A   1      41.995  27.271  28.788  1.00  0.00     0.037 A 
ATOM     50  C   UNL A   1      41.163  30.160  34.575  1.00  0.00     0.049 A 
ATOM     51  C   UNL A   1      42.718  27.175  30.105  1.00  0.00     0.074 A 
ATOM     52  C   UNL A   1      41.881  29.958  35.740  1.00  0.00     0.029 A 
ATOM     53  N   UNL A   1      41.719  29.328  33.615  1.00  0.00    -0.354 N 
ATOM     54  N   UNL A   1      42.466  27.790  31.234  1.00  0.00    -0.248 NA
ATOM     55  C   UNL A   1      43.862  26.254  30.164  1.00  0.00     0.031 C 
ATOM     56  C   UNL A   1      42.900  29.036  35.475  1.00  0.00     0.029 A 
ATOM     57  C   UNL A   1      42.786  28.627  34.156  1.00  0.00     0.049 A 
ATOM     58  H   UNL A   1      41.404  29.247  32.686  1.00  0.00     0.167 HD
ATOM     59  C   UNL A   1      43.405  27.319  32.142  1.00  0.00     0.074 A 
ATOM     60  C   UNL A   1      44.212  26.344  31.439  1.00  0.00     0.031 C 
ATOM     61  C   UNL A   1      43.585  27.664  33.441  1.00  0.00     0.037 A 
BRANCH  48  62
ATOM     62  C   UNL A   1      39.606  31.937  35.469  1.00  0.00     0.064 A 
ATOM     63  C   UNL A   1      40.147  33.220  35.647  1.00  0.00     0.173 A 
ATOM     64  C   UNL A   1      38.608  31.518  36.360  1.00  0.00     0.173 A 
ATOM     65  F   UNL A   1      41.114  33.665  34.828  1.00  0.00    -0.203 F 
ATOM     66  C   UNL A   1      39.727  34.038  36.692  1.00  0.00     0.198 A 
ATOM     67  C   UNL A   1      38.169  32.350  37.388  1.00  0.00     0.198 A 
ATOM     68  F   UNL A   1      38.053  30.303  36.231  1.00  0.00    -0.203 F 
ATOM     69  F   UNL A   1      40.294  35.238  36.871  1.00  0.00    -0.200 F 
ATOM     70  C   UNL A   1      38.734  33.605  37.558  1.00  0.00     0.200 A 
ATOM     71  F   UNL A   1      37.200  31.935  38.216  1.00  0.00    -0.200 F 
ATOM     72  F   UNL A   1      38.327  34.394  38.561  1.00  0.00    -0.200 F 
ENDBRANCH  48  62
BRANCH  49  73
ATOM     73  C   UNL A   1      42.423  26.449  27.625  1.00  0.00     0.064 A 
ATOM     74  C   UNL A   1      41.845  25.195  27.377  1.00  0.00     0.173 A 
ATOM     75  C   UNL A   1      43.423  26.891  26.748  1.00  0.00     0.173 A 
ATOM     76  F   UNL A   1      40.898  24.719  28.200  1.00  0.00    -0.203 F 
ATOM     77  C   UNL A   1      42.268  24.405  26.310  1.00  0.00     0.198 A 
ATOM     78  C   UNL A   1      43.825  26.113  25.664  1.00  0.00     0.198 A 
ATOM     79  F   UNL A   1      44.003  28.085  26.937  1.00  0.00    -0.203 F 
ATOM     80  F   UNL A   1      41.733  23.191  26.125  1.00  0.00    -0.200 F 
ATOM     81  C   UNL A   1      43.254  24.867  25.452  1.00  0.00     0.200 A 
ATOM     82  F   UNL A   1      44.769  26.567  24.829  1.00  0.00    -0.200 F 
ATOM     83  F   UNL A   1      43.660  24.107  24.424  1.00  0.00    -0.200 F 
ENDBRANCH  49  73
BRANCH  61  84
ATOM     84  C   UNL A   1      44.691  26.970  34.184  1.00  0.00     0.064 A 
ATOM     85  C   UNL A   1      44.476  25.756  34.855  1.00  0.00     0.173 A 
ATOM     86  C   UNL A   1      45.980  27.521  34.219  1.00  0.00     0.173 A 
ATOM     87  F   UNL A   1      43.257  25.197  34.864  1.00  0.00    -0.203 F 
ATOM     88  C   UNL A   1      45.502  25.140  35.566  1.00  0.00     0.198 A 
ATOM     89  C   UNL A   1      47.013  26.884  34.905  1.00  0.00     0.198 A 
ATOM     90  F   UNL A   1      46.242  28.675  33.589  1.00  0.00    -0.203 F 
ATOM     91  F   UNL A   1      45.258  24.015  36.251  1.00  0.00    -0.200 F 
ATOM     92  C   UNL A   1      46.770  25.702  35.587  1.00  0.00     0.200 A 
ATOM     93  F   UNL A   1      48.240  27.422  34.913  1.00  0.00    -0.200 F 
ATOM     94  F   UNL A   1      47.755  25.109  36.274  1.00  0.00    -0.200 F 
ENDBRANCH  61  84
ENDBRANCH  35  36
ENDBRANCH  27  30
ENDBRANCH  25  26
ENDBRANCH  24  25
ENDBRANCH  23  24
ENDBRANCH   1  23
TORSDOF 16
ENDMDL
MODEL 2
REMARK VINA RESULT:     -11.6      1.349      2.337
REMARK SMILES C[C@H]1CC[C@H]([N@@H+](CC(=O)NCCCCCCNC(=O)c2ccc(-c3c4nc(c(-c5c(F)c(F)c(F)c(F)c5F)c5ccc([nH]5)c(-c5c(F)c(F)c(F)c(F)c5F)c5nc(c(-c6c(F)c(F)c(F)c(F)c6F)c6ccc3[nH]6)C=C5)C=C4)cc2)C(C)(C)C)C[C@@H]1C
REMARK SMILES IDX 13 1 12 2 11 3 10 4 8 5 9 6 7 8 6 9 5 11 1 12 2 13 3 14
REMARK SMILES IDX 88 15 4 16 87 17 89 18 83 19 84 20 85 21 86 22 14 23 15 24
REMARK SMILES IDX 16 25 17 26 18 27 19 29 20 30 21 31 82 32 22 33 81 34 23 35
REMARK SMILES IDX 24 36 25 37 75 38 26 39 80 40 74 41 76 42 27 43 79 44 73 45
REMARK SMILES IDX 72 46 28 48 60 49 40 50 59 51 41 52 44 53 58 54 77 55 42 56
REMARK SMILES IDX 43 57 57 59 78 60 45 61 29 62 30 63 38 64 31 65 32 66 36 67
REMARK SMILES IDX 39 68 33 69 34 70 37 71 35 72 61 73 62 74 70 75 63 76 64 77
REMARK SMILES IDX 68 78 71 79 65 80 66 81 69 82 67 83 46 84 47 85 55 86 48 87
REMARK SMILES IDX 49 88 53 89 56 90 50 91 51 92 54 93 52 94
REMARK H PARENT 10 7 6 10 17 28 76 47 44 58
REMARK Flexibility Score: inf
ROOT
ATOM      1  C   UNL A   1      30.653  28.047  23.963  1.00  0.00     0.002 C 
ENDROOT
BRANCH   1   2
ATOM      2  C   UNL A   1      29.981  26.704  24.309  1.00  0.00     0.021 C 
BRANCH   2   3
ATOM      3  C   UNL A   1      30.465  25.995  25.592  1.00  0.00     0.116 C 
BRANCH   3   4
ATOM      4  N   UNL A   1      30.100  24.591  25.713  1.00  0.00    -0.351 N 
ATOM      5  C   UNL A   1      30.824  23.468  26.003  1.00  0.00     0.275 C 
ATOM      6  O   UNL A   1      30.169  22.480  26.350  1.00  0.00    -0.269 OA
ATOM      7  H   UNL A   1      29.144  24.416  25.556  1.00  0.00     0.163 HD
BRANCH   5   8
ATOM      8  C   UNL A   1      32.359  23.419  25.884  1.00  0.00     0.364 C 
BRANCH   8   9
ATOM      9  N   UNL A   1      32.876  23.132  24.511  1.00  0.00    -0.321 N 
ATOM     10  H   UNL A   1      32.091  23.135  23.860  1.00  0.00     0.349 HD
BRANCH   9  11
ATOM     11  C   UNL A   1      33.374  21.748  24.421  1.00  0.00     0.185 C 
ATOM     12  C   UNL A   1      34.756  17.652  24.220  1.00  0.00     0.008 C 
ATOM     13  C   UNL A   1      33.896  18.835  24.675  1.00  0.00    -0.011 C 
ATOM     14  C   UNL A   1      34.812  19.890  25.338  1.00  0.00     0.010 C 
ATOM     15  C   UNL A   1      33.094  19.435  23.502  1.00  0.00    -0.006 C 
ATOM     16  C   UNL A   1      34.103  21.211  25.667  1.00  0.00     0.065 C 
ATOM     17  C   UNL A   1      32.365  20.708  23.925  1.00  0.00     0.068 C 
ATOM     18  C   UNL A   1      32.114  18.468  22.838  1.00  0.00     0.008 C 
ENDBRANCH   9  11
BRANCH   9  19
ATOM     19  C   UNL A   1      33.515  24.245  23.748  1.00  0.00     0.090 C 
ATOM     20  C   UNL A   1      33.915  25.494  24.562  1.00  0.00     0.078 C 
ATOM     21  C   UNL A   1      34.782  23.760  23.002  1.00  0.00     0.078 C 
ATOM     22  C   UNL A   1      32.562  24.746  22.628  1.00  0.00     0.078 C 
ENDBRANCH   9  19
ENDBRANCH   8   9
ENDBRANCH   5   8
ENDBRANCH   3   4
ENDBRANCH   2   3
ENDBRANCH   1   2
BRANCH   1  23
ATOM     23  C   UNL A   1      31.770  28.509  24.904  1.00  0.00     0.002 C 
BRANCH  23  24
ATOM     24  C   UNL A   1      31.572  29.876  25.563  1.00  0.00     0.021 C 
BRANCH  24  25
ATOM     25  C   UNL A   1      32.692  30.360  26.483  1.00  0.00     0.116 C 
BRANCH  25  26
ATOM     26  N   UNL A   1      32.574  31.751  26.894  1.00  0.00    -0.352 N 
ATOM     27  C   UNL A   1      33.487  32.519  27.584  1.00  0.00     0.251 C 
ATOM     28  H   UNL A   1      31.735  32.201  26.647  1.00  0.00     0.163 HD
ATOM     29  O   UNL A   1      33.234  33.678  27.899  1.00  0.00    -0.269 OA
BRANCH  27  30
ATOM     30  C   UNL A   1      34.768  31.909  28.001  1.00  0.00     0.039 A 
ATOM     31  C   UNL A   1      35.900  32.722  28.074  1.00  0.00     0.014 A 
ATOM     32  C   UNL A   1      34.827  30.569  28.398  1.00  0.00     0.014 A 
ATOM     33  C   UNL A   1      37.073  32.215  28.634  1.00  0.00     0.010 A 
ATOM     34  C   UNL A   1      35.981  30.084  29.012  1.00  0.00     0.010 A 
ATOM     35  C   UNL A   1      37.110  30.907  29.153  1.00  0.00    -0.014 A 
BRANCH  35  36
ATOM     36  C   UNL A   1      38.315  30.437  29.883  1.00  0.00     0.031 A 
ATOM     37  C   UNL A   1      38.574  30.860  31.301  1.00  0.00     0.074 A 
ATOM     38  C   UNL A   1      39.191  29.627  29.255  1.00  0.00     0.049 A 
ATOM     39  N   UNL A   1      39.515  30.464  32.121  1.00  0.00    -0.248 NA
ATOM     40  C   UNL A   1      37.671  31.873  31.865  1.00  0.00     0.031 C 
ATOM     41  C   UNL A   1      39.099  29.209  27.854  1.00  0.00     0.029 A 
ATOM     42  N   UNL A   1      40.324  29.001  29.713  1.00  0.00    -0.354 N 
ATOM     43  C   UNL A   1      39.313  31.172  33.297  1.00  0.00     0.074 A 
ATOM     44  C   UNL A   1      38.201  32.068  33.064  1.00  0.00     0.031 C 
ATOM     45  C   UNL A   1      40.105  28.363  27.580  1.00  0.00     0.029 A 
ATOM     46  C   UNL A   1      40.920  28.188  28.778  1.00  0.00     0.049 A 
ATOM     47  H   UNL A   1      40.675  29.122  30.625  1.00  0.00     0.167 HD
ATOM     48  C   UNL A   1      39.974  31.062  34.475  1.00  0.00     0.037 A 
ATOM     49  C   UNL A   1      41.991  27.378  28.882  1.00  0.00     0.037 A 
ATOM     50  C   UNL A   1      41.077  30.165  34.707  1.00  0.00     0.049 A 
ATOM     51  C   UNL A   1      42.692  27.255  30.209  1.00  0.00     0.074 A 
ATOM     52  C   UNL A   1      41.775  29.939  35.880  1.00  0.00     0.029 A 
ATOM     53  N   UNL A   1      41.646  29.348  33.741  1.00  0.00    -0.354 N 
ATOM     54  N   UNL A   1      42.425  27.851  31.345  1.00  0.00    -0.248 NA
ATOM     55  C   UNL A   1      43.831  26.329  30.269  1.00  0.00     0.031 C 
ATOM     56  C   UNL A   1      42.796  29.018  35.614  1.00  0.00     0.029 A 
ATOM     57  C   UNL A   1      42.701  28.633  34.287  1.00  0.00     0.049 A 
ATOM     58  H   UNL A   1      41.344  29.286  32.806  1.00  0.00     0.167 HD
ATOM     59  C   UNL A   1      43.347  27.360  32.259  1.00  0.00     0.074 A 
ATOM     60  C   UNL A   1      44.162  26.394  31.551  1.00  0.00     0.031 C 
ATOM     61  C   UNL A   1      43.508  27.680  33.566  1.00  0.00     0.037 A 
BRANCH  48  62
ATOM     62  C   UNL A   1      39.513  31.932  35.609  1.00  0.00     0.064 A 
ATOM     63  C   UNL A   1      40.046  33.215  35.810  1.00  0.00     0.173 A 
ATOM     64  C   UNL A   1      38.509  31.494  36.485  1.00  0.00     0.173 A 
ATOM     65  F   UNL A   1      41.016  33.677  35.006  1.00  0.00    -0.203 F 
ATOM     66  C   UNL A   1      39.611  34.015  36.863  1.00  0.00     0.198 A 
ATOM     67  C   UNL A   1      38.057  32.309  37.520  1.00  0.00     0.198 A 
ATOM     68  F   UNL A   1      37.963  30.279  36.334  1.00  0.00    -0.203 F 
ATOM     69  F   UNL A   1      40.170  35.216  37.064  1.00  0.00    -0.200 F 
ATOM     70  C   UNL A   1      38.614  33.564  37.713  1.00  0.00     0.200 A 
ATOM     71  F   UNL A   1      37.084  31.877  38.334  1.00  0.00    -0.200 F 
ATOM     72  F   UNL A   1      38.193  34.337  38.724  1.00  0.00    -0.200 F 
ENDBRANCH  48  62
BRANCH  49  73
ATOM     73  C   UNL A   1      42.434  26.576  27.712  1.00  0.00     0.064 A 
ATOM     74  C   UNL A   1      43.425  27.055  26.843  1.00  0.00     0.173 A 
ATOM     75  C   UNL A   1      41.872  25.323  27.431  1.00  0.00     0.173 A 
ATOM     76  F   UNL A   1      43.980  28.258  27.059  1.00  0.00    -0.203 F 
ATOM     77  C   UNL A   1      43.819  26.324  25.724  1.00  0.00     0.198 A 
ATOM     78  C   UNL A   1      42.286  24.579  26.328  1.00  0.00     0.198 A 
ATOM     79  F   UNL A   1      40.925  24.816  28.234  1.00  0.00    -0.203 F 
ATOM     80  F   UNL A   1      44.733  26.828  24.885  1.00  0.00    -0.200 F 
ATOM     81  C   UNL A   1      43.253  25.084  25.471  1.00  0.00     0.200 A 
ATOM     82  F   UNL A   1      41.747  23.375  26.093  1.00  0.00    -0.200 F 
ATOM     83  F   UNL A   1      43.632  24.379  24.396  1.00  0.00    -0.200 F 
ENDBRANCH  49  73
BRANCH  61  84
ATOM     84  C   UNL A   1      44.599  26.968  34.314  1.00  0.00     0.064 A 
ATOM     85  C   UNL A   1      44.386  25.714  34.906  1.00  0.00     0.173 A 
ATOM     86  C   UNL A   1      45.872  27.543  34.434  1.00  0.00     0.173 A 
ATOM     87  F   UNL A   1      43.181  25.129  34.834  1.00  0.00    -0.203 F 
ATOM     88  C   UNL A   1      45.397  25.079  35.624  1.00  0.00     0.198 A 
ATOM     89  C   UNL A   1      46.891  26.891  35.125  1.00  0.00     0.198 A 
ATOM     90  F   UNL A   1      46.132  28.737  33.881  1.00  0.00    -0.203 F 
ATOM     91  F   UNL A   1      45.152  23.912  36.233  1.00  0.00    -0.200 F 
ATOM     92  C   UNL A   1      46.649  25.667  35.729  1.00  0.00     0.200 A 
ATOM     93  F   UNL A   1      48.104  27.453  35.215  1.00  0.00    -0.200 F 
ATOM     94  F   UNL A   1      47.620  25.056  36.421  1.00  0.00    -0.200 F 
ENDBRANCH  61  84
ENDBRANCH  35  36
ENDBRANCH  27  30
ENDBRANCH  25  26
ENDBRANCH  24  25
ENDBRANCH  23  24
ENDBRANCH   1  23
TORSDOF 16
ENDMDL
MODEL 3
REMARK VINA RESULT:     -11.6      1.954      7.830
REMARK SMILES C[C@H]1CC[C@H]([N@@H+](CC(=O)NCCCCCCNC(=O)c2ccc(-c3c4nc(c(-c5c(F)c(F)c(F)c(F)c5F)c5ccc([nH]5)c(-c5c(F)c(F)c(F)c(F)c5F)c5nc(c(-c6c(F)c(F)c(F)c(F)c6F)c6ccc3[nH]6)C=C5)C=C4)cc2)C(C)(C)C)C[C@@H]1C
REMARK SMILES IDX 13 1 12 2 11 3 10 4 8 5 9 6 7 8 6 9 5 11 1 12 2 13 3 14
REMARK SMILES IDX 88 15 4 16 87 17 89 18 83 19 84 20 85 21 86 22 14 23 15 24
REMARK SMILES IDX 16 25 17 26 18 27 19 29 20 30 21 31 82 32 22 33 81 34 23 35
REMARK SMILES IDX 24 36 25 37 75 38 26 39 80 40 74 41 76 42 27 43 79 44 73 45
REMARK SMILES IDX 72 46 28 48 60 49 40 50 59 51 41 52 44 53 58 54 77 55 42 56
REMARK SMILES IDX 43 57 57 59 78 60 45 61 29 62 30 63 38 64 31 65 32 66 36 67
REMARK SMILES IDX 39 68 33 69 34 70 37 71 35 72 61 73 62 74 70 75 63 76 64 77
REMARK SMILES IDX 68 78 71 79 65 80 66 81 69 82 67 83 46 84 47 85 55 86 48 87
REMARK SMILES IDX 49 88 53 89 56 90 50 91 51 92 54 93 52 94
REMARK H PARENT 10 7 6 10 17 28 76 47 44 58
REMARK Flexibility Score: inf
ROOT
ATOM      1  C   UNL A   1      33.334  29.951  26.858  1.00  0.00     0.002 C 
ENDROOT
BRANCH   1   2
ATOM      2  C   UNL A   1      34.021  29.394  25.595  1.00  0.00     0.021 C 
BRANCH   2   3
ATOM      3  C   UNL A   1      33.096  28.919  24.454  1.00  0.00     0.116 C 
BRANCH   3   4
ATOM      4  N   UNL A   1      33.740  28.150  23.399  1.00  0.00    -0.351 N 
ATOM      5  C   UNL A   1      33.355  27.045  22.692  1.00  0.00     0.275 C 
ATOM      6  O   UNL A   1      33.977  26.831  21.647  1.00  0.00    -0.269 OA
ATOM      7  H   UNL A   1      34.627  28.493  23.144  1.00  0.00     0.163 HD
BRANCH   5   8
ATOM      8  C   UNL A   1      32.232  26.105  23.171  1.00  0.00     0.364 C 
BRANCH   8   9
ATOM      9  N   UNL A   1      32.366  25.632  24.583  1.00  0.00    -0.321 N 
ATOM     10  H   UNL A   1      32.868  26.341  25.118  1.00  0.00     0.349 HD
BRANCH   9  11
ATOM     11  C   UNL A   1      33.263  24.465  24.658  1.00  0.00     0.185 C 
ATOM     12  C   UNL A   1      35.956  21.082  24.803  1.00  0.00     0.008 C 
ATOM     13  C   UNL A   1      35.373  22.406  24.303  1.00  0.00    -0.011 C 
ATOM     14  C   UNL A   1      33.915  22.168  23.847  1.00  0.00     0.010 C 
ATOM     15  C   UNL A   1      35.459  23.505  25.382  1.00  0.00    -0.006 C 
ATOM     16  C   UNL A   1      33.153  23.456  23.501  1.00  0.00     0.065 C 
ATOM     17  C   UNL A   1      34.737  24.774  24.937  1.00  0.00     0.068 C 
ATOM     18  C   UNL A   1      36.879  23.845  25.835  1.00  0.00     0.008 C 
ENDBRANCH   9  11
BRANCH   9  19
ATOM     19  C   UNL A   1      31.191  25.777  25.492  1.00  0.00     0.090 C 
ATOM     20  C   UNL A   1      29.928  26.425  24.885  1.00  0.00     0.078 C 
ATOM     21  C   UNL A   1      30.765  24.411  26.083  1.00  0.00     0.078 C 
ATOM     22  C   UNL A   1      31.570  26.642  26.727  1.00  0.00     0.078 C 
ENDBRANCH   9  19
ENDBRANCH   8   9
ENDBRANCH   5   8
ENDBRANCH   3   4
ENDBRANCH   2   3
ENDBRANCH   1   2
BRANCH   1  23
ATOM     23  C   UNL A   1      31.877  30.395  26.698  1.00  0.00     0.002 C 
BRANCH  23  24
ATOM     24  C   UNL A   1      31.612  31.896  26.841  1.00  0.00     0.021 C 
BRANCH  24  25
ATOM     25  C   UNL A   1      32.742  32.737  27.432  1.00  0.00     0.116 C 
BRANCH  25  26
ATOM     26  N   UNL A   1      32.396  34.131  27.664  1.00  0.00    -0.352 N 
ATOM     27  C   UNL A   1      33.006  35.035  28.508  1.00  0.00     0.251 C 
ATOM     28  H   UNL A   1      31.628  34.474  27.152  1.00  0.00     0.163 HD
ATOM     29  O   UNL A   1      32.578  36.178  28.631  1.00  0.00    -0.269 OA
BRANCH  27  30
ATOM     30  C   UNL A   1      34.160  34.592  29.319  1.00  0.00     0.039 A 
ATOM     31  C   UNL A   1      33.930  34.172  30.630  1.00  0.00     0.014 A 
ATOM     32  C   UNL A   1      35.440  34.511  28.760  1.00  0.00     0.014 A 
ATOM     33  C   UNL A   1      34.967  33.582  31.353  1.00  0.00     0.010 A 
ATOM     34  C   UNL A   1      36.457  33.867  29.462  1.00  0.00     0.010 A 
ATOM     35  C   UNL A   1      36.227  33.380  30.759  1.00  0.00    -0.014 A 
BRANCH  35  36
ATOM     36  C   UNL A   1      37.272  32.614  31.486  1.00  0.00     0.031 A 
ATOM     37  C   UNL A   1      37.957  31.441  30.845  1.00  0.00     0.074 A 
ATOM     38  C   UNL A   1      37.597  32.975  32.744  1.00  0.00     0.049 A 
ATOM     39  N   UNL A   1      38.960  30.726  31.292  1.00  0.00    -0.248 NA
ATOM     40  C   UNL A   1      37.437  31.001  29.543  1.00  0.00     0.031 C 
ATOM     41  C   UNL A   1      36.950  34.042  33.510  1.00  0.00     0.029 A 
ATOM     42  N   UNL A   1      38.560  32.493  33.597  1.00  0.00    -0.354 N 
ATOM     43  C   UNL A   1      39.195  29.760  30.324  1.00  0.00     0.074 A 
ATOM     44  C   UNL A   1      38.190  29.938  29.298  1.00  0.00     0.031 C 
ATOM     45  C   UNL A   1      37.561  34.164  34.699  1.00  0.00     0.029 A 
ATOM     46  C   UNL A   1      38.633  33.177  34.787  1.00  0.00     0.049 A 
ATOM     47  H   UNL A   1      39.143  31.731  33.375  1.00  0.00     0.167 HD
ATOM     48  C   UNL A   1      40.178  28.829  30.280  1.00  0.00     0.037 A 
ATOM     49  C   UNL A   1      39.482  33.037  35.823  1.00  0.00     0.037 A 
ATOM     50  C   UNL A   1      41.181  28.657  31.299  1.00  0.00     0.049 A 
ATOM     51  C   UNL A   1      40.581  32.012  35.738  1.00  0.00     0.074 A 
ATOM     52  C   UNL A   1      42.252  27.781  31.320  1.00  0.00     0.029 A 
ATOM     53  N   UNL A   1      41.231  29.375  32.485  1.00  0.00    -0.354 N 
ATOM     54  N   UNL A   1      40.859  31.174  34.769  1.00  0.00    -0.248 NA
ATOM     55  C   UNL A   1      41.497  31.930  36.884  1.00  0.00     0.031 C 
ATOM     56  C   UNL A   1      42.925  27.938  32.537  1.00  0.00     0.029 A 
ATOM     57  C   UNL A   1      42.303  28.946  33.254  1.00  0.00     0.049 A 
ATOM     58  H   UNL A   1      40.599  30.084  32.742  1.00  0.00     0.167 HD
ATOM     59  C   UNL A   1      41.989  30.480  35.177  1.00  0.00     0.074 A 
ATOM     60  C   UNL A   1      42.363  31.016  36.470  1.00  0.00     0.031 C 
ATOM     61  C   UNL A   1      42.658  29.486  34.543  1.00  0.00     0.037 A 
BRANCH  48  62
ATOM     62  C   UNL A   1      40.221  27.927  29.080  1.00  0.00     0.064 A 
ATOM     63  C   UNL A   1      39.581  26.678  29.081  1.00  0.00     0.173 A 
ATOM     64  C   UNL A   1      40.880  28.325  27.908  1.00  0.00     0.173 A 
ATOM     65  F   UNL A   1      38.946  26.245  30.181  1.00  0.00    -0.203 F 
ATOM     66  C   UNL A   1      39.625  25.849  27.963  1.00  0.00     0.198 A 
ATOM     67  C   UNL A   1      40.898  27.505  26.782  1.00  0.00     0.198 A 
ATOM     68  F   UNL A   1      41.502  29.512  27.852  1.00  0.00    -0.203 F 
ATOM     69  F   UNL A   1      39.050  24.639  28.005  1.00  0.00    -0.200 F 
ATOM     70  C   UNL A   1      40.278  26.265  26.813  1.00  0.00     0.200 A 
ATOM     71  F   UNL A   1      41.518  27.915  25.667  1.00  0.00    -0.200 F 
ATOM     72  F   UNL A   1      40.316  25.468  25.737  1.00  0.00    -0.200 F 
ENDBRANCH  48  62
BRANCH  49  73
ATOM     73  C   UNL A   1      39.363  33.925  37.009  1.00  0.00     0.064 A 
ATOM     74  C   UNL A   1      39.951  35.198  37.018  1.00  0.00     0.173 A 
ATOM     75  C   UNL A   1      38.671  33.518  38.159  1.00  0.00     0.173 A 
ATOM     76  F   UNL A   1      40.640  35.625  35.949  1.00  0.00    -0.203 F 
ATOM     77  C   UNL A   1      39.873  36.021  38.140  1.00  0.00     0.198 A 
ATOM     78  C   UNL A   1      38.570  34.352  39.270  1.00  0.00     0.198 A 
ATOM     79  F   UNL A   1      38.086  32.313  38.199  1.00  0.00    -0.203 F 
ATOM     80  F   UNL A   1      40.486  37.211  38.139  1.00  0.00    -0.200 F 
ATOM     81  C   UNL A   1      39.179  35.598  39.263  1.00  0.00     0.200 A 
ATOM     82  F   UNL A   1      37.886  33.948  40.349  1.00  0.00    -0.200 F 
ATOM     83  F   UNL A   1      39.102  36.390  40.343  1.00  0.00    -0.200 F 
ENDBRANCH  49  73
BRANCH  61  84
ATOM     84  C   UNL A   1      43.868  28.927  35.234  1.00  0.00     0.064 A 
ATOM     85  C   UNL A   1      43.779  27.817  36.089  1.00  0.00     0.173 A 
ATOM     86  C   UNL A   1      45.131  29.502  35.035  1.00  0.00     0.173 A 
ATOM     87  F   UNL A   1      42.591  27.241  36.326  1.00  0.00    -0.203 F 
ATOM     88  C   UNL A   1      44.904  27.329  36.749  1.00  0.00     0.198 A 
ATOM     89  C   UNL A   1      46.260  28.990  35.671  1.00  0.00     0.198 A 
ATOM     90  F   UNL A   1      45.274  30.560  34.222  1.00  0.00    -0.203 F 
ATOM     91  F   UNL A   1      44.783  26.308  37.608  1.00  0.00    -0.200 F 
ATOM     92  C   UNL A   1      46.144  27.913  36.535  1.00  0.00     0.200 A 
ATOM     93  F   UNL A   1      47.459  29.548  35.454  1.00  0.00    -0.200 F 
ATOM     94  F   UNL A   1      47.224  27.443  37.172  1.00  0.00    -0.200 F 
ENDBRANCH  61  84
ENDBRANCH  35  36
ENDBRANCH  27  30
ENDBRANCH  25  26
ENDBRANCH  24  25
ENDBRANCH  23  24
ENDBRANCH   1  23
TORSDOF 16
ENDMDL
