MODEL 1
REMARK VINA RESULT:     -13.5      0.000      0.000
REMARK SMILES C[C@@H](Oc1ccc(-c2ccccc2)cc1)C(=O)N1CCC[C@H](C(=O)NCCCCCCNC(=O)c2ccc(-c3c4nc(c(-c5c(F)c(F)c(F)c(F)c5F)c5ccc([nH]5)c(-c5c(F)c(F)c(F)c(F)c5F)c5nc(c(-c6c(F)c(F)c(F)c(F)c6F)c6ccc3[nH]6)C=C5)C=C4)cc2)C1
REMARK SMILES IDX 27 1 26 2 25 3 23 4 24 5 22 7 18 8 19 9 98 10 20 11 21 12
REMARK SMILES IDX 16 13 17 14 2 15 1 16 3 17 4 18 5 19 15 20 6 21 14 22 7 23
REMARK SMILES IDX 8 24 9 25 13 26 10 27 12 28 11 29 28 30 29 31 30 32 31 33
REMARK SMILES IDX 32 34 33 35 34 37 35 38 36 39 97 40 37 41 96 42 38 43 39 44
REMARK SMILES IDX 40 45 90 46 41 47 95 48 89 49 91 50 42 51 94 52 88 53 87 54
REMARK SMILES IDX 43 56 75 57 55 58 74 59 56 60 59 61 73 62 92 63 57 64 58 65
REMARK SMILES IDX 72 67 93 68 60 69 44 70 45 71 53 72 46 73 47 74 51 75 54 76
REMARK SMILES IDX 48 77 49 78 52 79 50 80 76 81 77 82 85 83 78 84 79 85 83 86
REMARK SMILES IDX 86 87 80 88 81 89 84 90 82 91 61 92 62 93 70 94 63 95 64 96
REMARK SMILES IDX 68 97 71 98 65 99 66 100 69 101 67 102
REMARK H PARENT 25 6 32 36 91 55 59 66
REMARK Flexibility Score: inf
ROOT
ATOM      1  C   UNL A   1      32.629  28.440  27.227  1.00  0.00     0.021 C 
ENDROOT
BRANCH   1   2
ATOM      2  C   UNL A   1      31.745  27.848  26.133  1.00  0.00     0.116 C 
BRANCH   2   3
ATOM      3  N   UNL A   1      30.996  26.692  26.564  1.00  0.00    -0.356 N 
ATOM      4  C   UNL A   1      30.250  25.796  25.868  1.00  0.00     0.224 C 
ATOM      5  O   UNL A   1      29.872  24.800  26.499  1.00  0.00    -0.275 OA
ATOM      6  H   UNL A   1      31.033  26.522  27.532  1.00  0.00     0.163 HD
BRANCH   4   7
ATOM      7  C   UNL A   1      29.853  25.939  24.392  1.00  0.00     0.098 C 
ATOM      8  N   UNL A   1      31.770  25.562  22.834  1.00  0.00    -0.339 N 
ATOM      9  C   UNL A   1      31.627  26.885  22.237  1.00  0.00     0.119 C 
ATOM     10  C   UNL A   1      30.576  24.987  23.439  1.00  0.00     0.133 C 
ATOM     11  C   UNL A   1      30.954  27.911  23.144  1.00  0.00     0.022 C 
ATOM     12  C   UNL A   1      29.732  27.374  23.881  1.00  0.00     0.017 C 
BRANCH   8  13
ATOM     13  C   UNL A   1      32.985  24.895  22.686  1.00  0.00     0.263 C 
ATOM     14  O   UNL A   1      33.300  24.404  21.594  1.00  0.00    -0.271 OA
BRANCH  13  15
ATOM     15  C   UNL A   1      33.866  24.638  23.925  1.00  0.00     0.259 C 
ATOM     16  C   UNL A   1      34.369  25.873  24.660  1.00  0.00     0.064 C 
BRANCH  15  17
ATOM     17  O   UNL A   1      33.028  23.818  24.755  1.00  0.00    -0.481 OA
BRANCH  17  18
ATOM     18  C   UNL A   1      33.208  22.480  24.563  1.00  0.00     0.120 A 
ATOM     19  C   UNL A   1      32.154  21.689  24.111  1.00  0.00     0.047 A 
ATOM     20  C   UNL A   1      34.385  21.899  25.012  1.00  0.00     0.047 A 
ATOM     21  C   UNL A   1      32.278  20.295  24.134  1.00  0.00     0.012 A 
ATOM     22  C   UNL A   1      34.511  20.514  25.022  1.00  0.00     0.012 A 
ATOM     23  C   UNL A   1      33.449  19.686  24.620  1.00  0.00    -0.018 A 
BRANCH  23  24
ATOM     24  C   UNL A   1      33.562  18.228  24.793  1.00  0.00    -0.018 A 
ATOM     25  C   UNL A   1      34.683  17.510  24.358  1.00  0.00     0.009 A 
ATOM     26  C   UNL A   1      32.529  17.518  25.435  1.00  0.00     0.009 A 
ATOM     27  C   UNL A   1      34.777  16.131  24.580  1.00  0.00     0.001 A 
ATOM     28  C   UNL A   1      32.622  16.145  25.658  1.00  0.00     0.001 A 
ATOM     29  C   UNL A   1      33.750  15.452  25.234  1.00  0.00     0.000 A 
ENDBRANCH  23  24
ENDBRANCH  17  18
ENDBRANCH  15  17
ENDBRANCH  13  15
ENDBRANCH   8  13
ENDBRANCH   4   7
ENDBRANCH   2   3
ENDBRANCH   1   2
BRANCH   1  30
ATOM     30  C   UNL A   1      32.670  29.967  27.230  1.00  0.00     0.002 C 
BRANCH  30  31
ATOM     31  C   UNL A   1      31.509  30.655  26.498  1.00  0.00     0.002 C 
BRANCH  31  32
ATOM     32  C   UNL A   1      31.445  32.180  26.634  1.00  0.00     0.021 C 
BRANCH  32  33
ATOM     33  C   UNL A   1      32.665  32.818  27.293  1.00  0.00     0.116 C 
BRANCH  33  34
ATOM     34  N   UNL A   1      32.440  34.216  27.626  1.00  0.00    -0.352 N 
ATOM     35  C   UNL A   1      32.998  34.987  28.614  1.00  0.00     0.251 C 
ATOM     36  H   UNL A   1      31.785  34.680  27.055  1.00  0.00     0.163 HD
ATOM     37  O   UNL A   1      32.527  36.086  28.885  1.00  0.00    -0.269 OA
BRANCH  35  38
ATOM     38  C   UNL A   1      34.168  34.485  29.360  1.00  0.00     0.039 A 
ATOM     39  C   UNL A   1      33.967  33.856  30.592  1.00  0.00     0.014 A 
ATOM     40  C   UNL A   1      35.459  34.647  28.851  1.00  0.00     0.014 A 
ATOM     41  C   UNL A   1      35.059  33.323  31.280  1.00  0.00     0.010 A 
ATOM     42  C   UNL A   1      36.537  34.057  29.503  1.00  0.00     0.010 A 
ATOM     43  C   UNL A   1      36.346  33.385  30.720  1.00  0.00    -0.014 A 
BRANCH  43  44
ATOM     44  C   UNL A   1      37.507  32.735  31.377  1.00  0.00     0.031 A 
ATOM     45  C   UNL A   1      38.187  31.566  30.723  1.00  0.00     0.074 A 
ATOM     46  C   UNL A   1      37.888  33.144  32.602  1.00  0.00     0.049 A 
ATOM     47  N   UNL A   1      39.139  30.797  31.186  1.00  0.00    -0.248 NA
ATOM     48  C   UNL A   1      37.715  31.196  29.379  1.00  0.00     0.031 C 
ATOM     49  C   UNL A   1      37.277  34.242  33.353  1.00  0.00     0.029 A 
ATOM     50  N   UNL A   1      38.867  32.673  33.440  1.00  0.00    -0.354 N 
ATOM     51  C   UNL A   1      39.369  29.847  30.199  1.00  0.00     0.074 A 
ATOM     52  C   UNL A   1      38.424  30.104  29.134  1.00  0.00     0.031 C 
ATOM     53  C   UNL A   1      37.903  34.369  34.533  1.00  0.00     0.029 A 
ATOM     54  C   UNL A   1      38.926  33.333  34.644  1.00  0.00     0.049 A 
ATOM     55  H   UNL A   1      39.472  31.932  33.202  1.00  0.00     0.167 HD
ATOM     56  C   UNL A   1      40.299  28.862  30.179  1.00  0.00     0.037 A 
ATOM     57  C   UNL A   1      39.700  33.113  35.723  1.00  0.00     0.037 A 
ATOM     58  C   UNL A   1      41.247  28.625  31.236  1.00  0.00     0.049 A 
ATOM     59  C   UNL A   1      40.702  31.989  35.687  1.00  0.00     0.074 A 
ATOM     60  C   UNL A   1      42.271  27.697  31.284  1.00  0.00     0.029 A 
ATOM     61  N   UNL A   1      41.278  29.317  32.439  1.00  0.00    -0.354 N 
ATOM     62  N   UNL A   1      40.962  31.144  34.720  1.00  0.00    -0.248 NA
ATOM     63  C   UNL A   1      41.516  31.789  36.893  1.00  0.00     0.031 C 
ATOM     64  C   UNL A   1      42.886  27.788  32.536  1.00  0.00     0.029 A 
ATOM     65  C   UNL A   1      42.282  28.812  33.249  1.00  0.00     0.049 A 
ATOM     66  H   UNL A   1      40.676  30.058  32.680  1.00  0.00     0.167 HD
ATOM     67  C   UNL A   1      41.983  30.329  35.189  1.00  0.00     0.074 A 
ATOM     68  C   UNL A   1      42.307  30.791  36.522  1.00  0.00     0.031 C 
ATOM     69  C   UNL A   1      42.594  29.288  34.573  1.00  0.00     0.037 A 
BRANCH  56  70
ATOM     70  C   UNL A   1      40.337  27.964  28.977  1.00  0.00     0.064 A 
ATOM     71  C   UNL A   1      41.117  28.272  27.851  1.00  0.00     0.173 A 
ATOM     72  C   UNL A   1      39.620  26.758  28.967  1.00  0.00     0.173 A 
ATOM     73  F   UNL A   1      41.814  29.416  27.805  1.00  0.00    -0.203 F 
ATOM     74  C   UNL A   1      41.152  27.421  26.749  1.00  0.00     0.198 A 
ATOM     75  C   UNL A   1      39.683  25.894  27.877  1.00  0.00     0.198 A 
ATOM     76  F   UNL A   1      38.865  26.410  30.019  1.00  0.00    -0.203 F 
ATOM     77  F   UNL A   1      41.864  27.760  25.666  1.00  0.00    -0.200 F 
ATOM     78  C   UNL A   1      40.443  26.229  26.765  1.00  0.00     0.200 A 
ATOM     79  F   UNL A   1      39.009  24.736  27.901  1.00  0.00    -0.200 F 
ATOM     80  F   UNL A   1      40.486  25.407  25.709  1.00  0.00    -0.200 F 
ENDBRANCH  56  70
BRANCH  57  81
ATOM     81  C   UNL A   1      39.563  33.976  36.925  1.00  0.00     0.064 A 
ATOM     82  C   UNL A   1      38.761  33.584  38.005  1.00  0.00     0.173 A 
ATOM     83  C   UNL A   1      40.224  35.210  37.019  1.00  0.00     0.173 A 
ATOM     84  F   UNL A   1      38.091  32.422  37.953  1.00  0.00    -0.203 F 
ATOM     85  C   UNL A   1      38.609  34.400  39.123  1.00  0.00     0.198 A 
ATOM     86  C   UNL A   1      40.095  36.011  38.151  1.00  0.00     0.198 A 
ATOM     87  F   UNL A   1      41.006  35.633  36.015  1.00  0.00    -0.203 F 
ATOM     88  F   UNL A   1      37.796  34.021  40.120  1.00  0.00    -0.200 F 
ATOM     89  C   UNL A   1      39.281  35.611  39.199  1.00  0.00     0.200 A 
ATOM     90  F   UNL A   1      40.758  37.174  38.226  1.00  0.00    -0.200 F 
ATOM     91  F   UNL A   1      39.137  36.393  40.277  1.00  0.00    -0.200 F 
ENDBRANCH  57  81
BRANCH  69  92
ATOM     92  C   UNL A   1      43.694  28.590  35.320  1.00  0.00     0.064 A 
ATOM     93  C   UNL A   1      43.432  27.503  36.165  1.00  0.00     0.173 A 
ATOM     94  C   UNL A   1      45.031  28.976  35.139  1.00  0.00     0.173 A 
ATOM     95  F   UNL A   1      42.169  27.106  36.383  1.00  0.00    -0.203 F 
ATOM     96  C   UNL A   1      44.468  26.836  36.814  1.00  0.00     0.198 A 
ATOM     97  C   UNL A   1      46.067  28.288  35.765  1.00  0.00     0.198 A 
ATOM     98  F   UNL A   1      45.336  30.007  34.337  1.00  0.00    -0.203 F 
ATOM     99  F   UNL A   1      44.191  25.824  37.648  1.00  0.00    -0.200 F 
ATOM    100  C   UNL A   1      45.784  27.222  36.606  1.00  0.00     0.200 A 
ATOM    101  F   UNL A   1      47.338  28.652  35.550  1.00  0.00    -0.200 F 
ATOM    102  F   UNL A   1      46.780  26.568  37.218  1.00  0.00    -0.200 F 
ENDBRANCH  69  92
ENDBRANCH  43  44
ENDBRANCH  35  38
ENDBRANCH  33  34
ENDBRANCH  32  33
ENDBRANCH  31  32
ENDBRANCH  30  31
ENDBRANCH   1  30
TORSDOF 18
ENDMDL
MODEL 2
REMARK VINA RESULT:     -13.2      5.453     11.436
REMARK SMILES C[C@@H](Oc1ccc(-c2ccccc2)cc1)C(=O)N1CCC[C@H](C(=O)NCCCCCCNC(=O)c2ccc(-c3c4nc(c(-c5c(F)c(F)c(F)c(F)c5F)c5ccc([nH]5)c(-c5c(F)c(F)c(F)c(F)c5F)c5nc(c(-c6c(F)c(F)c(F)c(F)c6F)c6ccc3[nH]6)C=C5)C=C4)cc2)C1
REMARK SMILES IDX 27 1 26 2 25 3 23 4 24 5 22 7 18 8 19 9 98 10 20 11 21 12
REMARK SMILES IDX 16 13 17 14 2 15 1 16 3 17 4 18 5 19 15 20 6 21 14 22 7 23
REMARK SMILES IDX 8 24 9 25 13 26 10 27 12 28 11 29 28 30 29 31 30 32 31 33
REMARK SMILES IDX 32 34 33 35 34 37 35 38 36 39 97 40 37 41 96 42 38 43 39 44
REMARK SMILES IDX 40 45 90 46 41 47 95 48 89 49 91 50 42 51 94 52 88 53 87 54
REMARK SMILES IDX 43 56 75 57 55 58 74 59 56 60 59 61 73 62 92 63 57 64 58 65
REMARK SMILES IDX 72 67 93 68 60 69 44 70 45 71 53 72 46 73 47 74 51 75 54 76
REMARK SMILES IDX 48 77 49 78 52 79 50 80 76 81 77 82 85 83 78 84 79 85 83 86
REMARK SMILES IDX 86 87 80 88 81 89 84 90 82 91 61 92 62 93 70 94 63 95 64 96
REMARK SMILES IDX 68 97 71 98 65 99 66 100 69 101 67 102
REMARK H PARENT 25 6 32 36 91 55 59 66
REMARK Flexibility Score: inf
ROOT
ATOM      1  C   UNL A   1      37.958  22.717  25.426  1.00  0.00     0.021 C 
ENDROOT
BRANCH   1   2
ATOM      2  C   UNL A   1      36.920  23.692  25.974  1.00  0.00     0.116 C 
BRANCH   2   3
ATOM      3  N   UNL A   1      35.969  23.075  26.868  1.00  0.00    -0.356 N 
ATOM      4  C   UNL A   1      34.772  22.480  26.634  1.00  0.00     0.224 C 
ATOM      5  O   UNL A   1      34.268  21.881  27.592  1.00  0.00    -0.275 OA
ATOM      6  H   UNL A   1      36.236  23.088  27.815  1.00  0.00     0.163 HD
BRANCH   4   7
ATOM      7  C   UNL A   1      34.024  22.506  25.293  1.00  0.00     0.098 C 
ATOM      8  N   UNL A   1      31.631  23.183  25.535  1.00  0.00    -0.339 N 
ATOM      9  C   UNL A   1      31.153  21.942  24.936  1.00  0.00     0.119 C 
ATOM     10  C   UNL A   1      32.973  23.610  25.168  1.00  0.00     0.133 C 
ATOM     11  C   UNL A   1      32.127  20.773  25.059  1.00  0.00     0.022 C 
ATOM     12  C   UNL A   1      33.575  21.144  24.765  1.00  0.00     0.017 C 
BRANCH   8  13
ATOM     13  C   UNL A   1      30.745  23.927  26.313  1.00  0.00     0.263 C 
ATOM     14  O   UNL A   1      30.240  23.436  27.330  1.00  0.00    -0.271 OA
BRANCH  13  15
ATOM     15  C   UNL A   1      30.278  25.311  25.817  1.00  0.00     0.259 C 
ATOM     16  C   UNL A   1      31.063  26.510  26.331  1.00  0.00     0.064 C 
BRANCH  15  17
ATOM     17  O   UNL A   1      30.353  25.186  24.388  1.00  0.00    -0.481 OA
BRANCH  17  18
ATOM     18  C   UNL A   1      29.957  26.305  23.718  1.00  0.00     0.120 A 
ATOM     19  C   UNL A   1      30.899  27.115  23.088  1.00  0.00     0.047 A 
ATOM     20  C   UNL A   1      28.640  26.723  23.847  1.00  0.00     0.047 A 
ATOM     21  C   UNL A   1      30.516  28.370  22.602  1.00  0.00     0.012 A 
ATOM     22  C   UNL A   1      28.259  27.965  23.352  1.00  0.00     0.012 A 
ATOM     23  C   UNL A   1      29.194  28.828  22.755  1.00  0.00    -0.018 A 
BRANCH  23  24
ATOM     24  C   UNL A   1      28.789  30.194  22.388  1.00  0.00    -0.018 A 
ATOM     25  C   UNL A   1      28.976  31.285  23.248  1.00  0.00     0.009 A 
ATOM     26  C   UNL A   1      28.213  30.437  21.126  1.00  0.00     0.009 A 
ATOM     27  C   UNL A   1      28.621  32.578  22.847  1.00  0.00     0.001 A 
ATOM     28  C   UNL A   1      27.861  31.725  20.725  1.00  0.00     0.001 A 
ATOM     29  C   UNL A   1      28.069  32.797  21.585  1.00  0.00     0.000 A 
ENDBRANCH  23  24
ENDBRANCH  17  18
ENDBRANCH  15  17
ENDBRANCH  13  15
ENDBRANCH   8  13
ENDBRANCH   4   7
ENDBRANCH   2   3
ENDBRANCH   1   2
BRANCH   1  30
ATOM     30  C   UNL A   1      37.397  21.724  24.410  1.00  0.00     0.002 C 
BRANCH  30  31
ATOM     31  C   UNL A   1      37.173  20.301  24.940  1.00  0.00     0.002 C 
BRANCH  31  32
ATOM     32  C   UNL A   1      38.404  19.389  24.944  1.00  0.00     0.021 C 
BRANCH  32  33
ATOM     33  C   UNL A   1      39.352  19.594  26.122  1.00  0.00     0.116 C 
BRANCH  33  34
ATOM     34  N   UNL A   1      40.585  18.835  25.974  1.00  0.00    -0.352 N 
ATOM     35  C   UNL A   1      41.887  19.265  25.944  1.00  0.00     0.251 C 
ATOM     36  H   UNL A   1      40.465  17.862  25.879  1.00  0.00     0.163 HD
ATOM     37  O   UNL A   1      42.783  18.507  25.591  1.00  0.00    -0.269 OA
BRANCH  35  38
ATOM     38  C   UNL A   1      42.207  20.653  26.331  1.00  0.00     0.039 A 
ATOM     39  C   UNL A   1      42.467  20.939  27.674  1.00  0.00     0.014 A 
ATOM     40  C   UNL A   1      42.236  21.669  25.372  1.00  0.00     0.014 A 
ATOM     41  C   UNL A   1      42.829  22.235  28.045  1.00  0.00     0.010 A 
ATOM     42  C   UNL A   1      42.663  22.943  25.732  1.00  0.00     0.010 A 
ATOM     43  C   UNL A   1      42.969  23.237  27.070  1.00  0.00    -0.014 A 
BRANCH  43  44
ATOM     44  C   UNL A   1      43.455  24.594  27.420  1.00  0.00     0.031 A 
ATOM     45  C   UNL A   1      42.502  25.617  27.971  1.00  0.00     0.074 A 
ATOM     46  C   UNL A   1      44.733  24.927  27.158  1.00  0.00     0.049 A 
ATOM     47  N   UNL A   1      42.707  26.884  28.231  1.00  0.00    -0.248 NA
ATOM     48  C   UNL A   1      41.129  25.163  28.239  1.00  0.00     0.031 C 
ATOM     49  C   UNL A   1      45.739  24.030  26.588  1.00  0.00     0.029 A 
ATOM     50  N   UNL A   1      45.401  26.115  27.319  1.00  0.00    -0.354 N 
ATOM     51  C   UNL A   1      41.489  27.378  28.679  1.00  0.00     0.074 A 
ATOM     52  C   UNL A   1      40.538  26.290  28.608  1.00  0.00     0.031 C 
ATOM     53  C   UNL A   1      46.897  24.694  26.459  1.00  0.00     0.029 A 
ATOM     54  C   UNL A   1      46.706  26.076  26.891  1.00  0.00     0.049 A 
ATOM     55  H   UNL A   1      44.984  26.920  27.705  1.00  0.00     0.167 HD
ATOM     56  C   UNL A   1      41.199  28.623  29.126  1.00  0.00     0.037 A 
ATOM     57  C   UNL A   1      47.634  27.048  26.833  1.00  0.00     0.037 A 
ATOM     58  C   UNL A   1      42.156  29.694  29.209  1.00  0.00     0.049 A 
ATOM     59  C   UNL A   1      47.276  28.432  27.303  1.00  0.00     0.074 A 
ATOM     60  C   UNL A   1      41.980  30.972  29.709  1.00  0.00     0.029 A 
ATOM     61  N   UNL A   1      43.471  29.615  28.770  1.00  0.00    -0.354 N 
ATOM     62  N   UNL A   1      46.142  28.870  27.795  1.00  0.00    -0.248 NA
ATOM     63  C   UNL A   1      48.324  29.457  27.211  1.00  0.00     0.031 C 
ATOM     64  C   UNL A   1      43.169  31.683  29.521  1.00  0.00     0.029 A 
ATOM     65  C   UNL A   1      44.105  30.833  28.956  1.00  0.00     0.049 A 
ATOM     66  H   UNL A   1      43.890  28.812  28.384  1.00  0.00     0.167 HD
ATOM     67  C   UNL A   1      46.346  30.211  28.091  1.00  0.00     0.074 A 
ATOM     68  C   UNL A   1      47.718  30.511  27.741  1.00  0.00     0.031 C 
ATOM     69  C   UNL A   1      45.475  31.113  28.605  1.00  0.00     0.037 A 
BRANCH  56  70
ATOM     70  C   UNL A   1      39.788  28.897  29.559  1.00  0.00     0.064 A 
ATOM     71  C   UNL A   1      38.825  29.391  28.665  1.00  0.00     0.173 A 
ATOM     72  C   UNL A   1      39.381  28.620  30.874  1.00  0.00     0.173 A 
ATOM     73  F   UNL A   1      39.163  29.679  27.400  1.00  0.00    -0.203 F 
ATOM     74  C   UNL A   1      37.516  29.626  29.079  1.00  0.00     0.198 A 
ATOM     75  C   UNL A   1      38.064  28.827  31.276  1.00  0.00     0.198 A 
ATOM     76  F   UNL A   1      40.258  28.140  31.767  1.00  0.00    -0.203 F 
ATOM     77  F   UNL A   1      36.627  30.145  28.222  1.00  0.00    -0.200 F 
ATOM     78  C   UNL A   1      37.134  29.337  30.381  1.00  0.00     0.200 A 
ATOM     79  F   UNL A   1      37.693  28.532  32.529  1.00  0.00    -0.200 F 
ATOM     80  F   UNL A   1      35.872  29.555  30.775  1.00  0.00    -0.200 F 
ENDBRANCH  56  70
BRANCH  57  81
ATOM     81  C   UNL A   1      48.994  26.747  26.312  1.00  0.00     0.064 A 
ATOM     82  C   UNL A   1      49.990  26.233  27.154  1.00  0.00     0.173 A 
ATOM     83  C   UNL A   1      49.329  26.971  24.968  1.00  0.00     0.173 A 
ATOM     84  F   UNL A   1      49.725  26.023  28.452  1.00  0.00    -0.203 F 
ATOM     85  C   UNL A   1      51.272  25.973  26.678  1.00  0.00     0.198 A 
ATOM     86  C   UNL A   1      50.603  26.682  24.486  1.00  0.00     0.198 A 
ATOM     87  F   UNL A   1      48.413  27.461  24.119  1.00  0.00    -0.203 F 
ATOM     88  F   UNL A   1      52.218  25.528  27.516  1.00  0.00    -0.200 F 
ATOM     89  C   UNL A   1      51.577  26.192  25.342  1.00  0.00     0.200 A 
ATOM     90  F   UNL A   1      50.889  26.881  23.191  1.00  0.00    -0.200 F 
ATOM     91  F   UNL A   1      52.810  25.937  24.884  1.00  0.00    -0.200 F 
ENDBRANCH  57  81
BRANCH  69  92
ATOM     92  C   UNL A   1      45.981  32.506  28.843  1.00  0.00     0.064 A 
ATOM     93  C   UNL A   1      46.624  32.859  30.038  1.00  0.00     0.173 A 
ATOM     94  C   UNL A   1      45.876  33.481  27.839  1.00  0.00     0.173 A 
ATOM     95  F   UNL A   1      46.735  31.967  31.034  1.00  0.00    -0.203 F 
ATOM     96  C   UNL A   1      47.130  34.143  30.225  1.00  0.00     0.198 A 
ATOM     97  C   UNL A   1      46.410  34.754  28.018  1.00  0.00     0.198 A 
ATOM     98  F   UNL A   1      45.273  33.194  26.675  1.00  0.00    -0.203 F 
ATOM     99  F   UNL A   1      47.707  34.469  31.390  1.00  0.00    -0.200 F 
ATOM    100  C   UNL A   1      47.032  35.085  29.212  1.00  0.00     0.200 A 
ATOM    101  F   UNL A   1      46.328  35.659  27.032  1.00  0.00    -0.200 F 
ATOM    102  F   UNL A   1      47.534  36.314  29.389  1.00  0.00    -0.200 F 
ENDBRANCH  69  92
ENDBRANCH  43  44
ENDBRANCH  35  38
ENDBRANCH  33  34
ENDBRANCH  32  33
ENDBRANCH  31  32
ENDBRANCH  30  31
ENDBRANCH   1  30
TORSDOF 18
ENDMDL
MODEL 3
REMARK VINA RESULT:     -13.1      0.714      7.019
REMARK SMILES C[C@@H](Oc1ccc(-c2ccccc2)cc1)C(=O)N1CCC[C@H](C(=O)NCCCCCCNC(=O)c2ccc(-c3c4nc(c(-c5c(F)c(F)c(F)c(F)c5F)c5ccc([nH]5)c(-c5c(F)c(F)c(F)c(F)c5F)c5nc(c(-c6c(F)c(F)c(F)c(F)c6F)c6ccc3[nH]6)C=C5)C=C4)cc2)C1
REMARK SMILES IDX 27 1 26 2 25 3 23 4 24 5 22 7 18 8 19 9 98 10 20 11 21 12
REMARK SMILES IDX 16 13 17 14 2 15 1 16 3 17 4 18 5 19 15 20 6 21 14 22 7 23
REMARK SMILES IDX 8 24 9 25 13 26 10 27 12 28 11 29 28 30 29 31 30 32 31 33
REMARK SMILES IDX 32 34 33 35 34 37 35 38 36 39 97 40 37 41 96 42 38 43 39 44
REMARK SMILES IDX 40 45 90 46 41 47 95 48 89 49 91 50 42 51 94 52 88 53 87 54
REMARK SMILES IDX 43 56 75 57 55 58 74 59 56 60 59 61 73 62 92 63 57 64 58 65
REMARK SMILES IDX 72 67 93 68 60 69 44 70 45 71 53 72 46 73 47 74 51 75 54 76
REMARK SMILES IDX 48 77 49 78 52 79 50 80 76 81 77 82 85 83 78 84 79 85 83 86
REMARK SMILES IDX 86 87 80 88 81 89 84 90 82 91 61 92 62 93 70 94 63 95 64 96
REMARK SMILES IDX 68 97 71 98 65 99 66 100 69 101 67 102
REMARK H PARENT 25 6 32 36 91 55 59 66
REMARK Flexibility Score: inf
ROOT
ATOM      1  C   UNL A   1      31.760  28.694  27.291  1.00  0.00     0.021 C 
ENDROOT
BRANCH   1   2
ATOM      2  C   UNL A   1      31.789  27.536  26.298  1.00  0.00     0.116 C 
BRANCH   2   3
ATOM      3  N   UNL A   1      30.918  26.444  26.664  1.00  0.00    -0.356 N 
ATOM      4  C   UNL A   1      30.089  25.668  25.920  1.00  0.00     0.224 C 
ATOM      5  O   UNL A   1      29.602  24.687  26.496  1.00  0.00    -0.275 OA
ATOM      6  H   UNL A   1      30.927  26.223  27.623  1.00  0.00     0.163 HD
BRANCH   4   7
ATOM      7  C   UNL A   1      29.724  25.928  24.451  1.00  0.00     0.098 C 
ATOM      8  N   UNL A   1      31.710  25.862  22.936  1.00  0.00    -0.339 N 
ATOM      9  C   UNL A   1      31.477  27.224  22.466  1.00  0.00     0.119 C 
ATOM     10  C   UNL A   1      30.551  25.137  23.437  1.00  0.00     0.133 C 
ATOM     11  C   UNL A   1      30.695  28.097  23.445  1.00  0.00     0.022 C 
ATOM     12  C   UNL A   1      29.501  27.394  24.079  1.00  0.00     0.017 C 
BRANCH   8  13
ATOM     13  C   UNL A   1      32.980  25.312  22.768  1.00  0.00     0.263 C 
ATOM     14  O   UNL A   1      33.432  25.117  21.632  1.00  0.00    -0.271 OA
BRANCH  13  15
ATOM     15  C   UNL A   1      33.756  24.805  23.999  1.00  0.00     0.259 C 
ATOM     16  C   UNL A   1      34.305  25.873  24.935  1.00  0.00     0.064 C 
BRANCH  15  17
ATOM     17  O   UNL A   1      32.805  23.949  24.653  1.00  0.00    -0.481 OA
BRANCH  17  18
ATOM     18  C   UNL A   1      33.072  22.620  24.507  1.00  0.00     0.120 A 
ATOM     19  C   UNL A   1      32.239  21.820  23.729  1.00  0.00     0.047 A 
ATOM     20  C   UNL A   1      34.058  22.051  25.301  1.00  0.00     0.047 A 
ATOM     21  C   UNL A   1      32.387  20.428  23.767  1.00  0.00     0.012 A 
ATOM     22  C   UNL A   1      34.211  20.670  25.327  1.00  0.00     0.012 A 
ATOM     23  C   UNL A   1      33.356  19.830  24.593  1.00  0.00    -0.018 A 
BRANCH  23  24
ATOM     24  C   UNL A   1      33.445  18.372  24.769  1.00  0.00    -0.018 A 
ATOM     25  C   UNL A   1      32.619  17.676  25.662  1.00  0.00     0.009 A 
ATOM     26  C   UNL A   1      34.369  17.631  24.007  1.00  0.00     0.009 A 
ATOM     27  C   UNL A   1      32.700  16.283  25.770  1.00  0.00     0.001 A 
ATOM     28  C   UNL A   1      34.449  16.242  24.112  1.00  0.00     0.001 A 
ATOM     29  C   UNL A   1      33.610  15.569  24.992  1.00  0.00     0.000 A 
ENDBRANCH  23  24
ENDBRANCH  17  18
ENDBRANCH  15  17
ENDBRANCH  13  15
ENDBRANCH   8  13
ENDBRANCH   4   7
ENDBRANCH   2   3
ENDBRANCH   1   2
BRANCH   1  30
ATOM     30  C   UNL A   1      32.362  29.989  26.748  1.00  0.00     0.002 C 
BRANCH  30  31
ATOM     31  C   UNL A   1      31.372  30.925  26.040  1.00  0.00     0.002 C 
BRANCH  31  32
ATOM     32  C   UNL A   1      31.353  32.374  26.535  1.00  0.00     0.021 C 
BRANCH  32  33
ATOM     33  C   UNL A   1      32.576  32.790  27.348  1.00  0.00     0.116 C 
BRANCH  33  34
ATOM     34  N   UNL A   1      32.579  34.215  27.643  1.00  0.00    -0.352 N 
ATOM     35  C   UNL A   1      33.278  34.918  28.592  1.00  0.00     0.251 C 
ATOM     36  H   UNL A   1      31.987  34.760  27.075  1.00  0.00     0.163 HD
ATOM     37  O   UNL A   1      32.990  36.083  28.839  1.00  0.00    -0.269 OA
BRANCH  35  38
ATOM     38  C   UNL A   1      34.379  34.260  29.323  1.00  0.00     0.039 A 
ATOM     39  C   UNL A   1      34.070  33.343  30.331  1.00  0.00     0.014 A 
ATOM     40  C   UNL A   1      35.710  34.561  29.024  1.00  0.00     0.014 A 
ATOM     41  C   UNL A   1      35.100  32.670  30.990  1.00  0.00     0.010 A 
ATOM     42  C   UNL A   1      36.733  33.840  29.633  1.00  0.00     0.010 A 
ATOM     43  C   UNL A   1      36.437  32.885  30.617  1.00  0.00    -0.014 A 
BRANCH  43  44
ATOM     44  C   UNL A   1      37.544  32.107  31.226  1.00  0.00     0.031 A 
ATOM     45  C   UNL A   1      38.049  32.460  32.596  1.00  0.00     0.074 A 
ATOM     46  C   UNL A   1      38.149  31.142  30.507  1.00  0.00     0.049 A 
ATOM     47  N   UNL A   1      39.075  31.976  33.251  1.00  0.00    -0.248 NA
ATOM     48  C   UNL A   1      37.321  33.517  33.316  1.00  0.00     0.031 C 
ATOM     49  C   UNL A   1      37.770  30.738  29.151  1.00  0.00     0.029 A 
ATOM     50  N   UNL A   1      39.220  30.339  30.806  1.00  0.00    -0.354 N 
ATOM     51  C   UNL A   1      39.122  32.677  34.448  1.00  0.00     0.074 A 
ATOM     52  C   UNL A   1      38.055  33.654  34.411  1.00  0.00     0.031 C 
ATOM     53  C   UNL A   1      38.588  29.756  28.742  1.00  0.00     0.029 A 
ATOM     54  C   UNL A   1      39.576  29.493  29.784  1.00  0.00     0.049 A 
ATOM     55  H   UNL A   1      39.689  30.365  31.672  1.00  0.00     0.167 HD
ATOM     56  C   UNL A   1      39.969  32.506  35.491  1.00  0.00     0.037 A 
ATOM     57  C   UNL A   1      40.597  28.621  29.689  1.00  0.00     0.037 A 
ATOM     58  C   UNL A   1      41.017  31.520  35.526  1.00  0.00     0.049 A 
ATOM     59  C   UNL A   1      41.546  28.475  30.849  1.00  0.00     0.074 A 
ATOM     60  C   UNL A   1      41.886  31.222  36.560  1.00  0.00     0.029 A 
ATOM     61  N   UNL A   1      41.346  30.678  34.473  1.00  0.00    -0.354 N 
ATOM     62  N   UNL A   1      41.536  29.090  32.006  1.00  0.00    -0.248 NA
ATOM     63  C   UNL A   1      42.646  27.515  30.689  1.00  0.00     0.031 C 
ATOM     64  C   UNL A   1      42.776  30.240  36.114  1.00  0.00     0.029 A 
ATOM     65  C   UNL A   1      42.426  29.884  34.821  1.00  0.00     0.049 A 
ATOM     66  H   UNL A   1      40.878  30.648  33.607  1.00  0.00     0.167 HD
ATOM     67  C   UNL A   1      42.611  28.577  32.720  1.00  0.00     0.074 A 
ATOM     68  C   UNL A   1      43.241  27.587  31.873  1.00  0.00     0.031 C 
ATOM     69  C   UNL A   1      43.039  28.900  33.965  1.00  0.00     0.037 A 
BRANCH  56  70
ATOM     70  C   UNL A   1      39.801  33.406  36.681  1.00  0.00     0.064 A 
ATOM     71  C   UNL A   1      40.499  34.617  36.795  1.00  0.00     0.173 A 
ATOM     72  C   UNL A   1      38.895  33.073  37.701  1.00  0.00     0.173 A 
ATOM     73  F   UNL A   1      41.383  34.978  35.852  1.00  0.00    -0.203 F 
ATOM     74  C   UNL A   1      40.321  35.447  37.899  1.00  0.00     0.198 A 
ATOM     75  C   UNL A   1      38.696  33.921  38.787  1.00  0.00     0.198 A 
ATOM     76  F   UNL A   1      38.195  31.931  37.640  1.00  0.00    -0.203 F 
ATOM     77  F   UNL A   1      41.036  36.575  38.009  1.00  0.00    -0.200 F 
ATOM     78  C   UNL A   1      39.414  35.104  38.890  1.00  0.00     0.200 A 
ATOM     79  F   UNL A   1      37.808  33.594  39.737  1.00  0.00    -0.200 F 
ATOM     80  F   UNL A   1      39.236  35.908  39.947  1.00  0.00    -0.200 F 
ENDBRANCH  56  70
BRANCH  57  81
ATOM     81  C   UNL A   1      40.774  27.815  28.452  1.00  0.00     0.064 A 
ATOM     82  C   UNL A   1      41.546  28.295  27.385  1.00  0.00     0.173 A 
ATOM     83  C   UNL A   1      40.175  26.555  28.308  1.00  0.00     0.173 A 
ATOM     84  F   UNL A   1      42.122  29.504  27.466  1.00  0.00    -0.203 F 
ATOM     85  C   UNL A   1      41.695  27.555  26.214  1.00  0.00     0.198 A 
ATOM     86  C   UNL A   1      40.349  25.803  27.148  1.00  0.00     0.198 A 
ATOM     87  F   UNL A   1      39.427  26.048  29.299  1.00  0.00    -0.203 F 
ATOM     88  F   UNL A   1      42.398  28.060  25.191  1.00  0.00    -0.200 F 
ATOM     89  C   UNL A   1      41.101  26.307  26.098  1.00  0.00     0.200 A 
ATOM     90  F   UNL A   1      39.786  24.591  27.047  1.00  0.00    -0.200 F 
ATOM     91  F   UNL A   1      41.248  25.594  24.973  1.00  0.00    -0.200 F 
ENDBRANCH  57  81
BRANCH  69  92
ATOM     92  C   UNL A   1      44.231  28.161  34.500  1.00  0.00     0.064 A 
ATOM     93  C   UNL A   1      44.097  26.928  35.154  1.00  0.00     0.173 A 
ATOM     94  C   UNL A   1      45.526  28.663  34.300  1.00  0.00     0.173 A 
ATOM     95  F   UNL A   1      42.879  26.413  35.384  1.00  0.00    -0.203 F 
ATOM     96  C   UNL A   1      45.217  26.231  35.603  1.00  0.00     0.198 A 
ATOM     97  C   UNL A   1      46.644  27.950  34.723  1.00  0.00     0.198 A 
ATOM     98  F   UNL A   1      45.709  29.836  33.676  1.00  0.00    -0.203 F 
ATOM     99  F   UNL A   1      45.063  25.074  36.260  1.00  0.00    -0.200 F 
ATOM    100  C   UNL A   1      46.488  26.738  35.378  1.00  0.00     0.200 A 
ATOM    101  F   UNL A   1      47.873  28.432  34.491  1.00  0.00    -0.200 F 
ATOM    102  F   UNL A   1      47.564  26.058  35.796  1.00  0.00    -0.200 F 
ENDBRANCH  69  92
ENDBRANCH  43  44
ENDBRANCH  35  38
ENDBRANCH  33  34
ENDBRANCH  32  33
ENDBRANCH  31  32
ENDBRANCH  30  31
ENDBRANCH   1  30
TORSDOF 18
ENDMDL
