MODEL 1
REMARK VINA RESULT:      -9.4      0.000      0.000
REMARK SMILES CCCCN1C(=O)[C@@H]2[C@H](CCC(=O)NCCCCCCNC(=O)c3ccc(-c4c5nc(c(-c6c(F)c(F)c(F)c(F)c6F)c6ccc([nH]6)c(-c6c(F)c(F)c(F)c(F)c6F)c6nc(c(-c7c(F)c(F)c(F)c(F)c7F)c7ccc4[nH]7)C=C6)C=C5)cc3)[NH2+][C@]3(C(=O)Nc4c(CC)cccc43)[C@@H]2C1=O
REMARK SMILES IDX 16 1 15 2 14 3 12 4 13 5 11 7 10 8 9 9 5 10 6 11 101 12 7 13
REMARK SMILES IDX 8 14 100 15 102 16 88 17 87 18 89 19 99 20 90 23 91 24 92 25
REMARK SMILES IDX 98 26 93 28 97 29 96 30 4 31 3 32 2 33 1 34 94 35 95 36
REMARK SMILES IDX 17 37 18 38 19 39 20 40 21 41 22 42 23 44 24 45 25 46 86 47
REMARK SMILES IDX 26 48 85 49 27 50 28 51 29 52 79 53 30 54 84 55 78 56 80 57
REMARK SMILES IDX 31 58 83 59 77 60 76 61 32 63 64 64 44 65 63 66 45 67 48 68
REMARK SMILES IDX 62 69 81 70 46 71 47 72 61 74 82 75 49 76 33 77 34 78 42 79
REMARK SMILES IDX 35 80 36 81 40 82 43 83 37 84 38 85 41 86 39 87 65 88 66 89
REMARK SMILES IDX 74 90 67 91 68 92 72 93 75 94 69 95 70 96 73 97 71 98 50 99
REMARK SMILES IDX 51 100 59 101 52 102 53 103 57 104 60 105 54 106 55 107
REMARK SMILES IDX 58 108 56 109
REMARK H PARENT 14 6 87 21 87 22 91 27 21 43 80 62 48 73
REMARK Flexibility Score: inf
ROOT
ATOM      1  C   UNL A   1      38.157  34.570  30.928  1.00  0.00     0.021 C 
ENDROOT
BRANCH   1   2
ATOM      2  C   UNL A   1      38.828  34.314  32.281  1.00  0.00     0.116 C 
BRANCH   2   3
ATOM      3  N   UNL A   1      37.865  33.756  33.209  1.00  0.00    -0.356 N 
ATOM      4  C   UNL A   1      37.493  32.461  33.407  1.00  0.00     0.220 C 
ATOM      5  O   UNL A   1      36.526  32.233  34.133  1.00  0.00    -0.275 OA
ATOM      6  H   UNL A   1      37.409  34.414  33.782  1.00  0.00     0.163 HD
BRANCH   4   7
ATOM      7  C   UNL A   1      38.288  31.334  32.785  1.00  0.00     0.106 C 
BRANCH   7   8
ATOM      8  C   UNL A   1      38.951  30.364  33.767  1.00  0.00     0.076 C 
BRANCH   8   9
ATOM      9  C   UNL A   1      40.316  29.754  33.391  1.00  0.00     0.197 C 
ATOM     10  N   UNL A   1      41.486  31.712  35.684  1.00  0.00    -0.282 N 
ATOM     11  C   UNL A   1      41.478  31.854  34.333  1.00  0.00     0.239 C 
ATOM     12  C   UNL A   1      42.009  30.490  36.044  1.00  0.00     0.240 C 
ATOM     13  O   UNL A   1      41.406  32.870  33.669  1.00  0.00    -0.274 OA
ATOM     14  C   UNL A   1      41.618  30.509  33.707  1.00  0.00     0.157 C 
ATOM     15  C   UNL A   1      42.337  29.715  34.790  1.00  0.00     0.174 C 
ATOM     16  O   UNL A   1      42.323  30.147  37.173  1.00  0.00    -0.274 OA
ATOM     17  C   UNL A   1      41.793  28.311  34.637  1.00  0.00     0.216 C 
ATOM     18  N   UNL A   1      40.433  28.473  34.097  1.00  0.00    -0.326 N 
ATOM     19  C   UNL A   1      41.729  27.432  35.928  1.00  0.00     0.291 C 
ATOM     20  C   UNL A   1      42.679  27.458  33.740  1.00  0.00     0.047 A 
ATOM     21  H   UNL A   1      40.236  27.712  33.448  1.00  0.00     0.347 HD
ATOM     22  H   UNL A   1      39.767  28.458  34.869  1.00  0.00     0.347 HD
ATOM     23  O   UNL A   1      41.043  27.597  36.923  1.00  0.00    -0.267 OA
ATOM     24  N   UNL A   1      42.547  26.327  35.712  1.00  0.00    -0.320 N 
ATOM     25  C   UNL A   1      43.106  26.324  34.442  1.00  0.00     0.054 A 
ATOM     26  C   UNL A   1      43.097  27.667  32.433  1.00  0.00     0.013 A 
ATOM     27  H   UNL A   1      42.712  25.626  36.385  1.00  0.00     0.170 HD
ATOM     28  C   UNL A   1      43.951  25.371  33.887  1.00  0.00    -0.024 A 
ATOM     29  C   UNL A   1      43.956  26.733  31.853  1.00  0.00     0.001 A 
ATOM     30  C   UNL A   1      44.379  25.602  32.568  1.00  0.00     0.006 A 
BRANCH  10  31
ATOM     31  C   UNL A   1      41.004  32.691  36.652  1.00  0.00     0.128 C 
BRANCH  31  32
ATOM     32  C   UNL A   1      39.544  33.156  36.551  1.00  0.00     0.022 C 
BRANCH  32  33
ATOM     33  C   UNL A   1      38.473  32.452  37.398  1.00  0.00    -0.002 C 
ATOM     34  C   UNL A   1      37.107  33.119  37.432  1.00  0.00     0.004 C 
ENDBRANCH  32  33
ENDBRANCH  31  32
ENDBRANCH  10  31
BRANCH  28  35
ATOM     35  C   UNL A   1      44.408  24.136  34.616  1.00  0.00     0.034 C 
ATOM     36  C   UNL A   1      43.431  22.978  34.459  1.00  0.00     0.009 C 
ENDBRANCH  28  35
ENDBRANCH   8   9
ENDBRANCH   7   8
ENDBRANCH   4   7
ENDBRANCH   2   3
ENDBRANCH   1   2
BRANCH   1  37
ATOM     37  C   UNL A   1      38.431  33.483  29.892  1.00  0.00     0.002 C 
BRANCH  37  38
ATOM     38  C   UNL A   1      37.364  33.381  28.796  1.00  0.00     0.002 C 
BRANCH  38  39
ATOM     39  C   UNL A   1      35.910  33.455  29.276  1.00  0.00     0.021 C 
BRANCH  39  40
ATOM     40  C   UNL A   1      35.419  32.253  30.078  1.00  0.00     0.116 C 
BRANCH  40  41
ATOM     41  N   UNL A   1      34.684  31.297  29.265  1.00  0.00    -0.352 N 
ATOM     42  C   UNL A   1      35.130  30.243  28.505  1.00  0.00     0.251 C 
ATOM     43  H   UNL A   1      33.708  31.427  29.259  1.00  0.00     0.163 HD
ATOM     44  O   UNL A   1      34.354  29.663  27.750  1.00  0.00    -0.269 OA
BRANCH  42  45
ATOM     45  C   UNL A   1      36.543  29.813  28.571  1.00  0.00     0.039 A 
ATOM     46  C   UNL A   1      37.065  29.231  29.727  1.00  0.00     0.014 A 
ATOM     47  C   UNL A   1      37.356  29.969  27.444  1.00  0.00     0.014 A 
ATOM     48  C   UNL A   1      38.428  28.967  29.817  1.00  0.00     0.010 A 
ATOM     49  C   UNL A   1      38.709  29.619  27.506  1.00  0.00     0.010 A 
ATOM     50  C   UNL A   1      39.270  29.161  28.708  1.00  0.00    -0.014 A 
BRANCH  50  51
ATOM     51  C   UNL A   1      40.726  28.880  28.834  1.00  0.00     0.031 A 
ATOM     52  C   UNL A   1      41.646  29.864  29.506  1.00  0.00     0.074 A 
ATOM     53  C   UNL A   1      41.214  27.707  28.383  1.00  0.00     0.049 A 
ATOM     54  N   UNL A   1      42.933  29.768  29.734  1.00  0.00    -0.248 NA
ATOM     55  C   UNL A   1      41.052  31.124  29.980  1.00  0.00     0.031 C 
ATOM     56  C   UNL A   1      40.431  26.676  27.699  1.00  0.00     0.029 A 
ATOM     57  N   UNL A   1      42.479  27.174  28.446  1.00  0.00    -0.354 N 
ATOM     58  C   UNL A   1      43.302  30.954  30.355  1.00  0.00     0.074 A 
ATOM     59  C   UNL A   1      42.112  31.770  30.447  1.00  0.00     0.031 C 
ATOM     60  C   UNL A   1      41.217  25.618  27.452  1.00  0.00     0.029 A 
ATOM     61  C   UNL A   1      42.572  25.914  27.908  1.00  0.00     0.049 A 
ATOM     62  H   UNL A   1      43.245  27.650  28.841  1.00  0.00     0.167 HD
ATOM     63  C   UNL A   1      44.519  31.320  30.822  1.00  0.00     0.037 A 
ATOM     64  C   UNL A   1      43.631  25.090  27.782  1.00  0.00     0.037 A 
ATOM     65  C   UNL A   1      45.696  30.493  30.768  1.00  0.00     0.049 A 
ATOM     66  C   UNL A   1      44.972  25.530  28.299  1.00  0.00     0.074 A 
ATOM     67  C   UNL A   1      46.959  30.761  31.267  1.00  0.00     0.029 A 
ATOM     68  N   UNL A   1      45.756  29.237  30.184  1.00  0.00    -0.354 N 
ATOM     69  N   UNL A   1      45.293  26.638  28.920  1.00  0.00    -0.248 NA
ATOM     70  C   UNL A   1      46.099  24.609  28.094  1.00  0.00     0.031 C 
ATOM     71  C   UNL A   1      47.793  29.687  30.948  1.00  0.00     0.029 A 
ATOM     72  C   UNL A   1      47.040  28.730  30.290  1.00  0.00     0.049 A 
ATOM     73  H   UNL A   1      44.998  28.775  29.758  1.00  0.00     0.167 HD
ATOM     74  C   UNL A   1      46.652  26.545  29.185  1.00  0.00     0.074 A 
ATOM     75  C   UNL A   1      47.092  25.261  28.682  1.00  0.00     0.031 C 
ATOM     76  C   UNL A   1      47.464  27.449  29.786  1.00  0.00     0.037 A 
BRANCH  63  77
ATOM     77  C   UNL A   1      44.658  32.676  31.449  1.00  0.00     0.064 A 
ATOM     78  C   UNL A   1      44.649  33.845  30.675  1.00  0.00     0.173 A 
ATOM     79  C   UNL A   1      44.696  32.811  32.846  1.00  0.00     0.173 A 
ATOM     80  F   UNL A   1      44.623  33.767  29.336  1.00  0.00    -0.203 F 
ATOM     81  C   UNL A   1      44.679  35.101  31.276  1.00  0.00     0.198 A 
ATOM     82  C   UNL A   1      44.702  34.068  33.444  1.00  0.00     0.198 A 
ATOM     83  F   UNL A   1      44.698  31.723  33.631  1.00  0.00    -0.203 F 
ATOM     84  F   UNL A   1      44.690  36.204  30.517  1.00  0.00    -0.200 F 
ATOM     85  C   UNL A   1      44.694  35.212  32.659  1.00  0.00     0.200 A 
ATOM     86  F   UNL A   1      44.701  34.174  34.780  1.00  0.00    -0.200 F 
ATOM     87  F   UNL A   1      44.698  36.422  33.236  1.00  0.00    -0.200 F 
ENDBRANCH  63  77
BRANCH  64  88
ATOM     88  C   UNL A   1      43.458  23.762  27.140  1.00  0.00     0.064 A 
ATOM     89  C   UNL A   1      42.876  22.694  27.836  1.00  0.00     0.173 A 
ATOM     90  C   UNL A   1      43.856  23.539  25.813  1.00  0.00     0.173 A 
ATOM     91  F   UNL A   1      42.498  22.853  29.112  1.00  0.00    -0.203 F 
ATOM     92  C   UNL A   1      42.709  21.449  27.232  1.00  0.00     0.198 A 
ATOM     93  C   UNL A   1      43.661  22.303  25.201  1.00  0.00     0.198 A 
ATOM     94  F   UNL A   1      44.413  24.531  25.104  1.00  0.00    -0.203 F 
ATOM     95  F   UNL A   1      42.183  20.434  27.931  1.00  0.00    -0.200 F 
ATOM     96  C   UNL A   1      43.094  21.257  25.913  1.00  0.00     0.200 A 
ATOM     97  F   UNL A   1      44.018  22.127  23.922  1.00  0.00    -0.200 F 
ATOM     98  F   UNL A   1      42.921  20.064  25.330  1.00  0.00    -0.200 F 
ENDBRANCH  64  88
BRANCH  76  99
ATOM     99  C   UNL A   1      48.911  27.089  29.940  1.00  0.00     0.064 A 
ATOM    100  C   UNL A   1      49.354  26.297  31.008  1.00  0.00     0.173 A 
ATOM    101  C   UNL A   1      49.848  27.471  28.969  1.00  0.00     0.173 A 
ATOM    102  F   UNL A   1      48.497  25.918  31.968  1.00  0.00    -0.203 F 
ATOM    103  C   UNL A   1      50.688  25.908  31.105  1.00  0.00     0.198 A 
ATOM    104  C   UNL A   1      51.176  27.059  29.054  1.00  0.00     0.198 A 
ATOM    105  F   UNL A   1      49.472  28.223  27.924  1.00  0.00    -0.203 F 
ATOM    106  F   UNL A   1      51.096  25.175  32.149  1.00  0.00    -0.200 F 
ATOM    107  C   UNL A   1      51.594  26.281  30.123  1.00  0.00     0.200 A 
ATOM    108  F   UNL A   1      52.047  27.408  28.098  1.00  0.00    -0.200 F 
ATOM    109  F   UNL A   1      52.874  25.890  30.208  1.00  0.00    -0.200 F 
ENDBRANCH  76  99
ENDBRANCH  50  51
ENDBRANCH  42  45
ENDBRANCH  40  41
ENDBRANCH  39  40
ENDBRANCH  38  39
ENDBRANCH  37  38
ENDBRANCH   1  37
TORSDOF 19
ENDMDL
MODEL 2
REMARK VINA RESULT:      -8.6      5.453     11.865
REMARK SMILES CCCCN1C(=O)[C@@H]2[C@H](CCC(=O)NCCCCCCNC(=O)c3ccc(-c4c5nc(c(-c6c(F)c(F)c(F)c(F)c6F)c6ccc([nH]6)c(-c6c(F)c(F)c(F)c(F)c6F)c6nc(c(-c7c(F)c(F)c(F)c(F)c7F)c7ccc4[nH]7)C=C6)C=C5)cc3)[NH2+][C@]3(C(=O)Nc4c(CC)cccc43)[C@@H]2C1=O
REMARK SMILES IDX 16 1 15 2 14 3 12 4 13 5 11 7 10 8 9 9 5 10 6 11 101 12 7 13
REMARK SMILES IDX 8 14 100 15 102 16 88 17 87 18 89 19 99 20 90 23 91 24 92 25
REMARK SMILES IDX 98 26 93 28 97 29 96 30 4 31 3 32 2 33 1 34 94 35 95 36
REMARK SMILES IDX 17 37 18 38 19 39 20 40 21 41 22 42 23 44 24 45 25 46 86 47
REMARK SMILES IDX 26 48 85 49 27 50 28 51 29 52 79 53 30 54 84 55 78 56 80 57
REMARK SMILES IDX 31 58 83 59 77 60 76 61 32 63 64 64 44 65 63 66 45 67 48 68
REMARK SMILES IDX 62 69 81 70 46 71 47 72 61 74 82 75 49 76 33 77 34 78 42 79
REMARK SMILES IDX 35 80 36 81 40 82 43 83 37 84 38 85 41 86 39 87 65 88 66 89
REMARK SMILES IDX 74 90 67 91 68 92 72 93 75 94 69 95 70 96 73 97 71 98 50 99
REMARK SMILES IDX 51 100 59 101 52 102 53 103 57 104 60 105 54 106 55 107
REMARK SMILES IDX 58 108 56 109
REMARK H PARENT 14 6 87 21 87 22 91 27 21 43 80 62 48 73
REMARK Flexibility Score: inf
ROOT
ATOM      1  C   UNL A   1      38.818  19.764  25.524  1.00  0.00     0.021 C 
ENDROOT
BRANCH   1   2
ATOM      2  C   UNL A   1      37.636  20.424  24.807  1.00  0.00     0.116 C 
BRANCH   2   3
ATOM      3  N   UNL A   1      37.322  21.688  25.441  1.00  0.00    -0.356 N 
ATOM      4  C   UNL A   1      37.001  22.888  24.884  1.00  0.00     0.220 C 
ATOM      5  O   UNL A   1      36.940  23.877  25.615  1.00  0.00    -0.275 OA
ATOM      6  H   UNL A   1      37.344  21.678  26.426  1.00  0.00     0.163 HD
BRANCH   4   7
ATOM      7  C   UNL A   1      36.680  22.985  23.409  1.00  0.00     0.106 C 
BRANCH   7   8
ATOM      8  C   UNL A   1      35.250  22.609  23.011  1.00  0.00     0.076 C 
BRANCH   8   9
ATOM      9  C   UNL A   1      34.200  23.731  22.886  1.00  0.00     0.197 C 
ATOM     10  N   UNL A   1      32.191  21.594  24.247  1.00  0.00    -0.282 N 
ATOM     11  C   UNL A   1      32.337  21.950  22.944  1.00  0.00     0.239 C 
ATOM     12  C   UNL A   1      32.022  22.705  25.042  1.00  0.00     0.240 C 
ATOM     13  O   UNL A   1      32.184  21.279  21.942  1.00  0.00    -0.274 OA
ATOM     14  C   UNL A   1      32.700  23.395  22.879  1.00  0.00     0.157 C 
ATOM     15  C   UNL A   1      32.119  23.939  24.177  1.00  0.00     0.174 C 
ATOM     16  O   UNL A   1      31.680  22.705  26.214  1.00  0.00    -0.274 OA
ATOM     17  C   UNL A   1      33.081  25.037  24.577  1.00  0.00     0.216 C 
ATOM     18  N   UNL A   1      34.386  24.634  24.027  1.00  0.00    -0.326 N 
ATOM     19  C   UNL A   1      33.237  25.320  26.107  1.00  0.00     0.291 C 
ATOM     20  C   UNL A   1      32.628  26.398  24.067  1.00  0.00     0.047 A 
ATOM     21  H   UNL A   1      34.892  25.465  23.720  1.00  0.00     0.347 HD
ATOM     22  H   UNL A   1      34.916  24.149  24.751  1.00  0.00     0.347 HD
ATOM     23  O   UNL A   1      33.700  24.591  26.969  1.00  0.00    -0.267 OA
ATOM     24  N   UNL A   1      32.832  26.634  26.323  1.00  0.00    -0.320 N 
ATOM     25  C   UNL A   1      32.477  27.278  25.147  1.00  0.00     0.054 A 
ATOM     26  C   UNL A   1      32.346  26.823  22.777  1.00  0.00     0.013 A 
ATOM     27  H   UNL A   1      32.801  27.059  27.212  1.00  0.00     0.170 HD
ATOM     28  C   UNL A   1      32.048  28.590  24.991  1.00  0.00    -0.024 A 
ATOM     29  C   UNL A   1      31.901  28.132  22.591  1.00  0.00     0.001 A 
ATOM     30  C   UNL A   1      31.751  29.003  23.681  1.00  0.00     0.006 A 
BRANCH  10  31
ATOM     31  C   UNL A   1      32.216  20.233  24.770  1.00  0.00     0.128 C 
BRANCH  31  32
ATOM     32  C   UNL A   1      33.541  19.459  24.723  1.00  0.00     0.022 C 
BRANCH  32  33
ATOM     33  C   UNL A   1      33.627  18.170  23.892  1.00  0.00    -0.002 C 
ATOM     34  C   UNL A   1      32.558  17.992  22.826  1.00  0.00     0.004 C 
ENDBRANCH  32  33
ENDBRANCH  31  32
ENDBRANCH  10  31
BRANCH  28  35
ATOM     35  C   UNL A   1      31.895  29.557  26.133  1.00  0.00     0.034 C 
ATOM     36  C   UNL A   1      31.144  30.818  25.725  1.00  0.00     0.009 C 
ENDBRANCH  28  35
ENDBRANCH   8   9
ENDBRANCH   7   8
ENDBRANCH   4   7
ENDBRANCH   2   3
ENDBRANCH   1   2
BRANCH   1  37
ATOM     37  C   UNL A   1      39.768  20.759  26.185  1.00  0.00     0.002 C 
BRANCH  37  38
ATOM     38  C   UNL A   1      41.090  20.144  26.656  1.00  0.00     0.002 C 
BRANCH  38  39
ATOM     39  C   UNL A   1      42.001  19.602  25.548  1.00  0.00     0.021 C 
BRANCH  39  40
ATOM     40  C   UNL A   1      43.173  18.744  26.020  1.00  0.00     0.116 C 
BRANCH  40  41
ATOM     41  N   UNL A   1      44.182  18.555  24.991  1.00  0.00    -0.352 N 
ATOM     42  C   UNL A   1      44.976  19.469  24.342  1.00  0.00     0.251 C 
ATOM     43  H   UNL A   1      44.318  17.621  24.714  1.00  0.00     0.163 HD
ATOM     44  O   UNL A   1      45.644  19.119  23.373  1.00  0.00    -0.269 OA
BRANCH  42  45
ATOM     45  C   UNL A   1      45.017  20.879  24.785  1.00  0.00     0.039 A 
ATOM     46  C   UNL A   1      44.671  21.916  23.918  1.00  0.00     0.014 A 
ATOM     47  C   UNL A   1      45.384  21.169  26.103  1.00  0.00     0.014 A 
ATOM     48  C   UNL A   1      44.855  23.239  24.310  1.00  0.00     0.010 A 
ATOM     49  C   UNL A   1      45.483  22.499  26.524  1.00  0.00     0.010 A 
ATOM     50  C   UNL A   1      45.267  23.548  25.617  1.00  0.00    -0.014 A 
BRANCH  50  51
ATOM     51  C   UNL A   1      45.466  24.971  26.007  1.00  0.00     0.031 A 
ATOM     52  C   UNL A   1      44.339  25.772  26.604  1.00  0.00     0.074 A 
ATOM     53  C   UNL A   1      46.684  25.531  25.867  1.00  0.00     0.049 A 
ATOM     54  N   UNL A   1      44.344  27.010  27.032  1.00  0.00    -0.248 NA
ATOM     55  C   UNL A   1      43.035  25.103  26.734  1.00  0.00     0.031 C 
ATOM     56  C   UNL A   1      47.854  24.868  25.288  1.00  0.00     0.029 A 
ATOM     57  N   UNL A   1      47.149  26.775  26.217  1.00  0.00    -0.354 N 
ATOM     58  C   UNL A   1      43.049  27.272  27.460  1.00  0.00     0.074 A 
ATOM     59  C   UNL A   1      42.273  26.075  27.217  1.00  0.00     0.031 C 
ATOM     60  C   UNL A   1      48.911  25.690  25.368  1.00  0.00     0.029 A 
ATOM     61  C   UNL A   1      48.484  26.958  25.951  1.00  0.00     0.049 A 
ATOM     62  H   UNL A   1      46.579  27.470  26.620  1.00  0.00     0.167 HD
ATOM     63  C   UNL A   1      42.556  28.402  28.021  1.00  0.00     0.037 A 
ATOM     64  C   UNL A   1      49.278  28.030  26.144  1.00  0.00     0.037 A 
ATOM     65  C   UNL A   1      43.335  29.580  28.300  1.00  0.00     0.049 A 
ATOM     66  C   UNL A   1      48.700  29.274  26.757  1.00  0.00     0.074 A 
ATOM     67  C   UNL A   1      42.931  30.751  28.918  1.00  0.00     0.029 A 
ATOM     68  N   UNL A   1      44.676  29.737  27.985  1.00  0.00    -0.354 N 
ATOM     69  N   UNL A   1      47.482  29.490  27.192  1.00  0.00    -0.248 NA
ATOM     70  C   UNL A   1      49.601  30.426  26.900  1.00  0.00     0.031 C 
ATOM     71  C   UNL A   1      44.015  31.633  28.937  1.00  0.00     0.029 A 
ATOM     72  C   UNL A   1      45.107  30.995  28.373  1.00  0.00     0.049 A 
ATOM     73  H   UNL A   1      45.238  29.055  27.550  1.00  0.00     0.167 HD
ATOM     74  C   UNL A   1      47.473  30.794  27.666  1.00  0.00     0.074 A 
ATOM     75  C   UNL A   1      48.813  31.315  27.490  1.00  0.00     0.031 C 
ATOM     76  C   UNL A   1      46.443  31.499  28.193  1.00  0.00     0.037 A 
BRANCH  63  77
ATOM     77  C   UNL A   1      41.102  28.435  28.387  1.00  0.00     0.064 A 
ATOM     78  C   UNL A   1      40.656  28.036  29.655  1.00  0.00     0.173 A 
ATOM     79  C   UNL A   1      40.158  28.970  27.496  1.00  0.00     0.173 A 
ATOM     80  F   UNL A   1      41.519  27.509  30.538  1.00  0.00    -0.203 F 
ATOM     81  C   UNL A   1      39.318  28.165  30.016  1.00  0.00     0.198 A 
ATOM     82  C   UNL A   1      38.825  29.120  27.869  1.00  0.00     0.198 A 
ATOM     83  F   UNL A   1      40.535  29.375  26.274  1.00  0.00    -0.203 F 
ATOM     84  F   UNL A   1      38.911  27.758  31.226  1.00  0.00    -0.200 F 
ATOM     85  C   UNL A   1      38.405  28.717  29.129  1.00  0.00     0.200 A 
ATOM     86  F   UNL A   1      37.948  29.667  27.016  1.00  0.00    -0.200 F 
ATOM     87  F   UNL A   1      37.123  28.862  29.487  1.00  0.00    -0.200 F 
ENDBRANCH  63  77
BRANCH  64  88
ATOM     88  C   UNL A   1      50.709  27.966  25.752  1.00  0.00     0.064 A 
ATOM     89  C   UNL A   1      51.099  28.132  24.416  1.00  0.00     0.173 A 
ATOM     90  C   UNL A   1      51.716  27.754  26.706  1.00  0.00     0.173 A 
ATOM     91  F   UNL A   1      50.172  28.318  23.466  1.00  0.00    -0.203 F 
ATOM     92  C   UNL A   1      52.443  28.076  24.047  1.00  0.00     0.198 A 
ATOM     93  C   UNL A   1      53.060  27.728  26.341  1.00  0.00     0.198 A 
ATOM     94  F   UNL A   1      51.393  27.594  27.997  1.00  0.00    -0.203 F 
ATOM     95  F   UNL A   1      52.786  28.202  22.759  1.00  0.00    -0.200 F 
ATOM     96  C   UNL A   1      53.421  27.884  25.011  1.00  0.00     0.200 A 
ATOM     97  F   UNL A   1      54.003  27.560  27.276  1.00  0.00    -0.200 F 
ATOM     98  F   UNL A   1      54.712  27.844  24.658  1.00  0.00    -0.200 F 
ENDBRANCH  64  88
BRANCH  76  99
ATOM     99  C   UNL A   1      46.715  32.909  28.625  1.00  0.00     0.064 A 
ATOM    100  C   UNL A   1      46.513  33.988  27.753  1.00  0.00     0.173 A 
ATOM    101  C   UNL A   1      47.102  33.189  29.943  1.00  0.00     0.173 A 
ATOM    102  F   UNL A   1      46.156  33.769  26.479  1.00  0.00    -0.203 F 
ATOM    103  C   UNL A   1      46.700  35.299  28.184  1.00  0.00     0.198 A 
ATOM    104  C   UNL A   1      47.262  34.502  30.378  1.00  0.00     0.198 A 
ATOM    105  F   UNL A   1      47.300  32.191  30.817  1.00  0.00    -0.203 F 
ATOM    106  F   UNL A   1      46.530  36.315  27.327  1.00  0.00    -0.200 F 
ATOM    107  C   UNL A   1      47.064  35.555  29.499  1.00  0.00     0.200 A 
ATOM    108  F   UNL A   1      47.601  34.748  31.652  1.00  0.00    -0.200 F 
ATOM    109  F   UNL A   1      47.226  36.818  29.916  1.00  0.00    -0.200 F 
ENDBRANCH  76  99
ENDBRANCH  50  51
ENDBRANCH  42  45
ENDBRANCH  40  41
ENDBRANCH  39  40
ENDBRANCH  38  39
ENDBRANCH  37  38
ENDBRANCH   1  37
TORSDOF 19
ENDMDL
MODEL 3
REMARK VINA RESULT:      -8.6      5.419     11.805
REMARK SMILES CCCCN1C(=O)[C@@H]2[C@H](CCC(=O)NCCCCCCNC(=O)c3ccc(-c4c5nc(c(-c6c(F)c(F)c(F)c(F)c6F)c6ccc([nH]6)c(-c6c(F)c(F)c(F)c(F)c6F)c6nc(c(-c7c(F)c(F)c(F)c(F)c7F)c7ccc4[nH]7)C=C6)C=C5)cc3)[NH2+][C@]3(C(=O)Nc4c(CC)cccc43)[C@@H]2C1=O
REMARK SMILES IDX 16 1 15 2 14 3 12 4 13 5 11 7 10 8 9 9 5 10 6 11 101 12 7 13
REMARK SMILES IDX 8 14 100 15 102 16 88 17 87 18 89 19 99 20 90 23 91 24 92 25
REMARK SMILES IDX 98 26 93 28 97 29 96 30 4 31 3 32 2 33 1 34 94 35 95 36
REMARK SMILES IDX 17 37 18 38 19 39 20 40 21 41 22 42 23 44 24 45 25 46 86 47
REMARK SMILES IDX 26 48 85 49 27 50 28 51 29 52 79 53 30 54 84 55 78 56 80 57
REMARK SMILES IDX 31 58 83 59 77 60 76 61 32 63 64 64 44 65 63 66 45 67 48 68
REMARK SMILES IDX 62 69 81 70 46 71 47 72 61 74 82 75 49 76 33 77 34 78 42 79
REMARK SMILES IDX 35 80 36 81 40 82 43 83 37 84 38 85 41 86 39 87 65 88 66 89
REMARK SMILES IDX 74 90 67 91 68 92 72 93 75 94 69 95 70 96 73 97 71 98 50 99
REMARK SMILES IDX 51 100 59 101 52 102 53 103 57 104 60 105 54 106 55 107
REMARK SMILES IDX 58 108 56 109
REMARK H PARENT 14 6 87 21 87 22 91 27 21 43 80 62 48 73
REMARK Flexibility Score: inf
ROOT
ATOM      1  C   UNL A   1      38.867  20.225  25.470  1.00  0.00     0.021 C 
ENDROOT
BRANCH   1   2
ATOM      2  C   UNL A   1      37.581  20.706  24.791  1.00  0.00     0.116 C 
BRANCH   2   3
ATOM      3  N   UNL A   1      37.150  21.954  25.387  1.00  0.00    -0.356 N 
ATOM      4  C   UNL A   1      36.732  23.106  24.795  1.00  0.00     0.220 C 
ATOM      5  O   UNL A   1      36.576  24.105  25.497  1.00  0.00    -0.275 OA
ATOM      6  H   UNL A   1      37.163  21.973  26.372  1.00  0.00     0.163 HD
BRANCH   4   7
ATOM      7  C   UNL A   1      36.419  23.134  23.314  1.00  0.00     0.106 C 
BRANCH   7   8
ATOM      8  C   UNL A   1      35.014  22.671  22.919  1.00  0.00     0.076 C 
BRANCH   8   9
ATOM      9  C   UNL A   1      33.908  23.732  22.755  1.00  0.00     0.197 C 
ATOM     10  N   UNL A   1      32.059  21.620  24.361  1.00  0.00    -0.282 N 
ATOM     11  C   UNL A   1      32.136  21.879  23.029  1.00  0.00     0.239 C 
ATOM     12  C   UNL A   1      31.869  22.781  25.076  1.00  0.00     0.240 C 
ATOM     13  O   UNL A   1      31.976  21.124  22.090  1.00  0.00    -0.274 OA
ATOM     14  C   UNL A   1      32.427  23.329  22.838  1.00  0.00     0.157 C 
ATOM     15  C   UNL A   1      31.872  23.947  24.115  1.00  0.00     0.174 C 
ATOM     16  O   UNL A   1      31.574  22.858  26.258  1.00  0.00    -0.274 OA
ATOM     17  C   UNL A   1      32.795  25.115  24.387  1.00  0.00     0.216 C 
ATOM     18  N   UNL A   1      34.095  24.729  23.814  1.00  0.00    -0.326 N 
ATOM     19  C   UNL A   1      32.998  25.524  25.882  1.00  0.00     0.291 C 
ATOM     20  C   UNL A   1      32.257  26.410  23.795  1.00  0.00     0.047 A 
ATOM     21  H   UNL A   1      34.548  25.555  23.422  1.00  0.00     0.347 HD
ATOM     22  H   UNL A   1      34.676  24.327  24.549  1.00  0.00     0.347 HD
ATOM     23  O   UNL A   1      33.529  24.886  26.777  1.00  0.00    -0.267 OA
ATOM     24  N   UNL A   1      32.539  26.831  26.015  1.00  0.00    -0.320 N 
ATOM     25  C   UNL A   1      32.107  27.364  24.809  1.00  0.00     0.054 A 
ATOM     26  C   UNL A   1      31.904  26.719  22.489  1.00  0.00     0.013 A 
ATOM     27  H   UNL A   1      32.523  27.323  26.868  1.00  0.00     0.170 HD
ATOM     28  C   UNL A   1      31.609  28.639  24.572  1.00  0.00    -0.024 A 
ATOM     29  C   UNL A   1      31.389  27.988  22.222  1.00  0.00     0.001 A 
ATOM     30  C   UNL A   1      31.241  28.934  23.248  1.00  0.00     0.006 A 
BRANCH  10  31
ATOM     31  C   UNL A   1      32.170  20.307  24.986  1.00  0.00     0.128 C 
BRANCH  31  32
ATOM     32  C   UNL A   1      33.565  19.678  25.114  1.00  0.00     0.022 C 
BRANCH  32  33
ATOM     33  C   UNL A   1      33.928  18.473  24.231  1.00  0.00    -0.002 C 
ATOM     34  C   UNL A   1      32.826  17.961  23.317  1.00  0.00     0.004 C 
ENDBRANCH  32  33
ENDBRANCH  31  32
ENDBRANCH  10  31
BRANCH  28  35
ATOM     35  C   UNL A   1      31.456  29.686  25.642  1.00  0.00     0.034 C 
ATOM     36  C   UNL A   1      32.793  30.089  26.250  1.00  0.00     0.009 C 
ENDBRANCH  28  35
ENDBRANCH   8   9
ENDBRANCH   7   8
ENDBRANCH   4   7
ENDBRANCH   2   3
ENDBRANCH   1   2
BRANCH   1  37
ATOM     37  C   UNL A   1      39.554  21.295  26.314  1.00  0.00     0.002 C 
BRANCH  37  38
ATOM     38  C   UNL A   1      40.923  20.876  26.862  1.00  0.00     0.002 C 
BRANCH  38  39
ATOM     39  C   UNL A   1      41.975  20.509  25.811  1.00  0.00     0.021 C 
BRANCH  39  40
ATOM     40  C   UNL A   1      42.774  19.239  26.094  1.00  0.00     0.116 C 
BRANCH  40  41
ATOM     41  N   UNL A   1      43.667  18.882  25.004  1.00  0.00    -0.352 N 
ATOM     42  C   UNL A   1      44.581  19.641  24.313  1.00  0.00     0.251 C 
ATOM     43  H   UNL A   1      43.607  17.944  24.713  1.00  0.00     0.163 HD
ATOM     44  O   UNL A   1      45.113  19.188  23.303  1.00  0.00    -0.269 OA
BRANCH  42  45
ATOM     45  C   UNL A   1      44.915  21.009  24.763  1.00  0.00     0.039 A 
ATOM     46  C   UNL A   1      45.544  21.230  25.989  1.00  0.00     0.014 A 
ATOM     47  C   UNL A   1      44.619  22.092  23.930  1.00  0.00     0.014 A 
ATOM     48  C   UNL A   1      45.719  22.530  26.456  1.00  0.00     0.010 A 
ATOM     49  C   UNL A   1      44.877  23.397  24.362  1.00  0.00     0.010 A 
ATOM     50  C   UNL A   1      45.383  23.631  25.650  1.00  0.00    -0.014 A 
BRANCH  50  51
ATOM     51  C   UNL A   1      45.571  25.010  26.177  1.00  0.00     0.031 A 
ATOM     52  C   UNL A   1      46.909  25.696  26.086  1.00  0.00     0.074 A 
ATOM     53  C   UNL A   1      44.516  25.669  26.697  1.00  0.00     0.049 A 
ATOM     54  N   UNL A   1      47.243  26.905  26.462  1.00  0.00    -0.248 NA
ATOM     55  C   UNL A   1      48.020  24.926  25.505  1.00  0.00     0.031 C 
ATOM     56  C   UNL A   1      43.172  25.111  26.856  1.00  0.00     0.029 A 
ATOM     57  N   UNL A   1      44.399  26.953  27.170  1.00  0.00    -0.354 N 
ATOM     58  C   UNL A   1      48.598  27.033  26.183  1.00  0.00     0.074 A 
ATOM     59  C   UNL A   1      49.036  25.770  25.630  1.00  0.00     0.031 C 
ATOM     60  C   UNL A   1      42.356  26.060  27.341  1.00  0.00     0.029 A 
ATOM     61  C   UNL A   1      43.129  27.275  27.580  1.00  0.00     0.049 A 
ATOM     62  H   UNL A   1      45.155  27.583  27.211  1.00  0.00     0.167 HD
ATOM     63  C   UNL A   1      49.399  28.111  26.355  1.00  0.00     0.037 A 
ATOM     64  C   UNL A   1      42.639  28.417  28.102  1.00  0.00     0.037 A 
ATOM     65  C   UNL A   1      48.956  29.381  26.868  1.00  0.00     0.049 A 
ATOM     66  C   UNL A   1      43.555  29.592  28.293  1.00  0.00     0.074 A 
ATOM     67  C   UNL A   1      49.687  30.547  27.024  1.00  0.00     0.029 A 
ATOM     68  N   UNL A   1      47.669  29.656  27.303  1.00  0.00    -0.354 N 
ATOM     69  N   UNL A   1      44.824  29.707  27.986  1.00  0.00    -0.248 NA
ATOM     70  C   UNL A   1      42.976  30.794  28.908  1.00  0.00     0.031 C 
ATOM     71  C   UNL A   1      48.854  31.513  27.594  1.00  0.00     0.029 A 
ATOM     72  C   UNL A   1      47.593  30.964  27.750  1.00  0.00     0.049 A 
ATOM     73  H   UNL A   1      46.921  29.016  27.295  1.00  0.00     0.167 HD
ATOM     74  C   UNL A   1      45.191  30.992  28.362  1.00  0.00     0.074 A 
ATOM     75  C   UNL A   1      44.006  31.628  28.896  1.00  0.00     0.031 C 
ATOM     76  C   UNL A   1      46.406  31.586  28.278  1.00  0.00     0.037 A 
BRANCH  63  77
ATOM     77  C   UNL A   1      50.846  27.985  25.982  1.00  0.00     0.064 A 
ATOM     78  C   UNL A   1      51.281  28.167  24.661  1.00  0.00     0.173 A 
ATOM     79  C   UNL A   1      51.820  27.783  26.973  1.00  0.00     0.173 A 
ATOM     80  F   UNL A   1      50.388  28.354  23.677  1.00  0.00    -0.203 F 
ATOM     81  C   UNL A   1      52.637  28.146  24.346  1.00  0.00     0.198 A 
ATOM     82  C   UNL A   1      53.175  27.787  26.658  1.00  0.00     0.198 A 
ATOM     83  F   UNL A   1      51.456  27.612  28.253  1.00  0.00    -0.203 F 
ATOM     84  F   UNL A   1      53.028  28.303  23.074  1.00  0.00    -0.200 F 
ATOM     85  C   UNL A   1      53.584  27.968  25.344  1.00  0.00     0.200 A 
ATOM     86  F   UNL A   1      54.089  27.628  27.625  1.00  0.00    -0.200 F 
ATOM     87  F   UNL A   1      54.888  27.971  25.041  1.00  0.00    -0.200 F 
ENDBRANCH  63  77
BRANCH  64  88
ATOM     88  C   UNL A   1      41.204  28.498  28.476  1.00  0.00     0.064 A 
ATOM     89  C   UNL A   1      40.767  28.107  29.749  1.00  0.00     0.173 A 
ATOM     90  C   UNL A   1      40.243  28.982  27.576  1.00  0.00     0.173 A 
ATOM     91  F   UNL A   1      41.645  27.620  30.638  1.00  0.00    -0.203 F 
ATOM     92  C   UNL A   1      39.421  28.187  30.104  1.00  0.00     0.198 A 
ATOM     93  C   UNL A   1      38.903  29.089  27.940  1.00  0.00     0.198 A 
ATOM     94  F   UNL A   1      40.612  29.372  26.347  1.00  0.00    -0.203 F 
ATOM     95  F   UNL A   1      39.025  27.774  31.315  1.00  0.00    -0.200 F 
ATOM     96  C   UNL A   1      38.493  28.686  29.202  1.00  0.00     0.200 A 
ATOM     97  F   UNL A   1      38.012  29.588  27.073  1.00  0.00    -0.200 F 
ATOM     98  F   UNL A   1      37.202  28.775  29.548  1.00  0.00    -0.200 F 
ENDBRANCH  64  88
BRANCH  76  99
ATOM     99  C   UNL A   1      46.524  32.998  28.769  1.00  0.00     0.064 A 
ATOM    100  C   UNL A   1      46.904  33.280  30.089  1.00  0.00     0.173 A 
ATOM    101  C   UNL A   1      46.334  34.076  27.892  1.00  0.00     0.173 A 
ATOM    102  F   UNL A   1      47.085  32.282  30.967  1.00  0.00    -0.203 F 
ATOM    103  C   UNL A   1      47.080  34.593  30.516  1.00  0.00     0.198 A 
ATOM    104  C   UNL A   1      46.536  35.387  28.316  1.00  0.00     0.198 A 
ATOM    105  F   UNL A   1      45.977  33.857  26.618  1.00  0.00    -0.203 F 
ATOM    106  F   UNL A   1      47.416  34.842  31.789  1.00  0.00    -0.200 F 
ATOM    107  C   UNL A   1      46.906  35.644  29.627  1.00  0.00     0.200 A 
ATOM    108  F   UNL A   1      46.381  36.400  27.452  1.00  0.00    -0.200 F 
ATOM    109  F   UNL A   1      47.093  36.907  30.036  1.00  0.00    -0.200 F 
ENDBRANCH  76  99
ENDBRANCH  50  51
ENDBRANCH  42  45
ENDBRANCH  40  41
ENDBRANCH  39  40
ENDBRANCH  38  39
ENDBRANCH  37  38
ENDBRANCH   1  37
TORSDOF 19
ENDMDL
