MODEL 1
REMARK VINA RESULT:     -12.1      0.000      0.000
REMARK SMILES CSCC[C@@H](C(=O)NCCCCCCNC(=O)c1ccc(-c2c3nc(c(-c4c(F)c(F)c(F)c(F)c4F)c4ccc([nH]4)c(-c4c(F)c(F)c(F)c(F)c4F)c4nc(c(-c5c(F)c(F)c(F)c(F)c5F)c5ccc2[nH]5)C=C4)C=C3)cc1)N1C(=O)/C(=C/c2ccc(-c3ccccc3Cl)o2)SC1=S
REMARK SMILES IDX 11 1 10 2 9 3 8 4 6 5 7 6 5 8 4 9 3 10 2 11 1 12 81 13 82 14
REMARK SMILES IDX 99 15 83 16 84 17 98 18 100 19 85 20 86 21 87 22 97 23 88 24
REMARK SMILES IDX 89 25 90 26 91 27 95 28 92 29 94 30 96 31 93 32 12 33 13 34
REMARK SMILES IDX 14 35 15 36 16 37 17 39 18 40 19 41 80 42 20 43 79 44 21 45
REMARK SMILES IDX 22 46 23 47 73 48 24 49 78 50 72 51 74 52 25 53 77 54 71 55
REMARK SMILES IDX 70 56 26 58 58 59 38 60 57 61 39 62 42 63 56 64 75 65 40 66
REMARK SMILES IDX 41 67 55 69 76 70 43 71 27 72 28 73 36 74 29 75 30 76 34 77
REMARK SMILES IDX 37 78 31 79 32 80 35 81 33 82 59 83 60 84 68 85 61 86 62 87
REMARK SMILES IDX 66 88 69 89 63 90 64 91 67 92 65 93 44 94 45 95 53 96 46 97
REMARK SMILES IDX 47 98 51 99 54 100 48 101 49 102 52 103 50 104
REMARK H PARENT 8 7 15 38 74 57 42 68
REMARK Flexibility Score: inf
ROOT
ATOM      1  C   UNL A   1      37.837  21.203  25.694  1.00  0.00     0.002 C 
ENDROOT
BRANCH   1   2
ATOM      2  C   UNL A   1      37.078  21.858  24.538  1.00  0.00     0.021 C 
BRANCH   2   3
ATOM      3  C   UNL A   1      35.589  21.507  24.542  1.00  0.00     0.116 C 
BRANCH   3   4
ATOM      4  N   UNL A   1      35.145  21.246  25.891  1.00  0.00    -0.354 N 
ATOM      5  C   UNL A   1      33.898  21.262  26.436  1.00  0.00     0.243 C 
ATOM      6  O   UNL A   1      33.837  21.083  27.656  1.00  0.00    -0.273 OA
ATOM      7  H   UNL A   1      35.866  21.018  26.522  1.00  0.00     0.163 HD
BRANCH   5   8
ATOM      8  C   UNL A   1      32.624  21.424  25.556  1.00  0.00     0.182 C 
BRANCH   8   9
ATOM      9  C   UNL A   1      32.536  20.475  24.343  1.00  0.00     0.046 C 
BRANCH   9  10
ATOM     10  C   UNL A   1      32.337  18.973  24.548  1.00  0.00     0.072 C 
BRANCH  10  11
ATOM     11  S   UNL A   1      33.157  17.829  23.380  1.00  0.00    -0.165 SA
ATOM     12  C   UNL A   1      34.625  17.282  24.282  1.00  0.00     0.085 C 
ENDBRANCH  10  11
ENDBRANCH   9  10
ENDBRANCH   8   9
BRANCH   8  13
ATOM     13  N   UNL A   1      32.660  22.864  25.152  1.00  0.00    -0.280 N 
ATOM     14  C   UNL A   1      32.444  23.863  26.095  1.00  0.00     0.267 C 
ATOM     15  C   UNL A   1      32.667  23.283  23.832  1.00  0.00     0.149 C 
ATOM     16  O   UNL A   1      32.297  23.717  27.300  1.00  0.00    -0.268 OA
ATOM     17  C   UNL A   1      32.369  25.194  25.447  1.00  0.00     0.084 C 
ATOM     18  S   UNL A   1      32.442  25.026  23.743  1.00  0.00    -0.054 SA
ATOM     19  S   UNL A   1      32.847  22.351  22.457  1.00  0.00    -0.052 S 
ATOM     20  C   UNL A   1      32.252  26.305  26.185  1.00  0.00     0.068 C 
BRANCH  20  21
ATOM     21  C   UNL A   1      32.029  27.584  25.620  1.00  0.00     0.128 A 
ATOM     22  C   UNL A   1      32.889  28.675  25.603  1.00  0.00     0.051 A 
ATOM     23  O   UNL A   1      30.889  27.936  24.933  1.00  0.00    -0.457 OA
ATOM     24  C   UNL A   1      32.245  29.722  24.913  1.00  0.00     0.051 A 
ATOM     25  C   UNL A   1      31.010  29.238  24.548  1.00  0.00     0.136 A 
BRANCH  25  26
ATOM     26  C   UNL A   1      29.887  29.837  23.843  1.00  0.00     0.036 A 
ATOM     27  C   UNL A   1      29.224  29.063  22.873  1.00  0.00     0.013 A 
ATOM     28  C   UNL A   1      29.493  31.175  24.014  1.00  0.00     0.052 A 
ATOM     29  C   UNL A   1      28.207  29.608  22.085  1.00  0.00     0.001 A 
ATOM     30  C   UNL A   1      28.475  31.718  23.220  1.00  0.00     0.021 A 
ATOM     31  Cl  UNL A   1      30.265  32.239  25.140  1.00  0.00    -0.084 Cl
ATOM     32  C   UNL A   1      27.838  30.939  22.254  1.00  0.00     0.002 A 
ENDBRANCH  25  26
ENDBRANCH  20  21
ENDBRANCH   8  13
ENDBRANCH   5   8
ENDBRANCH   3   4
ENDBRANCH   2   3
ENDBRANCH   1   2
BRANCH   1  33
ATOM     33  C   UNL A   1      39.203  21.839  25.983  1.00  0.00     0.002 C 
BRANCH  33  34
ATOM     34  C   UNL A   1      40.355  20.849  26.180  1.00  0.00     0.021 C 
BRANCH  34  35
ATOM     35  C   UNL A   1      41.635  21.465  26.739  1.00  0.00     0.116 C 
BRANCH  35  36
ATOM     36  N   UNL A   1      42.477  22.007  25.686  1.00  0.00    -0.352 N 
ATOM     37  C   UNL A   1      42.807  23.310  25.415  1.00  0.00     0.251 C 
ATOM     38  H   UNL A   1      42.869  21.340  25.077  1.00  0.00     0.163 HD
ATOM     39  O   UNL A   1      43.344  23.601  24.352  1.00  0.00    -0.269 OA
BRANCH  37  40
ATOM     40  C   UNL A   1      42.510  24.366  26.404  1.00  0.00     0.039 A 
ATOM     41  C   UNL A   1      43.191  25.583  26.317  1.00  0.00     0.014 A 
ATOM     42  C   UNL A   1      41.594  24.143  27.437  1.00  0.00     0.014 A 
ATOM     43  C   UNL A   1      42.927  26.590  27.247  1.00  0.00     0.010 A 
ATOM     44  C   UNL A   1      41.280  25.173  28.318  1.00  0.00     0.010 A 
ATOM     45  C   UNL A   1      41.955  26.401  28.242  1.00  0.00    -0.014 A 
BRANCH  45  46
ATOM     46  C   UNL A   1      41.663  27.457  29.242  1.00  0.00     0.031 A 
ATOM     47  C   UNL A   1      42.522  27.582  30.471  1.00  0.00     0.074 A 
ATOM     48  C   UNL A   1      40.603  28.270  29.068  1.00  0.00     0.049 A 
ATOM     49  N   UNL A   1      42.385  28.378  31.501  1.00  0.00    -0.248 NA
ATOM     50  C   UNL A   1      43.674  26.671  30.567  1.00  0.00     0.031 C 
ATOM     51  C   UNL A   1      39.676  28.221  27.936  1.00  0.00     0.029 A 
ATOM     52  N   UNL A   1      40.118  29.288  29.851  1.00  0.00    -0.354 N 
ATOM     53  C   UNL A   1      43.425  28.059  32.365  1.00  0.00     0.074 A 
ATOM     54  C   UNL A   1      44.149  26.958  31.770  1.00  0.00     0.031 C 
ATOM     55  C   UNL A   1      38.743  29.175  28.091  1.00  0.00     0.029 A 
ATOM     56  C   UNL A   1      38.984  29.877  29.348  1.00  0.00     0.049 A 
ATOM     57  H   UNL A   1      40.545  29.570  30.692  1.00  0.00     0.167 HD
ATOM     58  C   UNL A   1      43.765  28.654  33.533  1.00  0.00     0.037 A 
ATOM     59  C   UNL A   1      38.218  30.863  29.854  1.00  0.00     0.037 A 
ATOM     60  C   UNL A   1      43.055  29.763  34.111  1.00  0.00     0.049 A 
ATOM     61  C   UNL A   1      38.614  31.497  31.162  1.00  0.00     0.074 A 
ATOM     62  C   UNL A   1      43.328  30.449  35.282  1.00  0.00     0.029 A 
ATOM     63  N   UNL A   1      41.931  30.355  33.554  1.00  0.00    -0.354 N 
ATOM     64  N   UNL A   1      39.627  31.218  31.946  1.00  0.00    -0.248 NA
ATOM     65  C   UNL A   1      37.766  32.594  31.651  1.00  0.00     0.031 C 
ATOM     66  C   UNL A   1      42.351  31.434  35.450  1.00  0.00     0.029 A 
ATOM     67  C   UNL A   1      41.499  31.396  34.359  1.00  0.00     0.049 A 
ATOM     68  H   UNL A   1      41.505  30.077  32.712  1.00  0.00     0.167 HD
ATOM     69  C   UNL A   1      39.562  32.127  32.994  1.00  0.00     0.074 A 
ATOM     70  C   UNL A   1      38.418  32.975  32.739  1.00  0.00     0.031 C 
ATOM     71  C   UNL A   1      40.375  32.248  34.072  1.00  0.00     0.037 A 
BRANCH  58  72
ATOM     72  C   UNL A   1      44.972  28.130  34.256  1.00  0.00     0.064 A 
ATOM     73  C   UNL A   1      44.873  27.068  35.168  1.00  0.00     0.173 A 
ATOM     74  C   UNL A   1      46.247  28.654  33.998  1.00  0.00     0.173 A 
ATOM     75  F   UNL A   1      43.674  26.540  35.462  1.00  0.00    -0.203 F 
ATOM     76  C   UNL A   1      46.002  26.564  35.809  1.00  0.00     0.198 A 
ATOM     77  C   UNL A   1      47.378  28.127  34.616  1.00  0.00     0.198 A 
ATOM     78  F   UNL A   1      46.400  29.667  33.131  1.00  0.00    -0.203 F 
ATOM     79  F   UNL A   1      45.876  25.577  36.706  1.00  0.00    -0.200 F 
ATOM     80  C   UNL A   1      47.254  27.087  35.524  1.00  0.00     0.200 A 
ATOM     81  F   UNL A   1      48.590  28.624  34.330  1.00  0.00    -0.200 F 
ATOM     82  F   UNL A   1      48.342  26.591  36.130  1.00  0.00    -0.200 F 
ENDBRANCH  58  72
BRANCH  59  83
ATOM     83  C   UNL A   1      37.008  31.325  29.125  1.00  0.00     0.064 A 
ATOM     84  C   UNL A   1      36.944  32.612  28.571  1.00  0.00     0.173 A 
ATOM     85  C   UNL A   1      35.874  30.507  29.002  1.00  0.00     0.173 A 
ATOM     86  F   UNL A   1      37.994  33.439  28.676  1.00  0.00    -0.203 F 
ATOM     87  C   UNL A   1      35.782  33.077  27.958  1.00  0.00     0.198 A 
ATOM     88  C   UNL A   1      34.724  30.962  28.360  1.00  0.00     0.198 A 
ATOM     89  F   UNL A   1      35.883  29.266  29.507  1.00  0.00    -0.203 F 
ATOM     90  F   UNL A   1      35.727  34.334  27.498  1.00  0.00    -0.200 F 
ATOM     91  C   UNL A   1      34.674  32.251  27.852  1.00  0.00     0.200 A 
ATOM     92  F   UNL A   1      33.661  30.154  28.244  1.00  0.00    -0.200 F 
ATOM     93  F   UNL A   1      33.554  32.700  27.269  1.00  0.00    -0.200 F 
ENDBRANCH  59  83
BRANCH  71  94
ATOM     94  C   UNL A   1      40.096  33.377  35.022  1.00  0.00     0.064 A 
ATOM     95  C   UNL A   1      39.336  33.196  36.186  1.00  0.00     0.173 A 
ATOM     96  C   UNL A   1      40.634  34.650  34.779  1.00  0.00     0.173 A 
ATOM     97  F   UNL A   1      38.790  32.000  36.456  1.00  0.00    -0.203 F 
ATOM     98  C   UNL A   1      39.096  34.256  37.055  1.00  0.00     0.198 A 
ATOM     99  C   UNL A   1      40.420  35.700  35.668  1.00  0.00     0.198 A 
ATOM    100  F   UNL A   1      41.376  34.874  33.684  1.00  0.00    -0.203 F 
ATOM    101  F   UNL A   1      38.322  34.073  38.134  1.00  0.00    -0.200 F 
ATOM    102  C   UNL A   1      39.644  35.504  36.800  1.00  0.00     0.200 A 
ATOM    103  F   UNL A   1      40.964  36.901  35.427  1.00  0.00    -0.200 F 
ATOM    104  F   UNL A   1      39.419  36.522  37.643  1.00  0.00    -0.200 F 
ENDBRANCH  71  94
ENDBRANCH  45  46
ENDBRANCH  37  40
ENDBRANCH  35  36
ENDBRANCH  34  35
ENDBRANCH  33  34
ENDBRANCH   1  33
TORSDOF 19
ENDMDL
MODEL 2
REMARK VINA RESULT:     -12.0      4.361      8.275
REMARK SMILES CSCC[C@@H](C(=O)NCCCCCCNC(=O)c1ccc(-c2c3nc(c(-c4c(F)c(F)c(F)c(F)c4F)c4ccc([nH]4)c(-c4c(F)c(F)c(F)c(F)c4F)c4nc(c(-c5c(F)c(F)c(F)c(F)c5F)c5ccc2[nH]5)C=C4)C=C3)cc1)N1C(=O)/C(=C/c2ccc(-c3ccccc3Cl)o2)SC1=S
REMARK SMILES IDX 11 1 10 2 9 3 8 4 6 5 7 6 5 8 4 9 3 10 2 11 1 12 81 13 82 14
REMARK SMILES IDX 99 15 83 16 84 17 98 18 100 19 85 20 86 21 87 22 97 23 88 24
REMARK SMILES IDX 89 25 90 26 91 27 95 28 92 29 94 30 96 31 93 32 12 33 13 34
REMARK SMILES IDX 14 35 15 36 16 37 17 39 18 40 19 41 80 42 20 43 79 44 21 45
REMARK SMILES IDX 22 46 23 47 73 48 24 49 78 50 72 51 74 52 25 53 77 54 71 55
REMARK SMILES IDX 70 56 26 58 58 59 38 60 57 61 39 62 42 63 56 64 75 65 40 66
REMARK SMILES IDX 41 67 55 69 76 70 43 71 27 72 28 73 36 74 29 75 30 76 34 77
REMARK SMILES IDX 37 78 31 79 32 80 35 81 33 82 59 83 60 84 68 85 61 86 62 87
REMARK SMILES IDX 66 88 69 89 63 90 64 91 67 92 65 93 44 94 45 95 53 96 46 97
REMARK SMILES IDX 47 98 51 99 54 100 48 101 49 102 52 103 50 104
REMARK H PARENT 8 7 15 38 74 57 42 68
REMARK Flexibility Score: inf
ROOT
ATOM      1  C   UNL A   1      37.052  20.982  24.681  1.00  0.00     0.002 C 
ENDROOT
BRANCH   1   2
ATOM      2  C   UNL A   1      36.651  22.305  24.026  1.00  0.00     0.021 C 
BRANCH   2   3
ATOM      3  C   UNL A   1      35.584  23.056  24.825  1.00  0.00     0.116 C 
BRANCH   3   4
ATOM      4  N   UNL A   1      35.165  22.263  25.957  1.00  0.00    -0.354 N 
ATOM      5  C   UNL A   1      33.930  21.826  26.327  1.00  0.00     0.243 C 
ATOM      6  O   UNL A   1      33.867  21.234  27.409  1.00  0.00    -0.273 OA
ATOM      7  H   UNL A   1      35.894  21.994  26.561  1.00  0.00     0.163 HD
BRANCH   5   8
ATOM      8  C   UNL A   1      32.689  22.002  25.404  1.00  0.00     0.182 C 
BRANCH   8   9
ATOM      9  C   UNL A   1      32.711  21.168  24.105  1.00  0.00     0.046 C 
BRANCH   9  10
ATOM     10  C   UNL A   1      32.488  19.657  24.153  1.00  0.00     0.072 C 
BRANCH  10  11
ATOM     11  S   UNL A   1      33.928  18.586  24.505  1.00  0.00    -0.165 SA
ATOM     12  C   UNL A   1      33.351  16.934  24.052  1.00  0.00     0.085 C 
ENDBRANCH  10  11
ENDBRANCH   9  10
ENDBRANCH   8   9
BRANCH   8  13
ATOM     13  N   UNL A   1      32.660  23.474  25.136  1.00  0.00    -0.280 N 
ATOM     14  C   UNL A   1      32.268  24.360  26.133  1.00  0.00     0.267 C 
ATOM     15  C   UNL A   1      32.778  24.018  23.868  1.00  0.00     0.149 C 
ATOM     16  O   UNL A   1      32.003  24.088  27.295  1.00  0.00    -0.268 OA
ATOM     17  C   UNL A   1      32.163  25.739  25.601  1.00  0.00     0.084 C 
ATOM     18  S   UNL A   1      32.431  25.742  23.908  1.00  0.00    -0.054 SA
ATOM     19  S   UNL A   1      33.175  23.237  22.445  1.00  0.00    -0.052 S 
ATOM     20  C   UNL A   1      31.882  26.764  26.417  1.00  0.00     0.068 C 
BRANCH  20  21
ATOM     21  C   UNL A   1      31.625  28.075  25.946  1.00  0.00     0.128 A 
ATOM     22  C   UNL A   1      32.203  29.266  26.368  1.00  0.00     0.051 A 
ATOM     23  O   UNL A   1      30.755  28.368  24.921  1.00  0.00    -0.457 OA
ATOM     24  C   UNL A   1      31.650  30.310  25.600  1.00  0.00     0.051 A 
ATOM     25  C   UNL A   1      30.744  29.721  24.747  1.00  0.00     0.136 A 
BRANCH  25  26
ATOM     26  C   UNL A   1      29.847  30.261  23.738  1.00  0.00     0.036 A 
ATOM     27  C   UNL A   1      29.114  31.420  24.054  1.00  0.00     0.013 A 
ATOM     28  C   UNL A   1      29.606  29.634  22.504  1.00  0.00     0.052 A 
ATOM     29  C   UNL A   1      28.157  31.932  23.174  1.00  0.00     0.001 A 
ATOM     30  C   UNL A   1      28.644  30.149  21.625  1.00  0.00     0.021 A 
ATOM     31  Cl  UNL A   1      30.409  28.177  22.024  1.00  0.00    -0.084 Cl
ATOM     32  C   UNL A   1      27.918  31.291  21.962  1.00  0.00     0.002 A 
ENDBRANCH  25  26
ENDBRANCH  20  21
ENDBRANCH   8  13
ENDBRANCH   5   8
ENDBRANCH   3   4
ENDBRANCH   2   3
ENDBRANCH   1   2
BRANCH   1  33
ATOM     33  C   UNL A   1      38.436  21.007  25.343  1.00  0.00     0.002 C 
BRANCH  33  34
ATOM     34  C   UNL A   1      39.166  19.661  25.380  1.00  0.00     0.021 C 
BRANCH  34  35
ATOM     35  C   UNL A   1      40.194  19.525  26.500  1.00  0.00     0.116 C 
BRANCH  35  36
ATOM     36  N   UNL A   1      41.369  18.789  26.066  1.00  0.00    -0.352 N 
ATOM     37  C   UNL A   1      42.623  19.247  25.757  1.00  0.00     0.251 C 
ATOM     38  H   UNL A   1      41.246  17.815  25.983  1.00  0.00     0.163 HD
ATOM     39  O   UNL A   1      43.426  18.513  25.192  1.00  0.00    -0.269 OA
BRANCH  37  40
ATOM     40  C   UNL A   1      43.007  20.632  26.101  1.00  0.00     0.039 A 
ATOM     41  C   UNL A   1      42.828  21.076  27.413  1.00  0.00     0.014 A 
ATOM     42  C   UNL A   1      43.504  21.501  25.125  1.00  0.00     0.014 A 
ATOM     43  C   UNL A   1      43.180  22.382  27.755  1.00  0.00     0.010 A 
ATOM     44  C   UNL A   1      43.922  22.778  25.483  1.00  0.00     0.010 A 
ATOM     45  C   UNL A   1      43.748  23.237  26.797  1.00  0.00    -0.014 A 
BRANCH  45  46
ATOM     46  C   UNL A   1      44.126  24.631  27.139  1.00  0.00     0.031 A 
ATOM     47  C   UNL A   1      43.076  25.592  27.629  1.00  0.00     0.074 A 
ATOM     48  C   UNL A   1      45.396  25.043  26.966  1.00  0.00     0.049 A 
ATOM     49  N   UNL A   1      43.181  26.869  27.898  1.00  0.00    -0.248 NA
ATOM     50  C   UNL A   1      41.720  25.050  27.815  1.00  0.00     0.031 C 
ATOM     51  C   UNL A   1      46.493  24.215  26.462  1.00  0.00     0.029 A 
ATOM     52  N   UNL A   1      45.977  26.268  27.180  1.00  0.00    -0.354 N 
ATOM     53  C   UNL A   1      41.909  27.280  28.278  1.00  0.00     0.074 A 
ATOM     54  C   UNL A   1      41.036  26.135  28.145  1.00  0.00     0.031 C 
ATOM     55  C   UNL A   1      47.616  24.951  26.420  1.00  0.00     0.029 A 
ATOM     56  C   UNL A   1      47.311  26.310  26.857  1.00  0.00     0.049 A 
ATOM     57  H   UNL A   1      45.483  27.043  27.534  1.00  0.00     0.167 HD
ATOM     58  C   UNL A   1      41.514  28.494  28.727  1.00  0.00     0.037 A 
ATOM     59  C   UNL A   1      48.184  27.335  26.896  1.00  0.00     0.037 A 
ATOM     60  C   UNL A   1      42.391  29.624  28.878  1.00  0.00     0.049 A 
ATOM     61  C   UNL A   1      47.712  28.678  27.390  1.00  0.00     0.074 A 
ATOM     62  C   UNL A   1      42.093  30.894  29.342  1.00  0.00     0.029 A 
ATOM     63  N   UNL A   1      43.744  29.617  28.574  1.00  0.00    -0.354 N 
ATOM     64  N   UNL A   1      46.518  29.042  27.790  1.00  0.00    -0.248 NA
ATOM     65  C   UNL A   1      48.713  29.753  27.449  1.00  0.00     0.031 C 
ATOM     66  C   UNL A   1      43.257  31.664  29.287  1.00  0.00     0.029 A 
ATOM     67  C   UNL A   1      44.293  30.861  28.838  1.00  0.00     0.049 A 
ATOM     68  H   UNL A   1      44.240  28.843  28.223  1.00  0.00     0.167 HD
ATOM     69  C   UNL A   1      46.634  30.368  28.185  1.00  0.00     0.074 A 
ATOM     70  C   UNL A   1      48.018  30.742  27.989  1.00  0.00     0.031 C 
ATOM     71  C   UNL A   1      45.680  31.203  28.665  1.00  0.00     0.037 A 
BRANCH  58  72
ATOM     72  C   UNL A   1      40.072  28.660  29.110  1.00  0.00     0.064 A 
ATOM     73  C   UNL A   1      39.633  28.423  30.422  1.00  0.00     0.173 A 
ATOM     74  C   UNL A   1      39.129  29.112  28.176  1.00  0.00     0.173 A 
ATOM     75  F   UNL A   1      40.492  27.975  31.351  1.00  0.00    -0.203 F 
ATOM     76  C   UNL A   1      38.300  28.613  30.778  1.00  0.00     0.198 A 
ATOM     77  C   UNL A   1      37.804  29.332  28.543  1.00  0.00     0.198 A 
ATOM     78  F   UNL A   1      39.495  29.359  26.909  1.00  0.00    -0.203 F 
ATOM     79  F   UNL A   1      37.897  28.340  32.027  1.00  0.00    -0.200 F 
ATOM     80  C   UNL A   1      37.389  29.077  29.841  1.00  0.00     0.200 A 
ATOM     81  F   UNL A   1      36.927  29.794  27.640  1.00  0.00    -0.200 F 
ATOM     82  F   UNL A   1      36.110  29.275  30.190  1.00  0.00    -0.200 F 
ENDBRANCH  58  72
BRANCH  59  83
ATOM     83  C   UNL A   1      49.595  27.139  26.471  1.00  0.00     0.064 A 
ATOM     84  C   UNL A   1      50.594  26.817  27.402  1.00  0.00     0.173 A 
ATOM     85  C   UNL A   1      49.983  27.309  25.133  1.00  0.00     0.173 A 
ATOM     86  F   UNL A   1      50.277  26.661  28.695  1.00  0.00    -0.203 F 
ATOM     87  C   UNL A   1      51.929  26.712  27.019  1.00  0.00     0.198 A 
ATOM     88  C   UNL A   1      51.315  27.171  24.746  1.00  0.00     0.198 A 
ATOM     89  F   UNL A   1      49.068  27.610  24.201  1.00  0.00    -0.203 F 
ATOM     90  F   UNL A   1      52.870  26.471  27.942  1.00  0.00    -0.200 F 
ATOM     91  C   UNL A   1      52.288  26.888  25.692  1.00  0.00     0.200 A 
ATOM     92  F   UNL A   1      51.655  27.324  23.459  1.00  0.00    -0.200 F 
ATOM     93  F   UNL A   1      53.574  26.794  25.325  1.00  0.00    -0.200 F 
ENDBRANCH  59  83
BRANCH  71  94
ATOM     94  C   UNL A   1      46.114  32.582  29.074  1.00  0.00     0.064 A 
ATOM     95  C   UNL A   1      46.616  32.852  30.355  1.00  0.00     0.173 A 
ATOM     96  C   UNL A   1      46.059  33.639  28.152  1.00  0.00     0.173 A 
ATOM     97  F   UNL A   1      46.676  31.878  31.275  1.00  0.00    -0.203 F 
ATOM     98  C   UNL A   1      47.017  34.137  30.709  1.00  0.00     0.198 A 
ATOM     99  C   UNL A   1      46.493  34.915  28.499  1.00  0.00     0.198 A 
ATOM    100  F   UNL A   1      45.595  33.431  26.910  1.00  0.00    -0.203 F 
ATOM    101  F   UNL A   1      47.444  34.383  31.955  1.00  0.00    -0.200 F 
ATOM    102  C   UNL A   1      46.964  35.164  29.779  1.00  0.00     0.200 A 
ATOM    103  F   UNL A   1      46.454  35.903  27.595  1.00  0.00    -0.200 F 
ATOM    104  F   UNL A   1      47.358  36.400  30.120  1.00  0.00    -0.200 F 
ENDBRANCH  71  94
ENDBRANCH  45  46
ENDBRANCH  37  40
ENDBRANCH  35  36
ENDBRANCH  34  35
ENDBRANCH  33  34
ENDBRANCH   1  33
TORSDOF 19
ENDMDL
MODEL 3
REMARK VINA RESULT:     -11.8      4.290      6.008
REMARK SMILES CSCC[C@@H](C(=O)NCCCCCCNC(=O)c1ccc(-c2c3nc(c(-c4c(F)c(F)c(F)c(F)c4F)c4ccc([nH]4)c(-c4c(F)c(F)c(F)c(F)c4F)c4nc(c(-c5c(F)c(F)c(F)c(F)c5F)c5ccc2[nH]5)C=C4)C=C3)cc1)N1C(=O)/C(=C/c2ccc(-c3ccccc3Cl)o2)SC1=S
REMARK SMILES IDX 11 1 10 2 9 3 8 4 6 5 7 6 5 8 4 9 3 10 2 11 1 12 81 13 82 14
REMARK SMILES IDX 99 15 83 16 84 17 98 18 100 19 85 20 86 21 87 22 97 23 88 24
REMARK SMILES IDX 89 25 90 26 91 27 95 28 92 29 94 30 96 31 93 32 12 33 13 34
REMARK SMILES IDX 14 35 15 36 16 37 17 39 18 40 19 41 80 42 20 43 79 44 21 45
REMARK SMILES IDX 22 46 23 47 73 48 24 49 78 50 72 51 74 52 25 53 77 54 71 55
REMARK SMILES IDX 70 56 26 58 58 59 38 60 57 61 39 62 42 63 56 64 75 65 40 66
REMARK SMILES IDX 41 67 55 69 76 70 43 71 27 72 28 73 36 74 29 75 30 76 34 77
REMARK SMILES IDX 37 78 31 79 32 80 35 81 33 82 59 83 60 84 68 85 61 86 62 87
REMARK SMILES IDX 66 88 69 89 63 90 64 91 67 92 65 93 44 94 45 95 53 96 46 97
REMARK SMILES IDX 47 98 51 99 54 100 48 101 49 102 52 103 50 104
REMARK H PARENT 8 7 15 38 74 57 42 68
REMARK Flexibility Score: inf
ROOT
ATOM      1  C   UNL A   1      37.250  21.048  24.929  1.00  0.00     0.002 C 
ENDROOT
BRANCH   1   2
ATOM      2  C   UNL A   1      36.890  22.364  24.236  1.00  0.00     0.021 C 
BRANCH   2   3
ATOM      3  C   UNL A   1      35.647  23.022  24.836  1.00  0.00     0.116 C 
BRANCH   3   4
ATOM      4  N   UNL A   1      35.134  22.216  25.919  1.00  0.00    -0.354 N 
ATOM      5  C   UNL A   1      33.871  21.789  26.188  1.00  0.00     0.243 C 
ATOM      6  O   UNL A   1      33.720  21.180  27.252  1.00  0.00    -0.273 OA
ATOM      7  H   UNL A   1      35.813  21.928  26.571  1.00  0.00     0.163 HD
BRANCH   5   8
ATOM      8  C   UNL A   1      32.705  21.995  25.178  1.00  0.00     0.182 C 
BRANCH   8   9
ATOM      9  C   UNL A   1      32.837  21.216  23.852  1.00  0.00     0.046 C 
BRANCH   9  10
ATOM     10  C   UNL A   1      32.376  19.761  23.760  1.00  0.00     0.072 C 
BRANCH  10  11
ATOM     11  S   UNL A   1      33.544  18.454  24.283  1.00  0.00    -0.165 SA
ATOM     12  C   UNL A   1      32.756  17.740  25.745  1.00  0.00     0.085 C 
ENDBRANCH  10  11
ENDBRANCH   9  10
ENDBRANCH   8   9
BRANCH   8  13
ATOM     13  N   UNL A   1      32.683  23.476  24.969  1.00  0.00    -0.280 N 
ATOM     14  C   UNL A   1      32.259  24.322  25.988  1.00  0.00     0.267 C 
ATOM     15  C   UNL A   1      32.839  24.071  23.729  1.00  0.00     0.149 C 
ATOM     16  O   UNL A   1      31.958  24.003  27.130  1.00  0.00    -0.268 OA
ATOM     17  C   UNL A   1      32.169  25.721  25.509  1.00  0.00     0.084 C 
ATOM     18  S   UNL A   1      32.490  25.793  23.828  1.00  0.00    -0.054 SA
ATOM     19  S   UNL A   1      33.282  23.348  22.288  1.00  0.00    -0.052 S 
ATOM     20  C   UNL A   1      31.862  26.712  26.357  1.00  0.00     0.068 C 
BRANCH  20  21
ATOM     21  C   UNL A   1      31.619  28.041  25.931  1.00  0.00     0.128 A 
ATOM     22  C   UNL A   1      32.253  29.204  26.350  1.00  0.00     0.051 A 
ATOM     23  O   UNL A   1      30.704  28.384  24.963  1.00  0.00    -0.457 OA
ATOM     24  C   UNL A   1      31.691  30.283  25.637  1.00  0.00     0.051 A 
ATOM     25  C   UNL A   1      30.723  29.740  24.822  1.00  0.00     0.136 A 
BRANCH  25  26
ATOM     26  C   UNL A   1      29.790  30.331  23.875  1.00  0.00     0.036 A 
ATOM     27  C   UNL A   1      29.527  31.710  23.975  1.00  0.00     0.013 A 
ATOM     28  C   UNL A   1      29.068  29.580  22.932  1.00  0.00     0.052 A 
ATOM     29  C   UNL A   1      28.564  32.322  23.169  1.00  0.00     0.001 A 
ATOM     30  C   UNL A   1      28.101  30.197  22.128  1.00  0.00     0.021 A 
ATOM     31  Cl  UNL A   1      29.266  27.870  22.750  1.00  0.00    -0.084 Cl
ATOM     32  C   UNL A   1      27.846  31.563  22.250  1.00  0.00     0.002 A 
ENDBRANCH  25  26
ENDBRANCH  20  21
ENDBRANCH   8  13
ENDBRANCH   5   8
ENDBRANCH   3   4
ENDBRANCH   2   3
ENDBRANCH   1   2
BRANCH   1  33
ATOM     33  C   UNL A   1      38.700  20.981  25.427  1.00  0.00     0.002 C 
BRANCH  33  34
ATOM     34  C   UNL A   1      39.333  19.586  25.407  1.00  0.00     0.021 C 
BRANCH  34  35
ATOM     35  C   UNL A   1      40.274  19.298  26.573  1.00  0.00     0.116 C 
BRANCH  35  36
ATOM     36  N   UNL A   1      41.513  18.683  26.126  1.00  0.00    -0.352 N 
ATOM     37  C   UNL A   1      42.699  19.268  25.767  1.00  0.00     0.251 C 
ATOM     38  H   UNL A   1      41.498  17.700  26.075  1.00  0.00     0.163 HD
ATOM     39  O   UNL A   1      43.564  18.610  25.200  1.00  0.00    -0.269 OA
BRANCH  37  40
ATOM     40  C   UNL A   1      42.934  20.697  26.060  1.00  0.00     0.039 A 
ATOM     41  C   UNL A   1      43.044  21.595  24.996  1.00  0.00     0.014 A 
ATOM     42  C   UNL A   1      43.087  21.142  27.376  1.00  0.00     0.014 A 
ATOM     43  C   UNL A   1      43.272  22.948  25.254  1.00  0.00     0.010 A 
ATOM     44  C   UNL A   1      43.241  22.500  27.634  1.00  0.00     0.010 A 
ATOM     45  C   UNL A   1      43.352  23.414  26.575  1.00  0.00    -0.014 A 
BRANCH  45  46
ATOM     46  C   UNL A   1      43.598  24.847  26.871  1.00  0.00     0.031 A 
ATOM     47  C   UNL A   1      44.959  25.439  26.625  1.00  0.00     0.074 A 
ATOM     48  C   UNL A   1      42.615  25.601  27.401  1.00  0.00     0.049 A 
ATOM     49  N   UNL A   1      45.402  26.641  26.894  1.00  0.00    -0.248 NA
ATOM     50  C   UNL A   1      45.965  24.552  26.018  1.00  0.00     0.031 C 
ATOM     51  C   UNL A   1      41.266  25.130  27.720  1.00  0.00     0.029 A 
ATOM     52  N   UNL A   1      42.604  26.919  27.781  1.00  0.00    -0.354 N 
ATOM     53  C   UNL A   1      46.733  26.651  26.497  1.00  0.00     0.074 A 
ATOM     54  C   UNL A   1      47.045  25.319  26.026  1.00  0.00     0.031 C 
ATOM     55  C   UNL A   1      40.555  26.147  28.232  1.00  0.00     0.029 A 
ATOM     56  C   UNL A   1      41.407  27.330  28.314  1.00  0.00     0.049 A 
ATOM     57  H   UNL A   1      43.381  27.516  27.678  1.00  0.00     0.167 HD
ATOM     58  C   UNL A   1      47.607  27.685  26.496  1.00  0.00     0.037 A 
ATOM     59  C   UNL A   1      41.045  28.523  28.823  1.00  0.00     0.037 A 
ATOM     60  C   UNL A   1      47.286  29.013  26.946  1.00  0.00     0.049 A 
ATOM     61  C   UNL A   1      42.042  29.652  28.819  1.00  0.00     0.074 A 
ATOM     62  C   UNL A   1      48.095  30.136  26.969  1.00  0.00     0.029 A 
ATOM     63  N   UNL A   1      46.051  29.398  27.445  1.00  0.00    -0.354 N 
ATOM     64  N   UNL A   1      43.283  29.661  28.397  1.00  0.00    -0.248 NA
ATOM     65  C   UNL A   1      41.584  30.944  29.351  1.00  0.00     0.031 C 
ATOM     66  C   UNL A   1      47.360  31.193  27.513  1.00  0.00     0.029 A 
ATOM     67  C   UNL A   1      46.078  30.742  27.782  1.00  0.00     0.049 A 
ATOM     68  H   UNL A   1      45.272  28.805  27.546  1.00  0.00     0.167 HD
ATOM     69  C   UNL A   1      43.738  30.961  28.575  1.00  0.00     0.074 A 
ATOM     70  C   UNL A   1      42.636  31.717  29.129  1.00  0.00     0.031 C 
ATOM     71  C   UNL A   1      44.960  31.483  28.304  1.00  0.00     0.037 A 
BRANCH  58  72
ATOM     72  C   UNL A   1      48.990  27.428  25.971  1.00  0.00     0.064 A 
ATOM     73  C   UNL A   1      50.048  27.100  26.833  1.00  0.00     0.173 A 
ATOM     74  C   UNL A   1      49.252  27.455  24.594  1.00  0.00     0.173 A 
ATOM     75  F   UNL A   1      49.854  27.075  28.161  1.00  0.00    -0.203 F 
ATOM     76  C   UNL A   1      51.320  26.829  26.337  1.00  0.00     0.198 A 
ATOM     77  C   UNL A   1      50.518  27.152  24.099  1.00  0.00     0.198 A 
ATOM     78  F   UNL A   1      48.276  27.759  23.725  1.00  0.00    -0.203 F 
ATOM     79  F   UNL A   1      52.323  26.558  27.184  1.00  0.00    -0.200 F 
ATOM     80  C   UNL A   1      51.552  26.845  24.970  1.00  0.00     0.200 A 
ATOM     81  F   UNL A   1      50.738  27.155  22.776  1.00  0.00    -0.200 F 
ATOM     82  F   UNL A   1      52.773  26.568  24.493  1.00  0.00    -0.200 F 
ENDBRANCH  58  72
BRANCH  59  83
ATOM     83  C   UNL A   1      39.676  28.724  29.368  1.00  0.00     0.064 A 
ATOM     84  C   UNL A   1      38.646  29.239  28.568  1.00  0.00     0.173 A 
ATOM     85  C   UNL A   1      39.379  28.446  30.712  1.00  0.00     0.173 A 
ATOM     86  F   UNL A   1      38.883  29.537  27.283  1.00  0.00    -0.203 F 
ATOM     87  C   UNL A   1      37.385  29.505  29.098  1.00  0.00     0.198 A 
ATOM     88  C   UNL A   1      38.108  28.681  31.232  1.00  0.00     0.198 A 
ATOM     89  F   UNL A   1      40.325  27.946  31.519  1.00  0.00    -0.203 F 
ATOM     90  F   UNL A   1      36.440  30.059  28.327  1.00  0.00    -0.200 F 
ATOM     91  C   UNL A   1      37.117  29.224  30.429  1.00  0.00     0.200 A 
ATOM     92  F   UNL A   1      37.848  28.392  32.515  1.00  0.00    -0.200 F 
ATOM     93  F   UNL A   1      35.906  29.486  30.940  1.00  0.00    -0.200 F 
ENDBRANCH  59  83
BRANCH  71  94
ATOM     94  C   UNL A   1      45.149  32.954  28.543  1.00  0.00     0.064 A 
ATOM     95  C   UNL A   1      45.702  33.446  29.733  1.00  0.00     0.173 A 
ATOM     96  C   UNL A   1      44.806  33.878  27.544  1.00  0.00     0.173 A 
ATOM     97  F   UNL A   1      46.034  32.604  30.723  1.00  0.00    -0.203 F 
ATOM     98  C   UNL A   1      45.874  34.814  29.928  1.00  0.00     0.198 A 
ATOM     99  C   UNL A   1      45.010  35.242  27.729  1.00  0.00     0.198 A 
ATOM    100  F   UNL A   1      44.282  33.457  26.383  1.00  0.00    -0.203 F 
ATOM    101  F   UNL A   1      46.354  35.266  31.095  1.00  0.00    -0.200 F 
ATOM    102  C   UNL A   1      45.536  35.709  28.925  1.00  0.00     0.200 A 
ATOM    103  F   UNL A   1      44.697  36.104  26.752  1.00  0.00    -0.200 F 
ATOM    104  F   UNL A   1      45.710  37.025  29.112  1.00  0.00    -0.200 F 
ENDBRANCH  71  94
ENDBRANCH  45  46
ENDBRANCH  37  40
ENDBRANCH  35  36
ENDBRANCH  34  35
ENDBRANCH  33  34
ENDBRANCH   1  33
TORSDOF 19
ENDMDL
