MODEL 1
REMARK VINA RESULT:     -13.4      0.000      0.000
REMARK SMILES O=C(NCCCCCCNC(=O)c1nnn(-c2ccc(C(F)(F)F)cc2)c1-c1cccc(Cl)c1)c1ccc(-c2c3nc(c(-c4c(F)c(F)c(F)c(F)c4F)c4ccc([nH]4)c(-c4c(F)c(F)c(F)c(F)c4F)c4nc(c(-c5c(F)c(F)c(F)c(F)c5F)c5ccc2[nH]5)C=C4)C=C3)cc1
REMARK SMILES IDX 6 1 5 2 4 3 3 4 1 5 2 6 35 8 36 9 97 10 37 11 96 12 38 13
REMARK SMILES IDX 39 14 40 15 90 16 41 17 95 18 89 19 91 20 42 21 94 22 88 23
REMARK SMILES IDX 87 24 43 26 75 27 55 28 74 29 56 30 59 31 73 32 92 33 57 34
REMARK SMILES IDX 58 35 72 37 93 38 60 39 44 40 45 41 53 42 46 43 47 44 51 45
REMARK SMILES IDX 54 46 48 47 49 48 52 49 50 50 76 51 77 52 85 53 78 54 79 55
REMARK SMILES IDX 83 56 86 57 80 58 81 59 84 60 82 61 61 62 62 63 70 64 63 65
REMARK SMILES IDX 64 66 68 67 71 68 65 69 66 70 69 71 67 72 7 73 8 74 9 75
REMARK SMILES IDX 10 76 11 77 12 79 13 80 14 81 27 82 15 83 16 84 28 85 29 86
REMARK SMILES IDX 34 87 30 88 32 89 31 90 33 91 17 92 18 93 26 94 19 95 25 96
REMARK SMILES IDX 20 97 21 98 22 99 23 100 24 101
REMARK H PARENT 3 7 91 25 59 36 10 78
REMARK Flexibility Score: inf
ROOT
ATOM      1  C   UNL A   1      38.374  23.167  26.114  1.00  0.00     0.002 C 
ENDROOT
BRANCH   1   2
ATOM      2  C   UNL A   1      38.760  21.708  25.846  1.00  0.00     0.021 C 
BRANCH   2   3
ATOM      3  C   UNL A   1      40.104  21.276  26.436  1.00  0.00     0.116 C 
BRANCH   3   4
ATOM      4  N   UNL A   1      41.253  21.630  25.633  1.00  0.00    -0.352 N 
ATOM      5  O   UNL A   1      43.066  22.616  24.836  1.00  0.00    -0.269 OA
ATOM      6  C   UNL A   1      42.101  22.699  25.599  1.00  0.00     0.251 C 
ATOM      7  H   UNL A   1      41.472  20.947  24.958  1.00  0.00     0.163 HD
BRANCH   6   8
ATOM      8  C   UNL A   1      41.891  23.961  26.353  1.00  0.00     0.039 A 
ATOM      9  C   UNL A   1      41.314  25.127  25.845  1.00  0.00     0.014 A 
ATOM     10  C   UNL A   1      42.355  23.960  27.680  1.00  0.00     0.014 A 
ATOM     11  C   UNL A   1      41.310  26.298  26.591  1.00  0.00     0.010 A 
ATOM     12  C   UNL A   1      42.322  25.115  28.444  1.00  0.00     0.010 A 
ATOM     13  C   UNL A   1      41.847  26.296  27.875  1.00  0.00    -0.014 A 
BRANCH  13  14
ATOM     14  C   UNL A   1      41.833  27.543  28.628  1.00  0.00     0.031 A 
ATOM     15  C   UNL A   1      42.954  28.496  28.354  1.00  0.00     0.074 A 
ATOM     16  C   UNL A   1      40.770  27.880  29.384  1.00  0.00     0.049 A 
ATOM     17  N   UNL A   1      43.703  29.143  29.193  1.00  0.00    -0.248 NA
ATOM     18  C   UNL A   1      43.312  28.721  26.943  1.00  0.00     0.031 C 
ATOM     19  C   UNL A   1      39.491  27.170  29.499  1.00  0.00     0.029 A 
ATOM     20  N   UNL A   1      40.560  29.015  30.104  1.00  0.00    -0.354 N 
ATOM     21  C   UNL A   1      44.523  29.969  28.420  1.00  0.00     0.074 A 
ATOM     22  C   UNL A   1      44.309  29.598  27.046  1.00  0.00     0.031 C 
ATOM     23  C   UNL A   1      38.573  28.001  30.036  1.00  0.00     0.029 A 
ATOM     24  C   UNL A   1      39.227  29.243  30.407  1.00  0.00     0.049 A 
ATOM     25  H   UNL A   1      41.287  29.616  30.386  1.00  0.00     0.167 HD
ATOM     26  C   UNL A   1      45.195  31.034  28.937  1.00  0.00     0.037 A 
ATOM     27  C   UNL A   1      38.687  30.412  30.826  1.00  0.00     0.037 A 
ATOM     28  C   UNL A   1      45.387  30.922  30.354  1.00  0.00     0.049 A 
ATOM     29  C   UNL A   1      39.787  31.263  31.341  1.00  0.00     0.074 A 
ATOM     30  C   UNL A   1      46.057  30.039  31.177  1.00  0.00     0.029 A 
ATOM     31  N   UNL A   1      44.595  31.664  31.192  1.00  0.00    -0.354 N 
ATOM     32  N   UNL A   1      40.472  31.003  32.422  1.00  0.00    -0.248 NA
ATOM     33  C   UNL A   1      40.415  32.193  30.414  1.00  0.00     0.031 C 
ATOM     34  C   UNL A   1      45.260  29.955  32.357  1.00  0.00     0.029 A 
ATOM     35  C   UNL A   1      44.174  30.812  32.180  1.00  0.00     0.049 A 
ATOM     36  H   UNL A   1      44.371  32.619  31.102  1.00  0.00     0.167 HD
ATOM     37  C   UNL A   1      41.766  31.406  32.127  1.00  0.00     0.074 A 
ATOM     38  C   UNL A   1      41.651  32.212  30.916  1.00  0.00     0.031 C 
ATOM     39  C   UNL A   1      42.842  30.821  32.731  1.00  0.00     0.037 A 
BRANCH  26  40
ATOM     40  C   UNL A   1      45.409  32.327  28.193  1.00  0.00     0.064 A 
ATOM     41  C   UNL A   1      44.310  33.152  27.885  1.00  0.00     0.173 A 
ATOM     42  C   UNL A   1      46.611  32.629  27.516  1.00  0.00     0.173 A 
ATOM     43  F   UNL A   1      43.112  32.933  28.447  1.00  0.00    -0.203 F 
ATOM     44  C   UNL A   1      44.397  34.166  26.925  1.00  0.00     0.198 A 
ATOM     45  C   UNL A   1      46.707  33.674  26.598  1.00  0.00     0.198 A 
ATOM     46  F   UNL A   1      47.700  31.859  27.634  1.00  0.00    -0.203 F 
ATOM     47  F   UNL A   1      43.298  34.850  26.578  1.00  0.00    -0.200 F 
ATOM     48  C   UNL A   1      45.594  34.422  26.280  1.00  0.00     0.200 A 
ATOM     49  F   UNL A   1      47.870  33.893  25.969  1.00  0.00    -0.200 F 
ATOM     50  F   UNL A   1      45.663  35.352  25.319  1.00  0.00    -0.200 F 
ENDBRANCH  26  40
BRANCH  27  51
ATOM     51  C   UNL A   1      37.353  30.947  30.469  1.00  0.00     0.064 A 
ATOM     52  C   UNL A   1      36.444  31.357  31.455  1.00  0.00     0.173 A 
ATOM     53  C   UNL A   1      37.037  31.294  29.139  1.00  0.00     0.173 A 
ATOM     54  F   UNL A   1      36.701  31.120  32.749  1.00  0.00    -0.203 F 
ATOM     55  C   UNL A   1      35.287  32.073  31.129  1.00  0.00     0.198 A 
ATOM     56  C   UNL A   1      35.876  31.995  28.814  1.00  0.00     0.198 A 
ATOM     57  F   UNL A   1      37.891  31.041  28.138  1.00  0.00    -0.203 F 
ATOM     58  F   UNL A   1      34.466  32.495  32.100  1.00  0.00    -0.200 F 
ATOM     59  C   UNL A   1      35.005  32.393  29.810  1.00  0.00     0.200 A 
ATOM     60  F   UNL A   1      35.639  32.330  27.538  1.00  0.00    -0.200 F 
ATOM     61  F   UNL A   1      33.921  33.119  29.503  1.00  0.00    -0.200 F 
ENDBRANCH  27  51
BRANCH  39  62
ATOM     62  C   UNL A   1      42.576  29.890  33.877  1.00  0.00     0.064 A 
ATOM     63  C   UNL A   1      42.199  28.547  33.704  1.00  0.00     0.173 A 
ATOM     64  C   UNL A   1      42.861  30.316  35.180  1.00  0.00     0.173 A 
ATOM     65  F   UNL A   1      42.029  28.033  32.480  1.00  0.00    -0.203 F 
ATOM     66  C   UNL A   1      42.062  27.686  34.790  1.00  0.00     0.198 A 
ATOM     67  C   UNL A   1      42.759  29.444  36.261  1.00  0.00     0.198 A 
ATOM     68  F   UNL A   1      43.295  31.568  35.398  1.00  0.00    -0.203 F 
ATOM     69  F   UNL A   1      41.696  26.410  34.594  1.00  0.00    -0.200 F 
ATOM     70  C   UNL A   1      42.348  28.134  36.068  1.00  0.00     0.200 A 
ATOM     71  F   UNL A   1      43.092  29.863  37.489  1.00  0.00    -0.200 F 
ATOM     72  F   UNL A   1      42.263  27.294  37.109  1.00  0.00    -0.200 F 
ENDBRANCH  39  62
ENDBRANCH  13  14
ENDBRANCH   6   8
ENDBRANCH   3   4
ENDBRANCH   2   3
ENDBRANCH   1   2
BRANCH   1  73
ATOM     73  C   UNL A   1      36.887  23.502  25.963  1.00  0.00     0.002 C 
BRANCH  73  74
ATOM     74  C   UNL A   1      36.388  23.675  24.527  1.00  0.00     0.021 C 
BRANCH  74  75
ATOM     75  C   UNL A   1      34.876  23.771  24.392  1.00  0.00     0.116 C 
BRANCH  75  76
ATOM     76  N   UNL A   1      34.189  23.276  25.565  1.00  0.00    -0.351 N 
ATOM     77  C   UNL A   1      32.878  23.489  25.948  1.00  0.00     0.274 C 
ATOM     78  H   UNL A   1      34.725  22.713  26.170  1.00  0.00     0.163 HD
ATOM     79  O   UNL A   1      32.500  23.082  27.028  1.00  0.00    -0.267 OA
BRANCH  77  80
ATOM     80  C   UNL A   1      32.002  24.192  25.020  1.00  0.00     0.178 A 
ATOM     81  N   UNL A   1      31.248  23.525  24.088  1.00  0.00    -0.124 NA
ATOM     82  C   UNL A   1      31.713  25.549  24.964  1.00  0.00     0.108 A 
ATOM     83  N   UNL A   1      30.451  24.403  23.494  1.00  0.00    -0.061 NA
ATOM     84  N   UNL A   1      30.807  25.639  23.910  1.00  0.00    -0.212 N 
BRANCH  82  85
ATOM     85  C   UNL A   1      32.059  26.647  25.869  1.00  0.00     0.004 A 
ATOM     86  C   UNL A   1      31.088  27.152  26.754  1.00  0.00     0.010 A 
ATOM     87  C   UNL A   1      33.343  27.197  25.882  1.00  0.00     0.031 A 
ATOM     88  C   UNL A   1      31.382  28.211  27.612  1.00  0.00     0.002 A 
ATOM     89  C   UNL A   1      33.631  28.257  26.745  1.00  0.00     0.041 A 
ATOM     90  C   UNL A   1      32.657  28.768  27.603  1.00  0.00     0.020 A 
ATOM     91  Cl  UNL A   1      35.206  28.950  26.745  1.00  0.00    -0.084 Cl
ENDBRANCH  82  85
BRANCH  84  92
ATOM     92  C   UNL A   1      30.204  26.805  23.385  1.00  0.00     0.067 A 
ATOM     93  C   UNL A   1      28.836  27.020  23.573  1.00  0.00     0.029 A 
ATOM     94  C   UNL A   1      30.998  27.789  22.781  1.00  0.00     0.029 A 
ATOM     95  C   UNL A   1      28.291  28.269  23.256  1.00  0.00     0.015 A 
ATOM     96  C   UNL A   1      30.445  29.021  22.444  1.00  0.00     0.015 A 
ATOM     97  C   UNL A   1      29.094  29.287  22.709  1.00  0.00     0.056 A 
BRANCH  97  98
ATOM     98  C   UNL A   1      28.515  30.656  22.448  1.00  0.00     0.416 C 
ATOM     99  F   UNL A   1      28.018  31.240  23.571  1.00  0.00    -0.166 F 
ATOM    100  F   UNL A   1      29.446  31.519  21.953  1.00  0.00    -0.166 F 
ATOM    101  F   UNL A   1      27.497  30.650  21.542  1.00  0.00    -0.166 F 
ENDBRANCH  97  98
ENDBRANCH  84  92
ENDBRANCH  77  80
ENDBRANCH  75  76
ENDBRANCH  74  75
ENDBRANCH  73  74
ENDBRANCH   1  73
TORSDOF 16
ENDMDL
MODEL 2
REMARK VINA RESULT:     -13.2      4.167      8.977
REMARK SMILES O=C(NCCCCCCNC(=O)c1nnn(-c2ccc(C(F)(F)F)cc2)c1-c1cccc(Cl)c1)c1ccc(-c2c3nc(c(-c4c(F)c(F)c(F)c(F)c4F)c4ccc([nH]4)c(-c4c(F)c(F)c(F)c(F)c4F)c4nc(c(-c5c(F)c(F)c(F)c(F)c5F)c5ccc2[nH]5)C=C4)C=C3)cc1
REMARK SMILES IDX 6 1 5 2 4 3 3 4 1 5 2 6 35 8 36 9 97 10 37 11 96 12 38 13
REMARK SMILES IDX 39 14 40 15 90 16 41 17 95 18 89 19 91 20 42 21 94 22 88 23
REMARK SMILES IDX 87 24 43 26 75 27 55 28 74 29 56 30 59 31 73 32 92 33 57 34
REMARK SMILES IDX 58 35 72 37 93 38 60 39 44 40 45 41 53 42 46 43 47 44 51 45
REMARK SMILES IDX 54 46 48 47 49 48 52 49 50 50 76 51 77 52 85 53 78 54 79 55
REMARK SMILES IDX 83 56 86 57 80 58 81 59 84 60 82 61 61 62 62 63 70 64 63 65
REMARK SMILES IDX 64 66 68 67 71 68 65 69 66 70 69 71 67 72 7 73 8 74 9 75
REMARK SMILES IDX 10 76 11 77 12 79 13 80 14 81 27 82 15 83 16 84 28 85 29 86
REMARK SMILES IDX 34 87 30 88 32 89 31 90 33 91 17 92 18 93 26 94 19 95 25 96
REMARK SMILES IDX 20 97 21 98 22 99 23 100 24 101
REMARK H PARENT 3 7 91 25 59 36 10 78
REMARK Flexibility Score: inf
ROOT
ATOM      1  C   UNL A   1      31.828  29.619  26.874  1.00  0.00     0.002 C 
ENDROOT
BRANCH   1   2
ATOM      2  C   UNL A   1      33.193  30.122  26.388  1.00  0.00     0.021 C 
BRANCH   2   3
ATOM      3  C   UNL A   1      34.319  30.031  27.421  1.00  0.00     0.116 C 
BRANCH   3   4
ATOM      4  N   UNL A   1      34.266  31.040  28.455  1.00  0.00    -0.352 N 
ATOM      5  O   UNL A   1      34.801  32.492  30.036  1.00  0.00    -0.269 OA
ATOM      6  C   UNL A   1      35.164  31.528  29.359  1.00  0.00     0.251 C 
ATOM      7  H   UNL A   1      33.383  31.471  28.523  1.00  0.00     0.163 HD
BRANCH   6   8
ATOM      8  C   UNL A   1      36.497  30.929  29.624  1.00  0.00     0.039 A 
ATOM      9  C   UNL A   1      37.718  31.604  29.574  1.00  0.00     0.014 A 
ATOM     10  C   UNL A   1      36.498  29.554  29.915  1.00  0.00     0.014 A 
ATOM     11  C   UNL A   1      38.916  30.912  29.685  1.00  0.00     0.010 A 
ATOM     12  C   UNL A   1      37.689  28.861  30.065  1.00  0.00     0.010 A 
ATOM     13  C   UNL A   1      38.897  29.535  29.895  1.00  0.00    -0.014 A 
BRANCH  13  14
ATOM     14  C   UNL A   1      40.171  28.838  30.001  1.00  0.00     0.031 A 
ATOM     15  C   UNL A   1      40.728  28.679  31.380  1.00  0.00     0.074 A 
ATOM     16  C   UNL A   1      40.710  28.221  28.931  1.00  0.00     0.049 A 
ATOM     17  N   UNL A   1      41.933  28.899  31.807  1.00  0.00    -0.248 NA
ATOM     18  C   UNL A   1      39.792  28.255  32.435  1.00  0.00     0.031 C 
ATOM     19  C   UNL A   1      40.117  28.056  27.599  1.00  0.00     0.029 A 
ATOM     20  N   UNL A   1      41.851  27.485  28.854  1.00  0.00    -0.354 N 
ATOM     21  C   UNL A   1      41.946  28.498  33.146  1.00  0.00     0.074 A 
ATOM     22  C   UNL A   1      40.584  28.204  33.505  1.00  0.00     0.031 C 
ATOM     23  C   UNL A   1      40.778  27.080  26.940  1.00  0.00     0.029 A 
ATOM     24  C   UNL A   1      41.900  26.646  27.753  1.00  0.00     0.049 A 
ATOM     25  H   UNL A   1      42.575  27.544  29.519  1.00  0.00     0.167 HD
ATOM     26  C   UNL A   1      43.097  28.255  33.832  1.00  0.00     0.037 A 
ATOM     27  C   UNL A   1      42.737  25.596  27.579  1.00  0.00     0.037 A 
ATOM     28  C   UNL A   1      44.230  28.912  33.249  1.00  0.00     0.049 A 
ATOM     29  C   UNL A   1      43.874  25.759  28.518  1.00  0.00     0.074 A 
ATOM     30  C   UNL A   1      44.582  30.229  33.029  1.00  0.00     0.029 A 
ATOM     31  N   UNL A   1      45.117  28.174  32.508  1.00  0.00    -0.354 N 
ATOM     32  N   UNL A   1      44.772  26.701  28.426  1.00  0.00    -0.248 NA
ATOM     33  C   UNL A   1      43.771  25.119  29.822  1.00  0.00     0.031 C 
ATOM     34  C   UNL A   1      45.302  30.220  31.798  1.00  0.00     0.029 A 
ATOM     35  C   UNL A   1      45.359  28.895  31.367  1.00  0.00     0.049 A 
ATOM     36  H   UNL A   1      45.502  27.301  32.747  1.00  0.00     0.167 HD
ATOM     37  C   UNL A   1      45.059  27.047  29.739  1.00  0.00     0.074 A 
ATOM     38  C   UNL A   1      44.484  25.980  30.551  1.00  0.00     0.031 C 
ATOM     39  C   UNL A   1      45.492  28.301  30.060  1.00  0.00     0.037 A 
BRANCH  26  40
ATOM     40  C   UNL A   1      43.238  27.165  34.864  1.00  0.00     0.064 A 
ATOM     41  C   UNL A   1      43.475  27.498  36.212  1.00  0.00     0.173 A 
ATOM     42  C   UNL A   1      43.445  25.811  34.522  1.00  0.00     0.173 A 
ATOM     43  F   UNL A   1      43.339  28.763  36.637  1.00  0.00    -0.203 F 
ATOM     44  C   UNL A   1      43.943  26.554  37.132  1.00  0.00     0.198 A 
ATOM     45  C   UNL A   1      43.861  24.862  35.454  1.00  0.00     0.198 A 
ATOM     46  F   UNL A   1      43.360  25.382  33.256  1.00  0.00    -0.203 F 
ATOM     47  F   UNL A   1      44.267  26.939  38.374  1.00  0.00    -0.200 F 
ATOM     48  C   UNL A   1      44.139  25.238  36.750  1.00  0.00     0.200 A 
ATOM     49  F   UNL A   1      44.066  23.597  35.060  1.00  0.00    -0.200 F 
ATOM     50  F   UNL A   1      44.643  24.348  37.615  1.00  0.00    -0.200 F 
ENDBRANCH  26  40
BRANCH  27  51
ATOM     51  C   UNL A   1      42.416  24.311  26.917  1.00  0.00     0.064 A 
ATOM     52  C   UNL A   1      43.295  23.728  25.992  1.00  0.00     0.173 A 
ATOM     53  C   UNL A   1      41.348  23.506  27.362  1.00  0.00     0.173 A 
ATOM     54  F   UNL A   1      44.370  24.405  25.564  1.00  0.00    -0.203 F 
ATOM     55  C   UNL A   1      43.114  22.416  25.540  1.00  0.00     0.198 A 
ATOM     56  C   UNL A   1      41.161  22.204  26.900  1.00  0.00     0.198 A 
ATOM     57  F   UNL A   1      40.516  23.933  28.322  1.00  0.00    -0.203 F 
ATOM     58  F   UNL A   1      44.001  21.871  24.696  1.00  0.00    -0.200 F 
ATOM     59  C   UNL A   1      42.049  21.655  25.996  1.00  0.00     0.200 A 
ATOM     60  F   UNL A   1      40.148  21.468  27.381  1.00  0.00    -0.200 F 
ATOM     61  F   UNL A   1      41.903  20.383  25.600  1.00  0.00    -0.200 F 
ENDBRANCH  27  51
BRANCH  39  62
ATOM     62  C   UNL A   1      45.857  29.221  28.932  1.00  0.00     0.064 A 
ATOM     63  C   UNL A   1      44.922  30.040  28.275  1.00  0.00     0.173 A 
ATOM     64  C   UNL A   1      47.207  29.400  28.610  1.00  0.00     0.173 A 
ATOM     65  F   UNL A   1      43.628  30.015  28.615  1.00  0.00    -0.203 F 
ATOM     66  C   UNL A   1      45.316  30.957  27.304  1.00  0.00     0.198 A 
ATOM     67  C   UNL A   1      47.603  30.343  27.664  1.00  0.00     0.198 A 
ATOM     68  F   UNL A   1      48.151  28.697  29.256  1.00  0.00    -0.203 F 
ATOM     69  F   UNL A   1      44.400  31.722  26.690  1.00  0.00    -0.200 F 
ATOM     70  C   UNL A   1      46.657  31.112  27.002  1.00  0.00     0.200 A 
ATOM     71  F   UNL A   1      48.906  30.532  27.417  1.00  0.00    -0.200 F 
ATOM     72  F   UNL A   1      47.044  32.026  26.103  1.00  0.00    -0.200 F 
ENDBRANCH  39  62
ENDBRANCH  13  14
ENDBRANCH   6   8
ENDBRANCH   3   4
ENDBRANCH   2   3
ENDBRANCH   1   2
BRANCH   1  73
ATOM     73  C   UNL A   1      31.837  28.274  27.606  1.00  0.00     0.002 C 
BRANCH  73  74
ATOM     74  C   UNL A   1      31.998  27.036  26.721  1.00  0.00     0.021 C 
BRANCH  74  75
ATOM     75  C   UNL A   1      31.300  27.130  25.372  1.00  0.00     0.116 C 
BRANCH  75  76
ATOM     76  N   UNL A   1      32.236  27.314  24.284  1.00  0.00    -0.351 N 
ATOM     77  C   UNL A   1      32.795  26.355  23.460  1.00  0.00     0.274 C 
ATOM     78  H   UNL A   1      32.509  28.243  24.106  1.00  0.00     0.163 HD
ATOM     79  O   UNL A   1      33.651  26.681  22.663  1.00  0.00    -0.267 OA
BRANCH  77  80
ATOM     80  C   UNL A   1      32.315  24.984  23.585  1.00  0.00     0.178 A 
ATOM     81  N   UNL A   1      31.011  24.646  23.326  1.00  0.00    -0.124 NA
ATOM     82  C   UNL A   1      33.042  23.837  23.874  1.00  0.00     0.108 A 
ATOM     83  N   UNL A   1      30.907  23.325  23.379  1.00  0.00    -0.061 NA
ATOM     84  N   UNL A   1      32.079  22.832  23.835  1.00  0.00    -0.212 N 
BRANCH  82  85
ATOM     85  C   UNL A   1      34.484  23.615  23.995  1.00  0.00     0.004 A 
ATOM     86  C   UNL A   1      35.190  23.027  22.928  1.00  0.00     0.010 A 
ATOM     87  C   UNL A   1      35.180  23.988  25.148  1.00  0.00     0.031 A 
ATOM     88  C   UNL A   1      36.560  22.783  23.023  1.00  0.00     0.002 A 
ATOM     89  C   UNL A   1      36.552  23.741  25.235  1.00  0.00     0.041 A 
ATOM     90  C   UNL A   1      37.241  23.137  24.183  1.00  0.00     0.020 A 
ATOM     91  Cl  UNL A   1      37.405  24.179  26.664  1.00  0.00    -0.084 Cl
ENDBRANCH  82  85
BRANCH  84  92
ATOM     92  C   UNL A   1      32.259  21.453  24.093  1.00  0.00     0.067 A 
ATOM     93  C   UNL A   1      32.133  20.532  23.048  1.00  0.00     0.029 A 
ATOM     94  C   UNL A   1      32.672  21.029  25.363  1.00  0.00     0.029 A 
ATOM     95  C   UNL A   1      32.530  19.208  23.255  1.00  0.00     0.015 A 
ATOM     96  C   UNL A   1      33.042  19.703  25.569  1.00  0.00     0.015 A 
ATOM     97  C   UNL A   1      33.009  18.786  24.509  1.00  0.00     0.056 A 
BRANCH  97  98
ATOM     98  C   UNL A   1      33.512  17.376  24.698  1.00  0.00     0.416 C 
ATOM     99  F   UNL A   1      33.011  16.783  25.815  1.00  0.00    -0.166 F 
ATOM    100  F   UNL A   1      33.170  16.567  23.656  1.00  0.00    -0.166 F 
ATOM    101  F   UNL A   1      34.868  17.292  24.801  1.00  0.00    -0.166 F 
ENDBRANCH  97  98
ENDBRANCH  84  92
ENDBRANCH  77  80
ENDBRANCH  75  76
ENDBRANCH  74  75
ENDBRANCH  73  74
ENDBRANCH   1  73
TORSDOF 16
ENDMDL
MODEL 3
REMARK VINA RESULT:     -12.5      1.632      2.802
REMARK SMILES O=C(NCCCCCCNC(=O)c1nnn(-c2ccc(C(F)(F)F)cc2)c1-c1cccc(Cl)c1)c1ccc(-c2c3nc(c(-c4c(F)c(F)c(F)c(F)c4F)c4ccc([nH]4)c(-c4c(F)c(F)c(F)c(F)c4F)c4nc(c(-c5c(F)c(F)c(F)c(F)c5F)c5ccc2[nH]5)C=C4)C=C3)cc1
REMARK SMILES IDX 6 1 5 2 4 3 3 4 1 5 2 6 35 8 36 9 97 10 37 11 96 12 38 13
REMARK SMILES IDX 39 14 40 15 90 16 41 17 95 18 89 19 91 20 42 21 94 22 88 23
REMARK SMILES IDX 87 24 43 26 75 27 55 28 74 29 56 30 59 31 73 32 92 33 57 34
REMARK SMILES IDX 58 35 72 37 93 38 60 39 44 40 45 41 53 42 46 43 47 44 51 45
REMARK SMILES IDX 54 46 48 47 49 48 52 49 50 50 76 51 77 52 85 53 78 54 79 55
REMARK SMILES IDX 83 56 86 57 80 58 81 59 84 60 82 61 61 62 62 63 70 64 63 65
REMARK SMILES IDX 64 66 68 67 71 68 65 69 66 70 69 71 67 72 7 73 8 74 9 75
REMARK SMILES IDX 10 76 11 77 12 79 13 80 14 81 27 82 15 83 16 84 28 85 29 86
REMARK SMILES IDX 34 87 30 88 32 89 31 90 33 91 17 92 18 93 26 94 19 95 25 96
REMARK SMILES IDX 20 97 21 98 22 99 23 100 24 101
REMARK H PARENT 3 7 91 25 59 36 10 78
REMARK Flexibility Score: inf
ROOT
ATOM      1  C   UNL A   1      35.518  22.140  23.687  1.00  0.00     0.002 C 
ENDROOT
BRANCH   1   2
ATOM      2  C   UNL A   1      36.660  22.847  24.428  1.00  0.00     0.021 C 
BRANCH   2   3
ATOM      3  C   UNL A   1      37.136  22.143  25.701  1.00  0.00     0.116 C 
BRANCH   3   4
ATOM      4  N   UNL A   1      38.486  21.630  25.633  1.00  0.00    -0.352 N 
ATOM      5  O   UNL A   1      40.635  21.251  25.994  1.00  0.00    -0.269 OA
ATOM      6  C   UNL A   1      39.677  22.004  26.182  1.00  0.00     0.251 C 
ATOM      7  H   UNL A   1      38.563  20.832  25.061  1.00  0.00     0.163 HD
BRANCH   6   8
ATOM      8  C   UNL A   1      39.901  23.277  26.913  1.00  0.00     0.039 A 
ATOM      9  C   UNL A   1      39.144  24.442  26.772  1.00  0.00     0.014 A 
ATOM     10  C   UNL A   1      41.000  23.288  27.790  1.00  0.00     0.014 A 
ATOM     11  C   UNL A   1      39.538  25.622  27.387  1.00  0.00     0.010 A 
ATOM     12  C   UNL A   1      41.379  24.454  28.438  1.00  0.00     0.010 A 
ATOM     13  C   UNL A   1      40.676  25.631  28.190  1.00  0.00    -0.014 A 
BRANCH  13  14
ATOM     14  C   UNL A   1      41.065  26.888  28.816  1.00  0.00     0.031 A 
ATOM     15  C   UNL A   1      42.326  27.518  28.312  1.00  0.00     0.074 A 
ATOM     16  C   UNL A   1      40.234  27.522  29.665  1.00  0.00     0.049 A 
ATOM     17  N   UNL A   1      43.320  28.012  28.983  1.00  0.00    -0.248 NA
ATOM     18  C   UNL A   1      42.515  27.560  26.852  1.00  0.00     0.031 C 
ATOM     19  C   UNL A   1      38.855  27.155  30.010  1.00  0.00     0.029 A 
ATOM     20  N   UNL A   1      40.403  28.715  30.295  1.00  0.00    -0.354 N 
ATOM     21  C   UNL A   1      44.188  28.562  28.036  1.00  0.00     0.074 A 
ATOM     22  C   UNL A   1      43.694  28.171  26.743  1.00  0.00     0.031 C 
ATOM     23  C   UNL A   1      38.246  28.218  30.578  1.00  0.00     0.029 A 
ATOM     24  C   UNL A   1      39.220  29.282  30.742  1.00  0.00     0.049 A 
ATOM     25  H   UNL A   1      41.284  29.136  30.423  1.00  0.00     0.167 HD
ATOM     26  C   UNL A   1      45.159  29.459  28.360  1.00  0.00     0.037 A 
ATOM     27  C   UNL A   1      39.037  30.572  31.112  1.00  0.00     0.037 A 
ATOM     28  C   UNL A   1      45.526  29.392  29.745  1.00  0.00     0.049 A 
ATOM     29  C   UNL A   1      40.369  31.157  31.400  1.00  0.00     0.074 A 
ATOM     30  C   UNL A   1      46.083  28.423  30.556  1.00  0.00     0.029 A 
ATOM     31  N   UNL A   1      45.061  30.356  30.602  1.00  0.00    -0.354 N 
ATOM     32  N   UNL A   1      41.124  30.804  32.404  1.00  0.00    -0.248 NA
ATOM     33  C   UNL A   1      41.054  31.845  30.316  1.00  0.00     0.031 C 
ATOM     34  C   UNL A   1      45.471  28.611  31.830  1.00  0.00     0.029 A 
ATOM     35  C   UNL A   1      44.602  29.696  31.712  1.00  0.00     0.049 A 
ATOM     36  H   UNL A   1      45.057  31.329  30.451  1.00  0.00     0.167 HD
ATOM     37  C   UNL A   1      42.419  30.858  31.910  1.00  0.00     0.074 A 
ATOM     38  C   UNL A   1      42.320  31.591  30.653  1.00  0.00     0.031 C 
ATOM     39  C   UNL A   1      43.405  30.066  32.425  1.00  0.00     0.037 A 
BRANCH  26  40
ATOM     40  C   UNL A   1      45.559  30.611  27.474  1.00  0.00     0.064 A 
ATOM     41  C   UNL A   1      46.919  30.850  27.199  1.00  0.00     0.173 A 
ATOM     42  C   UNL A   1      44.673  31.657  27.134  1.00  0.00     0.173 A 
ATOM     43  F   UNL A   1      47.850  29.935  27.511  1.00  0.00    -0.203 F 
ATOM     44  C   UNL A   1      47.363  32.070  26.679  1.00  0.00     0.198 A 
ATOM     45  C   UNL A   1      45.113  32.852  26.567  1.00  0.00     0.198 A 
ATOM     46  F   UNL A   1      43.370  31.606  27.439  1.00  0.00    -0.203 F 
ATOM     47  F   UNL A   1      48.676  32.298  26.543  1.00  0.00    -0.200 F 
ATOM     48  C   UNL A   1      46.459  33.071  26.367  1.00  0.00     0.200 A 
ATOM     49  F   UNL A   1      44.225  33.817  26.291  1.00  0.00    -0.200 F 
ATOM     50  F   UNL A   1      46.888  34.260  25.925  1.00  0.00    -0.200 F 
ENDBRANCH  26  40
BRANCH  27  51
ATOM     51  C   UNL A   1      37.828  31.394  30.879  1.00  0.00     0.064 A 
ATOM     52  C   UNL A   1      37.425  31.748  29.584  1.00  0.00     0.173 A 
ATOM     53  C   UNL A   1      36.905  31.646  31.915  1.00  0.00     0.173 A 
ATOM     54  F   UNL A   1      38.219  31.487  28.536  1.00  0.00    -0.203 F 
ATOM     55  C   UNL A   1      36.171  32.320  29.340  1.00  0.00     0.198 A 
ATOM     56  C   UNL A   1      35.662  32.229  31.673  1.00  0.00     0.198 A 
ATOM     57  F   UNL A   1      37.152  31.248  33.171  1.00  0.00    -0.203 F 
ATOM     58  F   UNL A   1      35.796  32.598  28.084  1.00  0.00    -0.200 F 
ATOM     59  C   UNL A   1      35.290  32.558  30.384  1.00  0.00     0.200 A 
ATOM     60  F   UNL A   1      34.807  32.416  32.688  1.00  0.00    -0.200 F 
ATOM     61  F   UNL A   1      34.072  33.061  30.144  1.00  0.00    -0.200 F 
ENDBRANCH  27  51
BRANCH  39  62
ATOM     62  C   UNL A   1      43.099  29.301  33.679  1.00  0.00     0.064 A 
ATOM     63  C   UNL A   1      43.295  29.829  34.967  1.00  0.00     0.173 A 
ATOM     64  C   UNL A   1      42.445  28.067  33.582  1.00  0.00     0.173 A 
ATOM     65  F   UNL A   1      43.802  31.055  35.138  1.00  0.00    -0.203 F 
ATOM     66  C   UNL A   1      42.902  29.129  36.106  1.00  0.00     0.198 A 
ATOM     67  C   UNL A   1      42.020  27.386  34.720  1.00  0.00     0.198 A 
ATOM     68  F   UNL A   1      42.166  27.548  32.375  1.00  0.00    -0.203 F 
ATOM     69  F   UNL A   1      43.107  29.656  37.323  1.00  0.00    -0.200 F 
ATOM     70  C   UNL A   1      42.260  27.910  35.981  1.00  0.00     0.200 A 
ATOM     71  F   UNL A   1      41.346  26.235  34.594  1.00  0.00    -0.200 F 
ATOM     72  F   UNL A   1      41.838  27.258  37.073  1.00  0.00    -0.200 F 
ENDBRANCH  39  62
ENDBRANCH  13  14
ENDBRANCH   6   8
ENDBRANCH   3   4
ENDBRANCH   2   3
ENDBRANCH   1   2
BRANCH   1  73
ATOM     73  C   UNL A   1      34.314  21.742  24.546  1.00  0.00     0.002 C 
BRANCH  73  74
ATOM     74  C   UNL A   1      32.992  21.563  23.794  1.00  0.00     0.021 C 
BRANCH  74  75
ATOM     75  C   UNL A   1      31.751  21.675  24.667  1.00  0.00     0.116 C 
BRANCH  75  76
ATOM     76  N   UNL A   1      32.078  21.796  26.071  1.00  0.00    -0.351 N 
ATOM     77  C   UNL A   1      31.754  22.818  26.943  1.00  0.00     0.274 C 
ATOM     78  H   UNL A   1      32.598  21.054  26.455  1.00  0.00     0.163 HD
ATOM     79  O   UNL A   1      32.208  22.805  28.070  1.00  0.00    -0.267 OA
BRANCH  77  80
ATOM     80  C   UNL A   1      30.863  23.868  26.465  1.00  0.00     0.178 A 
ATOM     81  N   UNL A   1      29.702  24.188  27.121  1.00  0.00    -0.124 NA
ATOM     82  C   UNL A   1      31.046  24.736  25.397  1.00  0.00     0.108 A 
ATOM     83  N   UNL A   1      29.183  25.264  26.545  1.00  0.00    -0.061 NA
ATOM     84  N   UNL A   1      29.901  25.527  25.430  1.00  0.00    -0.212 N 
BRANCH  82  85
ATOM     85  C   UNL A   1      32.205  24.971  24.533  1.00  0.00     0.004 A 
ATOM     86  C   UNL A   1      33.444  25.311  25.108  1.00  0.00     0.010 A 
ATOM     87  C   UNL A   1      32.109  24.850  23.145  1.00  0.00     0.031 A 
ATOM     88  C   UNL A   1      34.560  25.562  24.310  1.00  0.00     0.002 A 
ATOM     89  C   UNL A   1      33.232  25.102  22.352  1.00  0.00     0.041 A 
ATOM     90  C   UNL A   1      34.451  25.461  22.927  1.00  0.00     0.020 A 
ATOM     91  Cl  UNL A   1      33.109  24.976  20.641  1.00  0.00    -0.084 Cl
ENDBRANCH  82  85
BRANCH  84  92
ATOM     92  C   UNL A   1      29.541  26.564  24.538  1.00  0.00     0.067 A 
ATOM     93  C   UNL A   1      28.261  26.579  23.977  1.00  0.00     0.029 A 
ATOM     94  C   UNL A   1      30.426  27.627  24.311  1.00  0.00     0.029 A 
ATOM     95  C   UNL A   1      27.835  27.715  23.282  1.00  0.00     0.015 A 
ATOM     96  C   UNL A   1      30.004  28.744  23.597  1.00  0.00     0.015 A 
ATOM     97  C   UNL A   1      28.693  28.816  23.104  1.00  0.00     0.056 A 
BRANCH  97  98
ATOM     98  C   UNL A   1      28.195  30.068  22.424  1.00  0.00     0.416 C 
ATOM     99  F   UNL A   1      27.239  30.713  23.145  1.00  0.00    -0.166 F 
ATOM    100  F   UNL A   1      29.194  30.973  22.226  1.00  0.00    -0.166 F 
ATOM    101  F   UNL A   1      27.653  29.840  21.195  1.00  0.00    -0.166 F 
ENDBRANCH  97  98
ENDBRANCH  84  92
ENDBRANCH  77  80
ENDBRANCH  75  76
ENDBRANCH  74  75
ENDBRANCH  73  74
ENDBRANCH   1  73
TORSDOF 16
ENDMDL
