MODEL 1
REMARK VINA RESULT:     -11.3      0.000      0.000
REMARK SMILES C[C@H]1[C@@H](C(=O)NCCCCCCNC(=O)c2ccc(-c3c4nc(c(-c5c(F)c(F)c(F)c(F)c5F)c5ccc([nH]5)c(-c5c(F)c(F)c(F)c(F)c5F)c5nc(c(-c6c(F)c(F)c(F)c(F)c6F)c6ccc3[nH]6)C=C5)C=C4)cc2)CC[N@@H+]1CC(=O)NNC(=O)c1cccs1
REMARK SMILES IDX 8 1 7 2 6 3 4 4 5 5 3 7 1 8 2 9 81 10 79 11 80 12 82 14
REMARK SMILES IDX 83 15 84 16 85 17 86 19 87 20 88 22 89 23 90 24 93 25 91 26
REMARK SMILES IDX 92 27 9 28 10 29 11 30 12 31 13 32 14 33 15 35 16 36 17 37
REMARK SMILES IDX 78 38 18 39 77 40 19 41 20 42 21 43 71 44 22 45 76 46 70 47
REMARK SMILES IDX 72 48 23 49 75 50 69 51 68 52 24 54 56 55 36 56 55 57 37 58
REMARK SMILES IDX 40 59 54 60 73 61 38 62 39 63 53 65 74 66 41 67 25 68 26 69
REMARK SMILES IDX 34 70 27 71 28 72 32 73 35 74 29 75 30 76 33 77 31 78 57 79
REMARK SMILES IDX 58 80 66 81 59 82 60 83 64 84 67 85 61 86 62 87 65 88 63 89
REMARK SMILES IDX 42 90 43 91 51 92 44 93 45 94 49 95 52 96 46 97 47 98 50 99
REMARK SMILES IDX 48 100
REMARK H PARENT 6 6 81 13 85 18 86 21 13 34 72 53 40 64
REMARK Flexibility Score: inf
ROOT
ATOM      1  C   UNL A   1      35.780  32.033  28.083  1.00  0.00     0.021 C 
ENDROOT
BRANCH   1   2
ATOM      2  C   UNL A   1      35.114  30.689  27.776  1.00  0.00     0.116 C 
BRANCH   2   3
ATOM      3  N   UNL A   1      33.695  30.908  27.604  1.00  0.00    -0.356 N 
ATOM      4  C   UNL A   1      32.730  30.062  27.154  1.00  0.00     0.229 C 
ATOM      5  O   UNL A   1      31.679  30.589  26.779  1.00  0.00    -0.275 OA
ATOM      6  H   UNL A   1      33.380  31.807  27.851  1.00  0.00     0.163 HD
BRANCH   4   7
ATOM      7  C   UNL A   1      32.892  28.543  27.262  1.00  0.00     0.142 C 
ATOM      8  C   UNL A   1      33.746  28.359  24.755  1.00  0.00     0.076 C 
ATOM      9  C   UNL A   1      33.481  27.707  26.103  1.00  0.00     0.194 C 
ATOM     10  N   UNL A   1      32.528  26.627  25.824  1.00  0.00    -0.324 N 
ATOM     11  C   UNL A   1      31.541  27.866  27.563  1.00  0.00     0.081 C 
ATOM     12  C   UNL A   1      31.228  27.059  26.320  1.00  0.00     0.263 C 
ATOM     13  H   UNL A   1      32.470  26.489  24.814  1.00  0.00     0.348 HD
BRANCH  10  14
ATOM     14  C   UNL A   1      32.949  25.264  26.178  1.00  0.00     0.365 C 
BRANCH  14  15
ATOM     15  C   UNL A   1      31.838  24.217  26.217  1.00  0.00     0.293 C 
ATOM     16  O   UNL A   1      31.321  23.868  27.283  1.00  0.00    -0.267 OA
ATOM     17  N   UNL A   1      31.371  23.648  25.060  1.00  0.00    -0.262 N 
ATOM     18  H   UNL A   1      30.595  23.048  25.134  1.00  0.00     0.191 HD
BRANCH  17  19
ATOM     19  N   UNL A   1      31.902  23.848  23.785  1.00  0.00    -0.263 N 
ATOM     20  C   UNL A   1      32.925  23.069  23.258  1.00  0.00     0.279 C 
ATOM     21  H   UNL A   1      31.534  24.575  23.232  1.00  0.00     0.191 HD
ATOM     22  O   UNL A   1      33.675  23.600  22.433  1.00  0.00    -0.266 OA
BRANCH  20  23
ATOM     23  C   UNL A   1      33.027  21.682  23.681  1.00  0.00     0.094 A 
ATOM     24  C   UNL A   1      32.331  20.573  23.233  1.00  0.00     0.026 A 
ATOM     25  S   UNL A   1      34.209  21.241  24.842  1.00  0.00    -0.139 S 
ATOM     26  C   UNL A   1      32.743  19.369  23.874  1.00  0.00     0.012 A 
ATOM     27  C   UNL A   1      33.763  19.591  24.772  1.00  0.00     0.065 A 
ENDBRANCH  20  23
ENDBRANCH  17  19
ENDBRANCH  14  15
ENDBRANCH  10  14
ENDBRANCH   4   7
ENDBRANCH   2   3
ENDBRANCH   1   2
BRANCH   1  28
ATOM     28  C   UNL A   1      34.915  33.008  28.879  1.00  0.00     0.002 C 
BRANCH  28  29
ATOM     29  C   UNL A   1      35.274  34.479  28.668  1.00  0.00     0.002 C 
BRANCH  29  30
ATOM     30  C   UNL A   1      34.116  35.464  28.860  1.00  0.00     0.021 C 
BRANCH  30  31
ATOM     31  C   UNL A   1      32.888  34.884  29.560  1.00  0.00     0.116 C 
BRANCH  31  32
ATOM     32  N   UNL A   1      32.429  35.740  30.641  1.00  0.00    -0.352 N 
ATOM     33  C   UNL A   1      32.804  35.758  31.959  1.00  0.00     0.251 C 
ATOM     34  H   UNL A   1      31.748  36.405  30.389  1.00  0.00     0.163 HD
ATOM     35  O   UNL A   1      32.139  36.369  32.786  1.00  0.00    -0.269 OA
BRANCH  33  36
ATOM     36  C   UNL A   1      34.016  35.027  32.384  1.00  0.00     0.039 A 
ATOM     37  C   UNL A   1      33.881  33.735  32.894  1.00  0.00     0.014 A 
ATOM     38  C   UNL A   1      35.276  35.627  32.303  1.00  0.00     0.014 A 
ATOM     39  C   UNL A   1      35.018  33.022  33.275  1.00  0.00     0.010 A 
ATOM     40  C   UNL A   1      36.414  34.889  32.614  1.00  0.00     0.010 A 
ATOM     41  C   UNL A   1      36.296  33.582  33.111  1.00  0.00    -0.014 A 
BRANCH  41  42
ATOM     42  C   UNL A   1      37.518  32.815  33.459  1.00  0.00     0.031 A 
ATOM     43  C   UNL A   1      38.260  33.111  34.732  1.00  0.00     0.074 A 
ATOM     44  C   UNL A   1      37.989  31.891  32.600  1.00  0.00     0.049 A 
ATOM     45  N   UNL A   1      39.373  32.588  35.184  1.00  0.00    -0.248 NA
ATOM     46  C   UNL A   1      37.692  34.152  35.602  1.00  0.00     0.031 C 
ATOM     47  C   UNL A   1      37.381  31.547  31.313  1.00  0.00     0.029 A 
ATOM     48  N   UNL A   1      39.091  31.076  32.674  1.00  0.00    -0.354 N 
ATOM     49  C   UNL A   1      39.639  33.240  36.379  1.00  0.00     0.074 A 
ATOM     50  C   UNL A   1      38.607  34.238  36.556  1.00  0.00     0.031 C 
ATOM     51  C   UNL A   1      38.103  30.576  30.732  1.00  0.00     0.029 A 
ATOM     52  C   UNL A   1      39.244  30.258  31.583  1.00  0.00     0.049 A 
ATOM     53  H   UNL A   1      39.712  31.079  33.439  1.00  0.00     0.167 HD
ATOM     54  C   UNL A   1      40.640  33.010  37.263  1.00  0.00     0.037 A 
ATOM     55  C   UNL A   1      40.205  29.357  31.297  1.00  0.00     0.037 A 
ATOM     56  C   UNL A   1      41.654  32.003  37.089  1.00  0.00     0.049 A 
ATOM     57  C   UNL A   1      41.318  29.137  32.286  1.00  0.00     0.074 A 
ATOM     58  C   UNL A   1      42.679  31.652  37.952  1.00  0.00     0.029 A 
ATOM     59  N   UNL A   1      41.777  31.189  35.972  1.00  0.00    -0.354 N 
ATOM     60  N   UNL A   1      41.520  29.708  33.448  1.00  0.00    -0.248 NA
ATOM     61  C   UNL A   1      42.335  28.139  31.924  1.00  0.00     0.031 C 
ATOM     62  C   UNL A   1      43.453  30.665  37.332  1.00  0.00     0.029 A 
ATOM     63  C   UNL A   1      42.877  30.358  36.110  1.00  0.00     0.049 A 
ATOM     64  H   UNL A   1      41.171  31.201  35.196  1.00  0.00     0.167 HD
ATOM     65  C   UNL A   1      42.667  29.123  33.968  1.00  0.00     0.074 A 
ATOM     66  C   UNL A   1      43.106  28.138  33.002  1.00  0.00     0.031 C 
ATOM     67  C   UNL A   1      43.299  29.379  35.139  1.00  0.00     0.037 A 
BRANCH  54  68
ATOM     68  C   UNL A   1      40.688  33.865  38.498  1.00  0.00     0.064 A 
ATOM     69  C   UNL A   1      39.963  33.532  39.653  1.00  0.00     0.173 A 
ATOM     70  C   UNL A   1      41.492  35.013  38.539  1.00  0.00     0.173 A 
ATOM     71  F   UNL A   1      39.170  32.450  39.665  1.00  0.00    -0.203 F 
ATOM     72  C   UNL A   1      40.016  34.335  40.790  1.00  0.00     0.198 A 
ATOM     73  C   UNL A   1      41.570  35.795  39.688  1.00  0.00     0.198 A 
ATOM     74  F   UNL A   1      42.212  35.374  37.466  1.00  0.00    -0.203 F 
ATOM     75  F   UNL A   1      39.272  34.027  41.861  1.00  0.00    -0.200 F 
ATOM     76  C   UNL A   1      40.824  35.461  40.809  1.00  0.00     0.200 A 
ATOM     77  F   UNL A   1      42.363  36.875  39.711  1.00  0.00    -0.200 F 
ATOM     78  F   UNL A   1      40.879  36.229  41.905  1.00  0.00    -0.200 F 
ENDBRANCH  54  68
BRANCH  55  79
ATOM     79  C   UNL A   1      40.144  28.583  30.030  1.00  0.00     0.064 A 
ATOM     80  C   UNL A   1      39.499  27.339  29.977  1.00  0.00     0.173 A 
ATOM     81  C   UNL A   1      40.729  29.064  28.850  1.00  0.00     0.173 A 
ATOM     82  F   UNL A   1      38.941  26.827  31.083  1.00  0.00    -0.203 F 
ATOM     83  C   UNL A   1      39.462  26.597  28.798  1.00  0.00     0.198 A 
ATOM     84  C   UNL A   1      40.665  28.335  27.665  1.00  0.00     0.198 A 
ATOM     85  F   UNL A   1      41.354  30.251  28.846  1.00  0.00    -0.203 F 
ATOM     86  F   UNL A   1      38.882  25.389  28.789  1.00  0.00    -0.200 F 
ATOM     87  C   UNL A   1      40.039  27.098  27.642  1.00  0.00     0.200 A 
ATOM     88  F   UNL A   1      41.211  28.831  26.546  1.00  0.00    -0.200 F 
ATOM     89  F   UNL A   1      40.000  26.386  26.508  1.00  0.00    -0.200 F 
ENDBRANCH  55  79
BRANCH  67  90
ATOM     90  C   UNL A   1      44.518  28.559  35.457  1.00  0.00     0.064 A 
ATOM     91  C   UNL A   1      44.429  27.348  36.160  1.00  0.00     0.173 A 
ATOM     92  C   UNL A   1      45.785  28.971  35.017  1.00  0.00     0.173 A 
ATOM     93  F   UNL A   1      43.242  26.917  36.615  1.00  0.00    -0.203 F 
ATOM     94  C   UNL A   1      45.567  26.595  36.435  1.00  0.00     0.198 A 
ATOM     95  C   UNL A   1      46.916  28.199  35.264  1.00  0.00     0.198 A 
ATOM     96  F   UNL A   1      45.925  30.117  34.334  1.00  0.00    -0.203 F 
ATOM     97  F   UNL A   1      45.465  25.468  37.153  1.00  0.00    -0.200 F 
ATOM     98  C   UNL A   1      46.808  27.017  35.981  1.00  0.00     0.200 A 
ATOM     99  F   UNL A   1      48.112  28.600  34.810  1.00  0.00    -0.200 F 
ATOM    100  F   UNL A   1      47.901  26.286  36.239  1.00  0.00    -0.200 F 
ENDBRANCH  67  90
ENDBRANCH  41  42
ENDBRANCH  33  36
ENDBRANCH  31  32
ENDBRANCH  30  31
ENDBRANCH  29  30
ENDBRANCH  28  29
ENDBRANCH   1  28
TORSDOF 17
ENDMDL
MODEL 2
REMARK VINA RESULT:     -11.1      0.801      2.129
REMARK SMILES C[C@H]1[C@@H](C(=O)NCCCCCCNC(=O)c2ccc(-c3c4nc(c(-c5c(F)c(F)c(F)c(F)c5F)c5ccc([nH]5)c(-c5c(F)c(F)c(F)c(F)c5F)c5nc(c(-c6c(F)c(F)c(F)c(F)c6F)c6ccc3[nH]6)C=C5)C=C4)cc2)CC[N@@H+]1CC(=O)NNC(=O)c1cccs1
REMARK SMILES IDX 8 1 7 2 6 3 4 4 5 5 3 7 1 8 2 9 81 10 79 11 80 12 82 14
REMARK SMILES IDX 83 15 84 16 85 17 86 19 87 20 88 22 89 23 90 24 93 25 91 26
REMARK SMILES IDX 92 27 9 28 10 29 11 30 12 31 13 32 14 33 15 35 16 36 17 37
REMARK SMILES IDX 78 38 18 39 77 40 19 41 20 42 21 43 71 44 22 45 76 46 70 47
REMARK SMILES IDX 72 48 23 49 75 50 69 51 68 52 24 54 56 55 36 56 55 57 37 58
REMARK SMILES IDX 40 59 54 60 73 61 38 62 39 63 53 65 74 66 41 67 25 68 26 69
REMARK SMILES IDX 34 70 27 71 28 72 32 73 35 74 29 75 30 76 33 77 31 78 57 79
REMARK SMILES IDX 58 80 66 81 59 82 60 83 64 84 67 85 61 86 62 87 65 88 63 89
REMARK SMILES IDX 42 90 43 91 51 92 44 93 45 94 49 95 52 96 46 97 47 98 50 99
REMARK SMILES IDX 48 100
REMARK H PARENT 6 6 81 13 85 18 86 21 13 34 72 53 40 64
REMARK Flexibility Score: inf
ROOT
ATOM      1  C   UNL A   1      34.922  31.253  28.000  1.00  0.00     0.021 C 
ENDROOT
BRANCH   1   2
ATOM      2  C   UNL A   1      33.891  30.208  27.562  1.00  0.00     0.116 C 
BRANCH   2   3
ATOM      3  N   UNL A   1      33.986  30.044  26.128  1.00  0.00    -0.356 N 
ATOM      4  C   UNL A   1      33.470  29.076  25.324  1.00  0.00     0.229 C 
ATOM      5  O   UNL A   1      33.977  28.974  24.204  1.00  0.00    -0.275 OA
ATOM      6  H   UNL A   1      34.503  30.740  25.663  1.00  0.00     0.163 HD
BRANCH   4   7
ATOM      7  C   UNL A   1      32.231  28.277  25.740  1.00  0.00     0.142 C 
ATOM      8  C   UNL A   1      33.577  25.989  25.709  1.00  0.00     0.076 C 
ATOM      9  C   UNL A   1      32.302  26.759  26.018  1.00  0.00     0.194 C 
ATOM     10  N   UNL A   1      31.263  26.122  25.201  1.00  0.00    -0.324 N 
ATOM     11  C   UNL A   1      31.112  28.412  24.688  1.00  0.00     0.081 C 
ATOM     12  C   UNL A   1      30.967  27.026  24.097  1.00  0.00     0.263 C 
ATOM     13  H   UNL A   1      31.628  25.246  24.826  1.00  0.00     0.348 HD
BRANCH  10  14
ATOM     14  C   UNL A   1      30.111  25.556  25.916  1.00  0.00     0.365 C 
BRANCH  14  15
ATOM     15  C   UNL A   1      30.225  24.080  26.292  1.00  0.00     0.293 C 
ATOM     16  O   UNL A   1      30.075  23.700  27.458  1.00  0.00    -0.267 OA
ATOM     17  N   UNL A   1      30.480  23.132  25.335  1.00  0.00    -0.262 N 
ATOM     18  H   UNL A   1      30.454  22.189  25.617  1.00  0.00     0.191 HD
BRANCH  17  19
ATOM     19  N   UNL A   1      30.773  23.388  23.996  1.00  0.00    -0.263 N 
ATOM     20  C   UNL A   1      31.986  23.052  23.406  1.00  0.00     0.279 C 
ATOM     21  H   UNL A   1      30.088  23.827  23.441  1.00  0.00     0.191 HD
ATOM     22  O   UNL A   1      32.370  23.749  22.463  1.00  0.00    -0.266 OA
BRANCH  20  23
ATOM     23  C   UNL A   1      32.703  21.892  23.911  1.00  0.00     0.094 A 
ATOM     24  C   UNL A   1      32.396  20.548  23.789  1.00  0.00     0.026 A 
ATOM     25  S   UNL A   1      34.200  22.113  24.716  1.00  0.00    -0.139 S 
ATOM     26  C   UNL A   1      33.372  19.705  24.394  1.00  0.00     0.012 A 
ATOM     27  C   UNL A   1      34.410  20.429  24.934  1.00  0.00     0.065 A 
ENDBRANCH  20  23
ENDBRANCH  17  19
ENDBRANCH  14  15
ENDBRANCH  10  14
ENDBRANCH   4   7
ENDBRANCH   2   3
ENDBRANCH   1   2
BRANCH   1  28
ATOM     28  C   UNL A   1      34.427  32.232  29.063  1.00  0.00     0.002 C 
BRANCH  28  29
ATOM     29  C   UNL A   1      34.518  33.701  28.651  1.00  0.00     0.002 C 
BRANCH  29  30
ATOM     30  C   UNL A   1      33.235  34.513  28.856  1.00  0.00     0.021 C 
BRANCH  30  31
ATOM     31  C   UNL A   1      33.447  35.923  29.404  1.00  0.00     0.116 C 
BRANCH  31  32
ATOM     32  N   UNL A   1      32.592  36.191  30.548  1.00  0.00    -0.352 N 
ATOM     33  C   UNL A   1      32.657  35.689  31.822  1.00  0.00     0.251 C 
ATOM     34  H   UNL A   1      31.857  36.826  30.384  1.00  0.00     0.163 HD
ATOM     35  O   UNL A   1      31.712  35.823  32.591  1.00  0.00    -0.269 OA
BRANCH  33  36
ATOM     36  C   UNL A   1      33.872  34.976  32.267  1.00  0.00     0.039 A 
ATOM     37  C   UNL A   1      33.761  33.649  32.684  1.00  0.00     0.014 A 
ATOM     38  C   UNL A   1      35.110  35.625  32.294  1.00  0.00     0.014 A 
ATOM     39  C   UNL A   1      34.904  32.953  33.081  1.00  0.00     0.010 A 
ATOM     40  C   UNL A   1      36.258  34.909  32.619  1.00  0.00     0.010 A 
ATOM     41  C   UNL A   1      36.165  33.569  33.025  1.00  0.00    -0.014 A 
BRANCH  41  42
ATOM     42  C   UNL A   1      37.397  32.825  33.390  1.00  0.00     0.031 A 
ATOM     43  C   UNL A   1      38.112  33.130  34.676  1.00  0.00     0.074 A 
ATOM     44  C   UNL A   1      37.900  31.915  32.535  1.00  0.00     0.049 A 
ATOM     45  N   UNL A   1      39.226  32.627  35.144  1.00  0.00    -0.248 NA
ATOM     46  C   UNL A   1      37.508  34.155  35.541  1.00  0.00     0.031 C 
ATOM     47  C   UNL A   1      37.321  31.564  31.237  1.00  0.00     0.029 A 
ATOM     48  N   UNL A   1      39.017  31.122  32.625  1.00  0.00    -0.354 N 
ATOM     49  C   UNL A   1      39.460  33.280  36.347  1.00  0.00     0.074 A 
ATOM     50  C   UNL A   1      38.405  34.256  36.511  1.00  0.00     0.031 C 
ATOM     51  C   UNL A   1      38.072  30.610  30.664  1.00  0.00     0.029 A 
ATOM     52  C   UNL A   1      39.205  30.311  31.533  1.00  0.00     0.049 A 
ATOM     53  H   UNL A   1      39.625  31.133  33.399  1.00  0.00     0.167 HD
ATOM     54  C   UNL A   1      40.450  33.066  37.246  1.00  0.00     0.037 A 
ATOM     55  C   UNL A   1      40.188  29.431  31.260  1.00  0.00     0.037 A 
ATOM     56  C   UNL A   1      41.487  32.080  37.086  1.00  0.00     0.049 A 
ATOM     57  C   UNL A   1      41.289  29.229  32.266  1.00  0.00     0.074 A 
ATOM     58  C   UNL A   1      42.504  31.746  37.964  1.00  0.00     0.029 A 
ATOM     59  N   UNL A   1      41.645  31.274  35.967  1.00  0.00    -0.354 N 
ATOM     60  N   UNL A   1      41.460  29.799  33.433  1.00  0.00    -0.248 NA
ATOM     61  C   UNL A   1      42.332  28.253  31.917  1.00  0.00     0.031 C 
ATOM     62  C   UNL A   1      43.308  30.777  37.353  1.00  0.00     0.029 A 
ATOM     63  C   UNL A   1      42.759  30.464  36.121  1.00  0.00     0.049 A 
ATOM     64  H   UNL A   1      41.052  31.277  35.181  1.00  0.00     0.167 HD
ATOM     65  C   UNL A   1      42.610  29.235  33.970  1.00  0.00     0.074 A 
ATOM     66  C   UNL A   1      43.085  28.263  33.008  1.00  0.00     0.031 C 
ATOM     67  C   UNL A   1      43.217  29.499  35.153  1.00  0.00     0.037 A 
BRANCH  54  68
ATOM     68  C   UNL A   1      40.460  33.916  38.486  1.00  0.00     0.064 A 
ATOM     69  C   UNL A   1      41.186  35.115  38.551  1.00  0.00     0.173 A 
ATOM     70  C   UNL A   1      39.710  33.543  39.611  1.00  0.00     0.173 A 
ATOM     71  F   UNL A   1      41.928  35.514  37.508  1.00  0.00    -0.203 F 
ATOM     72  C   UNL A   1      41.187  35.892  39.708  1.00  0.00     0.198 A 
ATOM     73  C   UNL A   1      39.686  34.339  40.754  1.00  0.00     0.198 A 
ATOM     74  F   UNL A   1      38.992  32.410  39.601  1.00  0.00    -0.203 F 
ATOM     75  F   UNL A   1      41.931  37.005  39.765  1.00  0.00    -0.200 F 
ATOM     76  C   UNL A   1      40.431  35.507  40.805  1.00  0.00     0.200 A 
ATOM     77  F   UNL A   1      38.943  33.973  41.808  1.00  0.00    -0.200 F 
ATOM     78  F   UNL A   1      40.428  36.258  41.914  1.00  0.00    -0.200 F 
ENDBRANCH  54  68
BRANCH  55  79
ATOM     79  C   UNL A   1      40.164  28.662  29.988  1.00  0.00     0.064 A 
ATOM     80  C   UNL A   1      40.761  29.172  28.827  1.00  0.00     0.173 A 
ATOM     81  C   UNL A   1      39.542  27.408  29.904  1.00  0.00     0.173 A 
ATOM     82  F   UNL A   1      41.350  30.376  28.851  1.00  0.00    -0.203 F 
ATOM     83  C   UNL A   1      40.718  28.467  27.626  1.00  0.00     0.198 A 
ATOM     84  C   UNL A   1      39.527  26.690  28.711  1.00  0.00     0.198 A 
ATOM     85  F   UNL A   1      38.960  26.872  30.988  1.00  0.00    -0.203 F 
ATOM     86  F   UNL A   1      41.254  29.001  26.520  1.00  0.00    -0.200 F 
ATOM     87  C   UNL A   1      40.106  27.224  27.570  1.00  0.00     0.200 A 
ATOM     88  F   UNL A   1      38.948  25.482  28.665  1.00  0.00    -0.200 F 
ATOM     89  F   UNL A   1      40.069  26.545  26.416  1.00  0.00    -0.200 F 
ENDBRANCH  55  79
BRANCH  67  90
ATOM     90  C   UNL A   1      44.446  28.702  35.488  1.00  0.00     0.064 A 
ATOM     91  C   UNL A   1      45.731  29.149  35.146  1.00  0.00     0.173 A 
ATOM     92  C   UNL A   1      44.339  27.494  36.195  1.00  0.00     0.173 A 
ATOM     93  F   UNL A   1      45.888  30.290  34.457  1.00  0.00    -0.203 F 
ATOM     94  C   UNL A   1      46.861  28.404  35.474  1.00  0.00     0.198 A 
ATOM     95  C   UNL A   1      45.471  26.768  36.551  1.00  0.00     0.198 A 
ATOM     96  F   UNL A   1      43.134  27.025  36.553  1.00  0.00    -0.203 F 
ATOM     97  F   UNL A   1      48.073  28.824  35.091  1.00  0.00    -0.200 F 
ATOM     98  C   UNL A   1      46.730  27.218  36.183  1.00  0.00     0.200 A 
ATOM     99  F   UNL A   1      45.344  25.632  37.250  1.00  0.00    -0.200 F 
ATOM    100  F   UNL A   1      47.818  26.506  36.506  1.00  0.00    -0.200 F 
ENDBRANCH  67  90
ENDBRANCH  41  42
ENDBRANCH  33  36
ENDBRANCH  31  32
ENDBRANCH  30  31
ENDBRANCH  29  30
ENDBRANCH  28  29
ENDBRANCH   1  28
TORSDOF 17
ENDMDL
MODEL 3
REMARK VINA RESULT:     -11.0      1.992      3.276
REMARK SMILES C[C@H]1[C@@H](C(=O)NCCCCCCNC(=O)c2ccc(-c3c4nc(c(-c5c(F)c(F)c(F)c(F)c5F)c5ccc([nH]5)c(-c5c(F)c(F)c(F)c(F)c5F)c5nc(c(-c6c(F)c(F)c(F)c(F)c6F)c6ccc3[nH]6)C=C5)C=C4)cc2)CC[N@@H+]1CC(=O)NNC(=O)c1cccs1
REMARK SMILES IDX 8 1 7 2 6 3 4 4 5 5 3 7 1 8 2 9 81 10 79 11 80 12 82 14
REMARK SMILES IDX 83 15 84 16 85 17 86 19 87 20 88 22 89 23 90 24 93 25 91 26
REMARK SMILES IDX 92 27 9 28 10 29 11 30 12 31 13 32 14 33 15 35 16 36 17 37
REMARK SMILES IDX 78 38 18 39 77 40 19 41 20 42 21 43 71 44 22 45 76 46 70 47
REMARK SMILES IDX 72 48 23 49 75 50 69 51 68 52 24 54 56 55 36 56 55 57 37 58
REMARK SMILES IDX 40 59 54 60 73 61 38 62 39 63 53 65 74 66 41 67 25 68 26 69
REMARK SMILES IDX 34 70 27 71 28 72 32 73 35 74 29 75 30 76 33 77 31 78 57 79
REMARK SMILES IDX 58 80 66 81 59 82 60 83 64 84 67 85 61 86 62 87 65 88 63 89
REMARK SMILES IDX 42 90 43 91 51 92 44 93 45 94 49 95 52 96 46 97 47 98 50 99
REMARK SMILES IDX 48 100
REMARK H PARENT 6 6 81 13 85 18 86 21 13 34 72 53 40 64
REMARK Flexibility Score: inf
ROOT
ATOM      1  C   UNL A   1      32.461  28.713  25.099  1.00  0.00     0.021 C 
ENDROOT
BRANCH   1   2
ATOM      2  C   UNL A   1      33.849  28.523  24.482  1.00  0.00     0.116 C 
BRANCH   2   3
ATOM      3  N   UNL A   1      33.715  27.713  23.292  1.00  0.00    -0.356 N 
ATOM      4  C   UNL A   1      33.626  26.362  23.161  1.00  0.00     0.229 C 
ATOM      5  O   UNL A   1      33.865  25.909  22.038  1.00  0.00    -0.275 OA
ATOM      6  H   UNL A   1      33.682  28.217  22.447  1.00  0.00     0.163 HD
BRANCH   4   7
ATOM      7  C   UNL A   1      33.105  25.487  24.304  1.00  0.00     0.142 C 
ATOM      8  C   UNL A   1      35.326  24.034  24.334  1.00  0.00     0.076 C 
ATOM      9  C   UNL A   1      33.981  24.389  24.948  1.00  0.00     0.194 C 
ATOM     10  N   UNL A   1      33.205  23.144  24.915  1.00  0.00    -0.324 N 
ATOM     11  C   UNL A   1      31.821  24.743  23.886  1.00  0.00     0.081 C 
ATOM     12  C   UNL A   1      32.213  23.281  23.856  1.00  0.00     0.263 C 
ATOM     13  H   UNL A   1      33.831  22.370  24.688  1.00  0.00     0.348 HD
BRANCH  10  14
ATOM     14  C   UNL A   1      32.726  22.627  26.204  1.00  0.00     0.365 C 
BRANCH  14  15
ATOM     15  C   UNL A   1      33.442  21.384  26.727  1.00  0.00     0.293 C 
ATOM     16  O   UNL A   1      34.282  21.458  27.630  1.00  0.00    -0.267 OA
ATOM     17  N   UNL A   1      33.155  20.144  26.217  1.00  0.00    -0.262 N 
ATOM     18  H   UNL A   1      33.579  19.369  26.651  1.00  0.00     0.191 HD
BRANCH  17  19
ATOM     19  N   UNL A   1      32.313  19.886  25.135  1.00  0.00    -0.263 N 
ATOM     20  C   UNL A   1      32.600  18.939  24.159  1.00  0.00     0.279 C 
ATOM     21  H   UNL A   1      31.476  20.399  25.059  1.00  0.00     0.191 HD
ATOM     22  O   UNL A   1      32.147  19.136  23.028  1.00  0.00    -0.266 OA
BRANCH  20  23
ATOM     23  C   UNL A   1      33.380  17.772  24.535  1.00  0.00     0.094 A 
ATOM     24  C   UNL A   1      34.723  17.509  24.330  1.00  0.00     0.026 A 
ATOM     25  S   UNL A   1      32.638  16.520  25.441  1.00  0.00    -0.139 S 
ATOM     26  C   UNL A   1      35.129  16.260  24.882  1.00  0.00     0.012 A 
ATOM     27  C   UNL A   1      34.091  15.620  25.519  1.00  0.00     0.065 A 
ENDBRANCH  20  23
ENDBRANCH  17  19
ENDBRANCH  14  15
ENDBRANCH  10  14
ENDBRANCH   4   7
ENDBRANCH   2   3
ENDBRANCH   1   2
BRANCH   1  28
ATOM     28  C   UNL A   1      32.368  29.836  26.130  1.00  0.00     0.002 C 
BRANCH  28  29
ATOM     29  C   UNL A   1      31.328  30.907  25.798  1.00  0.00     0.002 C 
BRANCH  29  30
ATOM     30  C   UNL A   1      31.294  32.099  26.760  1.00  0.00     0.021 C 
BRANCH  30  31
ATOM     31  C   UNL A   1      32.646  32.766  27.006  1.00  0.00     0.116 C 
BRANCH  31  32
ATOM     32  N   UNL A   1      32.496  34.121  27.508  1.00  0.00    -0.352 N 
ATOM     33  C   UNL A   1      33.087  34.720  28.590  1.00  0.00     0.251 C 
ATOM     34  H   UNL A   1      31.879  34.693  26.997  1.00  0.00     0.163 HD
ATOM     35  O   UNL A   1      32.660  35.785  29.021  1.00  0.00    -0.269 OA
BRANCH  33  36
ATOM     36  C   UNL A   1      34.243  34.073  29.245  1.00  0.00     0.039 A 
ATOM     37  C   UNL A   1      34.010  33.086  30.204  1.00  0.00     0.014 A 
ATOM     38  C   UNL A   1      35.549  34.457  28.929  1.00  0.00     0.014 A 
ATOM     39  C   UNL A   1      35.091  32.446  30.811  1.00  0.00     0.010 A 
ATOM     40  C   UNL A   1      36.625  33.768  29.480  1.00  0.00     0.010 A 
ATOM     41  C   UNL A   1      36.407  32.762  30.433  1.00  0.00    -0.014 A 
BRANCH  41  42
ATOM     42  C   UNL A   1      37.565  32.050  31.029  1.00  0.00     0.031 A 
ATOM     43  C   UNL A   1      38.052  32.416  32.403  1.00  0.00     0.074 A 
ATOM     44  C   UNL A   1      38.211  31.114  30.309  1.00  0.00     0.049 A 
ATOM     45  N   UNL A   1      39.077  31.948  33.072  1.00  0.00    -0.248 NA
ATOM     46  C   UNL A   1      37.305  33.466  33.112  1.00  0.00     0.031 C 
ATOM     47  C   UNL A   1      37.860  30.704  28.948  1.00  0.00     0.029 A 
ATOM     48  N   UNL A   1      39.303  30.341  30.616  1.00  0.00    -0.354 N 
ATOM     49  C   UNL A   1      39.100  32.650  34.268  1.00  0.00     0.074 A 
ATOM     50  C   UNL A   1      38.026  33.617  34.213  1.00  0.00     0.031 C 
ATOM     51  C   UNL A   1      38.704  29.739  28.549  1.00  0.00     0.029 A 
ATOM     52  C   UNL A   1      39.678  29.491  29.606  1.00  0.00     0.049 A 
ATOM     53  H   UNL A   1      39.773  30.392  31.480  1.00  0.00     0.167 HD
ATOM     54  C   UNL A   1      39.928  32.486  35.328  1.00  0.00     0.037 A 
ATOM     55  C   UNL A   1      40.699  28.615  29.537  1.00  0.00     0.037 A 
ATOM     56  C   UNL A   1      40.985  31.510  35.384  1.00  0.00     0.049 A 
ATOM     57  C   UNL A   1      41.617  28.468  30.720  1.00  0.00     0.074 A 
ATOM     58  C   UNL A   1      41.842  31.225  36.433  1.00  0.00     0.029 A 
ATOM     59  N   UNL A   1      41.334  30.662  34.342  1.00  0.00    -0.354 N 
ATOM     60  N   UNL A   1      41.587  29.087  31.875  1.00  0.00    -0.248 NA
ATOM     61  C   UNL A   1      42.711  27.495  30.591  1.00  0.00     0.031 C 
ATOM     62  C   UNL A   1      42.745  30.244  36.005  1.00  0.00     0.029 A 
ATOM     63  C   UNL A   1      42.412  29.875  34.712  1.00  0.00     0.049 A 
ATOM     64  H   UNL A   1      40.880  30.626  33.468  1.00  0.00     0.167 HD
ATOM     65  C   UNL A   1      42.634  28.560  32.619  1.00  0.00     0.074 A 
ATOM     66  C   UNL A   1      43.271  27.558  31.790  1.00  0.00     0.031 C 
ATOM     67  C   UNL A   1      43.033  28.879  33.875  1.00  0.00     0.037 A 
BRANCH  54  68
ATOM     68  C   UNL A   1      39.724  33.384  36.516  1.00  0.00     0.064 A 
ATOM     69  C   UNL A   1      40.388  34.615  36.632  1.00  0.00     0.173 A 
ATOM     70  C   UNL A   1      38.830  33.024  37.536  1.00  0.00     0.173 A 
ATOM     71  F   UNL A   1      41.261  35.003  35.691  1.00  0.00    -0.203 F 
ATOM     72  C   UNL A   1      40.190  35.436  37.740  1.00  0.00     0.198 A 
ATOM     73  C   UNL A   1      38.608  33.863  38.625  1.00  0.00     0.198 A 
ATOM     74  F   UNL A   1      38.163  31.862  37.473  1.00  0.00    -0.203 F 
ATOM     75  F   UNL A   1      40.877  36.581  37.854  1.00  0.00    -0.200 F 
ATOM     76  C   UNL A   1      39.295  35.063  38.731  1.00  0.00     0.200 A 
ATOM     77  F   UNL A   1      37.732  33.508  39.575  1.00  0.00    -0.200 F 
ATOM     78  F   UNL A   1      39.101  35.857  39.793  1.00  0.00    -0.200 F 
ENDBRANCH  54  68
BRANCH  55  79
ATOM     79  C   UNL A   1      40.894  27.796  28.312  1.00  0.00     0.064 A 
ATOM     80  C   UNL A   1      40.295  26.534  28.187  1.00  0.00     0.173 A 
ATOM     81  C   UNL A   1      41.682  28.251  27.246  1.00  0.00     0.173 A 
ATOM     82  F   UNL A   1      39.549  26.046  29.189  1.00  0.00    -0.203 F 
ATOM     83  C   UNL A   1      40.496  25.750  27.053  1.00  0.00     0.198 A 
ATOM     84  C   UNL A   1      41.857  27.480  26.099  1.00  0.00     0.198 A 
ATOM     85  F   UNL A   1      42.273  29.454  27.312  1.00  0.00    -0.203 F 
ATOM     86  F   UNL A   1      39.952  24.528  26.982  1.00  0.00    -0.200 F 
ATOM     87  C   UNL A   1      41.272  26.227  26.007  1.00  0.00     0.200 A 
ATOM     88  F   UNL A   1      42.595  27.950  25.084  1.00  0.00    -0.200 F 
ATOM     89  F   UNL A   1      41.461  25.475  24.915  1.00  0.00    -0.200 F 
ENDBRANCH  55  79
BRANCH  67  90
ATOM     90  C   UNL A   1      44.194  28.113  34.443  1.00  0.00     0.064 A 
ATOM     91  C   UNL A   1      44.012  26.923  35.163  1.00  0.00     0.173 A 
ATOM     92  C   UNL A   1      45.509  28.556  34.229  1.00  0.00     0.173 A 
ATOM     93  F   UNL A   1      42.775  26.464  35.408  1.00  0.00    -0.203 F 
ATOM     94  C   UNL A   1      45.101  26.220  35.672  1.00  0.00     0.198 A 
ATOM     95  C   UNL A   1      46.596  27.833  34.710  1.00  0.00     0.198 A 
ATOM     96  F   UNL A   1      45.739  29.683  33.541  1.00  0.00    -0.203 F 
ATOM     97  F   UNL A   1      44.900  25.114  36.401  1.00  0.00    -0.200 F 
ATOM     98  C   UNL A   1      46.392  26.671  35.439  1.00  0.00     0.200 A 
ATOM     99  F   UNL A   1      47.843  28.261  34.469  1.00  0.00    -0.200 F 
ATOM    100  F   UNL A   1      47.438  25.988  35.921  1.00  0.00    -0.200 F 
ENDBRANCH  67  90
ENDBRANCH  41  42
ENDBRANCH  33  36
ENDBRANCH  31  32
ENDBRANCH  30  31
ENDBRANCH  29  30
ENDBRANCH  28  29
ENDBRANCH   1  28
TORSDOF 17
ENDMDL
