MODEL 1
REMARK VINA RESULT:     -11.9      0.000      0.000
REMARK SMILES CC[NH2+][C@@]1(C(=O)NCCCCCCNC(=O)c2ccc(-c3c4nc(c(-c5c(F)c(F)c(F)c(F)c5F)c5ccc([nH]5)c(-c5c(F)c(F)c(F)c(F)c5F)c5nc(c(-c6c(F)c(F)c(F)c(F)c6F)c6ccc3[nH]6)C=C5)C=C4)cc2)CC[C@H](Oc2ccc3c(c2)OCO3)C1
REMARK SMILES IDX 10 1 9 2 8 3 7 4 5 5 6 6 4 8 80 9 93 10 81 11 82 12 3 13
REMARK SMILES IDX 2 16 1 17 83 18 84 19 85 20 89 21 86 22 88 23 87 24 90 25
REMARK SMILES IDX 92 26 91 27 11 28 12 29 13 30 14 31 15 32 16 34 17 35 18 36
REMARK SMILES IDX 79 37 19 38 78 39 20 40 21 41 22 42 72 43 23 44 77 45 71 46
REMARK SMILES IDX 73 47 24 48 76 49 70 50 69 51 25 53 57 54 37 55 56 56 38 57
REMARK SMILES IDX 41 58 55 59 74 60 39 61 40 62 54 64 75 65 42 66 26 67 27 68
REMARK SMILES IDX 35 69 28 70 29 71 33 72 36 73 30 74 31 75 34 76 32 77 58 78
REMARK SMILES IDX 59 79 67 80 60 81 61 82 65 83 68 84 62 85 63 86 66 87 64 88
REMARK SMILES IDX 43 89 44 90 52 91 45 92 46 93 50 94 53 95 47 96 48 97 51 98
REMARK SMILES IDX 49 99
REMARK H PARENT 7 7 3 14 3 15 14 33 73 52 41 63
REMARK Flexibility Score: inf
ROOT
ATOM      1  C   UNL A   1      32.265  29.398  26.775  1.00  0.00     0.002 C 
ENDROOT
BRANCH   1   2
ATOM      2  C   UNL A   1      31.399  28.149  26.908  1.00  0.00     0.021 C 
BRANCH   2   3
ATOM      3  C   UNL A   1      31.951  26.861  26.307  1.00  0.00     0.116 C 
BRANCH   3   4
ATOM      4  N   UNL A   1      31.413  25.676  26.926  1.00  0.00    -0.351 N 
ATOM      5  C   UNL A   1      31.642  24.352  26.720  1.00  0.00     0.281 C 
ATOM      6  O   UNL A   1      30.831  23.615  27.301  1.00  0.00    -0.268 OA
ATOM      7  H   UNL A   1      30.752  25.861  27.631  1.00  0.00     0.163 HD
BRANCH   5   8
ATOM      8  C   UNL A   1      32.780  23.758  25.781  1.00  0.00     0.179 C 
ATOM      9  C   UNL A   1      34.192  24.378  25.872  1.00  0.00     0.083 C 
ATOM     10  C   UNL A   1      32.337  23.952  24.311  1.00  0.00     0.124 C 
ATOM     11  C   UNL A   1      34.441  25.202  24.608  1.00  0.00     0.052 C 
ATOM     12  C   UNL A   1      33.472  24.658  23.565  1.00  0.00     0.180 C 
BRANCH   8  13
ATOM     13  N   UNL A   1      32.889  22.287  26.051  1.00  0.00    -0.334 N 
ATOM     14  H   UNL A   1      32.699  22.135  27.042  1.00  0.00     0.347 HD
ATOM     15  H   UNL A   1      32.216  21.837  25.431  1.00  0.00     0.347 HD
BRANCH  13  16
ATOM     16  C   UNL A   1      34.191  21.685  25.741  1.00  0.00     0.257 C 
ATOM     17  C   UNL A   1      33.987  20.260  25.241  1.00  0.00     0.071 C 
ENDBRANCH  13  16
ENDBRANCH   8  13
BRANCH  12  18
ATOM     18  O   UNL A   1      32.998  25.482  22.493  1.00  0.00    -0.490 OA
BRANCH  18  19
ATOM     19  C   UNL A   1      32.312  26.640  22.719  1.00  0.00     0.123 A 
ATOM     20  C   UNL A   1      32.950  27.890  22.626  1.00  0.00     0.050 A 
ATOM     21  C   UNL A   1      30.916  26.574  22.789  1.00  0.00     0.097 A 
ATOM     22  C   UNL A   1      32.213  29.080  22.658  1.00  0.00     0.054 A 
ATOM     23  C   UNL A   1      30.209  27.762  22.806  1.00  0.00     0.169 A 
ATOM     24  C   UNL A   1      30.842  28.980  22.741  1.00  0.00     0.166 A 
ATOM     25  O   UNL A   1      28.855  27.889  22.878  1.00  0.00    -0.453 OA
ATOM     26  O   UNL A   1      29.969  30.020  22.764  1.00  0.00    -0.454 OA
ATOM     27  C   UNL A   1      28.717  29.320  22.943  1.00  0.00     0.468 C 
ENDBRANCH  18  19
ENDBRANCH  12  18
ENDBRANCH   5   8
ENDBRANCH   3   4
ENDBRANCH   2   3
ENDBRANCH   1   2
BRANCH   1  28
ATOM     28  C   UNL A   1      31.686  30.537  25.927  1.00  0.00     0.002 C 
BRANCH  28  29
ATOM     29  C   UNL A   1      31.430  31.881  26.626  1.00  0.00     0.021 C 
BRANCH  29  30
ATOM     30  C   UNL A   1      32.652  32.627  27.175  1.00  0.00     0.116 C 
BRANCH  30  31
ATOM     31  N   UNL A   1      32.369  33.992  27.586  1.00  0.00    -0.352 N 
ATOM     32  C   UNL A   1      33.018  34.772  28.511  1.00  0.00     0.251 C 
ATOM     33  H   UNL A   1      31.603  34.417  27.137  1.00  0.00     0.163 HD
ATOM     34  O   UNL A   1      32.618  35.916  28.746  1.00  0.00    -0.269 OA
BRANCH  32  35
ATOM     35  C   UNL A   1      34.186  34.256  29.257  1.00  0.00     0.039 A 
ATOM     36  C   UNL A   1      33.988  33.610  30.477  1.00  0.00     0.014 A 
ATOM     37  C   UNL A   1      35.484  34.451  28.785  1.00  0.00     0.014 A 
ATOM     38  C   UNL A   1      35.086  33.100  31.182  1.00  0.00     0.010 A 
ATOM     39  C   UNL A   1      36.576  33.891  29.459  1.00  0.00     0.010 A 
ATOM     40  C   UNL A   1      36.392  33.193  30.663  1.00  0.00    -0.014 A 
BRANCH  40  41
ATOM     41  C   UNL A   1      37.531  32.493  31.333  1.00  0.00     0.031 A 
ATOM     42  C   UNL A   1      38.262  31.344  30.686  1.00  0.00     0.074 A 
ATOM     43  C   UNL A   1      37.885  32.865  32.581  1.00  0.00     0.049 A 
ATOM     44  N   UNL A   1      39.268  30.639  31.149  1.00  0.00    -0.248 NA
ATOM     45  C   UNL A   1      37.795  30.914  29.362  1.00  0.00     0.031 C 
ATOM     46  C   UNL A   1      37.223  33.904  33.370  1.00  0.00     0.029 A 
ATOM     47  N   UNL A   1      38.887  32.411  33.407  1.00  0.00    -0.354 N 
ATOM     48  C   UNL A   1      39.541  29.674  30.186  1.00  0.00     0.074 A 
ATOM     49  C   UNL A   1      38.568  29.861  29.128  1.00  0.00     0.031 C 
ATOM     50  C   UNL A   1      37.857  34.036  34.545  1.00  0.00     0.029 A 
ATOM     51  C   UNL A   1      38.946  33.066  34.613  1.00  0.00     0.049 A 
ATOM     52  H   UNL A   1      39.504  31.685  33.157  1.00  0.00     0.167 HD
ATOM     53  C   UNL A   1      40.518  28.734  30.172  1.00  0.00     0.037 A 
ATOM     54  C   UNL A   1      39.777  32.912  35.662  1.00  0.00     0.037 A 
ATOM     55  C   UNL A   1      41.518  28.566  31.199  1.00  0.00     0.049 A 
ATOM     56  C   UNL A   1      40.871  31.884  35.610  1.00  0.00     0.074 A 
ATOM     57  C   UNL A   1      42.606  27.708  31.210  1.00  0.00     0.029 A 
ATOM     58  N   UNL A   1      41.550  29.261  32.397  1.00  0.00    -0.354 N 
ATOM     59  N   UNL A   1      41.171  31.046  34.649  1.00  0.00    -0.248 NA
ATOM     60  C   UNL A   1      41.745  31.783  36.788  1.00  0.00     0.031 C 
ATOM     61  C   UNL A   1      43.271  27.851  32.432  1.00  0.00     0.029 A 
ATOM     62  C   UNL A   1      42.623  28.830  33.166  1.00  0.00     0.049 A 
ATOM     63  H   UNL A   1      40.907  29.956  32.665  1.00  0.00     0.167 HD
ATOM     64  C   UNL A   1      42.275  30.333  35.098  1.00  0.00     0.074 A 
ATOM     65  C   UNL A   1      42.605  30.847  36.409  1.00  0.00     0.031 C 
ATOM     66  C   UNL A   1      42.950  29.338  34.473  1.00  0.00     0.037 A 
BRANCH  53  67
ATOM     67  C   UNL A   1      40.581  27.805  28.995  1.00  0.00     0.064 A 
ATOM     68  C   UNL A   1      39.781  26.654  28.925  1.00  0.00     0.173 A 
ATOM     69  C   UNL A   1      41.386  28.110  27.886  1.00  0.00     0.173 A 
ATOM     70  F   UNL A   1      38.993  26.317  29.957  1.00  0.00    -0.203 F 
ATOM     71  C   UNL A   1      39.806  25.830  27.802  1.00  0.00     0.198 A 
ATOM     72  C   UNL A   1      41.387  27.298  26.754  1.00  0.00     0.198 A 
ATOM     73  F   UNL A   1      42.157  29.208  27.893  1.00  0.00    -0.203 F 
ATOM     74  F   UNL A   1      39.060  24.716  27.774  1.00  0.00    -0.200 F 
ATOM     75  C   UNL A   1      40.602  26.157  26.715  1.00  0.00     0.200 A 
ATOM     76  F   UNL A   1      42.145  27.626  25.697  1.00  0.00    -0.200 F 
ATOM     77  F   UNL A   1      40.615  25.369  25.631  1.00  0.00    -0.200 F 
ENDBRANCH  53  67
BRANCH  54  78
ATOM     78  C   UNL A   1      39.617  33.780  36.857  1.00  0.00     0.064 A 
ATOM     79  C   UNL A   1      40.206  35.052  36.904  1.00  0.00     0.173 A 
ATOM     80  C   UNL A   1      38.867  33.364  37.965  1.00  0.00     0.173 A 
ATOM     81  F   UNL A   1      40.951  35.482  35.875  1.00  0.00    -0.203 F 
ATOM     82  C   UNL A   1      40.062  35.868  38.023  1.00  0.00     0.198 A 
ATOM     83  C   UNL A   1      38.702  34.192  39.072  1.00  0.00     0.198 A 
ATOM     84  F   UNL A   1      38.279  32.158  37.963  1.00  0.00    -0.203 F 
ATOM     85  F   UNL A   1      40.667  37.063  38.059  1.00  0.00    -0.200 F 
ATOM     86  C   UNL A   1      39.305  35.441  39.103  1.00  0.00     0.200 A 
ATOM     87  F   UNL A   1      37.957  33.782  40.107  1.00  0.00    -0.200 F 
ATOM     88  F   UNL A   1      39.159  36.230  40.176  1.00  0.00    -0.200 F 
ENDBRANCH  54  78
BRANCH  66  89
ATOM     89  C   UNL A   1      44.128  28.745  35.191  1.00  0.00     0.064 A 
ATOM     90  C   UNL A   1      43.987  27.635  36.037  1.00  0.00     0.173 A 
ATOM     91  C   UNL A   1      45.415  29.270  35.006  1.00  0.00     0.173 A 
ATOM     92  F   UNL A   1      42.773  27.107  36.261  1.00  0.00    -0.203 F 
ATOM     93  C   UNL A   1      45.089  27.086  36.687  1.00  0.00     0.198 A 
ATOM     94  C   UNL A   1      46.518  28.703  35.639  1.00  0.00     0.198 A 
ATOM     95  F   UNL A   1      45.604  30.330  34.205  1.00  0.00    -0.203 F 
ATOM     96  F   UNL A   1      44.925  26.051  37.524  1.00  0.00    -0.200 F 
ATOM     97  C   UNL A   1      46.354  27.616  36.482  1.00  0.00     0.200 A 
ATOM     98  F   UNL A   1      47.742  29.211  35.432  1.00  0.00    -0.200 F 
ATOM     99  F   UNL A   1      47.414  27.082  37.106  1.00  0.00    -0.200 F 
ENDBRANCH  66  89
ENDBRANCH  40  41
ENDBRANCH  32  35
ENDBRANCH  30  31
ENDBRANCH  29  30
ENDBRANCH  28  29
ENDBRANCH   1  28
TORSDOF 17
ENDMDL
MODEL 2
REMARK VINA RESULT:     -11.9      1.734      7.429
REMARK SMILES CC[NH2+][C@@]1(C(=O)NCCCCCCNC(=O)c2ccc(-c3c4nc(c(-c5c(F)c(F)c(F)c(F)c5F)c5ccc([nH]5)c(-c5c(F)c(F)c(F)c(F)c5F)c5nc(c(-c6c(F)c(F)c(F)c(F)c6F)c6ccc3[nH]6)C=C5)C=C4)cc2)CC[C@H](Oc2ccc3c(c2)OCO3)C1
REMARK SMILES IDX 10 1 9 2 8 3 7 4 5 5 6 6 4 8 80 9 93 10 81 11 82 12 3 13
REMARK SMILES IDX 2 16 1 17 83 18 84 19 85 20 89 21 86 22 88 23 87 24 90 25
REMARK SMILES IDX 92 26 91 27 11 28 12 29 13 30 14 31 15 32 16 34 17 35 18 36
REMARK SMILES IDX 79 37 19 38 78 39 20 40 21 41 22 42 72 43 23 44 77 45 71 46
REMARK SMILES IDX 73 47 24 48 76 49 70 50 69 51 25 53 57 54 37 55 56 56 38 57
REMARK SMILES IDX 41 58 55 59 74 60 39 61 40 62 54 64 75 65 42 66 26 67 27 68
REMARK SMILES IDX 35 69 28 70 29 71 33 72 36 73 30 74 31 75 34 76 32 77 58 78
REMARK SMILES IDX 59 79 67 80 60 81 61 82 65 83 68 84 62 85 63 86 66 87 64 88
REMARK SMILES IDX 43 89 44 90 52 91 45 92 46 93 50 94 53 95 47 96 48 97 51 98
REMARK SMILES IDX 49 99
REMARK H PARENT 7 7 3 14 3 15 14 33 73 52 41 63
REMARK Flexibility Score: inf
ROOT
ATOM      1  C   UNL A   1      32.143  26.681  26.511  1.00  0.00     0.002 C 
ENDROOT
BRANCH   1   2
ATOM      2  C   UNL A   1      33.612  26.557  26.113  1.00  0.00     0.021 C 
BRANCH   2   3
ATOM      3  C   UNL A   1      34.086  25.183  25.649  1.00  0.00     0.116 C 
BRANCH   3   4
ATOM      4  N   UNL A   1      33.501  24.104  26.402  1.00  0.00    -0.351 N 
ATOM      5  C   UNL A   1      33.282  22.795  26.106  1.00  0.00     0.281 C 
ATOM      6  O   UNL A   1      32.558  22.217  26.930  1.00  0.00    -0.268 OA
ATOM      7  H   UNL A   1      33.202  24.363  27.303  1.00  0.00     0.163 HD
BRANCH   5   8
ATOM      8  C   UNL A   1      33.819  22.052  24.806  1.00  0.00     0.179 C 
ATOM      9  C   UNL A   1      35.269  22.335  24.355  1.00  0.00     0.083 C 
ATOM     10  C   UNL A   1      32.926  22.469  23.613  1.00  0.00     0.124 C 
ATOM     11  C   UNL A   1      35.223  23.195  23.091  1.00  0.00     0.052 C 
ATOM     12  C   UNL A   1      33.839  22.972  22.492  1.00  0.00     0.180 C 
BRANCH   8  13
ATOM     13  N   UNL A   1      33.666  20.575  25.015  1.00  0.00    -0.334 N 
ATOM     14  H   UNL A   1      34.522  20.122  24.695  1.00  0.00     0.347 HD
ATOM     15  H   UNL A   1      33.482  20.449  26.010  1.00  0.00     0.347 HD
BRANCH  13  16
ATOM     16  C   UNL A   1      32.536  19.954  24.313  1.00  0.00     0.257 C 
ATOM     17  C   UNL A   1      32.580  18.444  24.513  1.00  0.00     0.071 C 
ENDBRANCH  13  16
ENDBRANCH   8  13
BRANCH  12  18
ATOM     18  O   UNL A   1      33.214  23.974  21.679  1.00  0.00    -0.490 OA
BRANCH  18  19
ATOM     19  C   UNL A   1      32.816  25.175  22.189  1.00  0.00     0.123 A 
ATOM     20  C   UNL A   1      33.656  26.302  22.128  1.00  0.00     0.050 A 
ATOM     21  C   UNL A   1      31.468  25.327  22.536  1.00  0.00     0.097 A 
ATOM     22  C   UNL A   1      33.179  27.575  22.465  1.00  0.00     0.054 A 
ATOM     23  C   UNL A   1      31.018  26.596  22.851  1.00  0.00     0.169 A 
ATOM     24  C   UNL A   1      31.852  27.688  22.815  1.00  0.00     0.166 A 
ATOM     25  O   UNL A   1      29.749  26.929  23.216  1.00  0.00    -0.453 OA
ATOM     26  O   UNL A   1      31.213  28.839  23.151  1.00  0.00    -0.454 OA
ATOM     27  C   UNL A   1      29.903  28.333  23.492  1.00  0.00     0.468 C 
ENDBRANCH  18  19
ENDBRANCH  12  18
ENDBRANCH   5   8
ENDBRANCH   3   4
ENDBRANCH   2   3
ENDBRANCH   1   2
BRANCH   1  28
ATOM     28  C   UNL A   1      31.779  27.884  27.388  1.00  0.00     0.002 C 
BRANCH  28  29
ATOM     29  C   UNL A   1      31.407  29.194  26.675  1.00  0.00     0.021 C 
BRANCH  29  30
ATOM     30  C   UNL A   1      32.562  30.083  26.201  1.00  0.00     0.116 C 
BRANCH  30  31
ATOM     31  N   UNL A   1      32.418  31.480  26.576  1.00  0.00    -0.352 N 
ATOM     32  C   UNL A   1      33.233  32.256  27.362  1.00  0.00     0.251 C 
ATOM     33  H   UNL A   1      31.622  31.933  26.214  1.00  0.00     0.163 HD
ATOM     34  O   UNL A   1      32.936  33.432  27.590  1.00  0.00    -0.269 OA
BRANCH  32  35
ATOM     35  C   UNL A   1      34.462  31.700  27.967  1.00  0.00     0.039 A 
ATOM     36  C   UNL A   1      35.576  32.523  28.131  1.00  0.00     0.014 A 
ATOM     37  C   UNL A   1      34.542  30.356  28.327  1.00  0.00     0.014 A 
ATOM     38  C   UNL A   1      36.741  32.012  28.720  1.00  0.00     0.010 A 
ATOM     39  C   UNL A   1      35.683  29.859  28.970  1.00  0.00     0.010 A 
ATOM     40  C   UNL A   1      36.796  30.686  29.190  1.00  0.00    -0.014 A 
BRANCH  40  41
ATOM     41  C   UNL A   1      37.975  30.203  29.975  1.00  0.00     0.031 A 
ATOM     42  C   UNL A   1      38.221  30.629  31.399  1.00  0.00     0.074 A 
ATOM     43  C   UNL A   1      38.878  29.401  29.374  1.00  0.00     0.049 A 
ATOM     44  N   UNL A   1      39.202  30.294  32.205  1.00  0.00    -0.248 NA
ATOM     45  C   UNL A   1      37.260  31.568  31.994  1.00  0.00     0.031 C 
ATOM     46  C   UNL A   1      38.821  28.966  27.978  1.00  0.00     0.029 A 
ATOM     47  N   UNL A   1      40.022  28.809  29.857  1.00  0.00    -0.354 N 
ATOM     48  C   UNL A   1      38.989  30.991  33.388  1.00  0.00     0.074 A 
ATOM     49  C   UNL A   1      37.803  31.799  33.182  1.00  0.00     0.031 C 
ATOM     50  C   UNL A   1      39.856  28.149  27.728  1.00  0.00     0.029 A 
ATOM     51  C   UNL A   1      40.673  28.031  28.932  1.00  0.00     0.049 A 
ATOM     52  H   UNL A   1      40.342  28.932  30.780  1.00  0.00     0.167 HD
ATOM     53  C   UNL A   1      39.698  30.950  34.543  1.00  0.00     0.037 A 
ATOM     54  C   UNL A   1      41.802  27.302  29.029  1.00  0.00     0.037 A 
ATOM     55  C   UNL A   1      40.855  30.119  34.774  1.00  0.00     0.049 A 
ATOM     56  C   UNL A   1      42.553  27.248  30.329  1.00  0.00     0.074 A 
ATOM     57  C   UNL A   1      41.566  29.939  35.950  1.00  0.00     0.029 A 
ATOM     58  N   UNL A   1      41.473  29.334  33.814  1.00  0.00    -0.354 N 
ATOM     59  N   UNL A   1      42.281  27.840  31.465  1.00  0.00    -0.248 NA
ATOM     60  C   UNL A   1      43.769  26.421  30.361  1.00  0.00     0.031 C 
ATOM     61  C   UNL A   1      42.641  29.082  35.691  1.00  0.00     0.029 A 
ATOM     62  C   UNL A   1      42.573  28.691  34.364  1.00  0.00     0.049 A 
ATOM     63  H   UNL A   1      41.176  29.245  32.880  1.00  0.00     0.167 HD
ATOM     64  C   UNL A   1      43.276  27.446  32.348  1.00  0.00     0.074 A 
ATOM     65  C   UNL A   1      44.151  26.548  31.624  1.00  0.00     0.031 C 
ATOM     66  C   UNL A   1      43.446  27.801  33.644  1.00  0.00     0.037 A 
BRANCH  53  67
ATOM     67  C   UNL A   1      39.243  31.823  35.677  1.00  0.00     0.064 A 
ATOM     68  C   UNL A   1      38.329  31.361  36.636  1.00  0.00     0.173 A 
ATOM     69  C   UNL A   1      39.788  33.104  35.854  1.00  0.00     0.173 A 
ATOM     70  F   UNL A   1      37.779  30.144  36.514  1.00  0.00    -0.203 F 
ATOM     71  C   UNL A   1      37.958  32.160  37.716  1.00  0.00     0.198 A 
ATOM     72  C   UNL A   1      39.435  33.889  36.950  1.00  0.00     0.198 A 
ATOM     73  F   UNL A   1      40.679  33.587  34.977  1.00  0.00    -0.203 F 
ATOM     74  F   UNL A   1      37.055  31.712  38.600  1.00  0.00    -0.200 F 
ATOM     75  C   UNL A   1      38.517  33.419  37.876  1.00  0.00     0.200 A 
ATOM     76  F   UNL A   1      39.990  35.099  37.113  1.00  0.00    -0.200 F 
ATOM     77  F   UNL A   1      38.167  34.181  38.922  1.00  0.00    -0.200 F 
ENDBRANCH  53  67
BRANCH  54  78
ATOM     78  C   UNL A   1      42.281  26.534  27.851  1.00  0.00     0.064 A 
ATOM     79  C   UNL A   1      41.783  25.252  27.578  1.00  0.00     0.173 A 
ATOM     80  C   UNL A   1      43.234  27.067  26.973  1.00  0.00     0.173 A 
ATOM     81  F   UNL A   1      40.886  24.694  28.404  1.00  0.00    -0.203 F 
ATOM     82  C   UNL A   1      42.232  24.528  26.477  1.00  0.00     0.198 A 
ATOM     83  C   UNL A   1      43.663  26.352  25.858  1.00  0.00     0.198 A 
ATOM     84  F   UNL A   1      43.736  28.292  27.189  1.00  0.00    -0.203 F 
ATOM     85  F   UNL A   1      41.769  23.289  26.259  1.00  0.00    -0.200 F 
ATOM     86  C   UNL A   1      43.166  25.080  25.614  1.00  0.00     0.200 A 
ATOM     87  F   UNL A   1      44.554  26.896  25.018  1.00  0.00    -0.200 F 
ATOM     88  F   UNL A   1      43.591  24.386  24.550  1.00  0.00    -0.200 F 
ENDBRANCH  54  78
BRANCH  66  89
ATOM     89  C   UNL A   1      44.616  27.208  34.376  1.00  0.00     0.064 A 
ATOM     90  C   UNL A   1      44.529  25.955  35.001  1.00  0.00     0.173 A 
ATOM     91  C   UNL A   1      45.844  27.883  34.426  1.00  0.00     0.173 A 
ATOM     92  F   UNL A   1      43.371  25.277  34.997  1.00  0.00    -0.203 F 
ATOM     93  C   UNL A   1      45.625  25.409  35.665  1.00  0.00     0.198 A 
ATOM     94  C   UNL A   1      46.944  27.323  35.070  1.00  0.00     0.198 A 
ATOM     95  F   UNL A   1      45.980  29.083  33.842  1.00  0.00    -0.203 F 
ATOM     96  F   UNL A   1      45.508  24.229  36.291  1.00  0.00    -0.200 F 
ATOM     97  C   UNL A   1      46.833  26.091  35.693  1.00  0.00     0.200 A 
ATOM     98  F   UNL A   1      48.114  27.979  35.089  1.00  0.00    -0.200 F 
ATOM     99  F   UNL A   1      47.887  25.561  36.330  1.00  0.00    -0.200 F 
ENDBRANCH  66  89
ENDBRANCH  40  41
ENDBRANCH  32  35
ENDBRANCH  30  31
ENDBRANCH  29  30
ENDBRANCH  28  29
ENDBRANCH   1  28
TORSDOF 17
ENDMDL
MODEL 3
REMARK VINA RESULT:     -11.8      1.429      3.614
REMARK SMILES CC[NH2+][C@@]1(C(=O)NCCCCCCNC(=O)c2ccc(-c3c4nc(c(-c5c(F)c(F)c(F)c(F)c5F)c5ccc([nH]5)c(-c5c(F)c(F)c(F)c(F)c5F)c5nc(c(-c6c(F)c(F)c(F)c(F)c6F)c6ccc3[nH]6)C=C5)C=C4)cc2)CC[C@H](Oc2ccc3c(c2)OCO3)C1
REMARK SMILES IDX 10 1 9 2 8 3 7 4 5 5 6 6 4 8 80 9 93 10 81 11 82 12 3 13
REMARK SMILES IDX 2 16 1 17 83 18 84 19 85 20 89 21 86 22 88 23 87 24 90 25
REMARK SMILES IDX 92 26 91 27 11 28 12 29 13 30 14 31 15 32 16 34 17 35 18 36
REMARK SMILES IDX 79 37 19 38 78 39 20 40 21 41 22 42 72 43 23 44 77 45 71 46
REMARK SMILES IDX 73 47 24 48 76 49 70 50 69 51 25 53 57 54 37 55 56 56 38 57
REMARK SMILES IDX 41 58 55 59 74 60 39 61 40 62 54 64 75 65 42 66 26 67 27 68
REMARK SMILES IDX 35 69 28 70 29 71 33 72 36 73 30 74 31 75 34 76 32 77 58 78
REMARK SMILES IDX 59 79 67 80 60 81 61 82 65 83 68 84 62 85 63 86 66 87 64 88
REMARK SMILES IDX 43 89 44 90 52 91 45 92 46 93 50 94 53 95 47 96 48 97 51 98
REMARK SMILES IDX 49 99
REMARK H PARENT 7 7 3 14 3 15 14 33 73 52 41 63
REMARK Flexibility Score: inf
ROOT
ATOM      1  C   UNL A   1      32.292  29.864  27.024  1.00  0.00     0.002 C 
ENDROOT
BRANCH   1   2
ATOM      2  C   UNL A   1      31.645  28.536  27.408  1.00  0.00     0.021 C 
BRANCH   2   3
ATOM      3  C   UNL A   1      31.654  27.435  26.353  1.00  0.00     0.116 C 
BRANCH   3   4
ATOM      4  N   UNL A   1      31.683  26.112  26.923  1.00  0.00    -0.351 N 
ATOM      5  C   UNL A   1      31.364  24.890  26.417  1.00  0.00     0.281 C 
ATOM      6  O   UNL A   1      31.312  23.998  27.277  1.00  0.00    -0.268 OA
ATOM      7  H   UNL A   1      31.990  26.087  27.858  1.00  0.00     0.163 HD
BRANCH   5   8
ATOM      8  C   UNL A   1      31.016  24.597  24.893  1.00  0.00     0.179 C 
ATOM      9  C   UNL A   1      30.915  23.124  24.442  1.00  0.00     0.083 C 
ATOM     10  C   UNL A   1      32.129  25.223  24.019  1.00  0.00     0.124 C 
ATOM     11  C   UNL A   1      32.137  22.797  23.582  1.00  0.00     0.052 C 
ATOM     12  C   UNL A   1      32.654  24.138  23.075  1.00  0.00     0.180 C 
BRANCH   8  13
ATOM     13  N   UNL A   1      29.722  25.283  24.570  1.00  0.00    -0.334 N 
ATOM     14  H   UNL A   1      29.069  24.577  24.228  1.00  0.00     0.347 HD
ATOM     15  H   UNL A   1      29.421  25.737  25.431  1.00  0.00     0.347 HD
BRANCH  13  16
ATOM     16  C   UNL A   1      29.807  26.345  23.560  1.00  0.00     0.257 C 
ATOM     17  C   UNL A   1      28.550  27.203  23.615  1.00  0.00     0.071 C 
ENDBRANCH  13  16
ENDBRANCH   8  13
BRANCH  12  18
ATOM     18  O   UNL A   1      34.035  24.320  22.738  1.00  0.00    -0.490 OA
BRANCH  18  19
ATOM     19  C   UNL A   1      35.040  23.970  23.592  1.00  0.00     0.123 A 
ATOM     20  C   UNL A   1      35.149  24.561  24.864  1.00  0.00     0.050 A 
ATOM     21  C   UNL A   1      35.800  22.835  23.283  1.00  0.00     0.097 A 
ATOM     22  C   UNL A   1      36.050  24.066  25.814  1.00  0.00     0.054 A 
ATOM     23  C   UNL A   1      36.673  22.357  24.242  1.00  0.00     0.169 A 
ATOM     24  C   UNL A   1      36.792  22.957  25.474  1.00  0.00     0.166 A 
ATOM     25  O   UNL A   1      37.490  21.276  24.116  1.00  0.00    -0.453 OA
ATOM     26  O   UNL A   1      37.695  22.329  26.270  1.00  0.00    -0.454 OA
ATOM     27  C   UNL A   1      38.199  21.320  25.367  1.00  0.00     0.468 C 
ENDBRANCH  18  19
ENDBRANCH  12  18
ENDBRANCH   5   8
ENDBRANCH   3   4
ENDBRANCH   2   3
ENDBRANCH   1   2
BRANCH   1  28
ATOM     28  C   UNL A   1      31.472  30.777  26.106  1.00  0.00     0.002 C 
BRANCH  28  29
ATOM     29  C   UNL A   1      31.311  32.246  26.528  1.00  0.00     0.021 C 
BRANCH  29  30
ATOM     30  C   UNL A   1      32.495  32.897  27.253  1.00  0.00     0.116 C 
BRANCH  30  31
ATOM     31  N   UNL A   1      32.240  34.262  27.682  1.00  0.00    -0.352 N 
ATOM     32  C   UNL A   1      32.917  35.023  28.603  1.00  0.00     0.251 C 
ATOM     33  H   UNL A   1      31.473  34.703  27.251  1.00  0.00     0.163 HD
ATOM     34  O   UNL A   1      32.539  36.170  28.857  1.00  0.00    -0.269 OA
BRANCH  32  35
ATOM     35  C   UNL A   1      34.091  34.483  29.322  1.00  0.00     0.039 A 
ATOM     36  C   UNL A   1      33.915  33.896  30.575  1.00  0.00     0.014 A 
ATOM     37  C   UNL A   1      35.375  34.596  28.790  1.00  0.00     0.014 A 
ATOM     38  C   UNL A   1      35.018  33.364  31.257  1.00  0.00     0.010 A 
ATOM     39  C   UNL A   1      36.468  34.012  29.443  1.00  0.00     0.010 A 
ATOM     40  C   UNL A   1      36.303  33.373  30.681  1.00  0.00    -0.014 A 
BRANCH  40  41
ATOM     41  C   UNL A   1      37.436  32.647  31.334  1.00  0.00     0.031 A 
ATOM     42  C   UNL A   1      38.123  31.475  30.681  1.00  0.00     0.074 A 
ATOM     43  C   UNL A   1      37.826  33.018  32.572  1.00  0.00     0.049 A 
ATOM     44  N   UNL A   1      39.118  30.746  31.129  1.00  0.00    -0.248 NA
ATOM     45  C   UNL A   1      37.618  31.048  29.370  1.00  0.00     0.031 C 
ATOM     46  C   UNL A   1      37.208  34.081  33.366  1.00  0.00     0.029 A 
ATOM     47  N   UNL A   1      38.832  32.544  33.381  1.00  0.00    -0.354 N 
ATOM     48  C   UNL A   1      39.346  29.767  30.169  1.00  0.00     0.074 A 
ATOM     49  C   UNL A   1      38.357  29.972  29.129  1.00  0.00     0.031 C 
ATOM     50  C   UNL A   1      37.869  34.205  34.527  1.00  0.00     0.029 A 
ATOM     51  C   UNL A   1      38.933  33.206  34.580  1.00  0.00     0.049 A 
ATOM     52  H   UNL A   1      39.424  31.800  33.124  1.00  0.00     0.167 HD
ATOM     53  C   UNL A   1      40.297  28.801  30.143  1.00  0.00     0.037 A 
ATOM     54  C   UNL A   1      39.780  33.036  35.614  1.00  0.00     0.037 A 
ATOM     55  C   UNL A   1      41.312  28.612  31.151  1.00  0.00     0.049 A 
ATOM     56  C   UNL A   1      40.846  31.979  35.547  1.00  0.00     0.074 A 
ATOM     57  C   UNL A   1      42.377  27.725  31.146  1.00  0.00     0.029 A 
ATOM     58  N   UNL A   1      41.388  29.315  32.343  1.00  0.00    -0.354 N 
ATOM     59  N   UNL A   1      41.103  31.126  34.588  1.00  0.00    -0.248 NA
ATOM     60  C   UNL A   1      41.740  31.863  36.709  1.00  0.00     0.031 C 
ATOM     61  C   UNL A   1      43.070  27.859  32.354  1.00  0.00     0.029 A 
ATOM     62  C   UNL A   1      42.464  28.861  33.093  1.00  0.00     0.049 A 
ATOM     63  H   UNL A   1      40.769  30.030  32.617  1.00  0.00     0.167 HD
ATOM     64  C   UNL A   1      42.196  30.386  35.019  1.00  0.00     0.074 A 
ATOM     65  C   UNL A   1      42.567  30.901  36.320  1.00  0.00     0.031 C 
ATOM     66  C   UNL A   1      42.831  29.370  34.389  1.00  0.00     0.037 A 
BRANCH  53  67
ATOM     67  C   UNL A   1      40.310  27.861  28.971  1.00  0.00     0.064 A 
ATOM     68  C   UNL A   1      41.078  28.126  27.827  1.00  0.00     0.173 A 
ATOM     69  C   UNL A   1      39.613  26.644  29.026  1.00  0.00     0.173 A 
ATOM     70  F   UNL A   1      41.764  29.274  27.725  1.00  0.00    -0.203 F 
ATOM     71  C   UNL A   1      41.128  27.218  26.771  1.00  0.00     0.198 A 
ATOM     72  C   UNL A   1      39.687  25.727  27.979  1.00  0.00     0.198 A 
ATOM     73  F   UNL A   1      38.878  26.333  30.103  1.00  0.00    -0.203 F 
ATOM     74  F   UNL A   1      41.839  27.509  25.673  1.00  0.00    -0.200 F 
ATOM     75  C   UNL A   1      40.438  26.018  26.851  1.00  0.00     0.200 A 
ATOM     76  F   UNL A   1      39.035  24.559  28.066  1.00  0.00    -0.200 F 
ATOM     77  F   UNL A   1      40.497  25.141  25.839  1.00  0.00    -0.200 F 
ENDBRANCH  53  67
BRANCH  54  78
ATOM     78  C   UNL A   1      39.668  33.918  36.804  1.00  0.00     0.064 A 
ATOM     79  C   UNL A   1      38.913  33.526  37.919  1.00  0.00     0.173 A 
ATOM     80  C   UNL A   1      40.319  35.158  36.857  1.00  0.00     0.173 A 
ATOM     81  F   UNL A   1      38.255  32.358  37.904  1.00  0.00    -0.203 F 
ATOM     82  C   UNL A   1      38.802  34.351  39.035  1.00  0.00     0.198 A 
ATOM     83  C   UNL A   1      40.229  35.969  37.984  1.00  0.00     0.198 A 
ATOM     84  F   UNL A   1      41.059  35.572  35.817  1.00  0.00    -0.203 F 
ATOM     85  F   UNL A   1      38.043  33.971  40.072  1.00  0.00    -0.200 F 
ATOM     86  C   UNL A   1      39.465  35.568  39.071  1.00  0.00     0.200 A 
ATOM     87  F   UNL A   1      40.884  37.137  38.020  1.00  0.00    -0.200 F 
ATOM     88  F   UNL A   1      39.365  36.357  40.149  1.00  0.00    -0.200 F 
ENDBRANCH  54  78
BRANCH  66  89
ATOM     89  C   UNL A   1      44.007  28.750  35.087  1.00  0.00     0.064 A 
ATOM     90  C   UNL A   1      45.305  29.256  34.925  1.00  0.00     0.173 A 
ATOM     91  C   UNL A   1      43.830  27.660  35.952  1.00  0.00     0.173 A 
ATOM     92  F   UNL A   1      45.530  30.286  34.094  1.00  0.00    -0.203 F 
ATOM     93  C   UNL A   1      46.386  28.681  35.588  1.00  0.00     0.198 A 
ATOM     94  C   UNL A   1      44.910  27.103  36.633  1.00  0.00     0.198 A 
ATOM     95  F   UNL A   1      42.609  27.140  36.144  1.00  0.00    -0.203 F 
ATOM     96  F   UNL A   1      47.624  29.154  35.386  1.00  0.00    -0.200 F 
ATOM     97  C   UNL A   1      46.187  27.610  36.447  1.00  0.00     0.200 A 
ATOM     98  F   UNL A   1      44.714  26.074  37.470  1.00  0.00    -0.200 F 
ATOM     99  F   UNL A   1      47.228  27.060  37.088  1.00  0.00    -0.200 F 
ENDBRANCH  66  89
ENDBRANCH  40  41
ENDBRANCH  32  35
ENDBRANCH  30  31
ENDBRANCH  29  30
ENDBRANCH  28  29
ENDBRANCH   1  28
TORSDOF 17
ENDMDL
