MODEL 1
REMARK VINA RESULT:     -11.9      0.000      0.000
REMARK SMILES Cc1nonc1C[C@@]1(C(=O)NCCCCCCNC(=O)c2ccc(-c3c4nc(c(-c5c(F)c(F)c(F)c(F)c5F)c5ccc([nH]5)c(-c5c(F)c(F)c(F)c(F)c5F)c5nc(c(-c6c(F)c(F)c(F)c(F)c6F)c6ccc3[nH]6)C=C5)C=C4)cc2)CCC[NH2+]C1
REMARK SMILES IDX 14 1 13 2 12 3 11 4 9 5 10 6 8 8 84 9 88 10 85 11 87 12
REMARK SMILES IDX 86 13 7 16 6 17 1 18 2 19 3 20 4 21 5 22 15 23 16 24 17 25
REMARK SMILES IDX 18 26 19 27 20 29 21 30 22 31 83 32 23 33 82 34 24 35 25 36
REMARK SMILES IDX 26 37 76 38 27 39 81 40 75 41 77 42 28 43 80 44 74 45 73 46
REMARK SMILES IDX 29 48 61 49 41 50 60 51 42 52 45 53 59 54 78 55 43 56 44 57
REMARK SMILES IDX 58 59 79 60 46 61 30 62 31 63 39 64 32 65 33 66 37 67 40 68
REMARK SMILES IDX 34 69 35 70 38 71 36 72 62 73 63 74 71 75 64 76 65 77 69 78
REMARK SMILES IDX 72 79 66 80 67 81 70 82 68 83 47 84 48 85 56 86 49 87 50 88
REMARK SMILES IDX 54 89 57 90 51 91 52 92 55 93 53 94
REMARK H PARENT 11 7 87 14 87 15 18 28 77 47 45 58
REMARK Flexibility Score: inf
ROOT
ATOM      1  C   UNL A   1      32.430  30.041  26.842  1.00  0.00     0.002 C 
ENDROOT
BRANCH   1   2
ATOM      2  C   UNL A   1      33.633  29.551  26.023  1.00  0.00     0.021 C 
BRANCH   2   3
ATOM      3  C   UNL A   1      33.986  28.080  26.242  1.00  0.00     0.116 C 
BRANCH   3   4
ATOM      4  N   UNL A   1      32.818  27.337  26.659  1.00  0.00    -0.355 N 
ATOM      5  C   UNL A   1      31.826  26.688  26.003  1.00  0.00     0.232 C 
ATOM      6  O   UNL A   1      30.897  26.313  26.729  1.00  0.00    -0.274 OA
ATOM      7  H   UNL A   1      32.722  27.294  27.638  1.00  0.00     0.163 HD
BRANCH   5   8
ATOM      8  C   UNL A   1      31.839  26.405  24.483  1.00  0.00     0.104 C 
ATOM      9  C   UNL A   1      31.570  27.733  23.709  1.00  0.00     0.029 C 
ATOM     10  C   UNL A   1      30.703  25.411  24.112  1.00  0.00     0.277 C 
ATOM     11  C   UNL A   1      30.125  28.226  23.836  1.00  0.00     0.063 C 
ATOM     12  N   UNL A   1      29.349  25.933  24.303  1.00  0.00    -0.345 N 
ATOM     13  C   UNL A   1      29.122  27.132  23.500  1.00  0.00     0.260 C 
ATOM     14  H   UNL A   1      28.677  25.217  24.029  1.00  0.00     0.346 HD
ATOM     15  H   UNL A   1      29.237  26.178  25.287  1.00  0.00     0.346 HD
BRANCH   8  16
ATOM     16  C   UNL A   1      33.184  25.801  23.987  1.00  0.00     0.085 C 
BRANCH  16  17
ATOM     17  C   UNL A   1      33.246  25.207  22.620  1.00  0.00     0.109 A 
ATOM     18  C   UNL A   1      33.200  22.622  23.080  1.00  0.00     0.073 C 
ATOM     19  C   UNL A   1      33.247  23.844  22.249  1.00  0.00     0.105 A 
ATOM     20  N   UNL A   1      33.278  23.743  20.918  1.00  0.00    -0.055 NA
ATOM     21  O   UNL A   1      33.278  25.056  20.459  1.00  0.00    -0.244 OA
ATOM     22  N   UNL A   1      33.234  25.954  21.516  1.00  0.00    -0.055 NA
ENDBRANCH  16  17
ENDBRANCH   8  16
ENDBRANCH   5   8
ENDBRANCH   3   4
ENDBRANCH   2   3
ENDBRANCH   1   2
BRANCH   1  23
ATOM     23  C   UNL A   1      31.394  30.854  26.060  1.00  0.00     0.002 C 
BRANCH  23  24
ATOM     24  C   UNL A   1      31.251  32.312  26.500  1.00  0.00     0.021 C 
BRANCH  24  25
ATOM     25  C   UNL A   1      32.517  32.921  27.088  1.00  0.00     0.116 C 
BRANCH  25  26
ATOM     26  N   UNL A   1      32.289  34.238  27.661  1.00  0.00    -0.352 N 
ATOM     27  C   UNL A   1      32.952  34.845  28.699  1.00  0.00     0.251 C 
ATOM     28  H   UNL A   1      31.564  34.763  27.250  1.00  0.00     0.163 HD
ATOM     29  O   UNL A   1      32.547  35.898  29.178  1.00  0.00    -0.269 OA
BRANCH  27  30
ATOM     30  C   UNL A   1      34.155  34.194  29.257  1.00  0.00     0.039 A 
ATOM     31  C   UNL A   1      35.417  34.578  28.795  1.00  0.00     0.014 A 
ATOM     32  C   UNL A   1      34.029  33.228  30.259  1.00  0.00     0.014 A 
ATOM     33  C   UNL A   1      36.560  34.039  29.386  1.00  0.00     0.010 A 
ATOM     34  C   UNL A   1      35.168  32.744  30.891  1.00  0.00     0.010 A 
ATOM     35  C   UNL A   1      36.444  33.142  30.461  1.00  0.00    -0.014 A 
BRANCH  35  36
ATOM     36  C   UNL A   1      37.633  32.577  31.145  1.00  0.00     0.031 A 
ATOM     37  C   UNL A   1      38.393  31.456  30.494  1.00  0.00     0.074 A 
ATOM     38  C   UNL A   1      37.966  32.993  32.382  1.00  0.00     0.049 A 
ATOM     39  N   UNL A   1      39.338  30.697  30.985  1.00  0.00    -0.248 NA
ATOM     40  C   UNL A   1      38.013  31.127  29.110  1.00  0.00     0.031 C 
ATOM     41  C   UNL A   1      37.293  34.058  33.127  1.00  0.00     0.029 A 
ATOM     42  N   UNL A   1      38.941  32.551  33.240  1.00  0.00    -0.354 N 
ATOM     43  C   UNL A   1      39.642  29.783  29.985  1.00  0.00     0.074 A 
ATOM     44  C   UNL A   1      38.753  30.054  28.876  1.00  0.00     0.031 C 
ATOM     45  C   UNL A   1      37.881  34.191  34.327  1.00  0.00     0.029 A 
ATOM     46  C   UNL A   1      38.938  33.193  34.454  1.00  0.00     0.049 A 
ATOM     47  H   UNL A   1      39.583  31.841  33.006  1.00  0.00     0.167 HD
ATOM     48  C   UNL A   1      40.589  28.815  29.987  1.00  0.00     0.037 A 
ATOM     49  C   UNL A   1      39.691  32.982  35.552  1.00  0.00     0.037 A 
ATOM     50  C   UNL A   1      41.493  28.574  31.080  1.00  0.00     0.049 A 
ATOM     51  C   UNL A   1      40.731  31.894  35.533  1.00  0.00     0.074 A 
ATOM     52  C   UNL A   1      42.519  27.649  31.164  1.00  0.00     0.029 A 
ATOM     53  N   UNL A   1      41.482  29.270  32.280  1.00  0.00    -0.354 N 
ATOM     54  N   UNL A   1      41.034  31.056  34.572  1.00  0.00    -0.248 NA
ATOM     55  C   UNL A   1      41.534  31.721  36.752  1.00  0.00     0.031 C 
ATOM     56  C   UNL A   1      43.103  27.759  32.430  1.00  0.00     0.029 A 
ATOM     57  C   UNL A   1      42.475  28.786  33.115  1.00  0.00     0.049 A 
ATOM     58  H   UNL A   1      40.860  30.000  32.504  1.00  0.00     0.167 HD
ATOM     59  C   UNL A   1      42.087  30.288  35.051  1.00  0.00     0.074 A 
ATOM     60  C   UNL A   1      42.369  30.757  36.392  1.00  0.00     0.031 C 
ATOM     61  C   UNL A   1      42.760  29.286  34.435  1.00  0.00     0.037 A 
BRANCH  48  62
ATOM     62  C   UNL A   1      40.694  27.945  28.769  1.00  0.00     0.064 A 
ATOM     63  C   UNL A   1      39.970  26.748  28.655  1.00  0.00     0.173 A 
ATOM     64  C   UNL A   1      41.509  28.324  27.692  1.00  0.00     0.173 A 
ATOM     65  F   UNL A   1      39.186  26.335  29.663  1.00  0.00    -0.203 F 
ATOM     66  C   UNL A   1      40.084  25.948  27.522  1.00  0.00     0.198 A 
ATOM     67  C   UNL A   1      41.596  27.536  26.547  1.00  0.00     0.198 A 
ATOM     68  F   UNL A   1      42.219  29.460  27.747  1.00  0.00    -0.203 F 
ATOM     69  F   UNL A   1      39.425  24.782  27.459  1.00  0.00    -0.200 F 
ATOM     70  C   UNL A   1      40.891  26.344  26.467  1.00  0.00     0.200 A 
ATOM     71  F   UNL A   1      42.366  27.928  25.523  1.00  0.00    -0.200 F 
ATOM     72  F   UNL A   1      40.995  25.575  25.374  1.00  0.00    -0.200 F 
ENDBRANCH  48  62
BRANCH  49  73
ATOM     73  C   UNL A   1      39.502  33.832  36.757  1.00  0.00     0.064 A 
ATOM     74  C   UNL A   1      40.132  35.080  36.858  1.00  0.00     0.173 A 
ATOM     75  C   UNL A   1      38.698  33.418  37.828  1.00  0.00     0.173 A 
ATOM     76  F   UNL A   1      40.928  35.510  35.868  1.00  0.00    -0.203 F 
ATOM     77  C   UNL A   1      39.981  35.873  37.994  1.00  0.00     0.198 A 
ATOM     78  C   UNL A   1      38.525  34.224  38.952  1.00  0.00     0.198 A 
ATOM     79  F   UNL A   1      38.069  32.234  37.778  1.00  0.00    -0.203 F 
ATOM     80  F   UNL A   1      40.630  37.042  38.083  1.00  0.00    -0.200 F 
ATOM     81  C   UNL A   1      39.173  35.447  39.037  1.00  0.00     0.200 A 
ATOM     82  F   UNL A   1      37.733  33.814  39.953  1.00  0.00    -0.200 F 
ATOM     83  F   UNL A   1      39.026  36.211  40.128  1.00  0.00    -0.200 F 
ENDBRANCH  49  73
BRANCH  61  84
ATOM     84  C   UNL A   1      43.912  28.668  35.171  1.00  0.00     0.064 A 
ATOM     85  C   UNL A   1      45.212  29.180  35.073  1.00  0.00     0.173 A 
ATOM     86  C   UNL A   1      43.691  27.589  36.043  1.00  0.00     0.173 A 
ATOM     87  F   UNL A   1      45.475  30.201  34.243  1.00  0.00    -0.203 F 
ATOM     88  C   UNL A   1      46.255  28.627  35.812  1.00  0.00     0.198 A 
ATOM     89  C   UNL A   1      44.731  27.057  36.800  1.00  0.00     0.198 A 
ATOM     90  F   UNL A   1      42.463  27.068  36.176  1.00  0.00    -0.203 F 
ATOM     91  F   UNL A   1      47.498  29.111  35.679  1.00  0.00    -0.200 F 
ATOM     92  C   UNL A   1      46.011  27.574  36.681  1.00  0.00     0.200 A 
ATOM     93  F   UNL A   1      44.491  26.047  37.648  1.00  0.00    -0.200 F 
ATOM     94  F   UNL A   1      47.014  27.053  37.402  1.00  0.00    -0.200 F 
ENDBRANCH  61  84
ENDBRANCH  35  36
ENDBRANCH  27  30
ENDBRANCH  25  26
ENDBRANCH  24  25
ENDBRANCH  23  24
ENDBRANCH   1  23
TORSDOF 15
ENDMDL
MODEL 2
REMARK VINA RESULT:     -11.9      1.205      2.862
REMARK SMILES Cc1nonc1C[C@@]1(C(=O)NCCCCCCNC(=O)c2ccc(-c3c4nc(c(-c5c(F)c(F)c(F)c(F)c5F)c5ccc([nH]5)c(-c5c(F)c(F)c(F)c(F)c5F)c5nc(c(-c6c(F)c(F)c(F)c(F)c6F)c6ccc3[nH]6)C=C5)C=C4)cc2)CCC[NH2+]C1
REMARK SMILES IDX 14 1 13 2 12 3 11 4 9 5 10 6 8 8 84 9 88 10 85 11 87 12
REMARK SMILES IDX 86 13 7 16 6 17 1 18 2 19 3 20 4 21 5 22 15 23 16 24 17 25
REMARK SMILES IDX 18 26 19 27 20 29 21 30 22 31 83 32 23 33 82 34 24 35 25 36
REMARK SMILES IDX 26 37 76 38 27 39 81 40 75 41 77 42 28 43 80 44 74 45 73 46
REMARK SMILES IDX 29 48 61 49 41 50 60 51 42 52 45 53 59 54 78 55 43 56 44 57
REMARK SMILES IDX 58 59 79 60 46 61 30 62 31 63 39 64 32 65 33 66 37 67 40 68
REMARK SMILES IDX 34 69 35 70 38 71 36 72 62 73 63 74 71 75 64 76 65 77 69 78
REMARK SMILES IDX 72 79 66 80 67 81 70 82 68 83 47 84 48 85 56 86 49 87 50 88
REMARK SMILES IDX 54 89 57 90 51 91 52 92 55 93 53 94
REMARK H PARENT 11 7 87 14 87 15 18 28 77 47 45 58
REMARK Flexibility Score: inf
ROOT
ATOM      1  C   UNL A   1      33.169  30.008  26.298  1.00  0.00     0.002 C 
ENDROOT
BRANCH   1   2
ATOM      2  C   UNL A   1      33.634  28.794  27.114  1.00  0.00     0.021 C 
BRANCH   2   3
ATOM      3  C   UNL A   1      33.223  27.445  26.524  1.00  0.00     0.116 C 
BRANCH   3   4
ATOM      4  N   UNL A   1      33.525  27.399  25.111  1.00  0.00    -0.355 N 
ATOM      5  C   UNL A   1      32.828  27.038  24.006  1.00  0.00     0.232 C 
ATOM      6  O   UNL A   1      33.506  26.977  22.974  1.00  0.00    -0.274 OA
ATOM      7  H   UNL A   1      34.441  27.694  24.906  1.00  0.00     0.163 HD
BRANCH   5   8
ATOM      8  C   UNL A   1      31.309  26.747  24.003  1.00  0.00     0.104 C 
ATOM      9  C   UNL A   1      30.982  25.703  25.117  1.00  0.00     0.029 C 
ATOM     10  C   UNL A   1      30.885  26.125  22.643  1.00  0.00     0.277 C 
ATOM     11  C   UNL A   1      31.486  24.293  24.792  1.00  0.00     0.063 C 
ATOM     12  N   UNL A   1      31.441  24.797  22.379  1.00  0.00    -0.345 N 
ATOM     13  C   UNL A   1      31.045  23.839  23.407  1.00  0.00     0.260 C 
ATOM     14  H   UNL A   1      31.104  24.471  21.473  1.00  0.00     0.346 HD
ATOM     15  H   UNL A   1      32.458  24.870  22.382  1.00  0.00     0.346 HD
BRANCH   8  16
ATOM     16  C   UNL A   1      30.443  28.016  24.239  1.00  0.00     0.085 C 
BRANCH  16  17
ATOM     17  C   UNL A   1      29.947  28.782  23.058  1.00  0.00     0.109 A 
ATOM     18  C   UNL A   1      27.337  28.564  23.246  1.00  0.00     0.073 C 
ATOM     19  C   UNL A   1      28.614  29.011  22.651  1.00  0.00     0.105 A 
ATOM     20  N   UNL A   1      28.608  29.776  21.557  1.00  0.00    -0.055 NA
ATOM     21  O   UNL A   1      29.947  30.039  21.295  1.00  0.00    -0.244 OA
ATOM     22  N   UNL A   1      30.768  29.441  22.241  1.00  0.00    -0.055 NA
ENDBRANCH  16  17
ENDBRANCH   8  16
ENDBRANCH   5   8
ENDBRANCH   3   4
ENDBRANCH   2   3
ENDBRANCH   1   2
BRANCH   1  23
ATOM     23  C   UNL A   1      31.766  30.523  26.633  1.00  0.00     0.002 C 
BRANCH  23  24
ATOM     24  C   UNL A   1      31.624  32.046  26.653  1.00  0.00     0.021 C 
BRANCH  24  25
ATOM     25  C   UNL A   1      32.772  32.778  27.336  1.00  0.00     0.116 C 
BRANCH  25  26
ATOM     26  N   UNL A   1      32.448  34.163  27.639  1.00  0.00    -0.352 N 
ATOM     27  C   UNL A   1      33.007  34.982  28.589  1.00  0.00     0.251 C 
ATOM     28  H   UNL A   1      31.735  34.565  27.093  1.00  0.00     0.163 HD
ATOM     29  O   UNL A   1      32.524  36.081  28.838  1.00  0.00    -0.269 OA
BRANCH  27  30
ATOM     30  C   UNL A   1      34.190  34.509  29.335  1.00  0.00     0.039 A 
ATOM     31  C   UNL A   1      34.015  33.902  30.582  1.00  0.00     0.014 A 
ATOM     32  C   UNL A   1      35.467  34.640  28.782  1.00  0.00     0.014 A 
ATOM     33  C   UNL A   1      35.118  33.364  31.247  1.00  0.00     0.010 A 
ATOM     34  C   UNL A   1      36.552  34.045  29.414  1.00  0.00     0.010 A 
ATOM     35  C   UNL A   1      36.390  33.403  30.653  1.00  0.00    -0.014 A 
BRANCH  35  36
ATOM     36  C   UNL A   1      37.581  32.809  31.307  1.00  0.00     0.031 A 
ATOM     37  C   UNL A   1      38.305  31.678  30.631  1.00  0.00     0.074 A 
ATOM     38  C   UNL A   1      37.950  33.209  32.539  1.00  0.00     0.049 A 
ATOM     39  N   UNL A   1      39.244  30.897  31.096  1.00  0.00    -0.248 NA
ATOM     40  C   UNL A   1      37.888  31.367  29.254  1.00  0.00     0.031 C 
ATOM     41  C   UNL A   1      37.315  34.281  33.306  1.00  0.00     0.029 A 
ATOM     42  N   UNL A   1      38.935  32.741  33.373  1.00  0.00    -0.354 N 
ATOM     43  C   UNL A   1      39.509  29.984  30.084  1.00  0.00     0.074 A 
ATOM     44  C   UNL A   1      38.600  30.281  28.996  1.00  0.00     0.031 C 
ATOM     45  C   UNL A   1      37.931  34.394  34.494  1.00  0.00     0.029 A 
ATOM     46  C   UNL A   1      38.971  33.374  34.591  1.00  0.00     0.049 A 
ATOM     47  H   UNL A   1      39.557  32.020  33.119  1.00  0.00     0.167 HD
ATOM     48  C   UNL A   1      40.435  28.998  30.058  1.00  0.00     0.037 A 
ATOM     49  C   UNL A   1      39.743  33.140  35.670  1.00  0.00     0.037 A 
ATOM     50  C   UNL A   1      41.358  28.730  31.129  1.00  0.00     0.049 A 
ATOM     51  C   UNL A   1      40.760  32.032  35.621  1.00  0.00     0.074 A 
ATOM     52  C   UNL A   1      42.366  27.784  31.183  1.00  0.00     0.029 A 
ATOM     53  N   UNL A   1      41.387  29.418  32.333  1.00  0.00    -0.354 N 
ATOM     54  N   UNL A   1      41.026  31.195  34.647  1.00  0.00    -0.248 NA
ATOM     55  C   UNL A   1      41.586  31.834  36.820  1.00  0.00     0.031 C 
ATOM     56  C   UNL A   1      42.981  27.873  32.437  1.00  0.00     0.029 A 
ATOM     57  C   UNL A   1      42.389  28.907  33.143  1.00  0.00     0.049 A 
ATOM     58  H   UNL A   1      40.785  30.158  32.576  1.00  0.00     0.167 HD
ATOM     59  C   UNL A   1      42.073  30.403  35.098  1.00  0.00     0.074 A 
ATOM     60  C   UNL A   1      42.394  30.855  36.435  1.00  0.00     0.031 C 
ATOM     61  C   UNL A   1      42.712  29.392  34.460  1.00  0.00     0.037 A 
BRANCH  48  62
ATOM     62  C   UNL A   1      40.496  28.135  28.832  1.00  0.00     0.064 A 
ATOM     63  C   UNL A   1      41.264  28.495  27.714  1.00  0.00     0.173 A 
ATOM     64  C   UNL A   1      39.795  26.920  28.782  1.00  0.00     0.173 A 
ATOM     65  F   UNL A   1      41.943  29.653  27.706  1.00  0.00    -0.203 F 
ATOM     66  C   UNL A   1      41.303  27.688  26.581  1.00  0.00     0.198 A 
ATOM     67  C   UNL A   1      39.862  26.100  27.658  1.00  0.00     0.198 A 
ATOM     68  F   UNL A   1      39.049  26.526  29.824  1.00  0.00    -0.203 F 
ATOM     69  F   UNL A   1      42.001  28.079  25.506  1.00  0.00    -0.200 F 
ATOM     70  C   UNL A   1      40.608  26.488  26.556  1.00  0.00     0.200 A 
ATOM     71  F   UNL A   1      39.200  24.935  27.642  1.00  0.00    -0.200 F 
ATOM     72  F   UNL A   1      40.651  25.709  25.466  1.00  0.00    -0.200 F 
ENDBRANCH  48  62
BRANCH  49  73
ATOM     73  C   UNL A   1      39.597  33.984  36.885  1.00  0.00     0.064 A 
ATOM     74  C   UNL A   1      38.816  33.556  37.966  1.00  0.00     0.173 A 
ATOM     75  C   UNL A   1      40.226  35.233  36.989  1.00  0.00     0.173 A 
ATOM     76  F   UNL A   1      38.176  32.378  37.904  1.00  0.00    -0.203 F 
ATOM     77  C   UNL A   1      38.653  34.351  39.098  1.00  0.00     0.198 A 
ATOM     78  C   UNL A   1      40.086  36.016  38.133  1.00  0.00     0.198 A 
ATOM     79  F   UNL A   1      40.989  35.688  35.984  1.00  0.00    -0.203 F 
ATOM     80  F   UNL A   1      37.865  33.936  40.099  1.00  0.00    -0.200 F 
ATOM     81  C   UNL A   1      39.292  35.579  39.183  1.00  0.00     0.200 A 
ATOM     82  F   UNL A   1      40.716  37.196  38.217  1.00  0.00    -0.200 F 
ATOM     83  F   UNL A   1      39.139  36.342  40.273  1.00  0.00    -0.200 F 
ENDBRANCH  49  73
BRANCH  61  84
ATOM     84  C   UNL A   1      43.867  28.746  35.166  1.00  0.00     0.064 A 
ATOM     85  C   UNL A   1      43.696  27.626  35.991  1.00  0.00     0.173 A 
ATOM     86  C   UNL A   1      45.173  29.216  34.954  1.00  0.00     0.173 A 
ATOM     87  F   UNL A   1      42.466  27.148  36.235  1.00  0.00    -0.203 F 
ATOM     88  C   UNL A   1      44.791  27.006  36.589  1.00  0.00     0.198 A 
ATOM     89  C   UNL A   1      46.267  28.577  35.532  1.00  0.00     0.198 A 
ATOM     90  F   UNL A   1      45.388  30.281  34.168  1.00  0.00    -0.203 F 
ATOM     91  F   UNL A   1      44.603  25.956  37.400  1.00  0.00    -0.200 F 
ATOM     92  C   UNL A   1      46.074  27.476  36.351  1.00  0.00     0.200 A 
ATOM     93  F   UNL A   1      47.507  29.025  35.290  1.00  0.00    -0.200 F 
ATOM     94  F   UNL A   1      47.126  26.868  36.915  1.00  0.00    -0.200 F 
ENDBRANCH  61  84
ENDBRANCH  35  36
ENDBRANCH  27  30
ENDBRANCH  25  26
ENDBRANCH  24  25
ENDBRANCH  23  24
ENDBRANCH   1  23
TORSDOF 15
ENDMDL
MODEL 3
REMARK VINA RESULT:     -11.8      0.570      7.565
REMARK SMILES Cc1nonc1C[C@@]1(C(=O)NCCCCCCNC(=O)c2ccc(-c3c4nc(c(-c5c(F)c(F)c(F)c(F)c5F)c5ccc([nH]5)c(-c5c(F)c(F)c(F)c(F)c5F)c5nc(c(-c6c(F)c(F)c(F)c(F)c6F)c6ccc3[nH]6)C=C5)C=C4)cc2)CCC[NH2+]C1
REMARK SMILES IDX 14 1 13 2 12 3 11 4 9 5 10 6 8 8 84 9 88 10 85 11 87 12
REMARK SMILES IDX 86 13 7 16 6 17 1 18 2 19 3 20 4 21 5 22 15 23 16 24 17 25
REMARK SMILES IDX 18 26 19 27 20 29 21 30 22 31 83 32 23 33 82 34 24 35 25 36
REMARK SMILES IDX 26 37 76 38 27 39 81 40 75 41 77 42 28 43 80 44 74 45 73 46
REMARK SMILES IDX 29 48 61 49 41 50 60 51 42 52 45 53 59 54 78 55 43 56 44 57
REMARK SMILES IDX 58 59 79 60 46 61 30 62 31 63 39 64 32 65 33 66 37 67 40 68
REMARK SMILES IDX 34 69 35 70 38 71 36 72 62 73 63 74 71 75 64 76 65 77 69 78
REMARK SMILES IDX 72 79 66 80 67 81 70 82 68 83 47 84 48 85 56 86 49 87 50 88
REMARK SMILES IDX 54 89 57 90 51 91 52 92 55 93 53 94
REMARK H PARENT 11 7 87 14 87 15 18 28 77 47 45 58
REMARK Flexibility Score: inf
ROOT
ATOM      1  C   UNL A   1      32.288  29.926  27.259  1.00  0.00     0.002 C 
ENDROOT
BRANCH   1   2
ATOM      2  C   UNL A   1      33.746  29.554  26.958  1.00  0.00     0.021 C 
BRANCH   2   3
ATOM      3  C   UNL A   1      33.914  28.256  26.167  1.00  0.00     0.116 C 
BRANCH   3   4
ATOM      4  N   UNL A   1      32.937  27.278  26.589  1.00  0.00    -0.355 N 
ATOM      5  C   UNL A   1      32.035  26.502  25.941  1.00  0.00     0.232 C 
ATOM      6  O   UNL A   1      31.248  25.907  26.686  1.00  0.00    -0.274 OA
ATOM      7  H   UNL A   1      32.924  27.148  27.564  1.00  0.00     0.163 HD
BRANCH   5   8
ATOM      8  C   UNL A   1      31.988  26.336  24.404  1.00  0.00     0.104 C 
ATOM      9  C   UNL A   1      31.623  27.705  23.749  1.00  0.00     0.029 C 
ATOM     10  C   UNL A   1      30.881  25.319  24.007  1.00  0.00     0.277 C 
ATOM     11  C   UNL A   1      30.165  28.116  23.978  1.00  0.00     0.063 C 
ATOM     12  N   UNL A   1      29.516  25.759  24.298  1.00  0.00    -0.345 N 
ATOM     13  C   UNL A   1      29.196  27.003  23.603  1.00  0.00     0.260 C 
ATOM     14  H   UNL A   1      28.864  25.034  24.000  1.00  0.00     0.346 HD
ATOM     15  H   UNL A   1      29.440  25.923  25.303  1.00  0.00     0.346 HD
BRANCH   8  16
ATOM     16  C   UNL A   1      33.333  25.838  23.802  1.00  0.00     0.085 C 
BRANCH  16  17
ATOM     17  C   UNL A   1      33.327  25.199  22.454  1.00  0.00     0.109 A 
ATOM     18  C   UNL A   1      33.302  22.630  22.999  1.00  0.00     0.073 C 
ATOM     19  C   UNL A   1      33.308  23.825  22.128  1.00  0.00     0.105 A 
ATOM     20  N   UNL A   1      33.274  23.682  20.801  1.00  0.00    -0.055 NA
ATOM     21  O   UNL A   1      33.252  24.978  20.301  1.00  0.00    -0.244 OA
ATOM     22  N   UNL A   1      33.261  25.910  21.329  1.00  0.00    -0.055 NA
ENDBRANCH  16  17
ENDBRANCH   8  16
ENDBRANCH   5   8
ENDBRANCH   3   4
ENDBRANCH   2   3
ENDBRANCH   1   2
BRANCH   1  23
ATOM     23  C   UNL A   1      31.608  30.809  26.208  1.00  0.00     0.002 C 
BRANCH  23  24
ATOM     24  C   UNL A   1      31.412  32.269  26.619  1.00  0.00     0.021 C 
BRANCH  24  25
ATOM     25  C   UNL A   1      32.678  32.965  27.102  1.00  0.00     0.116 C 
BRANCH  25  26
ATOM     26  N   UNL A   1      32.421  34.308  27.598  1.00  0.00    -0.352 N 
ATOM     27  C   UNL A   1      32.991  34.944  28.673  1.00  0.00     0.251 C 
ATOM     28  H   UNL A   1      31.752  34.828  27.098  1.00  0.00     0.163 HD
ATOM     29  O   UNL A   1      32.563  36.022  29.069  1.00  0.00    -0.269 OA
BRANCH  27  30
ATOM     30  C   UNL A   1      34.119  34.296  29.373  1.00  0.00     0.039 A 
ATOM     31  C   UNL A   1      33.878  33.606  30.565  1.00  0.00     0.014 A 
ATOM     32  C   UNL A   1      35.405  34.346  28.828  1.00  0.00     0.014 A 
ATOM     33  C   UNL A   1      34.920  32.909  31.179  1.00  0.00     0.010 A 
ATOM     34  C   UNL A   1      36.423  33.597  29.405  1.00  0.00     0.010 A 
ATOM     35  C   UNL A   1      36.192  32.873  30.586  1.00  0.00    -0.014 A 
BRANCH  35  36
ATOM     36  C   UNL A   1      37.317  32.111  31.183  1.00  0.00     0.031 A 
ATOM     37  C   UNL A   1      37.828  32.498  32.542  1.00  0.00     0.074 A 
ATOM     38  C   UNL A   1      37.939  31.151  30.473  1.00  0.00     0.049 A 
ATOM     39  N   UNL A   1      38.903  32.098  33.170  1.00  0.00    -0.248 NA
ATOM     40  C   UNL A   1      37.036  33.496  33.278  1.00  0.00     0.031 C 
ATOM     41  C   UNL A   1      37.550  30.700  29.136  1.00  0.00     0.029 A 
ATOM     42  N   UNL A   1      39.048  30.398  30.769  1.00  0.00    -0.354 N 
ATOM     43  C   UNL A   1      38.933  32.816  34.358  1.00  0.00     0.074 A 
ATOM     44  C   UNL A   1      37.793  33.708  34.344  1.00  0.00     0.031 C 
ATOM     45  C   UNL A   1      38.401  29.743  28.731  1.00  0.00     0.029 A 
ATOM     46  C   UNL A   1      39.422  29.548  29.757  1.00  0.00     0.049 A 
ATOM     47  H   UNL A   1      39.529  30.461  31.626  1.00  0.00     0.167 HD
ATOM     48  C   UNL A   1      39.821  32.728  35.376  1.00  0.00     0.037 A 
ATOM     49  C   UNL A   1      40.482  28.721  29.662  1.00  0.00     0.037 A 
ATOM     50  C   UNL A   1      40.933  31.816  35.398  1.00  0.00     0.049 A 
ATOM     51  C   UNL A   1      41.461  28.647  30.802  1.00  0.00     0.074 A 
ATOM     52  C   UNL A   1      41.866  31.615  36.400  1.00  0.00     0.029 A 
ATOM     53  N   UNL A   1      41.257  30.944  34.369  1.00  0.00    -0.354 N 
ATOM     54  N   UNL A   1      41.463  29.306  31.936  1.00  0.00    -0.248 NA
ATOM     55  C   UNL A   1      42.588  27.715  30.651  1.00  0.00     0.031 C 
ATOM     56  C   UNL A   1      42.777  30.650  35.962  1.00  0.00     0.029 A 
ATOM     57  C   UNL A   1      42.384  30.213  34.708  1.00  0.00     0.049 A 
ATOM     58  H   UNL A   1      40.761  30.858  33.523  1.00  0.00     0.167 HD
ATOM     59  C   UNL A   1      42.560  28.840  32.648  1.00  0.00     0.074 A 
ATOM     60  C   UNL A   1      43.205  27.844  31.818  1.00  0.00     0.031 C 
ATOM     61  C   UNL A   1      42.993  29.204  33.880  1.00  0.00     0.037 A 
BRANCH  48  62
ATOM     62  C   UNL A   1      39.628  33.646  36.547  1.00  0.00     0.064 A 
ATOM     63  C   UNL A   1      40.214  34.920  36.590  1.00  0.00     0.173 A 
ATOM     64  C   UNL A   1      38.826  33.255  37.631  1.00  0.00     0.173 A 
ATOM     65  F   UNL A   1      40.999  35.336  35.584  1.00  0.00    -0.203 F 
ATOM     66  C   UNL A   1      40.031  35.756  37.688  1.00  0.00     0.198 A 
ATOM     67  C   UNL A   1      38.620  34.107  38.713  1.00  0.00     0.198 A 
ATOM     68  F   UNL A   1      38.239  32.049  37.639  1.00  0.00    -0.203 F 
ATOM     69  F   UNL A   1      40.645  36.947  37.730  1.00  0.00    -0.200 F 
ATOM     70  C   UNL A   1      39.230  35.352  38.745  1.00  0.00     0.200 A 
ATOM     71  F   UNL A   1      37.835  33.720  39.728  1.00  0.00    -0.200 F 
ATOM     72  F   UNL A   1      39.050  36.161  39.799  1.00  0.00    -0.200 F 
ENDBRANCH  48  62
BRANCH  49  73
ATOM     73  C   UNL A   1      40.662  27.881  28.450  1.00  0.00     0.064 A 
ATOM     74  C   UNL A   1      40.091  26.603  28.372  1.00  0.00     0.173 A 
ATOM     75  C   UNL A   1      41.408  28.329  27.351  1.00  0.00     0.173 A 
ATOM     76  F   UNL A   1      39.387  26.121  29.407  1.00  0.00    -0.203 F 
ATOM     77  C   UNL A   1      40.275  25.798  27.251  1.00  0.00     0.198 A 
ATOM     78  C   UNL A   1      41.568  27.534  26.217  1.00  0.00     0.198 A 
ATOM     79  F   UNL A   1      41.971  29.546  27.372  1.00  0.00    -0.203 F 
ATOM     80  F   UNL A   1      39.755  24.563  27.222  1.00  0.00    -0.200 F 
ATOM     81  C   UNL A   1      41.009  26.266  26.172  1.00  0.00     0.200 A 
ATOM     82  F   UNL A   1      42.268  27.996  25.171  1.00  0.00    -0.200 F 
ATOM     83  F   UNL A   1      41.183  25.494  25.091  1.00  0.00    -0.200 F 
ENDBRANCH  49  73
BRANCH  61  84
ATOM     84  C   UNL A   1      44.181  28.479  34.440  1.00  0.00     0.064 A 
ATOM     85  C   UNL A   1      44.048  27.276  35.145  1.00  0.00     0.173 A 
ATOM     86  C   UNL A   1      45.477  28.966  34.203  1.00  0.00     0.173 A 
ATOM     87  F   UNL A   1      42.830  26.778  35.408  1.00  0.00    -0.203 F 
ATOM     88  C   UNL A   1      45.170  26.590  35.604  1.00  0.00     0.198 A 
ATOM     89  C   UNL A   1      46.596  28.264  34.640  1.00  0.00     0.198 A 
ATOM     90  F   UNL A   1      45.656  30.111  33.528  1.00  0.00    -0.203 F 
ATOM     91  F   UNL A   1      45.020  25.458  36.305  1.00  0.00    -0.200 F 
ATOM     92  C   UNL A   1      46.442  27.079  35.343  1.00  0.00     0.200 A 
ATOM     93  F   UNL A   1      47.824  28.731  34.376  1.00  0.00    -0.200 F 
ATOM     94  F   UNL A   1      47.520  26.410  35.773  1.00  0.00    -0.200 F 
ENDBRANCH  61  84
ENDBRANCH  35  36
ENDBRANCH  27  30
ENDBRANCH  25  26
ENDBRANCH  24  25
ENDBRANCH  23  24
ENDBRANCH   1  23
TORSDOF 15
ENDMDL
