MODEL 1
REMARK VINA RESULT:     -11.4      0.000      0.000
REMARK SMILES CC[NH2+][C@]1(C(=O)NCCCCCCNC(=O)c2ccc(-c3c4nc(c(-c5c(F)c(F)c(F)c(F)c5F)c5ccc([nH]5)c(-c5c(F)c(F)c(F)c(F)c5F)c5nc(c(-c6c(F)c(F)c(F)c(F)c6F)c6ccc3[nH]6)C=C5)C=C4)cc2)CCC[C@H]1CCSc1ccc(Cl)cc1
REMARK SMILES IDX 9 1 8 2 7 3 5 4 6 5 4 7 80 8 83 9 81 10 82 11 3 12 2 15 1 16
REMARK SMILES IDX 84 17 85 18 86 19 87 20 88 21 93 22 89 23 92 24 90 25 91 26
REMARK SMILES IDX 10 27 11 28 12 29 13 30 14 31 15 32 16 34 17 35 18 36 79 37
REMARK SMILES IDX 19 38 78 39 20 40 21 41 22 42 72 43 23 44 77 45 71 46 73 47
REMARK SMILES IDX 24 48 76 49 70 50 69 51 25 53 57 54 37 55 56 56 38 57 41 58
REMARK SMILES IDX 55 59 74 60 39 61 40 62 54 64 75 65 42 66 26 67 27 68 35 69
REMARK SMILES IDX 28 70 29 71 33 72 36 73 30 74 31 75 34 76 32 77 58 78 59 79
REMARK SMILES IDX 67 80 60 81 61 82 65 83 68 84 62 85 63 86 66 87 64 88 43 89
REMARK SMILES IDX 44 90 52 91 45 92 46 93 50 94 53 95 47 96 48 97 51 98 49 99
REMARK H PARENT 7 6 3 13 3 14 14 33 73 52 41 63
REMARK Flexibility Score: inf
ROOT
ATOM      1  C   UNL A   1      36.378  23.564  25.234  1.00  0.00     0.021 C 
ENDROOT
BRANCH   1   2
ATOM      2  C   UNL A   1      35.017  23.850  25.863  1.00  0.00     0.116 C 
BRANCH   2   3
ATOM      3  N   UNL A   1      34.671  25.245  25.783  1.00  0.00    -0.351 N 
ATOM      4  C   UNL A   1      33.514  25.941  25.759  1.00  0.00     0.281 C 
ATOM      5  O   UNL A   1      33.727  27.157  25.833  1.00  0.00    -0.268 OA
ATOM      6  H   UNL A   1      35.463  25.828  25.733  1.00  0.00     0.163 HD
BRANCH   4   7
ATOM      7  C   UNL A   1      32.076  25.311  25.611  1.00  0.00     0.178 C 
ATOM      8  C   UNL A   1      31.047  26.477  25.736  1.00  0.00     0.079 C 
ATOM      9  C   UNL A   1      31.635  24.590  24.268  1.00  0.00     0.061 C 
ATOM     10  C   UNL A   1      29.820  26.028  24.960  1.00  0.00     0.008 C 
ATOM     11  C   UNL A   1      30.430  25.392  23.727  1.00  0.00     0.011 C 
BRANCH   7  12
ATOM     12  N   UNL A   1      31.680  24.421  26.769  1.00  0.00    -0.334 N 
ATOM     13  H   UNL A   1      32.466  24.416  27.420  1.00  0.00     0.347 HD
ATOM     14  H   UNL A   1      30.805  24.834  27.093  1.00  0.00     0.347 HD
BRANCH  12  15
ATOM     15  C   UNL A   1      31.322  23.028  26.532  1.00  0.00     0.257 C 
ATOM     16  C   UNL A   1      29.914  22.707  27.019  1.00  0.00     0.071 C 
ENDBRANCH  12  15
ENDBRANCH   7  12
BRANCH   9  17
ATOM     17  C   UNL A   1      32.589  24.181  23.119  1.00  0.00     0.022 C 
BRANCH  17  18
ATOM     18  C   UNL A   1      33.130  22.744  23.096  1.00  0.00     0.075 C 
BRANCH  18  19
ATOM     19  S   UNL A   1      31.945  21.459  22.528  1.00  0.00    -0.126 SA
BRANCH  19  20
ATOM     20  C   UNL A   1      32.392  19.998  23.452  1.00  0.00     0.007 A 
ATOM     21  C   UNL A   1      32.667  20.004  24.815  1.00  0.00     0.016 A 
ATOM     22  C   UNL A   1      32.421  18.766  22.789  1.00  0.00     0.016 A 
ATOM     23  C   UNL A   1      32.836  18.826  25.537  1.00  0.00     0.021 A 
ATOM     24  C   UNL A   1      32.663  17.579  23.495  1.00  0.00     0.021 A 
ATOM     25  C   UNL A   1      32.841  17.611  24.873  1.00  0.00     0.041 A 
ATOM     26  Cl  UNL A   1      33.077  16.163  25.765  1.00  0.00    -0.084 Cl
ENDBRANCH  19  20
ENDBRANCH  18  19
ENDBRANCH  17  18
ENDBRANCH   9  17
ENDBRANCH   4   7
ENDBRANCH   2   3
ENDBRANCH   1   2
BRANCH   1  27
ATOM     27  C   UNL A   1      37.078  22.278  25.710  1.00  0.00     0.002 C 
BRANCH  27  28
ATOM     28  C   UNL A   1      36.756  20.981  24.962  1.00  0.00     0.002 C 
BRANCH  28  29
ATOM     29  C   UNL A   1      37.846  19.910  24.944  1.00  0.00     0.021 C 
BRANCH  29  30
ATOM     30  C   UNL A   1      39.115  20.248  25.714  1.00  0.00     0.116 C 
BRANCH  30  31
ATOM     31  N   UNL A   1      40.067  19.154  25.785  1.00  0.00    -0.352 N 
ATOM     32  C   UNL A   1      41.406  19.198  26.085  1.00  0.00     0.251 C 
ATOM     33  H   UNL A   1      39.703  18.259  25.593  1.00  0.00     0.163 HD
ATOM     34  O   UNL A   1      42.088  18.179  26.041  1.00  0.00    -0.269 OA
BRANCH  32  35
ATOM     35  C   UNL A   1      42.038  20.493  26.420  1.00  0.00     0.039 A 
ATOM     36  C   UNL A   1      42.459  21.321  25.376  1.00  0.00     0.014 A 
ATOM     37  C   UNL A   1      42.189  20.903  27.746  1.00  0.00     0.014 A 
ATOM     38  C   UNL A   1      42.968  22.590  25.659  1.00  0.00     0.010 A 
ATOM     39  C   UNL A   1      42.625  22.196  28.025  1.00  0.00     0.010 A 
ATOM     40  C   UNL A   1      43.018  23.053  26.985  1.00  0.00    -0.014 A 
BRANCH  40  41
ATOM     41  C   UNL A   1      43.479  24.427  27.307  1.00  0.00     0.031 A 
ATOM     42  C   UNL A   1      42.500  25.445  27.821  1.00  0.00     0.074 A 
ATOM     43  C   UNL A   1      44.757  24.779  27.063  1.00  0.00     0.049 A 
ATOM     44  N   UNL A   1      42.678  26.719  28.064  1.00  0.00    -0.248 NA
ATOM     45  C   UNL A   1      41.127  24.975  28.071  1.00  0.00     0.031 C 
ATOM     46  C   UNL A   1      45.793  23.891  26.531  1.00  0.00     0.029 A 
ATOM     47  N   UNL A   1      45.400  25.982  27.218  1.00  0.00    -0.354 N 
ATOM     48  C   UNL A   1      41.441  27.204  28.466  1.00  0.00     0.074 A 
ATOM     49  C   UNL A   1      40.510  26.100  28.397  1.00  0.00     0.031 C 
ATOM     50  C   UNL A   1      46.945  24.574  26.425  1.00  0.00     0.029 A 
ATOM     51  C   UNL A   1      46.720  25.956  26.837  1.00  0.00     0.049 A 
ATOM     52  H   UNL A   1      44.958  26.788  27.570  1.00  0.00     0.167 HD
ATOM     53  C   UNL A   1      41.118  28.454  28.873  1.00  0.00     0.037 A 
ATOM     54  C   UNL A   1      47.640  26.941  26.810  1.00  0.00     0.037 A 
ATOM     55  C   UNL A   1      42.059  29.538  28.981  1.00  0.00     0.049 A 
ATOM     56  C   UNL A   1      47.245  28.323  27.258  1.00  0.00     0.074 A 
ATOM     57  C   UNL A   1      41.847  30.818  29.462  1.00  0.00     0.029 A 
ATOM     58  N   UNL A   1      43.390  29.468  28.599  1.00  0.00    -0.354 N 
ATOM     59  N   UNL A   1      46.092  28.752  27.709  1.00  0.00    -0.248 NA
ATOM     60  C   UNL A   1      48.285  29.362  27.192  1.00  0.00     0.031 C 
ATOM     61  C   UNL A   1      43.035  31.540  29.319  1.00  0.00     0.029 A 
ATOM     62  C   UNL A   1      44.004  30.693  28.804  1.00  0.00     0.049 A 
ATOM     63  H   UNL A   1      43.834  28.668  28.235  1.00  0.00     0.167 HD
ATOM     64  C   UNL A   1      46.277  30.092  28.019  1.00  0.00     0.074 A 
ATOM     65  C   UNL A   1      47.656  30.406  27.712  1.00  0.00     0.031 C 
ATOM     66  C   UNL A   1      45.384  30.983  28.516  1.00  0.00     0.037 A 
BRANCH  53  67
ATOM     67  C   UNL A   1      39.686  28.727  29.233  1.00  0.00     0.064 A 
ATOM     68  C   UNL A   1      39.201  28.535  30.535  1.00  0.00     0.173 A 
ATOM     69  C   UNL A   1      38.803  29.247  28.274  1.00  0.00     0.173 A 
ATOM     70  F   UNL A   1      40.001  28.030  31.487  1.00  0.00    -0.203 F 
ATOM     71  C   UNL A   1      37.879  28.831  30.858  1.00  0.00     0.198 A 
ATOM     72  C   UNL A   1      37.492  29.572  28.607  1.00  0.00     0.198 A 
ATOM     73  F   UNL A   1      39.218  29.455  27.015  1.00  0.00    -0.203 F 
ATOM     74  F   UNL A   1      37.426  28.599  32.097  1.00  0.00    -0.200 F 
ATOM     75  C   UNL A   1      37.028  29.358  29.897  1.00  0.00     0.200 A 
ATOM     76  F   UNL A   1      36.676  30.093  27.682  1.00  0.00    -0.200 F 
ATOM     77  F   UNL A   1      35.760  29.656  30.213  1.00  0.00    -0.200 F 
ENDBRANCH  53  67
BRANCH  54  78
ATOM     78  C   UNL A   1      49.029  26.661  26.358  1.00  0.00     0.064 A 
ATOM     79  C   UNL A   1      49.993  26.184  27.257  1.00  0.00     0.173 A 
ATOM     80  C   UNL A   1      49.432  26.894  25.035  1.00  0.00     0.173 A 
ATOM     81  F   UNL A   1      49.662  25.966  28.539  1.00  0.00    -0.203 F 
ATOM     82  C   UNL A   1      51.313  25.980  26.860  1.00  0.00     0.198 A 
ATOM     83  C   UNL A   1      50.746  26.660  24.630  1.00  0.00     0.198 A 
ATOM     84  F   UNL A   1      48.550  27.347  24.133  1.00  0.00    -0.203 F 
ATOM     85  F   UNL A   1      52.226  25.582  27.756  1.00  0.00    -0.200 F 
ATOM     86  C   UNL A   1      51.687  26.214  25.546  1.00  0.00     0.200 A 
ATOM     87  F   UNL A   1      51.100  26.876  23.357  1.00  0.00    -0.200 F 
ATOM     88  F   UNL A   1      52.957  26.024  25.165  1.00  0.00    -0.200 F 
ENDBRANCH  54  78
BRANCH  66  89
ATOM     89  C   UNL A   1      45.880  32.369  28.812  1.00  0.00     0.064 A 
ATOM     90  C   UNL A   1      46.488  32.691  30.034  1.00  0.00     0.173 A 
ATOM     91  C   UNL A   1      45.791  33.374  27.836  1.00  0.00     0.173 A 
ATOM     92  F   UNL A   1      46.583  31.770  31.005  1.00  0.00    -0.203 F 
ATOM     93  C   UNL A   1      46.970  33.975  30.274  1.00  0.00     0.198 A 
ATOM     94  C   UNL A   1      46.303  34.646  28.068  1.00  0.00     0.198 A 
ATOM     95  F   UNL A   1      45.225  33.114  26.648  1.00  0.00    -0.203 F 
ATOM     96  F   UNL A   1      47.507  34.274  31.465  1.00  0.00    -0.200 F 
ATOM     97  C   UNL A   1      46.886  34.948  29.289  1.00  0.00     0.200 A 
ATOM     98  F   UNL A   1      46.236  35.580  27.108  1.00  0.00    -0.200 F 
ATOM     99  F   UNL A   1      47.363  36.179  29.519  1.00  0.00    -0.200 F 
ENDBRANCH  66  89
ENDBRANCH  40  41
ENDBRANCH  32  35
ENDBRANCH  30  31
ENDBRANCH  29  30
ENDBRANCH  28  29
ENDBRANCH  27  28
ENDBRANCH   1  27
TORSDOF 19
ENDMDL
MODEL 2
REMARK VINA RESULT:     -11.3      5.963     10.268
REMARK SMILES CC[NH2+][C@]1(C(=O)NCCCCCCNC(=O)c2ccc(-c3c4nc(c(-c5c(F)c(F)c(F)c(F)c5F)c5ccc([nH]5)c(-c5c(F)c(F)c(F)c(F)c5F)c5nc(c(-c6c(F)c(F)c(F)c(F)c6F)c6ccc3[nH]6)C=C5)C=C4)cc2)CCC[C@H]1CCSc1ccc(Cl)cc1
REMARK SMILES IDX 9 1 8 2 7 3 5 4 6 5 4 7 80 8 83 9 81 10 82 11 3 12 2 15 1 16
REMARK SMILES IDX 84 17 85 18 86 19 87 20 88 21 93 22 89 23 92 24 90 25 91 26
REMARK SMILES IDX 10 27 11 28 12 29 13 30 14 31 15 32 16 34 17 35 18 36 79 37
REMARK SMILES IDX 19 38 78 39 20 40 21 41 22 42 72 43 23 44 77 45 71 46 73 47
REMARK SMILES IDX 24 48 76 49 70 50 69 51 25 53 57 54 37 55 56 56 38 57 41 58
REMARK SMILES IDX 55 59 74 60 39 61 40 62 54 64 75 65 42 66 26 67 27 68 35 69
REMARK SMILES IDX 28 70 29 71 33 72 36 73 30 74 31 75 34 76 32 77 58 78 59 79
REMARK SMILES IDX 67 80 60 81 61 82 65 83 68 84 62 85 63 86 66 87 64 88 43 89
REMARK SMILES IDX 44 90 52 91 45 92 46 93 50 94 53 95 47 96 48 97 51 98 49 99
REMARK H PARENT 7 6 3 13 3 14 14 33 73 52 41 63
REMARK Flexibility Score: inf
ROOT
ATOM      1  C   UNL A   1      35.115  30.493  27.703  1.00  0.00     0.021 C 
ENDROOT
BRANCH   1   2
ATOM      2  C   UNL A   1      34.702  29.081  27.295  1.00  0.00     0.116 C 
BRANCH   2   3
ATOM      3  N   UNL A   1      33.357  28.774  27.707  1.00  0.00    -0.351 N 
ATOM      4  C   UNL A   1      32.267  28.259  27.099  1.00  0.00     0.281 C 
ATOM      5  O   UNL A   1      31.365  28.041  27.917  1.00  0.00    -0.268 OA
ATOM      6  H   UNL A   1      33.194  28.991  28.653  1.00  0.00     0.163 HD
BRANCH   4   7
ATOM      7  C   UNL A   1      32.125  28.003  25.550  1.00  0.00     0.178 C 
ATOM      8  C   UNL A   1      32.403  29.359  24.831  1.00  0.00     0.079 C 
ATOM      9  C   UNL A   1      33.093  26.997  24.796  1.00  0.00     0.061 C 
ATOM     10  C   UNL A   1      32.917  28.996  23.448  1.00  0.00     0.008 C 
ATOM     11  C   UNL A   1      33.849  27.837  23.744  1.00  0.00     0.011 C 
BRANCH   7  12
ATOM     12  N   UNL A   1      30.707  27.703  25.111  1.00  0.00    -0.334 N 
ATOM     13  H   UNL A   1      30.095  27.999  25.871  1.00  0.00     0.347 HD
ATOM     14  H   UNL A   1      30.628  28.200  24.223  1.00  0.00     0.347 HD
BRANCH  12  15
ATOM     15  C   UNL A   1      30.322  26.341  24.765  1.00  0.00     0.257 C 
ATOM     16  C   UNL A   1      29.909  25.534  25.991  1.00  0.00     0.071 C 
ENDBRANCH  12  15
ENDBRANCH   7  12
BRANCH   9  17
ATOM     17  C   UNL A   1      34.042  25.986  25.485  1.00  0.00     0.022 C 
BRANCH  17  18
ATOM     18  C   UNL A   1      33.529  24.561  25.743  1.00  0.00     0.075 C 
BRANCH  18  19
ATOM     19  S   UNL A   1      34.011  23.305  24.491  1.00  0.00    -0.126 SA
BRANCH  19  20
ATOM     20  C   UNL A   1      35.698  22.891  24.900  1.00  0.00     0.007 A 
ATOM     21  C   UNL A   1      36.595  23.790  25.466  1.00  0.00     0.016 A 
ATOM     22  C   UNL A   1      36.138  21.579  24.690  1.00  0.00     0.016 A 
ATOM     23  C   UNL A   1      37.843  23.387  25.936  1.00  0.00     0.021 A 
ATOM     24  C   UNL A   1      37.421  21.181  25.093  1.00  0.00     0.021 A 
ATOM     25  C   UNL A   1      38.259  22.082  25.741  1.00  0.00     0.041 A 
ATOM     26  Cl  UNL A   1      39.809  21.597  26.298  1.00  0.00    -0.084 Cl
ENDBRANCH  19  20
ENDBRANCH  18  19
ENDBRANCH  17  18
ENDBRANCH   9  17
ENDBRANCH   4   7
ENDBRANCH   2   3
ENDBRANCH   1   2
BRANCH   1  27
ATOM     27  C   UNL A   1      33.969  31.512  27.840  1.00  0.00     0.002 C 
BRANCH  27  28
ATOM     28  C   UNL A   1      34.269  32.814  28.591  1.00  0.00     0.002 C 
BRANCH  28  29
ATOM     29  C   UNL A   1      33.301  33.974  28.365  1.00  0.00     0.021 C 
BRANCH  29  30
ATOM     30  C   UNL A   1      33.685  35.291  29.025  1.00  0.00     0.116 C 
BRANCH  30  31
ATOM     31  N   UNL A   1      32.785  35.699  30.088  1.00  0.00    -0.352 N 
ATOM     32  C   UNL A   1      32.899  35.486  31.439  1.00  0.00     0.251 C 
ATOM     33  H   UNL A   1      31.985  36.197  29.802  1.00  0.00     0.163 HD
ATOM     34  O   UNL A   1      32.009  35.846  32.204  1.00  0.00    -0.269 OA
BRANCH  32  35
ATOM     35  C   UNL A   1      34.083  34.776  31.970  1.00  0.00     0.039 A 
ATOM     36  C   UNL A   1      33.906  33.510  32.534  1.00  0.00     0.014 A 
ATOM     37  C   UNL A   1      35.360  35.336  31.888  1.00  0.00     0.014 A 
ATOM     38  C   UNL A   1      35.017  32.775  32.953  1.00  0.00     0.010 A 
ATOM     39  C   UNL A   1      36.472  34.574  32.235  1.00  0.00     0.010 A 
ATOM     40  C   UNL A   1      36.312  33.286  32.770  1.00  0.00    -0.014 A 
BRANCH  40  41
ATOM     41  C   UNL A   1      37.514  32.493  33.132  1.00  0.00     0.031 A 
ATOM     42  C   UNL A   1      38.250  32.787  34.410  1.00  0.00     0.074 A 
ATOM     43  C   UNL A   1      37.987  31.565  32.277  1.00  0.00     0.049 A 
ATOM     44  N   UNL A   1      39.372  32.281  34.857  1.00  0.00    -0.248 NA
ATOM     45  C   UNL A   1      37.660  33.807  35.293  1.00  0.00     0.031 C 
ATOM     46  C   UNL A   1      37.383  31.214  30.990  1.00  0.00     0.029 A 
ATOM     47  N   UNL A   1      39.094  30.756  32.355  1.00  0.00    -0.354 N 
ATOM     48  C   UNL A   1      39.633  32.938  36.052  1.00  0.00     0.074 A 
ATOM     49  C   UNL A   1      38.577  33.907  36.243  1.00  0.00     0.031 C 
ATOM     50  C   UNL A   1      38.113  30.247  30.411  1.00  0.00     0.029 A 
ATOM     51  C   UNL A   1      39.261  29.942  31.260  1.00  0.00     0.049 A 
ATOM     52  H   UNL A   1      39.711  30.758  33.122  1.00  0.00     0.167 HD
ATOM     53  C   UNL A   1      40.653  32.736  36.919  1.00  0.00     0.037 A 
ATOM     54  C   UNL A   1      40.237  29.059  30.970  1.00  0.00     0.037 A 
ATOM     55  C   UNL A   1      41.678  31.740  36.744  1.00  0.00     0.049 A 
ATOM     56  C   UNL A   1      41.364  28.866  31.950  1.00  0.00     0.074 A 
ATOM     57  C   UNL A   1      42.706  31.402  37.606  1.00  0.00     0.029 A 
ATOM     58  N   UNL A   1      41.804  30.925  35.629  1.00  0.00    -0.354 N 
ATOM     59  N   UNL A   1      41.559  29.438  33.113  1.00  0.00    -0.248 NA
ATOM     60  C   UNL A   1      42.410  27.903  31.574  1.00  0.00     0.031 C 
ATOM     61  C   UNL A   1      43.488  30.421  36.990  1.00  0.00     0.029 A 
ATOM     62  C   UNL A   1      42.913  30.106  35.769  1.00  0.00     0.049 A 
ATOM     63  H   UNL A   1      41.197  30.928  34.854  1.00  0.00     0.167 HD
ATOM     64  C   UNL A   1      42.721  28.876  33.624  1.00  0.00     0.074 A 
ATOM     65  C   UNL A   1      43.184  27.912  32.649  1.00  0.00     0.031 C 
ATOM     66  C   UNL A   1      43.347  29.134  34.798  1.00  0.00     0.037 A 
BRANCH  53  67
ATOM     67  C   UNL A   1      40.721  33.608  38.139  1.00  0.00     0.064 A 
ATOM     68  C   UNL A   1      39.962  33.335  39.287  1.00  0.00     0.173 A 
ATOM     69  C   UNL A   1      41.604  34.698  38.180  1.00  0.00     0.173 A 
ATOM     70  F   UNL A   1      39.095  32.311  39.296  1.00  0.00    -0.203 F 
ATOM     71  C   UNL A   1      40.068  34.134  40.423  1.00  0.00     0.198 A 
ATOM     72  C   UNL A   1      41.731  35.476  39.328  1.00  0.00     0.198 A 
ATOM     73  F   UNL A   1      42.357  35.000  37.111  1.00  0.00    -0.203 F 
ATOM     74  F   UNL A   1      39.303  33.879  41.493  1.00  0.00    -0.200 F 
ATOM     75  C   UNL A   1      40.959  35.198  40.446  1.00  0.00     0.200 A 
ATOM     76  F   UNL A   1      42.601  36.494  39.353  1.00  0.00    -0.200 F 
ATOM     77  F   UNL A   1      41.070  35.956  41.545  1.00  0.00    -0.200 F 
ENDBRANCH  53  67
BRANCH  54  78
ATOM     78  C   UNL A   1      40.192  28.276  29.706  1.00  0.00     0.064 A 
ATOM     79  C   UNL A   1      39.512  27.051  29.645  1.00  0.00     0.173 A 
ATOM     80  C   UNL A   1      40.852  28.712  28.548  1.00  0.00     0.173 A 
ATOM     81  F   UNL A   1      38.884  26.581  30.733  1.00  0.00    -0.203 F 
ATOM     82  C   UNL A   1      39.518  26.279  28.486  1.00  0.00     0.198 A 
ATOM     83  C   UNL A   1      40.832  27.953  27.379  1.00  0.00     0.198 A 
ATOM     84  F   UNL A   1      41.516  29.877  28.550  1.00  0.00    -0.203 F 
ATOM     85  F   UNL A   1      38.911  25.085  28.476  1.00  0.00    -0.200 F 
ATOM     86  C   UNL A   1      40.175  26.732  27.352  1.00  0.00     0.200 A 
ATOM     87  F   UNL A   1      41.457  28.401  26.282  1.00  0.00    -0.200 F 
ATOM     88  F   UNL A   1      40.186  25.987  26.239  1.00  0.00    -0.200 F 
ENDBRANCH  54  78
BRANCH  66  89
ATOM     89  C   UNL A   1      44.570  28.327  35.124  1.00  0.00     0.064 A 
ATOM     90  C   UNL A   1      44.487  27.090  35.780  1.00  0.00     0.173 A 
ATOM     91  C   UNL A   1      45.839  28.776  34.724  1.00  0.00     0.173 A 
ATOM     92  F   UNL A   1      43.300  26.624  36.196  1.00  0.00    -0.203 F 
ATOM     93  C   UNL A   1      45.632  26.344  36.043  1.00  0.00     0.198 A 
ATOM     94  C   UNL A   1      46.977  28.011  34.959  1.00  0.00     0.198 A 
ATOM     95  F   UNL A   1      45.971  29.949  34.086  1.00  0.00    -0.203 F 
ATOM     96  F   UNL A   1      45.535  25.186  36.710  1.00  0.00    -0.200 F 
ATOM     97  C   UNL A   1      46.874  26.799  35.624  1.00  0.00     0.200 A 
ATOM     98  F   UNL A   1      48.174  28.445  34.539  1.00  0.00    -0.200 F 
ATOM     99  F   UNL A   1      47.973  26.070  35.866  1.00  0.00    -0.200 F 
ENDBRANCH  66  89
ENDBRANCH  40  41
ENDBRANCH  32  35
ENDBRANCH  30  31
ENDBRANCH  29  30
ENDBRANCH  28  29
ENDBRANCH  27  28
ENDBRANCH   1  27
TORSDOF 19
ENDMDL
MODEL 3
REMARK VINA RESULT:     -11.2      2.156      3.849
REMARK SMILES CC[NH2+][C@]1(C(=O)NCCCCCCNC(=O)c2ccc(-c3c4nc(c(-c5c(F)c(F)c(F)c(F)c5F)c5ccc([nH]5)c(-c5c(F)c(F)c(F)c(F)c5F)c5nc(c(-c6c(F)c(F)c(F)c(F)c6F)c6ccc3[nH]6)C=C5)C=C4)cc2)CCC[C@H]1CCSc1ccc(Cl)cc1
REMARK SMILES IDX 9 1 8 2 7 3 5 4 6 5 4 7 80 8 83 9 81 10 82 11 3 12 2 15 1 16
REMARK SMILES IDX 84 17 85 18 86 19 87 20 88 21 93 22 89 23 92 24 90 25 91 26
REMARK SMILES IDX 10 27 11 28 12 29 13 30 14 31 15 32 16 34 17 35 18 36 79 37
REMARK SMILES IDX 19 38 78 39 20 40 21 41 22 42 72 43 23 44 77 45 71 46 73 47
REMARK SMILES IDX 24 48 76 49 70 50 69 51 25 53 57 54 37 55 56 56 38 57 41 58
REMARK SMILES IDX 55 59 74 60 39 61 40 62 54 64 75 65 42 66 26 67 27 68 35 69
REMARK SMILES IDX 28 70 29 71 33 72 36 73 30 74 31 75 34 76 32 77 58 78 59 79
REMARK SMILES IDX 67 80 60 81 61 82 65 83 68 84 62 85 63 86 66 87 64 88 43 89
REMARK SMILES IDX 44 90 52 91 45 92 46 93 50 94 53 95 47 96 48 97 51 98 49 99
REMARK H PARENT 7 6 3 13 3 14 14 33 73 52 41 63
REMARK Flexibility Score: inf
ROOT
ATOM      1  C   UNL A   1      38.059  23.721  26.119  1.00  0.00     0.021 C 
ENDROOT
BRANCH   1   2
ATOM      2  C   UNL A   1      36.587  23.900  25.758  1.00  0.00     0.116 C 
BRANCH   2   3
ATOM      3  N   UNL A   1      35.719  23.228  26.690  1.00  0.00    -0.351 N 
ATOM      4  C   UNL A   1      34.734  22.310  26.585  1.00  0.00     0.281 C 
ATOM      5  O   UNL A   1      34.373  21.918  27.701  1.00  0.00    -0.268 OA
ATOM      6  H   UNL A   1      35.882  23.501  27.621  1.00  0.00     0.163 HD
BRANCH   4   7
ATOM      7  C   UNL A   1      34.086  21.822  25.234  1.00  0.00     0.178 C 
ATOM      8  C   UNL A   1      34.442  20.312  25.070  1.00  0.00     0.079 C 
ATOM      9  C   UNL A   1      32.511  21.839  25.031  1.00  0.00     0.061 C 
ATOM     10  C   UNL A   1      33.334  19.717  24.217  1.00  0.00     0.008 C 
ATOM     11  C   UNL A   1      32.094  20.370  24.794  1.00  0.00     0.011 C 
BRANCH   7  12
ATOM     12  N   UNL A   1      34.721  22.427  24.000  1.00  0.00    -0.334 N 
ATOM     13  H   UNL A   1      35.467  23.042  24.325  1.00  0.00     0.347 HD
ATOM     14  H   UNL A   1      34.990  21.611  23.452  1.00  0.00     0.347 HD
BRANCH  12  15
ATOM     15  C   UNL A   1      33.912  23.203  23.068  1.00  0.00     0.257 C 
ATOM     16  C   UNL A   1      34.030  24.702  23.318  1.00  0.00     0.071 C 
ENDBRANCH  12  15
ENDBRANCH   7  12
BRANCH   9  17
ATOM     17  C   UNL A   1      31.500  22.561  25.955  1.00  0.00     0.022 C 
BRANCH  17  18
ATOM     18  C   UNL A   1      31.672  24.069  26.188  1.00  0.00     0.075 C 
BRANCH  18  19
ATOM     19  S   UNL A   1      30.693  25.160  25.078  1.00  0.00    -0.126 SA
BRANCH  19  20
ATOM     20  C   UNL A   1      31.050  26.813  25.647  1.00  0.00     0.007 A 
ATOM     21  C   UNL A   1      31.357  27.124  26.967  1.00  0.00     0.016 A 
ATOM     22  C   UNL A   1      31.077  27.855  24.713  1.00  0.00     0.016 A 
ATOM     23  C   UNL A   1      31.805  28.388  27.342  1.00  0.00     0.021 A 
ATOM     24  C   UNL A   1      31.456  29.150  25.094  1.00  0.00     0.021 A 
ATOM     25  C   UNL A   1      31.846  29.405  26.404  1.00  0.00     0.041 A 
ATOM     26  Cl  UNL A   1      32.373  30.969  26.877  1.00  0.00    -0.084 Cl
ENDBRANCH  19  20
ENDBRANCH  18  19
ENDBRANCH  17  18
ENDBRANCH   9  17
ENDBRANCH   4   7
ENDBRANCH   2   3
ENDBRANCH   1   2
BRANCH   1  27
ATOM     27  C   UNL A   1      38.586  22.276  26.084  1.00  0.00     0.002 C 
BRANCH  27  28
ATOM     28  C   UNL A   1      38.034  21.350  24.995  1.00  0.00     0.002 C 
BRANCH  28  29
ATOM     29  C   UNL A   1      38.558  19.915  24.985  1.00  0.00     0.021 C 
BRANCH  29  30
ATOM     30  C   UNL A   1      39.394  19.509  26.191  1.00  0.00     0.116 C 
BRANCH  30  31
ATOM     31  N   UNL A   1      40.628  18.825  25.847  1.00  0.00    -0.352 N 
ATOM     32  C   UNL A   1      41.914  19.304  25.881  1.00  0.00     0.251 C 
ATOM     33  H   UNL A   1      40.529  17.892  25.549  1.00  0.00     0.163 HD
ATOM     34  O   UNL A   1      42.848  18.609  25.494  1.00  0.00    -0.269 OA
BRANCH  32  35
ATOM     35  C   UNL A   1      42.167  20.686  26.346  1.00  0.00     0.039 A 
ATOM     36  C   UNL A   1      42.207  20.931  27.721  1.00  0.00     0.014 A 
ATOM     37  C   UNL A   1      42.392  21.724  25.440  1.00  0.00     0.014 A 
ATOM     38  C   UNL A   1      42.542  22.204  28.189  1.00  0.00     0.010 A 
ATOM     39  C   UNL A   1      42.800  22.972  25.905  1.00  0.00     0.010 A 
ATOM     40  C   UNL A   1      42.879  23.224  27.284  1.00  0.00    -0.014 A 
BRANCH  40  41
ATOM     41  C   UNL A   1      43.316  24.562  27.756  1.00  0.00     0.031 A 
ATOM     42  C   UNL A   1      42.292  25.605  28.106  1.00  0.00     0.074 A 
ATOM     43  C   UNL A   1      44.629  24.863  27.794  1.00  0.00     0.049 A 
ATOM     44  N   UNL A   1      42.465  26.860  28.438  1.00  0.00    -0.248 NA
ATOM     45  C   UNL A   1      40.880  25.191  28.049  1.00  0.00     0.031 C 
ATOM     46  C   UNL A   1      45.718  23.948  27.444  1.00  0.00     0.029 A 
ATOM     47  N   UNL A   1      45.272  26.028  28.132  1.00  0.00    -0.354 N 
ATOM     48  C   UNL A   1      41.191  27.388  28.601  1.00  0.00     0.074 A 
ATOM     49  C   UNL A   1      40.252  26.331  28.293  1.00  0.00     0.031 C 
ATOM     50  C   UNL A   1      46.892  24.579  27.606  1.00  0.00     0.029 A 
ATOM     51  C   UNL A   1      46.640  25.955  28.027  1.00  0.00     0.049 A 
ATOM     52  H   UNL A   1      44.798  26.840  28.423  1.00  0.00     0.167 HD
ATOM     53  C   UNL A   1      40.839  28.635  28.991  1.00  0.00     0.037 A 
ATOM     54  C   UNL A   1      47.583  26.895  28.233  1.00  0.00     0.037 A 
ATOM     55  C   UNL A   1      41.779  29.669  29.338  1.00  0.00     0.049 A 
ATOM     56  C   UNL A   1      47.158  28.277  28.654  1.00  0.00     0.074 A 
ATOM     57  C   UNL A   1      41.521  30.939  29.823  1.00  0.00     0.029 A 
ATOM     58  N   UNL A   1      43.157  29.551  29.232  1.00  0.00    -0.354 N 
ATOM     59  N   UNL A   1      45.953  28.742  28.880  1.00  0.00    -0.248 NA
ATOM     60  C   UNL A   1      48.228  29.268  28.849  1.00  0.00     0.031 C 
ATOM     61  C   UNL A   1      42.740  31.609  29.960  1.00  0.00     0.029 A 
ATOM     62  C   UNL A   1      43.761  30.738  29.615  1.00  0.00     0.049 A 
ATOM     63  H   UNL A   1      43.634  28.745  28.930  1.00  0.00     0.167 HD
ATOM     64  C   UNL A   1      46.123  30.060  29.282  1.00  0.00     0.074 A 
ATOM     65  C   UNL A   1      47.546  30.320  29.277  1.00  0.00     0.031 C 
ATOM     66  C   UNL A   1      45.182  30.973  29.627  1.00  0.00     0.037 A 
BRANCH  53  67
ATOM     67  C   UNL A   1      39.376  28.961  29.064  1.00  0.00     0.064 A 
ATOM     68  C   UNL A   1      38.664  28.907  30.272  1.00  0.00     0.173 A 
ATOM     69  C   UNL A   1      38.690  29.394  27.918  1.00  0.00     0.173 A 
ATOM     70  F   UNL A   1      39.270  28.490  31.394  1.00  0.00    -0.203 F 
ATOM     71  C   UNL A   1      37.316  29.251  30.325  1.00  0.00     0.198 A 
ATOM     72  C   UNL A   1      37.351  29.767  27.981  1.00  0.00     0.198 A 
ATOM     73  F   UNL A   1      39.325  29.470  26.738  1.00  0.00    -0.203 F 
ATOM     74  F   UNL A   1      36.646  29.150  31.482  1.00  0.00    -0.200 F 
ATOM     75  C   UNL A   1      36.663  29.689  29.183  1.00  0.00     0.200 A 
ATOM     76  F   UNL A   1      36.726  30.204  26.880  1.00  0.00    -0.200 F 
ATOM     77  F   UNL A   1      35.369  30.034  29.239  1.00  0.00    -0.200 F 
ENDBRANCH  53  67
BRANCH  54  78
ATOM     78  C   UNL A   1      49.024  26.568  28.061  1.00  0.00     0.064 A 
ATOM     79  C   UNL A   1      49.831  26.280  29.171  1.00  0.00     0.173 A 
ATOM     80  C   UNL A   1      49.632  26.568  26.798  1.00  0.00     0.173 A 
ATOM     81  F   UNL A   1      49.300  26.289  30.404  1.00  0.00    -0.203 F 
ATOM     82  C   UNL A   1      51.195  26.035  29.028  1.00  0.00     0.198 A 
ATOM     83  C   UNL A   1      50.991  26.292  26.652  1.00  0.00     0.198 A 
ATOM     84  F   UNL A   1      48.906  26.834  25.702  1.00  0.00    -0.203 F 
ATOM     85  F   UNL A   1      51.952  25.823  30.112  1.00  0.00    -0.200 F 
ATOM     86  C   UNL A   1      51.773  26.038  27.768  1.00  0.00     0.200 A 
ATOM     87  F   UNL A   1      51.542  26.283  25.431  1.00  0.00    -0.200 F 
ATOM     88  F   UNL A   1      53.086  25.808  27.630  1.00  0.00    -0.200 F 
ENDBRANCH  54  78
BRANCH  66  89
ATOM     89  C   UNL A   1      45.658  32.322  30.081  1.00  0.00     0.064 A 
ATOM     90  C   UNL A   1      45.814  33.391  29.186  1.00  0.00     0.173 A 
ATOM     91  C   UNL A   1      45.910  32.561  31.441  1.00  0.00     0.173 A 
ATOM     92  F   UNL A   1      45.601  33.210  27.874  1.00  0.00    -0.203 F 
ATOM     93  C   UNL A   1      46.226  34.643  29.634  1.00  0.00     0.198 A 
ATOM     94  C   UNL A   1      46.289  33.822  31.889  1.00  0.00     0.198 A 
ATOM     95  F   UNL A   1      45.768  31.574  32.338  1.00  0.00    -0.203 F 
ATOM     96  F   UNL A   1      46.412  35.638  28.756  1.00  0.00    -0.200 F 
ATOM     97  C   UNL A   1      46.454  34.860  30.985  1.00  0.00     0.200 A 
ATOM     98  F   UNL A   1      46.493  34.034  33.197  1.00  0.00    -0.200 F 
ATOM     99  F   UNL A   1      46.837  36.071  31.415  1.00  0.00    -0.200 F 
ENDBRANCH  66  89
ENDBRANCH  40  41
ENDBRANCH  32  35
ENDBRANCH  30  31
ENDBRANCH  29  30
ENDBRANCH  28  29
ENDBRANCH  27  28
ENDBRANCH   1  27
TORSDOF 19
ENDMDL
