MODEL 1
REMARK VINA RESULT:     -12.5      0.000      0.000
REMARK SMILES CC(=O)Nc1cccc(NC(=O)N[C@H](C(=O)NCCCCCCNC(=O)c2ccc(-c3c4nc(c(-c5c(F)c(F)c(F)c(F)c5F)c5ccc([nH]5)c(-c5c(F)c(F)c(F)c(F)c5F)c5nc(c(-c6c(F)c(F)c(F)c(F)c6F)c6ccc3[nH]6)C=C5)C=C4)cc2)C(C)C)c1
REMARK SMILES IDX 20 1 19 2 18 3 17 4 15 5 16 6 14 8 13 9 10 10 11 11 12 13
REMARK SMILES IDX 9 15 5 16 6 17 93 18 7 19 8 20 4 21 1 22 2 23 3 24 90 26
REMARK SMILES IDX 91 27 92 28 21 29 22 30 23 31 24 32 25 33 26 35 27 36 28 37
REMARK SMILES IDX 89 38 29 39 88 40 30 41 31 42 32 43 82 44 33 45 87 46 81 47
REMARK SMILES IDX 83 48 34 49 86 50 80 51 79 52 35 54 67 55 47 56 66 57 48 58
REMARK SMILES IDX 51 59 65 60 84 61 49 62 50 63 64 65 85 66 52 67 36 68 37 69
REMARK SMILES IDX 45 70 38 71 39 72 43 73 46 74 40 75 41 76 44 77 42 78 68 79
REMARK SMILES IDX 69 80 77 81 70 82 71 83 75 84 78 85 72 86 73 87 76 88 74 89
REMARK SMILES IDX 53 90 54 91 62 92 55 93 56 94 60 95 63 96 57 97 58 98 61 99
REMARK SMILES IDX 59 100
REMARK H PARENT 17 7 10 12 13 14 4 25 24 34 83 53 51 64
REMARK Flexibility Score: inf
ROOT
ATOM      1  C   UNL A   1      32.012  29.641  27.200  1.00  0.00     0.002 C 
ENDROOT
BRANCH   1   2
ATOM      2  C   UNL A   1      33.033  28.587  26.769  1.00  0.00     0.021 C 
BRANCH   2   3
ATOM      3  C   UNL A   1      32.356  27.256  26.433  1.00  0.00     0.116 C 
BRANCH   3   4
ATOM      4  N   UNL A   1      33.300  26.205  26.098  1.00  0.00    -0.354 N 
ATOM      5  C   UNL A   1      33.323  25.095  25.327  1.00  0.00     0.242 C 
ATOM      6  O   UNL A   1      34.425  24.521  25.315  1.00  0.00    -0.273 OA
ATOM      7  H   UNL A   1      34.160  26.338  26.558  1.00  0.00     0.163 HD
BRANCH   5   8
ATOM      8  C   UNL A   1      32.146  24.467  24.503  1.00  0.00     0.175 C 
BRANCH   8   9
ATOM      9  N   UNL A   1      32.840  23.926  23.311  1.00  0.00    -0.326 N 
ATOM     10  N   UNL A   1      32.463  25.350  21.453  1.00  0.00    -0.308 N 
ATOM     11  C   UNL A   1      33.003  24.255  22.021  1.00  0.00     0.319 C 
ATOM     12  H   UNL A   1      32.299  25.262  20.486  1.00  0.00     0.171 HD
ATOM     13  O   UNL A   1      33.568  23.436  21.292  1.00  0.00    -0.248 OA
ATOM     14  H   UNL A   1      33.316  23.092  23.527  1.00  0.00     0.166 HD
BRANCH  10  15
ATOM     15  C   UNL A   1      32.091  26.587  21.983  1.00  0.00     0.044 A 
ATOM     16  C   UNL A   1      30.273  27.965  22.795  1.00  0.00     0.043 A 
ATOM     17  C   UNL A   1      31.221  28.887  23.261  1.00  0.00     0.026 A 
ATOM     18  C   UNL A   1      30.720  26.868  22.065  1.00  0.00     0.052 A 
ATOM     19  C   UNL A   1      32.589  28.674  23.063  1.00  0.00     0.004 A 
ATOM     20  C   UNL A   1      33.025  27.514  22.433  1.00  0.00     0.026 A 
BRANCH  16  21
ATOM     21  N   UNL A   1      28.931  28.219  23.123  1.00  0.00    -0.326 N 
ATOM     22  C   UNL A   1      28.277  30.115  21.605  1.00  0.00     0.114 C 
ATOM     23  C   UNL A   1      28.023  29.164  22.742  1.00  0.00     0.221 C 
ATOM     24  O   UNL A   1      26.921  29.155  23.297  1.00  0.00    -0.275 OA
ATOM     25  H   UNL A   1      28.565  27.575  23.770  1.00  0.00     0.169 HD
ENDBRANCH  16  21
ENDBRANCH  10  15
ENDBRANCH   8   9
BRANCH   8  26
ATOM     26  C   UNL A   1      31.228  23.504  25.281  1.00  0.00     0.015 C 
ATOM     27  C   UNL A   1      31.802  22.077  25.173  1.00  0.00     0.010 C 
ATOM     28  C   UNL A   1      30.894  23.782  26.741  1.00  0.00     0.010 C 
ENDBRANCH   8  26
ENDBRANCH   5   8
ENDBRANCH   3   4
ENDBRANCH   2   3
ENDBRANCH   1   2
BRANCH   1  29
ATOM     29  C   UNL A   1      31.719  30.716  26.148  1.00  0.00     0.002 C 
BRANCH  29  30
ATOM     30  C   UNL A   1      31.482  32.120  26.705  1.00  0.00     0.021 C 
BRANCH  30  31
ATOM     31  C   UNL A   1      32.713  32.762  27.341  1.00  0.00     0.116 C 
BRANCH  31  32
ATOM     32  N   UNL A   1      32.500  34.175  27.632  1.00  0.00    -0.352 N 
ATOM     33  C   UNL A   1      33.024  34.957  28.626  1.00  0.00     0.251 C 
ATOM     34  H   UNL A   1      31.884  34.638  27.017  1.00  0.00     0.163 HD
ATOM     35  O   UNL A   1      32.530  36.047  28.889  1.00  0.00    -0.269 OA
BRANCH  33  36
ATOM     36  C   UNL A   1      34.193  34.473  29.378  1.00  0.00     0.039 A 
ATOM     37  C   UNL A   1      34.007  33.901  30.637  1.00  0.00     0.014 A 
ATOM     38  C   UNL A   1      35.472  34.590  28.827  1.00  0.00     0.014 A 
ATOM     39  C   UNL A   1      35.106  33.378  31.319  1.00  0.00     0.010 A 
ATOM     40  C   UNL A   1      36.551  34.005  29.471  1.00  0.00     0.010 A 
ATOM     41  C   UNL A   1      36.377  33.393  30.721  1.00  0.00    -0.014 A 
BRANCH  41  42
ATOM     42  C   UNL A   1      37.545  32.760  31.371  1.00  0.00     0.031 A 
ATOM     43  C   UNL A   1      38.225  31.595  30.716  1.00  0.00     0.074 A 
ATOM     44  C   UNL A   1      37.922  33.179  32.593  1.00  0.00     0.049 A 
ATOM     45  N   UNL A   1      39.185  30.833  31.173  1.00  0.00    -0.248 NA
ATOM     46  C   UNL A   1      37.741  31.217  29.379  1.00  0.00     0.031 C 
ATOM     47  C   UNL A   1      37.302  34.275  33.339  1.00  0.00     0.029 A 
ATOM     48  N   UNL A   1      38.905  32.721  33.432  1.00  0.00    -0.354 N 
ATOM     49  C   UNL A   1      39.410  29.882  30.188  1.00  0.00     0.074 A 
ATOM     50  C   UNL A   1      38.450  30.126  29.134  1.00  0.00     0.031 C 
ATOM     51  C   UNL A   1      37.929  34.417  34.516  1.00  0.00     0.029 A 
ATOM     52  C   UNL A   1      38.963  33.393  34.629  1.00  0.00     0.049 A 
ATOM     53  H   UNL A   1      39.511  31.980  33.199  1.00  0.00     0.167 HD
ATOM     54  C   UNL A   1      40.351  28.909  30.159  1.00  0.00     0.037 A 
ATOM     55  C   UNL A   1      39.750  33.190  35.701  1.00  0.00     0.037 A 
ATOM     56  C   UNL A   1      41.308  28.688  31.211  1.00  0.00     0.049 A 
ATOM     57  C   UNL A   1      40.757  32.073  35.662  1.00  0.00     0.074 A 
ATOM     58  C   UNL A   1      42.347  27.776  31.255  1.00  0.00     0.029 A 
ATOM     59  N   UNL A   1      41.333  29.382  32.412  1.00  0.00    -0.354 N 
ATOM     60  N   UNL A   1      41.017  31.228  34.694  1.00  0.00    -0.248 NA
ATOM     61  C   UNL A   1      41.574  31.878  36.867  1.00  0.00     0.031 C 
ATOM     62  C   UNL A   1      42.965  27.880  32.505  1.00  0.00     0.029 A 
ATOM     63  C   UNL A   1      42.344  28.893  33.222  1.00  0.00     0.049 A 
ATOM     64  H   UNL A   1      40.722  30.116  32.654  1.00  0.00     0.167 HD
ATOM     65  C   UNL A   1      42.037  30.413  35.163  1.00  0.00     0.074 A 
ATOM     66  C   UNL A   1      42.364  30.878  36.495  1.00  0.00     0.031 C 
ATOM     67  C   UNL A   1      42.646  29.369  34.548  1.00  0.00     0.037 A 
BRANCH  54  68
ATOM     68  C   UNL A   1      40.385  28.013  28.955  1.00  0.00     0.064 A 
ATOM     69  C   UNL A   1      41.133  28.341  27.813  1.00  0.00     0.173 A 
ATOM     70  C   UNL A   1      39.679  26.801  28.948  1.00  0.00     0.173 A 
ATOM     71  F   UNL A   1      41.819  29.494  27.762  1.00  0.00    -0.203 F 
ATOM     72  C   UNL A   1      41.145  27.507  26.698  1.00  0.00     0.198 A 
ATOM     73  C   UNL A   1      39.718  25.954  27.843  1.00  0.00     0.198 A 
ATOM     74  F   UNL A   1      38.950  26.436  30.014  1.00  0.00    -0.203 F 
ATOM     75  F   UNL A   1      41.821  27.869  25.599  1.00  0.00    -0.200 F 
ATOM     76  C   UNL A   1      40.443  26.311  26.717  1.00  0.00     0.200 A 
ATOM     77  F   UNL A   1      39.049  24.793  27.868  1.00  0.00    -0.200 F 
ATOM     78  F   UNL A   1      40.457  25.507  25.644  1.00  0.00    -0.200 F 
ENDBRANCH  54  68
BRANCH  55  79
ATOM     79  C   UNL A   1      39.623  34.070  36.892  1.00  0.00     0.064 A 
ATOM     80  C   UNL A   1      38.849  33.679  37.992  1.00  0.00     0.173 A 
ATOM     81  C   UNL A   1      40.280  35.307  36.962  1.00  0.00     0.173 A 
ATOM     82  F   UNL A   1      38.188  32.512  37.964  1.00  0.00    -0.203 F 
ATOM     83  C   UNL A   1      38.723  34.498  39.112  1.00  0.00     0.198 A 
ATOM     84  C   UNL A   1      40.178  36.113  38.095  1.00  0.00     0.198 A 
ATOM     85  F   UNL A   1      41.039  35.724  35.939  1.00  0.00    -0.203 F 
ATOM     86  F   UNL A   1      37.947  34.116  40.135  1.00  0.00    -0.200 F 
ATOM     87  C   UNL A   1      39.394  35.711  39.166  1.00  0.00     0.200 A 
ATOM     88  F   UNL A   1      40.842  37.275  38.151  1.00  0.00    -0.200 F 
ATOM     89  F   UNL A   1      39.282  36.493  40.248  1.00  0.00    -0.200 F 
ENDBRANCH  55  79
BRANCH  67  90
ATOM     90  C   UNL A   1      43.731  28.663  35.309  1.00  0.00     0.064 A 
ATOM     91  C   UNL A   1      45.072  29.057  35.205  1.00  0.00     0.173 A 
ATOM     92  C   UNL A   1      43.417  27.621  36.195  1.00  0.00     0.173 A 
ATOM     93  F   UNL A   1      45.424  30.038  34.359  1.00  0.00    -0.203 F 
ATOM     94  C   UNL A   1      46.063  28.421  35.947  1.00  0.00     0.198 A 
ATOM     95  C   UNL A   1      44.406  27.009  36.959  1.00  0.00     0.198 A 
ATOM     96  F   UNL A   1      42.147  27.211  36.335  1.00  0.00    -0.203 F 
ATOM     97  F   UNL A   1      47.344  28.787  35.801  1.00  0.00    -0.200 F 
ATOM     98  C   UNL A   1      45.728  27.406  36.830  1.00  0.00     0.200 A 
ATOM     99  F   UNL A   1      44.080  26.038  37.821  1.00  0.00    -0.200 F 
ATOM    100  F   UNL A   1      46.682  26.806  37.555  1.00  0.00    -0.200 F 
ENDBRANCH  67  90
ENDBRANCH  41  42
ENDBRANCH  33  36
ENDBRANCH  31  32
ENDBRANCH  30  31
ENDBRANCH  29  30
ENDBRANCH   1  29
TORSDOF 17
ENDMDL
MODEL 2
REMARK VINA RESULT:     -12.3      5.752     11.240
REMARK SMILES CC(=O)Nc1cccc(NC(=O)N[C@H](C(=O)NCCCCCCNC(=O)c2ccc(-c3c4nc(c(-c5c(F)c(F)c(F)c(F)c5F)c5ccc([nH]5)c(-c5c(F)c(F)c(F)c(F)c5F)c5nc(c(-c6c(F)c(F)c(F)c(F)c6F)c6ccc3[nH]6)C=C5)C=C4)cc2)C(C)C)c1
REMARK SMILES IDX 20 1 19 2 18 3 17 4 15 5 16 6 14 8 13 9 10 10 11 11 12 13
REMARK SMILES IDX 9 15 5 16 6 17 93 18 7 19 8 20 4 21 1 22 2 23 3 24 90 26
REMARK SMILES IDX 91 27 92 28 21 29 22 30 23 31 24 32 25 33 26 35 27 36 28 37
REMARK SMILES IDX 89 38 29 39 88 40 30 41 31 42 32 43 82 44 33 45 87 46 81 47
REMARK SMILES IDX 83 48 34 49 86 50 80 51 79 52 35 54 67 55 47 56 66 57 48 58
REMARK SMILES IDX 51 59 65 60 84 61 49 62 50 63 64 65 85 66 52 67 36 68 37 69
REMARK SMILES IDX 45 70 38 71 39 72 43 73 46 74 40 75 41 76 44 77 42 78 68 79
REMARK SMILES IDX 69 80 77 81 70 82 71 83 75 84 78 85 72 86 73 87 76 88 74 89
REMARK SMILES IDX 53 90 54 91 62 92 55 93 56 94 60 95 63 96 57 97 58 98 61 99
REMARK SMILES IDX 59 100
REMARK H PARENT 17 7 10 12 13 14 4 25 24 34 83 53 51 64
REMARK Flexibility Score: inf
ROOT
ATOM      1  C   UNL A   1      37.215  22.104  24.281  1.00  0.00     0.002 C 
ENDROOT
BRANCH   1   2
ATOM      2  C   UNL A   1      36.021  23.055  24.181  1.00  0.00     0.021 C 
BRANCH   2   3
ATOM      3  C   UNL A   1      35.749  23.754  25.514  1.00  0.00     0.116 C 
BRANCH   3   4
ATOM      4  N   UNL A   1      35.115  25.051  25.359  1.00  0.00    -0.354 N 
ATOM      5  C   UNL A   1      34.002  25.553  24.777  1.00  0.00     0.242 C 
ATOM      6  O   UNL A   1      33.848  26.772  24.968  1.00  0.00    -0.273 OA
ATOM      7  H   UNL A   1      35.638  25.759  25.798  1.00  0.00     0.163 HD
BRANCH   5   8
ATOM      8  C   UNL A   1      32.946  24.797  23.899  1.00  0.00     0.175 C 
BRANCH   8   9
ATOM      9  N   UNL A   1      31.663  25.340  24.400  1.00  0.00    -0.326 N 
ATOM     10  N   UNL A   1      30.561  23.701  25.712  1.00  0.00    -0.308 N 
ATOM     11  C   UNL A   1      30.635  24.925  25.157  1.00  0.00     0.319 C 
ATOM     12  H   UNL A   1      29.640  23.385  25.865  1.00  0.00     0.171 HD
ATOM     13  O   UNL A   1      29.650  25.664  25.233  1.00  0.00    -0.248 OA
ATOM     14  H   UNL A   1      31.525  26.265  24.092  1.00  0.00     0.166 HD
BRANCH  10  15
ATOM     15  C   UNL A   1      31.547  22.796  26.108  1.00  0.00     0.044 A 
ATOM     16  C   UNL A   1      32.889  20.879  25.486  1.00  0.00     0.043 A 
ATOM     17  C   UNL A   1      33.655  21.078  26.643  1.00  0.00     0.026 A 
ATOM     18  C   UNL A   1      31.771  21.684  25.285  1.00  0.00     0.052 A 
ATOM     19  C   UNL A   1      33.351  22.108  27.539  1.00  0.00     0.004 A 
ATOM     20  C   UNL A   1      32.300  22.978  27.263  1.00  0.00     0.026 A 
BRANCH  16  21
ATOM     21  N   UNL A   1      33.327  19.879  24.603  1.00  0.00    -0.326 N 
ATOM     22  C   UNL A   1      32.532  17.737  25.657  1.00  0.00     0.114 C 
ATOM     23  C   UNL A   1      33.305  18.514  24.628  1.00  0.00     0.221 C 
ATOM     24  O   UNL A   1      33.865  17.917  23.704  1.00  0.00    -0.275 OA
ATOM     25  H   UNL A   1      33.741  20.240  23.788  1.00  0.00     0.169 HD
ENDBRANCH  16  21
ENDBRANCH  10  15
ENDBRANCH   8   9
BRANCH   8  26
ATOM     26  C   UNL A   1      33.186  24.848  22.377  1.00  0.00     0.015 C 
ATOM     27  C   UNL A   1      33.284  23.405  21.843  1.00  0.00     0.010 C 
ATOM     28  C   UNL A   1      32.235  25.632  21.482  1.00  0.00     0.010 C 
ENDBRANCH   8  26
ENDBRANCH   5   8
ENDBRANCH   3   4
ENDBRANCH   2   3
ENDBRANCH   1   2
BRANCH   1  29
ATOM     29  C   UNL A   1      36.908  20.761  24.954  1.00  0.00     0.002 C 
BRANCH  29  30
ATOM     30  C   UNL A   1      38.079  19.778  24.999  1.00  0.00     0.021 C 
BRANCH  30  31
ATOM     31  C   UNL A   1      39.256  20.237  25.856  1.00  0.00     0.116 C 
BRANCH  31  32
ATOM     32  N   UNL A   1      40.250  19.185  26.021  1.00  0.00    -0.352 N 
ATOM     33  C   UNL A   1      41.613  19.271  26.128  1.00  0.00     0.251 C 
ATOM     34  H   UNL A   1      39.886  18.270  26.062  1.00  0.00     0.163 HD
ATOM     35  O   UNL A   1      42.315  18.277  25.987  1.00  0.00    -0.269 OA
BRANCH  33  36
ATOM     36  C   UNL A   1      42.228  20.577  26.420  1.00  0.00     0.039 A 
ATOM     37  C   UNL A   1      42.722  21.349  25.368  1.00  0.00     0.014 A 
ATOM     38  C   UNL A   1      42.310  21.027  27.740  1.00  0.00     0.014 A 
ATOM     39  C   UNL A   1      43.241  22.616  25.636  1.00  0.00     0.010 A 
ATOM     40  C   UNL A   1      42.756  22.315  27.997  1.00  0.00     0.010 A 
ATOM     41  C   UNL A   1      43.223  23.120  26.947  1.00  0.00    -0.014 A 
BRANCH  41  42
ATOM     42  C   UNL A   1      43.673  24.495  27.252  1.00  0.00     0.031 A 
ATOM     43  C   UNL A   1      42.683  25.517  27.726  1.00  0.00     0.074 A 
ATOM     44  C   UNL A   1      44.952  24.837  27.008  1.00  0.00     0.049 A 
ATOM     45  N   UNL A   1      42.851  26.798  27.936  1.00  0.00    -0.248 NA
ATOM     46  C   UNL A   1      41.311  25.043  27.967  1.00  0.00     0.031 C 
ATOM     47  C   UNL A   1      45.986  23.932  26.506  1.00  0.00     0.029 A 
ATOM     48  N   UNL A   1      45.594  26.042  27.130  1.00  0.00    -0.354 N 
ATOM     49  C   UNL A   1      41.608  27.281  28.322  1.00  0.00     0.074 A 
ATOM     50  C   UNL A   1      40.683  26.171  28.262  1.00  0.00     0.031 C 
ATOM     51  C   UNL A   1      47.138  24.608  26.380  1.00  0.00     0.029 A 
ATOM     52  C   UNL A   1      46.912  26.002  26.745  1.00  0.00     0.049 A 
ATOM     53  H   UNL A   1      45.153  26.858  27.461  1.00  0.00     0.167 HD
ATOM     54  C   UNL A   1      41.279  28.535  28.713  1.00  0.00     0.037 A 
ATOM     55  C   UNL A   1      47.827  26.987  26.678  1.00  0.00     0.037 A 
ATOM     56  C   UNL A   1      42.216  29.626  28.779  1.00  0.00     0.049 A 
ATOM     57  C   UNL A   1      47.424  28.381  27.074  1.00  0.00     0.074 A 
ATOM     58  C   UNL A   1      42.005  30.917  29.226  1.00  0.00     0.029 A 
ATOM     59  N   UNL A   1      43.541  29.552  28.375  1.00  0.00    -0.354 N 
ATOM     60  N   UNL A   1      46.267  28.814  27.514  1.00  0.00    -0.248 NA
ATOM     61  C   UNL A   1      48.452  29.424  26.960  1.00  0.00     0.031 C 
ATOM     62  C   UNL A   1      43.188  31.641  29.038  1.00  0.00     0.029 A 
ATOM     63  C   UNL A   1      44.152  30.786  28.524  1.00  0.00     0.049 A 
ATOM     64  H   UNL A   1      43.984  28.741  28.032  1.00  0.00     0.167 HD
ATOM     65  C   UNL A   1      46.430  30.172  27.745  1.00  0.00     0.074 A 
ATOM     66  C   UNL A   1      47.805  30.488  27.416  1.00  0.00     0.031 C 
ATOM     67  C   UNL A   1      45.522  31.078  28.184  1.00  0.00     0.037 A 
BRANCH  54  68
ATOM     68  C   UNL A   1      39.850  28.789  29.093  1.00  0.00     0.064 A 
ATOM     69  C   UNL A   1      38.901  29.215  28.150  1.00  0.00     0.173 A 
ATOM     70  C   UNL A   1      39.416  28.587  30.412  1.00  0.00     0.173 A 
ATOM     71  F   UNL A   1      39.264  29.435  26.877  1.00  0.00    -0.203 F 
ATOM     72  C   UNL A   1      37.581  29.461  28.521  1.00  0.00     0.198 A 
ATOM     73  C   UNL A   1      38.088  28.803  30.772  1.00  0.00     0.198 A 
ATOM     74  F   UNL A   1      40.280  28.178  31.354  1.00  0.00    -0.203 F 
ATOM     75  F   UNL A   1      36.707  29.921  27.614  1.00  0.00    -0.200 F 
ATOM     76  C   UNL A   1      37.175  29.248  29.829  1.00  0.00     0.200 A 
ATOM     77  F   UNL A   1      37.695  28.585  32.034  1.00  0.00    -0.200 F 
ATOM     78  F   UNL A   1      35.903  29.482  30.183  1.00  0.00    -0.200 F 
ENDBRANCH  54  68
BRANCH  55  79
ATOM     79  C   UNL A   1      49.211  26.685  26.228  1.00  0.00     0.064 A 
ATOM     80  C   UNL A   1      49.583  26.858  24.889  1.00  0.00     0.173 A 
ATOM     81  C   UNL A   1      50.190  26.233  27.125  1.00  0.00     0.173 A 
ATOM     82  F   UNL A   1      48.676  27.272  23.991  1.00  0.00    -0.203 F 
ATOM     83  C   UNL A   1      50.877  26.577  24.458  1.00  0.00     0.198 A 
ATOM     84  C   UNL A   1      51.493  25.980  26.700  1.00  0.00     0.198 A 
ATOM     85  F   UNL A   1      49.887  26.058  28.419  1.00  0.00    -0.203 F 
ATOM     86  F   UNL A   1      51.196  26.716  23.165  1.00  0.00    -0.200 F 
ATOM     87  C   UNL A   1      51.834  26.145  25.366  1.00  0.00     0.200 A 
ATOM     88  F   UNL A   1      52.418  25.580  27.583  1.00  0.00    -0.200 F 
ATOM     89  F   UNL A   1      53.082  25.885  24.953  1.00  0.00    -0.200 F 
ENDBRANCH  55  79
BRANCH  67  90
ATOM     90  C   UNL A   1      45.988  32.496  28.339  1.00  0.00     0.064 A 
ATOM     91  C   UNL A   1      45.853  33.428  27.301  1.00  0.00     0.173 A 
ATOM     92  C   UNL A   1      46.522  32.941  29.558  1.00  0.00     0.173 A 
ATOM     93  F   UNL A   1      45.363  33.047  26.111  1.00  0.00    -0.203 F 
ATOM     94  C   UNL A   1      46.252  34.751  27.471  1.00  0.00     0.198 A 
ATOM     95  C   UNL A   1      46.891  34.271  29.735  1.00  0.00     0.198 A 
ATOM     96  F   UNL A   1      46.667  32.089  30.585  1.00  0.00    -0.203 F 
ATOM     97  F   UNL A   1      46.151  35.615  26.452  1.00  0.00    -0.200 F 
ATOM     98  C   UNL A   1      46.760  35.173  28.690  1.00  0.00     0.200 A 
ATOM     99  F   UNL A   1      47.368  34.681  30.917  1.00  0.00    -0.200 F 
ATOM    100  F   UNL A   1      47.129  36.450  28.856  1.00  0.00    -0.200 F 
ENDBRANCH  67  90
ENDBRANCH  41  42
ENDBRANCH  33  36
ENDBRANCH  31  32
ENDBRANCH  30  31
ENDBRANCH  29  30
ENDBRANCH   1  29
TORSDOF 17
ENDMDL
MODEL 3
REMARK VINA RESULT:     -12.2      5.754     11.237
REMARK SMILES CC(=O)Nc1cccc(NC(=O)N[C@H](C(=O)NCCCCCCNC(=O)c2ccc(-c3c4nc(c(-c5c(F)c(F)c(F)c(F)c5F)c5ccc([nH]5)c(-c5c(F)c(F)c(F)c(F)c5F)c5nc(c(-c6c(F)c(F)c(F)c(F)c6F)c6ccc3[nH]6)C=C5)C=C4)cc2)C(C)C)c1
REMARK SMILES IDX 20 1 19 2 18 3 17 4 15 5 16 6 14 8 13 9 10 10 11 11 12 13
REMARK SMILES IDX 9 15 5 16 6 17 93 18 7 19 8 20 4 21 1 22 2 23 3 24 90 26
REMARK SMILES IDX 91 27 92 28 21 29 22 30 23 31 24 32 25 33 26 35 27 36 28 37
REMARK SMILES IDX 89 38 29 39 88 40 30 41 31 42 32 43 82 44 33 45 87 46 81 47
REMARK SMILES IDX 83 48 34 49 86 50 80 51 79 52 35 54 67 55 47 56 66 57 48 58
REMARK SMILES IDX 51 59 65 60 84 61 49 62 50 63 64 65 85 66 52 67 36 68 37 69
REMARK SMILES IDX 45 70 38 71 39 72 43 73 46 74 40 75 41 76 44 77 42 78 68 79
REMARK SMILES IDX 69 80 77 81 70 82 71 83 75 84 78 85 72 86 73 87 76 88 74 89
REMARK SMILES IDX 53 90 54 91 62 92 55 93 56 94 60 95 63 96 57 97 58 98 61 99
REMARK SMILES IDX 59 100
REMARK H PARENT 17 7 10 12 13 14 4 25 24 34 83 53 51 64
REMARK Flexibility Score: inf
ROOT
ATOM      1  C   UNL A   1      37.375  22.138  24.504  1.00  0.00     0.002 C 
ENDROOT
BRANCH   1   2
ATOM      2  C   UNL A   1      36.207  23.096  24.266  1.00  0.00     0.021 C 
BRANCH   2   3
ATOM      3  C   UNL A   1      35.766  23.775  25.564  1.00  0.00     0.116 C 
BRANCH   3   4
ATOM      4  N   UNL A   1      35.117  25.056  25.345  1.00  0.00    -0.354 N 
ATOM      5  C   UNL A   1      34.014  25.519  24.716  1.00  0.00     0.242 C 
ATOM      6  O   UNL A   1      33.835  26.741  24.860  1.00  0.00    -0.273 OA
ATOM      7  H   UNL A   1      35.617  25.787  25.773  1.00  0.00     0.163 HD
BRANCH   5   8
ATOM      8  C   UNL A   1      32.994  24.716  23.837  1.00  0.00     0.175 C 
BRANCH   8   9
ATOM      9  N   UNL A   1      31.689  25.258  24.281  1.00  0.00    -0.326 N 
ATOM     10  N   UNL A   1      30.577  23.658  25.632  1.00  0.00    -0.308 N 
ATOM     11  C   UNL A   1      30.648  24.859  25.027  1.00  0.00     0.319 C 
ATOM     12  H   UNL A   1      29.657  23.334  25.774  1.00  0.00     0.171 HD
ATOM     13  O   UNL A   1      29.650  25.584  25.045  1.00  0.00    -0.248 OA
ATOM     14  H   UNL A   1      31.545  26.167  23.930  1.00  0.00     0.166 HD
BRANCH  10  15
ATOM     15  C   UNL A   1      31.565  22.787  26.093  1.00  0.00     0.044 A 
ATOM     16  C   UNL A   1      33.000  20.909  25.565  1.00  0.00     0.043 A 
ATOM     17  C   UNL A   1      33.690  21.139  26.764  1.00  0.00     0.026 A 
ATOM     18  C   UNL A   1      31.872  21.678  25.293  1.00  0.00     0.052 A 
ATOM     19  C   UNL A   1      33.302  22.165  27.631  1.00  0.00     0.004 A 
ATOM     20  C   UNL A   1      32.244  22.999  27.288  1.00  0.00     0.026 A 
BRANCH  16  21
ATOM     21  N   UNL A   1      33.520  19.918  24.717  1.00  0.00    -0.326 N 
ATOM     22  C   UNL A   1      32.660  17.763  25.691  1.00  0.00     0.114 C 
ATOM     23  C   UNL A   1      33.510  18.553  24.734  1.00  0.00     0.221 C 
ATOM     24  O   UNL A   1      34.150  17.966  23.857  1.00  0.00    -0.275 OA
ATOM     25  H   UNL A   1      33.998  20.288  23.941  1.00  0.00     0.169 HD
ENDBRANCH  16  21
ENDBRANCH  10  15
ENDBRANCH   8   9
BRANCH   8  26
ATOM     26  C   UNL A   1      33.277  24.713  22.322  1.00  0.00     0.015 C 
ATOM     27  C   UNL A   1      33.169  23.266  21.800  1.00  0.00     0.010 C 
ATOM     28  C   UNL A   1      32.479  25.622  21.396  1.00  0.00     0.010 C 
ENDBRANCH   8  26
ENDBRANCH   5   8
ENDBRANCH   3   4
ENDBRANCH   2   3
ENDBRANCH   1   2
BRANCH   1  29
ATOM     29  C   UNL A   1      36.966  20.722  24.921  1.00  0.00     0.002 C 
BRANCH  29  30
ATOM     30  C   UNL A   1      38.114  19.714  25.003  1.00  0.00     0.021 C 
BRANCH  30  31
ATOM     31  C   UNL A   1      39.317  20.193  25.811  1.00  0.00     0.116 C 
BRANCH  31  32
ATOM     32  N   UNL A   1      40.307  19.138  25.988  1.00  0.00    -0.352 N 
ATOM     33  C   UNL A   1      41.667  19.221  26.120  1.00  0.00     0.251 C 
ATOM     34  H   UNL A   1      39.940  18.224  26.018  1.00  0.00     0.163 HD
ATOM     35  O   UNL A   1      42.370  18.226  25.985  1.00  0.00    -0.269 OA
BRANCH  33  36
ATOM     36  C   UNL A   1      42.279  20.524  26.429  1.00  0.00     0.039 A 
ATOM     37  C   UNL A   1      42.798  21.299  25.391  1.00  0.00     0.014 A 
ATOM     38  C   UNL A   1      42.335  20.969  27.752  1.00  0.00     0.014 A 
ATOM     39  C   UNL A   1      43.314  22.563  25.674  1.00  0.00     0.010 A 
ATOM     40  C   UNL A   1      42.779  22.255  28.023  1.00  0.00     0.010 A 
ATOM     41  C   UNL A   1      43.270  23.062  26.987  1.00  0.00    -0.014 A 
BRANCH  41  42
ATOM     42  C   UNL A   1      43.717  24.436  27.306  1.00  0.00     0.031 A 
ATOM     43  C   UNL A   1      42.727  25.447  27.803  1.00  0.00     0.074 A 
ATOM     44  C   UNL A   1      44.991  24.787  27.055  1.00  0.00     0.049 A 
ATOM     45  N   UNL A   1      42.891  26.725  28.029  1.00  0.00    -0.248 NA
ATOM     46  C   UNL A   1      41.359  24.963  28.050  1.00  0.00     0.031 C 
ATOM     47  C   UNL A   1      46.025  23.892  26.531  1.00  0.00     0.029 A 
ATOM     48  N   UNL A   1      45.630  25.993  27.187  1.00  0.00    -0.354 N 
ATOM     49  C   UNL A   1      41.650  27.198  28.432  1.00  0.00     0.074 A 
ATOM     50  C   UNL A   1      40.729  26.085  28.366  1.00  0.00     0.031 C 
ATOM     51  C   UNL A   1      47.173  24.575  26.403  1.00  0.00     0.029 A 
ATOM     52  C   UNL A   1      46.944  25.963  26.790  1.00  0.00     0.049 A 
ATOM     53  H   UNL A   1      45.189  26.802  27.533  1.00  0.00     0.167 HD
ATOM     54  C   UNL A   1      41.320  28.445  28.843  1.00  0.00     0.037 A 
ATOM     55  C   UNL A   1      47.854  26.953  26.727  1.00  0.00     0.037 A 
ATOM     56  C   UNL A   1      42.252  29.539  28.916  1.00  0.00     0.049 A 
ATOM     57  C   UNL A   1      47.449  28.340  27.146  1.00  0.00     0.074 A 
ATOM     58  C   UNL A   1      42.040  30.823  29.382  1.00  0.00     0.029 A 
ATOM     59  N   UNL A   1      43.574  29.476  28.498  1.00  0.00    -0.354 N 
ATOM     60  N   UNL A   1      46.294  28.762  27.602  1.00  0.00    -0.248 NA
ATOM     61  C   UNL A   1      48.471  29.389  27.037  1.00  0.00     0.031 C 
ATOM     62  C   UNL A   1      43.218  31.554  29.193  1.00  0.00     0.029 A 
ATOM     63  C   UNL A   1      44.180  30.710  28.658  1.00  0.00     0.049 A 
ATOM     64  H   UNL A   1      44.016  28.672  28.141  1.00  0.00     0.167 HD
ATOM     65  C   UNL A   1      46.453  30.117  27.850  1.00  0.00     0.074 A 
ATOM     66  C   UNL A   1      47.824  30.444  27.514  1.00  0.00     0.031 C 
ATOM     67  C   UNL A   1      45.546  31.013  28.310  1.00  0.00     0.037 A 
BRANCH  54  68
ATOM     68  C   UNL A   1      39.893  28.688  29.240  1.00  0.00     0.064 A 
ATOM     69  C   UNL A   1      38.939  29.145  28.317  1.00  0.00     0.173 A 
ATOM     70  C   UNL A   1      39.466  28.442  30.554  1.00  0.00     0.173 A 
ATOM     71  F   UNL A   1      39.295  29.408  27.050  1.00  0.00    -0.203 F 
ATOM     72  C   UNL A   1      37.621  29.380  28.703  1.00  0.00     0.198 A 
ATOM     73  C   UNL A   1      38.141  28.647  30.928  1.00  0.00     0.198 A 
ATOM     74  F   UNL A   1      40.335  28.001  31.476  1.00  0.00    -0.203 F 
ATOM     75  F   UNL A   1      36.742  29.871  27.818  1.00  0.00    -0.200 F 
ATOM     76  C   UNL A   1      37.222  29.125  30.006  1.00  0.00     0.200 A 
ATOM     77  F   UNL A   1      37.754  28.388  32.185  1.00  0.00    -0.200 F 
ATOM     78  F   UNL A   1      35.953  29.348  30.376  1.00  0.00    -0.200 F 
ENDBRANCH  54  68
BRANCH  55  79
ATOM     79  C   UNL A   1      49.235  26.663  26.261  1.00  0.00     0.064 A 
ATOM     80  C   UNL A   1      50.198  26.158  27.145  1.00  0.00     0.173 A 
ATOM     81  C   UNL A   1      49.617  26.867  24.927  1.00  0.00     0.173 A 
ATOM     82  F   UNL A   1      49.885  25.963  28.435  1.00  0.00    -0.203 F 
ATOM     83  C   UNL A   1      51.495  25.883  26.718  1.00  0.00     0.198 A 
ATOM     84  C   UNL A   1      50.906  26.564  24.493  1.00  0.00     0.198 A 
ATOM     85  F   UNL A   1      48.730  27.341  24.039  1.00  0.00    -0.203 F 
ATOM     86  F   UNL A   1      52.406  25.437  27.592  1.00  0.00    -0.200 F 
ATOM     87  C   UNL A   1      51.846  26.080  25.390  1.00  0.00     0.200 A 
ATOM     88  F   UNL A   1      51.236  26.737  23.206  1.00  0.00    -0.200 F 
ATOM     89  F   UNL A   1      53.090  25.804  24.977  1.00  0.00    -0.200 F 
ENDBRANCH  55  79
BRANCH  67  90
ATOM     90  C   UNL A   1      46.008  32.431  28.480  1.00  0.00     0.064 A 
ATOM     91  C   UNL A   1      46.744  32.830  29.605  1.00  0.00     0.173 A 
ATOM     92  C   UNL A   1      45.762  33.385  27.481  1.00  0.00     0.173 A 
ATOM     93  F   UNL A   1      46.990  31.958  30.595  1.00  0.00    -0.203 F 
ATOM     94  C   UNL A   1      47.201  34.138  29.733  1.00  0.00     0.198 A 
ATOM     95  C   UNL A   1      46.249  34.684  27.598  1.00  0.00     0.198 A 
ATOM     96  F   UNL A   1      45.068  33.052  26.383  1.00  0.00    -0.203 F 
ATOM     97  F   UNL A   1      47.868  34.508  30.835  1.00  0.00    -0.200 F 
ATOM     98  C   UNL A   1      46.963  35.061  28.725  1.00  0.00     0.200 A 
ATOM     99  F   UNL A   1      46.030  35.570  26.617  1.00  0.00    -0.200 F 
ATOM    100  F   UNL A   1      47.418  36.315  28.843  1.00  0.00    -0.200 F 
ENDBRANCH  67  90
ENDBRANCH  41  42
ENDBRANCH  33  36
ENDBRANCH  31  32
ENDBRANCH  30  31
ENDBRANCH  29  30
ENDBRANCH   1  29
TORSDOF 17
ENDMDL
