MODEL 1
REMARK VINA RESULT:     -13.0      0.000      0.000
REMARK SMILES O=C(NCCCCCCNC(=O)c1cc(N2Cc3ccccc3CC2=O)ccn1)c1ccc(-c2c3nc(c(-c4c(F)c(F)c(F)c(F)c4F)c4ccc([nH]4)c(-c4c(F)c(F)c(F)c(F)c4F)c4nc(c(-c5c(F)c(F)c(F)c(F)c5F)c5ccc2[nH]5)C=C4)C=C3)cc1
REMARK SMILES IDX 6 1 5 2 4 3 3 4 1 5 2 6 30 8 31 9 92 10 32 11 91 12 33 13
REMARK SMILES IDX 34 14 35 15 85 16 36 17 90 18 84 19 86 20 37 21 89 22 83 23
REMARK SMILES IDX 82 24 38 26 70 27 50 28 69 29 51 30 54 31 68 32 87 33 52 34
REMARK SMILES IDX 53 35 67 37 88 38 55 39 39 40 40 41 48 42 41 43 42 44 46 45
REMARK SMILES IDX 49 46 43 47 44 48 47 49 45 50 71 51 72 52 80 53 73 54 74 55
REMARK SMILES IDX 78 56 81 57 75 58 76 59 79 60 77 61 56 62 57 63 65 64 58 65
REMARK SMILES IDX 59 66 63 67 66 68 60 69 61 70 64 71 62 72 7 73 8 74 9 75
REMARK SMILES IDX 10 76 11 77 12 79 13 80 14 81 29 82 15 83 28 84 27 85 16 86
REMARK SMILES IDX 17 87 25 88 18 89 24 90 26 91 19 92 23 93 20 94 22 95 21 96
REMARK H PARENT 3 7 86 25 54 36 10 78
REMARK Flexibility Score: inf
ROOT
ATOM      1  C   UNL A   1      31.559  30.678  26.303  1.00  0.00     0.002 C 
ENDROOT
BRANCH   1   2
ATOM      2  C   UNL A   1      31.350  32.122  26.758  1.00  0.00     0.021 C 
BRANCH   2   3
ATOM      3  C   UNL A   1      32.617  32.879  27.130  1.00  0.00     0.116 C 
BRANCH   3   4
ATOM      4  N   UNL A   1      32.363  34.232  27.597  1.00  0.00    -0.352 N 
ATOM      5  O   UNL A   1      32.581  36.034  28.943  1.00  0.00    -0.269 OA
ATOM      6  C   UNL A   1      33.000  34.936  28.592  1.00  0.00     0.251 C 
ATOM      7  H   UNL A   1      31.636  34.709  27.139  1.00  0.00     0.163 HD
BRANCH   6   8
ATOM      8  C   UNL A   1      34.183  34.351  29.265  1.00  0.00     0.039 A 
ATOM      9  C   UNL A   1      35.473  34.676  28.844  1.00  0.00     0.014 A 
ATOM     10  C   UNL A   1      33.997  33.465  30.332  1.00  0.00     0.014 A 
ATOM     11  C   UNL A   1      36.563  34.002  29.380  1.00  0.00     0.010 A 
ATOM     12  C   UNL A   1      35.104  32.859  30.936  1.00  0.00     0.010 A 
ATOM     13  C   UNL A   1      36.395  33.100  30.445  1.00  0.00    -0.014 A 
BRANCH  13  14
ATOM     14  C   UNL A   1      37.605  32.494  31.060  1.00  0.00     0.031 A 
ATOM     15  C   UNL A   1      38.061  32.868  32.442  1.00  0.00     0.074 A 
ATOM     16  C   UNL A   1      38.257  31.538  30.369  1.00  0.00     0.049 A 
ATOM     17  N   UNL A   1      39.044  32.366  33.148  1.00  0.00    -0.248 NA
ATOM     18  C   UNL A   1      37.328  33.947  33.122  1.00  0.00     0.031 C 
ATOM     19  C   UNL A   1      37.922  31.114  29.006  1.00  0.00     0.029 A 
ATOM     20  N   UNL A   1      39.306  30.730  30.719  1.00  0.00    -0.354 N 
ATOM     21  C   UNL A   1      39.056  33.069  34.346  1.00  0.00     0.074 A 
ATOM     22  C   UNL A   1      37.998  34.054  34.263  1.00  0.00     0.031 C 
ATOM     23  C   UNL A   1      38.707  30.085  28.661  1.00  0.00     0.029 A 
ATOM     24  C   UNL A   1      39.639  29.815  29.749  1.00  0.00     0.049 A 
ATOM     25  H   UNL A   1      39.777  30.798  31.581  1.00  0.00     0.167 HD
ATOM     26  C   UNL A   1      39.868  32.898  35.417  1.00  0.00     0.037 A 
ATOM     27  C   UNL A   1      40.591  28.866  29.732  1.00  0.00     0.037 A 
ATOM     28  C   UNL A   1      40.916  31.910  35.495  1.00  0.00     0.049 A 
ATOM     29  C   UNL A   1      41.469  28.696  30.938  1.00  0.00     0.074 A 
ATOM     30  C   UNL A   1      41.786  31.654  36.541  1.00  0.00     0.029 A 
ATOM     31  N   UNL A   1      41.237  31.015  34.484  1.00  0.00    -0.354 N 
ATOM     32  N   UNL A   1      41.448  29.351  32.073  1.00  0.00    -0.248 NA
ATOM     33  C   UNL A   1      42.504  27.657  30.860  1.00  0.00     0.031 C 
ATOM     34  C   UNL A   1      42.654  30.628  36.152  1.00  0.00     0.029 A 
ATOM     35  C   UNL A   1      42.298  30.214  34.879  1.00  0.00     0.049 A 
ATOM     36  H   UNL A   1      40.779  30.958  33.615  1.00  0.00     0.167 HD
ATOM     37  C   UNL A   1      42.463  28.806  32.844  1.00  0.00     0.074 A 
ATOM     38  C   UNL A   1      43.054  27.739  32.062  1.00  0.00     0.031 C 
ATOM     39  C   UNL A   1      42.880  29.166  34.082  1.00  0.00     0.037 A 
BRANCH  26  40
ATOM     40  C   UNL A   1      39.665  33.797  36.601  1.00  0.00     0.064 A 
ATOM     41  C   UNL A   1      38.820  33.432  37.660  1.00  0.00     0.173 A 
ATOM     42  C   UNL A   1      40.377  35.001  36.716  1.00  0.00     0.173 A 
ATOM     43  F   UNL A   1      38.110  32.296  37.597  1.00  0.00    -0.203 F 
ATOM     44  C   UNL A   1      38.689  34.244  38.785  1.00  0.00     0.198 A 
ATOM     45  C   UNL A   1      40.260  35.798  37.852  1.00  0.00     0.198 A 
ATOM     46  F   UNL A   1      41.203  35.392  35.735  1.00  0.00    -0.203 F 
ATOM     47  F   UNL A   1      37.855  33.887  39.772  1.00  0.00    -0.200 F 
ATOM     48  C   UNL A   1      39.415  35.422  38.884  1.00  0.00     0.200 A 
ATOM     49  F   UNL A   1      40.973  36.929  37.950  1.00  0.00    -0.200 F 
ATOM     50  F   UNL A   1      39.298  36.193  39.972  1.00  0.00    -0.200 F 
ENDBRANCH  26  40
BRANCH  27  51
ATOM     51  C   UNL A   1      40.763  28.013  28.529  1.00  0.00     0.064 A 
ATOM     52  C   UNL A   1      40.130  26.767  28.425  1.00  0.00     0.173 A 
ATOM     53  C   UNL A   1      41.558  28.433  27.452  1.00  0.00     0.173 A 
ATOM     54  F   UNL A   1      39.373  26.314  29.437  1.00  0.00    -0.203 F 
ATOM     55  C   UNL A   1      40.302  25.965  27.299  1.00  0.00     0.198 A 
ATOM     56  C   UNL A   1      41.703  27.646  26.313  1.00  0.00     0.198 A 
ATOM     57  F   UNL A   1      42.179  29.622  27.500  1.00  0.00    -0.203 F 
ATOM     58  F   UNL A   1      39.721  24.758  27.245  1.00  0.00    -0.200 F 
ATOM     59  C   UNL A   1      41.081  26.408  26.241  1.00  0.00     0.200 A 
ATOM     60  F   UNL A   1      42.441  28.086  25.286  1.00  0.00    -0.200 F 
ATOM     61  F   UNL A   1      41.239  25.640  25.155  1.00  0.00    -0.200 F 
ENDBRANCH  27  51
BRANCH  39  62
ATOM     62  C   UNL A   1      44.027  28.390  34.658  1.00  0.00     0.064 A 
ATOM     63  C   UNL A   1      43.816  27.214  35.393  1.00  0.00     0.173 A 
ATOM     64  C   UNL A   1      45.347  28.826  34.476  1.00  0.00     0.173 A 
ATOM     65  F   UNL A   1      42.569  26.768  35.610  1.00  0.00    -0.203 F 
ATOM     66  C   UNL A   1      44.885  26.521  35.955  1.00  0.00     0.198 A 
ATOM     67  C   UNL A   1      46.415  28.115  35.016  1.00  0.00     0.198 A 
ATOM     68  F   UNL A   1      45.600  29.943  33.777  1.00  0.00    -0.203 F 
ATOM     69  F   UNL A   1      44.655  25.433  36.704  1.00  0.00    -0.200 F 
ATOM     70  C   UNL A   1      46.182  26.970  35.764  1.00  0.00     0.200 A 
ATOM     71  F   UNL A   1      47.670  28.545  34.824  1.00  0.00    -0.200 F 
ATOM     72  F   UNL A   1      47.210  26.306  36.311  1.00  0.00    -0.200 F 
ENDBRANCH  39  62
ENDBRANCH  13  14
ENDBRANCH   6   8
ENDBRANCH   3   4
ENDBRANCH   2   3
ENDBRANCH   1   2
BRANCH   1  73
ATOM     73  C   UNL A   1      32.430  29.809  27.216  1.00  0.00     0.002 C 
BRANCH  73  74
ATOM     74  C   UNL A   1      32.163  28.301  27.170  1.00  0.00     0.021 C 
BRANCH  74  75
ATOM     75  C   UNL A   1      32.825  27.548  26.019  1.00  0.00     0.116 C 
BRANCH  75  76
ATOM     76  N   UNL A   1      31.954  27.397  24.869  1.00  0.00    -0.351 N 
ATOM     77  C   UNL A   1      31.270  26.277  24.439  1.00  0.00     0.269 C 
ATOM     78  H   UNL A   1      31.834  28.205  24.318  1.00  0.00     0.163 HD
ATOM     79  O   UNL A   1      30.627  26.321  23.394  1.00  0.00    -0.268 OA
BRANCH  77  80
ATOM     80  C   UNL A   1      31.325  25.032  25.255  1.00  0.00     0.130 A 
ATOM     81  C   UNL A   1      32.287  24.072  24.969  1.00  0.00     0.060 A 
ATOM     82  N   UNL A   1      30.332  24.869  26.163  1.00  0.00    -0.251 NA
ATOM     83  C   UNL A   1      32.175  22.827  25.583  1.00  0.00     0.048 A 
ATOM     84  C   UNL A   1      30.301  23.689  26.808  1.00  0.00     0.114 A 
ATOM     85  C   UNL A   1      31.169  22.643  26.536  1.00  0.00     0.046 A 
BRANCH  83  86
ATOM     86  N   UNL A   1      33.007  21.733  25.185  1.00  0.00    -0.308 N 
ATOM     87  C   UNL A   1      32.583  20.984  23.997  1.00  0.00     0.161 C 
ATOM     88  C   UNL A   1      34.302  21.580  25.690  1.00  0.00     0.231 C 
ATOM     89  C   UNL A   1      33.104  19.581  23.959  1.00  0.00    -0.024 A 
ATOM     90  C   UNL A   1      35.143  20.445  25.119  1.00  0.00     0.136 C 
ATOM     91  O   UNL A   1      34.797  22.312  26.551  1.00  0.00    -0.274 OA
ATOM     92  C   UNL A   1      32.401  18.562  23.303  1.00  0.00     0.006 A 
ATOM     93  C   UNL A   1      34.361  19.315  24.510  1.00  0.00    -0.034 A 
ATOM     94  C   UNL A   1      32.940  17.280  23.221  1.00  0.00     0.000 A 
ATOM     95  C   UNL A   1      34.902  18.028  24.415  1.00  0.00     0.004 A 
ATOM     96  C   UNL A   1      34.188  17.013  23.779  1.00  0.00     0.000 A 
ENDBRANCH  83  86
ENDBRANCH  77  80
ENDBRANCH  75  76
ENDBRANCH  74  75
ENDBRANCH  73  74
ENDBRANCH   1  73
TORSDOF 14
ENDMDL
MODEL 2
REMARK VINA RESULT:     -12.9      0.345      1.605
REMARK SMILES O=C(NCCCCCCNC(=O)c1cc(N2Cc3ccccc3CC2=O)ccn1)c1ccc(-c2c3nc(c(-c4c(F)c(F)c(F)c(F)c4F)c4ccc([nH]4)c(-c4c(F)c(F)c(F)c(F)c4F)c4nc(c(-c5c(F)c(F)c(F)c(F)c5F)c5ccc2[nH]5)C=C4)C=C3)cc1
REMARK SMILES IDX 6 1 5 2 4 3 3 4 1 5 2 6 30 8 31 9 92 10 32 11 91 12 33 13
REMARK SMILES IDX 34 14 35 15 85 16 36 17 90 18 84 19 86 20 37 21 89 22 83 23
REMARK SMILES IDX 82 24 38 26 70 27 50 28 69 29 51 30 54 31 68 32 87 33 52 34
REMARK SMILES IDX 53 35 67 37 88 38 55 39 39 40 40 41 48 42 41 43 42 44 46 45
REMARK SMILES IDX 49 46 43 47 44 48 47 49 45 50 71 51 72 52 80 53 73 54 74 55
REMARK SMILES IDX 78 56 81 57 75 58 76 59 79 60 77 61 56 62 57 63 65 64 58 65
REMARK SMILES IDX 59 66 63 67 66 68 60 69 61 70 64 71 62 72 7 73 8 74 9 75
REMARK SMILES IDX 10 76 11 77 12 79 13 80 14 81 29 82 15 83 28 84 27 85 16 86
REMARK SMILES IDX 17 87 25 88 18 89 24 90 26 91 19 92 23 93 20 94 22 95 21 96
REMARK H PARENT 3 7 86 25 54 36 10 78
REMARK Flexibility Score: inf
ROOT
ATOM      1  C   UNL A   1      31.599  30.723  26.034  1.00  0.00     0.002 C 
ENDROOT
BRANCH   1   2
ATOM      2  C   UNL A   1      31.400  32.019  26.818  1.00  0.00     0.021 C 
BRANCH   2   3
ATOM      3  C   UNL A   1      32.671  32.801  27.118  1.00  0.00     0.116 C 
BRANCH   3   4
ATOM      4  N   UNL A   1      32.416  34.146  27.608  1.00  0.00    -0.352 N 
ATOM      5  O   UNL A   1      32.636  35.927  28.982  1.00  0.00    -0.269 OA
ATOM      6  C   UNL A   1      33.056  34.835  28.612  1.00  0.00     0.251 C 
ATOM      7  H   UNL A   1      31.687  34.630  27.160  1.00  0.00     0.163 HD
BRANCH   6   8
ATOM      8  C   UNL A   1      34.242  34.241  29.272  1.00  0.00     0.039 A 
ATOM      9  C   UNL A   1      35.530  34.580  28.857  1.00  0.00     0.014 A 
ATOM     10  C   UNL A   1      34.060  33.331  30.319  1.00  0.00     0.014 A 
ATOM     11  C   UNL A   1      36.624  33.900  29.378  1.00  0.00     0.010 A 
ATOM     12  C   UNL A   1      35.171  32.717  30.910  1.00  0.00     0.010 A 
ATOM     13  C   UNL A   1      36.461  32.974  30.423  1.00  0.00    -0.014 A 
BRANCH  13  14
ATOM     14  C   UNL A   1      37.673  32.360  31.025  1.00  0.00     0.031 A 
ATOM     15  C   UNL A   1      38.135  32.716  32.409  1.00  0.00     0.074 A 
ATOM     16  C   UNL A   1      38.322  31.414  30.317  1.00  0.00     0.049 A 
ATOM     17  N   UNL A   1      39.122  32.204  33.104  1.00  0.00    -0.248 NA
ATOM     18  C   UNL A   1      37.405  33.784  33.108  1.00  0.00     0.031 C 
ATOM     19  C   UNL A   1      37.981  31.009  28.950  1.00  0.00     0.029 A 
ATOM     20  N   UNL A   1      39.374  30.602  30.651  1.00  0.00    -0.354 N 
ATOM     21  C   UNL A   1      39.138  32.890  34.311  1.00  0.00     0.074 A 
ATOM     22  C   UNL A   1      38.080  33.876  34.247  1.00  0.00     0.031 C 
ATOM     23  C   UNL A   1      38.765  29.985  28.587  1.00  0.00     0.029 A 
ATOM     24  C   UNL A   1      39.702  29.700  29.668  1.00  0.00     0.049 A 
ATOM     25  H   UNL A   1      39.848  30.658  31.512  1.00  0.00     0.167 HD
ATOM     26  C   UNL A   1      39.956  32.705  35.376  1.00  0.00     0.037 A 
ATOM     27  C   UNL A   1      40.655  28.752  29.633  1.00  0.00     0.037 A 
ATOM     28  C   UNL A   1      41.005  31.717  35.436  1.00  0.00     0.049 A 
ATOM     29  C   UNL A   1      41.538  28.566  30.832  1.00  0.00     0.074 A 
ATOM     30  C   UNL A   1      41.879  31.446  36.475  1.00  0.00     0.029 A 
ATOM     31  N   UNL A   1      41.321  30.836  34.411  1.00  0.00    -0.354 N 
ATOM     32  N   UNL A   1      41.522  29.205  31.976  1.00  0.00    -0.248 NA
ATOM     33  C   UNL A   1      42.573  27.529  30.736  1.00  0.00     0.031 C 
ATOM     34  C   UNL A   1      42.746  30.426  36.068  1.00  0.00     0.029 A 
ATOM     35  C   UNL A   1      42.385  30.030  34.791  1.00  0.00     0.049 A 
ATOM     36  H   UNL A   1      40.859  30.790  33.544  1.00  0.00     0.167 HD
ATOM     37  C   UNL A   1      42.541  28.650  32.736  1.00  0.00     0.074 A 
ATOM     38  C   UNL A   1      43.129  27.594  31.936  1.00  0.00     0.031 C 
ATOM     39  C   UNL A   1      42.963  28.993  33.977  1.00  0.00     0.037 A 
BRANCH  26  40
ATOM     40  C   UNL A   1      39.758  33.587  36.574  1.00  0.00     0.064 A 
ATOM     41  C   UNL A   1      40.391  34.835  36.676  1.00  0.00     0.173 A 
ATOM     42  C   UNL A   1      38.870  33.218  37.596  1.00  0.00     0.173 A 
ATOM     43  F   UNL A   1      41.256  35.233  35.731  1.00  0.00    -0.203 F 
ATOM     44  C   UNL A   1      40.150  35.675  37.761  1.00  0.00     0.198 A 
ATOM     45  C   UNL A   1      38.615  34.069  38.668  1.00  0.00     0.198 A 
ATOM     46  F   UNL A   1      38.234  32.038  37.543  1.00  0.00    -0.203 F 
ATOM     47  F   UNL A   1      40.787  36.851  37.851  1.00  0.00    -0.200 F 
ATOM     48  C   UNL A   1      39.256  35.295  38.752  1.00  0.00     0.200 A 
ATOM     49  F   UNL A   1      37.740  33.705  39.617  1.00  0.00    -0.200 F 
ATOM     50  F   UNL A   1      39.014  36.110  39.787  1.00  0.00    -0.200 F 
ENDBRANCH  26  40
BRANCH  27  51
ATOM     51  C   UNL A   1      40.821  27.916  28.418  1.00  0.00     0.064 A 
ATOM     52  C   UNL A   1      40.166  26.685  28.288  1.00  0.00     0.173 A 
ATOM     53  C   UNL A   1      41.634  28.339  27.354  1.00  0.00     0.173 A 
ATOM     54  F   UNL A   1      39.392  26.229  29.285  1.00  0.00    -0.203 F 
ATOM     55  C   UNL A   1      40.333  25.898  27.150  1.00  0.00     0.198 A 
ATOM     56  C   UNL A   1      41.774  27.568  26.205  1.00  0.00     0.198 A 
ATOM     57  F   UNL A   1      42.277  29.514  27.428  1.00  0.00    -0.203 F 
ATOM     58  F   UNL A   1      39.730  24.703  27.070  1.00  0.00    -0.200 F 
ATOM     59  C   UNL A   1      41.131  26.343  26.107  1.00  0.00     0.200 A 
ATOM     60  F   UNL A   1      42.530  28.010  25.192  1.00  0.00    -0.200 F 
ATOM     61  F   UNL A   1      41.284  25.590  25.009  1.00  0.00    -0.200 F 
ENDBRANCH  27  51
BRANCH  39  62
ATOM     62  C   UNL A   1      44.113  28.210  34.536  1.00  0.00     0.064 A 
ATOM     63  C   UNL A   1      45.438  28.639  34.366  1.00  0.00     0.173 A 
ATOM     64  C   UNL A   1      43.891  27.021  35.246  1.00  0.00     0.173 A 
ATOM     65  F   UNL A   1      45.702  29.759  33.678  1.00  0.00    -0.203 F 
ATOM     66  C   UNL A   1      46.501  27.885  34.857  1.00  0.00     0.198 A 
ATOM     67  C   UNL A   1      44.954  26.286  35.759  1.00  0.00     0.198 A 
ATOM     68  F   UNL A   1      42.640  26.573  35.438  1.00  0.00    -0.203 F 
ATOM     69  F   UNL A   1      47.761  28.282  34.631  1.00  0.00    -0.200 F 
ATOM     70  C   UNL A   1      46.259  26.712  35.555  1.00  0.00     0.200 A 
ATOM     71  F   UNL A   1      44.718  25.156  36.441  1.00  0.00    -0.200 F 
ATOM     72  F   UNL A   1      47.283  25.984  36.022  1.00  0.00    -0.200 F 
ENDBRANCH  39  62
ENDBRANCH  13  14
ENDBRANCH   6   8
ENDBRANCH   3   4
ENDBRANCH   2   3
ENDBRANCH   1   2
BRANCH   1  73
ATOM     73  C   UNL A   1      31.824  29.461  26.873  1.00  0.00     0.002 C 
BRANCH  73  74
ATOM     74  C   UNL A   1      33.264  28.941  26.937  1.00  0.00     0.021 C 
BRANCH  74  75
ATOM     75  C   UNL A   1      33.547  27.679  26.127  1.00  0.00     0.116 C 
BRANCH  75  76
ATOM     76  N   UNL A   1      32.820  27.640  24.872  1.00  0.00    -0.351 N 
ATOM     77  C   UNL A   1      32.092  26.604  24.321  1.00  0.00     0.269 C 
ATOM     78  H   UNL A   1      32.850  28.468  24.339  1.00  0.00     0.163 HD
ATOM     79  O   UNL A   1      31.595  26.735  23.205  1.00  0.00    -0.268 OA
BRANCH  77  80
ATOM     80  C   UNL A   1      31.922  25.342  25.094  1.00  0.00     0.130 A 
ATOM     81  C   UNL A   1      32.805  24.291  24.885  1.00  0.00     0.060 A 
ATOM     82  N   UNL A   1      30.819  25.266  25.879  1.00  0.00    -0.251 NA
ATOM     83  C   UNL A   1      32.493  23.052  25.439  1.00  0.00     0.048 A 
ATOM     84  C   UNL A   1      30.590  24.082  26.474  1.00  0.00     0.114 A 
ATOM     85  C   UNL A   1      31.370  22.955  26.266  1.00  0.00     0.046 A 
BRANCH  83  86
ATOM     86  N   UNL A   1      33.247  21.883  25.100  1.00  0.00    -0.308 N 
ATOM     87  C   UNL A   1      32.798  21.132  23.922  1.00  0.00     0.161 C 
ATOM     88  C   UNL A   1      34.510  21.646  25.649  1.00  0.00     0.231 C 
ATOM     89  C   UNL A   1      33.208  19.692  23.941  1.00  0.00    -0.024 A 
ATOM     90  C   UNL A   1      35.274  20.431  25.138  1.00  0.00     0.136 C 
ATOM     91  O   UNL A   1      35.037  22.364  26.502  1.00  0.00    -0.274 OA
ATOM     92  C   UNL A   1      32.444  18.711  23.295  1.00  0.00     0.006 A 
ATOM     93  C   UNL A   1      34.423  19.347  24.538  1.00  0.00    -0.034 A 
ATOM     94  C   UNL A   1      32.882  17.389  23.267  1.00  0.00     0.000 A 
ATOM     95  C   UNL A   1      34.863  18.018  24.499  1.00  0.00     0.004 A 
ATOM     96  C   UNL A   1      34.089  17.042  23.872  1.00  0.00     0.000 A 
ENDBRANCH  83  86
ENDBRANCH  77  80
ENDBRANCH  75  76
ENDBRANCH  74  75
ENDBRANCH  73  74
ENDBRANCH   1  73
TORSDOF 14
ENDMDL
MODEL 3
REMARK VINA RESULT:     -12.9      5.986     10.983
REMARK SMILES O=C(NCCCCCCNC(=O)c1cc(N2Cc3ccccc3CC2=O)ccn1)c1ccc(-c2c3nc(c(-c4c(F)c(F)c(F)c(F)c4F)c4ccc([nH]4)c(-c4c(F)c(F)c(F)c(F)c4F)c4nc(c(-c5c(F)c(F)c(F)c(F)c5F)c5ccc2[nH]5)C=C4)C=C3)cc1
REMARK SMILES IDX 6 1 5 2 4 3 3 4 1 5 2 6 30 8 31 9 92 10 32 11 91 12 33 13
REMARK SMILES IDX 34 14 35 15 85 16 36 17 90 18 84 19 86 20 37 21 89 22 83 23
REMARK SMILES IDX 82 24 38 26 70 27 50 28 69 29 51 30 54 31 68 32 87 33 52 34
REMARK SMILES IDX 53 35 67 37 88 38 55 39 39 40 40 41 48 42 41 43 42 44 46 45
REMARK SMILES IDX 49 46 43 47 44 48 47 49 45 50 71 51 72 52 80 53 73 54 74 55
REMARK SMILES IDX 78 56 81 57 75 58 76 59 79 60 77 61 56 62 57 63 65 64 58 65
REMARK SMILES IDX 59 66 63 67 66 68 60 69 61 70 64 71 62 72 7 73 8 74 9 75
REMARK SMILES IDX 10 76 11 77 12 79 13 80 14 81 29 82 15 83 28 84 27 85 16 86
REMARK SMILES IDX 17 87 25 88 18 89 24 90 26 91 19 92 23 93 20 94 22 95 21 96
REMARK H PARENT 3 7 86 25 54 36 10 78
REMARK Flexibility Score: inf
ROOT
ATOM      1  C   UNL A   1      41.611  21.090  26.733  1.00  0.00     0.002 C 
ENDROOT
BRANCH   1   2
ATOM      2  C   UNL A   1      41.715  19.689  26.131  1.00  0.00     0.021 C 
BRANCH   2   3
ATOM      3  C   UNL A   1      42.995  18.932  26.457  1.00  0.00     0.116 C 
BRANCH   3   4
ATOM      4  N   UNL A   1      43.743  18.532  25.277  1.00  0.00    -0.352 N 
ATOM      5  O   UNL A   1      44.974  18.829  23.405  1.00  0.00    -0.269 OA
ATOM      6  C   UNL A   1      44.500  19.308  24.430  1.00  0.00     0.251 C 
ATOM      7  H   UNL A   1      43.704  17.575  25.054  1.00  0.00     0.163 HD
BRANCH   6   8
ATOM      8  C   UNL A   1      44.719  20.739  24.743  1.00  0.00     0.039 A 
ATOM      9  C   UNL A   1      45.475  21.117  25.852  1.00  0.00     0.014 A 
ATOM     10  C   UNL A   1      44.157  21.717  23.914  1.00  0.00     0.014 A 
ATOM     11  C   UNL A   1      45.541  22.455  26.220  1.00  0.00     0.010 A 
ATOM     12  C   UNL A   1      44.305  23.071  24.232  1.00  0.00     0.010 A 
ATOM     13  C   UNL A   1      44.973  23.451  25.405  1.00  0.00    -0.014 A 
BRANCH  13  14
ATOM     14  C   UNL A   1      45.171  24.875  25.781  1.00  0.00     0.031 A 
ATOM     15  C   UNL A   1      44.082  25.681  26.429  1.00  0.00     0.074 A 
ATOM     16  C   UNL A   1      46.390  25.417  25.587  1.00  0.00     0.049 A 
ATOM     17  N   UNL A   1      44.130  26.906  26.893  1.00  0.00    -0.248 NA
ATOM     18  C   UNL A   1      42.767  25.039  26.574  1.00  0.00     0.031 C 
ATOM     19  C   UNL A   1      47.516  24.739  24.938  1.00  0.00     0.029 A 
ATOM     20  N   UNL A   1      46.898  26.640  25.938  1.00  0.00    -0.354 N 
ATOM     21  C   UNL A   1      42.857  27.184  27.374  1.00  0.00     0.074 A 
ATOM     22  C   UNL A   1      42.048  26.011  27.122  1.00  0.00     0.031 C 
ATOM     23  C   UNL A   1      48.596  25.528  24.994  1.00  0.00     0.029 A 
ATOM     24  C   UNL A   1      48.228  26.790  25.627  1.00  0.00     0.049 A 
ATOM     25  H   UNL A   1      46.363  27.344  26.372  1.00  0.00     0.167 HD
ATOM     26  C   UNL A   1      42.412  28.313  27.978  1.00  0.00     0.037 A 
ATOM     27  C   UNL A   1      49.061  27.827  25.822  1.00  0.00     0.037 A 
ATOM     28  C   UNL A   1      43.225  29.476  28.232  1.00  0.00     0.049 A 
ATOM     29  C   UNL A   1      48.539  29.060  26.502  1.00  0.00     0.074 A 
ATOM     30  C   UNL A   1      42.867  30.664  28.847  1.00  0.00     0.029 A 
ATOM     31  N   UNL A   1      44.563  29.598  27.882  1.00  0.00    -0.354 N 
ATOM     32  N   UNL A   1      47.340  29.296  26.975  1.00  0.00    -0.248 NA
ATOM     33  C   UNL A   1      49.485  30.169  26.674  1.00  0.00     0.031 C 
ATOM     34  C   UNL A   1      43.976  31.517  28.840  1.00  0.00     0.029 A 
ATOM     35  C   UNL A   1      45.039  30.845  28.260  1.00  0.00     0.049 A 
ATOM     36  H   UNL A   1      45.094  28.903  27.433  1.00  0.00     0.167 HD
ATOM     37  C   UNL A   1      47.385  30.578  27.500  1.00  0.00     0.074 A 
ATOM     38  C   UNL A   1      48.743  31.053  27.323  1.00  0.00     0.031 C 
ATOM     39  C   UNL A   1      46.390  31.304  28.064  1.00  0.00     0.037 A 
BRANCH  26  40
ATOM     40  C   UNL A   1      40.976  28.355  28.412  1.00  0.00     0.064 A 
ATOM     41  C   UNL A   1      40.585  27.927  29.690  1.00  0.00     0.173 A 
ATOM     42  C   UNL A   1      39.990  28.898  27.573  1.00  0.00     0.173 A 
ATOM     43  F   UNL A   1      41.485  27.392  30.528  1.00  0.00    -0.203 F 
ATOM     44  C   UNL A   1      39.259  28.031  30.107  1.00  0.00     0.198 A 
ATOM     45  C   UNL A   1      38.671  29.021  28.001  1.00  0.00     0.198 A 
ATOM     46  F   UNL A   1      40.313  29.328  26.345  1.00  0.00    -0.203 F 
ATOM     47  F   UNL A   1      38.905  27.590  31.322  1.00  0.00    -0.200 F 
ATOM     48  C   UNL A   1      38.305  28.585  29.266  1.00  0.00     0.200 A 
ATOM     49  F   UNL A   1      37.754  29.569  27.192  1.00  0.00    -0.200 F 
ATOM     50  F   UNL A   1      37.035  28.698  29.674  1.00  0.00    -0.200 F 
ENDBRANCH  26  40
BRANCH  27  51
ATOM     51  C   UNL A   1      50.469  27.742  25.358  1.00  0.00     0.064 A 
ATOM     52  C   UNL A   1      51.514  27.485  26.255  1.00  0.00     0.173 A 
ATOM     53  C   UNL A   1      50.796  27.906  24.003  1.00  0.00     0.173 A 
ATOM     54  F   UNL A   1      51.253  27.339  27.563  1.00  0.00    -0.203 F 
ATOM     55  C   UNL A   1      52.835  27.416  25.818  1.00  0.00     0.198 A 
ATOM     56  C   UNL A   1      52.111  27.804  23.563  1.00  0.00     0.198 A 
ATOM     57  F   UNL A   1      49.829  28.145  23.104  1.00  0.00    -0.203 F 
ATOM     58  F   UNL A   1      53.821  27.215  26.703  1.00  0.00    -0.200 F 
ATOM     59  C   UNL A   1      53.132  27.568  24.472  1.00  0.00     0.200 A 
ATOM     60  F   UNL A   1      52.392  27.932  22.259  1.00  0.00    -0.200 F 
ATOM     61  F   UNL A   1      54.402  27.493  24.052  1.00  0.00    -0.200 F 
ENDBRANCH  27  51
BRANCH  39  62
ATOM     62  C   UNL A   1      46.745  32.685  28.530  1.00  0.00     0.064 A 
ATOM     63  C   UNL A   1      47.229  32.915  29.827  1.00  0.00     0.173 A 
ATOM     64  C   UNL A   1      46.598  33.787  27.676  1.00  0.00     0.173 A 
ATOM     65  F   UNL A   1      47.368  31.894  30.686  1.00  0.00    -0.203 F 
ATOM     66  C   UNL A   1      47.520  34.205  30.262  1.00  0.00     0.198 A 
ATOM     67  C   UNL A   1      46.917  35.072  28.106  1.00  0.00     0.198 A 
ATOM     68  F   UNL A   1      46.143  33.617  26.425  1.00  0.00    -0.203 F 
ATOM     69  F   UNL A   1      47.924  34.408  31.524  1.00  0.00    -0.200 F 
ATOM     70  C   UNL A   1      47.367  35.281  29.402  1.00  0.00     0.200 A 
ATOM     71  F   UNL A   1      46.776  36.111  27.271  1.00  0.00    -0.200 F 
ATOM     72  F   UNL A   1      47.641  36.523  29.824  1.00  0.00    -0.200 F 
ENDBRANCH  39  62
ENDBRANCH  13  14
ENDBRANCH   6   8
ENDBRANCH   3   4
ENDBRANCH   2   3
ENDBRANCH   1   2
BRANCH   1  73
ATOM     73  C   UNL A   1      40.574  22.018  26.092  1.00  0.00     0.002 C 
BRANCH  73  74
ATOM     74  C   UNL A   1      39.678  22.800  27.059  1.00  0.00     0.021 C 
BRANCH  74  75
ATOM     75  C   UNL A   1      38.432  23.429  26.442  1.00  0.00     0.116 C 
BRANCH  75  76
ATOM     76  N   UNL A   1      38.170  22.957  25.095  1.00  0.00    -0.351 N 
ATOM     77  C   UNL A   1      36.971  22.578  24.525  1.00  0.00     0.269 C 
ATOM     78  H   UNL A   1      38.958  22.898  24.507  1.00  0.00     0.163 HD
ATOM     79  O   UNL A   1      36.955  22.137  23.379  1.00  0.00    -0.268 OA
BRANCH  77  80
ATOM     80  C   UNL A   1      35.715  22.712  25.315  1.00  0.00     0.130 A 
ATOM     81  C   UNL A   1      34.969  23.879  25.214  1.00  0.00     0.060 A 
ATOM     82  N   UNL A   1      35.447  21.709  26.187  1.00  0.00    -0.251 NA
ATOM     83  C   UNL A   1      33.935  24.078  26.126  1.00  0.00     0.048 A 
ATOM     84  C   UNL A   1      34.388  21.888  26.995  1.00  0.00     0.114 A 
ATOM     85  C   UNL A   1      33.630  23.049  27.022  1.00  0.00     0.046 A 
BRANCH  83  86
ATOM     86  N   UNL A   1      33.259  25.336  26.209  1.00  0.00    -0.308 N 
ATOM     87  C   UNL A   1      33.973  26.501  25.673  1.00  0.00     0.161 C 
ATOM     88  C   UNL A   1      31.890  25.412  26.483  1.00  0.00     0.231 C 
ATOM     89  C   UNL A   1      33.529  27.800  26.272  1.00  0.00    -0.024 A 
ATOM     90  C   UNL A   1      31.247  26.793  26.439  1.00  0.00     0.136 C 
ATOM     91  O   UNL A   1      31.183  24.435  26.739  1.00  0.00    -0.274 OA
ATOM     92  C   UNL A   1      34.403  28.890  26.371  1.00  0.00     0.006 A 
ATOM     93  C   UNL A   1      32.190  27.944  26.648  1.00  0.00    -0.034 A 
ATOM     94  C   UNL A   1      33.947  30.110  26.867  1.00  0.00     0.000 A 
ATOM     95  C   UNL A   1      31.736  29.174  27.137  1.00  0.00     0.004 A 
ATOM     96  C   UNL A   1      32.616  30.250  27.253  1.00  0.00     0.000 A 
ENDBRANCH  83  86
ENDBRANCH  77  80
ENDBRANCH  75  76
ENDBRANCH  74  75
ENDBRANCH  73  74
ENDBRANCH   1  73
TORSDOF 14
ENDMDL
