MODEL 1
REMARK VINA RESULT:     -10.7      0.000      0.000
REMARK SMILES CC[C@@H](C)[C@H](NC(=O)C1CCN(C(=O)OC(C)(C)C)CC1)C(=O)NCCCCCCNC(=O)c1ccc(-c2c3nc(c(-c4c(F)c(F)c(F)c(F)c4F)c4ccc([nH]4)c(-c4c(F)c(F)c(F)c(F)c4F)c4nc(c(-c5c(F)c(F)c(F)c(F)c5F)c5ccc2[nH]5)C=C4)C=C3)cc1
REMARK SMILES IDX 26 1 25 2 24 3 22 4 23 5 5 7 3 8 4 9 2 10 1 11 6 12 7 13
REMARK SMILES IDX 8 15 9 16 10 17 21 18 11 19 20 20 12 21 13 22 14 23 15 24
REMARK SMILES IDX 16 25 17 26 18 27 19 28 27 29 28 30 29 31 30 32 31 33 32 34
REMARK SMILES IDX 33 36 34 37 35 38 96 39 36 40 95 41 37 42 38 43 39 44 89 45
REMARK SMILES IDX 40 46 94 47 88 48 90 49 41 50 93 51 87 52 86 53 42 55 74 56
REMARK SMILES IDX 54 57 73 58 55 59 58 60 72 61 91 62 56 63 57 64 71 66 92 67
REMARK SMILES IDX 59 68 43 69 44 70 52 71 45 72 46 73 50 74 53 75 47 76 48 77
REMARK SMILES IDX 51 78 49 79 75 80 76 81 84 82 77 83 78 84 82 85 85 86 79 87
REMARK SMILES IDX 80 88 83 89 81 90 60 91 61 92 69 93 62 94 63 95 67 96 70 97
REMARK SMILES IDX 64 98 65 99 68 100 66 101
REMARK H PARENT 24 6 6 14 31 35 90 54 58 65
REMARK Flexibility Score: inf
ROOT
ATOM      1  C   UNL A   1      39.767  22.995  26.439  1.00  0.00     0.021 C 
ENDROOT
BRANCH   1   2
ATOM      2  C   UNL A   1      38.398  22.715  25.836  1.00  0.00     0.116 C 
BRANCH   2   3
ATOM      3  N   UNL A   1      38.063  21.332  25.627  1.00  0.00    -0.354 N 
ATOM      4  C   UNL A   1      36.909  20.759  25.196  1.00  0.00     0.242 C 
ATOM      5  O   UNL A   1      37.000  19.586  24.813  1.00  0.00    -0.273 OA
ATOM      6  H   UNL A   1      38.788  20.697  25.828  1.00  0.00     0.163 HD
BRANCH   4   7
ATOM      7  C   UNL A   1      35.545  21.502  25.059  1.00  0.00     0.174 C 
BRANCH   7   8
ATOM      8  C   UNL A   1      34.421  20.720  25.861  1.00  0.00     0.018 C 
ATOM      9  C   UNL A   1      33.517  19.850  24.970  1.00  0.00     0.010 C 
BRANCH   8  10
ATOM     10  C   UNL A   1      33.655  21.591  26.899  1.00  0.00     0.002 C 
ATOM     11  C   UNL A   1      34.353  22.815  27.485  1.00  0.00     0.004 C 
ENDBRANCH   8  10
ENDBRANCH   7   8
BRANCH   7  12
ATOM     12  N   UNL A   1      35.001  22.019  23.749  1.00  0.00    -0.344 N 
ATOM     13  C   UNL A   1      34.035  22.956  23.458  1.00  0.00     0.223 C 
ATOM     14  H   UNL A   1      35.415  21.610  22.954  1.00  0.00     0.164 HD
ATOM     15  O   UNL A   1      33.020  22.543  22.891  1.00  0.00    -0.275 OA
BRANCH  13  16
ATOM     16  C   UNL A   1      34.333  24.466  23.503  1.00  0.00     0.082 C 
ATOM     17  C   UNL A   1      33.980  25.122  24.802  1.00  0.00     0.035 C 
ATOM     18  C   UNL A   1      33.660  25.309  22.397  1.00  0.00     0.035 C 
ATOM     19  C   UNL A   1      32.502  24.999  25.022  1.00  0.00     0.124 C 
ATOM     20  C   UNL A   1      32.169  25.637  22.655  1.00  0.00     0.124 C 
ATOM     21  N   UNL A   1      31.831  25.826  24.069  1.00  0.00    -0.308 N 
ATOM     22  C   UNL A   1      30.766  26.519  24.590  1.00  0.00     0.410 C 
ATOM     23  O   UNL A   1      30.331  26.289  25.721  1.00  0.00    -0.224 OA
BRANCH  22  24
ATOM     24  O   UNL A   1      30.322  27.525  23.810  1.00  0.00    -0.444 OA
BRANCH  24  25
ATOM     25  C   UNL A   1      30.932  28.823  24.045  1.00  0.00     0.106 C 
ATOM     26  C   UNL A   1      29.907  29.956  23.872  1.00  0.00     0.056 C 
ATOM     27  C   UNL A   1      31.629  28.880  25.419  1.00  0.00     0.056 C 
ATOM     28  C   UNL A   1      32.004  28.953  22.961  1.00  0.00     0.056 C 
ENDBRANCH  24  25
ENDBRANCH  22  24
ENDBRANCH  13  16
ENDBRANCH   7  12
ENDBRANCH   4   7
ENDBRANCH   2   3
ENDBRANCH   1   2
BRANCH   1  29
ATOM     29  C   UNL A   1      40.221  21.943  27.456  1.00  0.00     0.002 C 
BRANCH  29  30
ATOM     30  C   UNL A   1      41.729  21.688  27.458  1.00  0.00     0.002 C 
BRANCH  30  31
ATOM     31  C   UNL A   1      42.114  20.233  27.198  1.00  0.00     0.021 C 
BRANCH  31  32
ATOM     32  C   UNL A   1      41.901  19.803  25.751  1.00  0.00     0.116 C 
BRANCH  32  33
ATOM     33  N   UNL A   1      43.032  19.024  25.274  1.00  0.00    -0.352 N 
ATOM     34  C   UNL A   1      44.207  19.493  24.744  1.00  0.00     0.251 C 
ATOM     35  H   UNL A   1      42.944  18.046  25.339  1.00  0.00     0.163 HD
ATOM     36  O   UNL A   1      44.942  18.766  24.086  1.00  0.00    -0.269 OA
BRANCH  34  37
ATOM     37  C   UNL A   1      44.565  20.904  24.978  1.00  0.00     0.039 A 
ATOM     38  C   UNL A   1      44.142  21.880  24.077  1.00  0.00     0.014 A 
ATOM     39  C   UNL A   1      45.278  21.253  26.131  1.00  0.00     0.014 A 
ATOM     40  C   UNL A   1      44.382  23.224  24.364  1.00  0.00     0.010 A 
ATOM     41  C   UNL A   1      45.452  22.594  26.449  1.00  0.00     0.010 A 
ATOM     42  C   UNL A   1      45.002  23.592  25.571  1.00  0.00    -0.014 A 
BRANCH  42  43
ATOM     43  C   UNL A   1      45.169  25.016  25.951  1.00  0.00     0.031 A 
ATOM     44  C   UNL A   1      46.527  25.655  25.895  1.00  0.00     0.074 A 
ATOM     45  C   UNL A   1      44.111  25.699  26.433  1.00  0.00     0.049 A 
ATOM     46  N   UNL A   1      46.894  26.850  26.282  1.00  0.00    -0.248 NA
ATOM     47  C   UNL A   1      47.626  24.835  25.358  1.00  0.00     0.031 C 
ATOM     48  C   UNL A   1      42.756  25.166  26.581  1.00  0.00     0.029 A 
ATOM     49  N   UNL A   1      44.014  26.982  26.910  1.00  0.00    -0.354 N 
ATOM     50  C   UNL A   1      48.262  26.916  26.056  1.00  0.00     0.074 A 
ATOM     51  C   UNL A   1      48.671  25.632  25.534  1.00  0.00     0.031 C 
ATOM     52  C   UNL A   1      41.964  26.113  27.106  1.00  0.00     0.029 A 
ATOM     53  C   UNL A   1      42.762  27.305  27.376  1.00  0.00     0.049 A 
ATOM     54  H   UNL A   1      44.770  27.614  26.918  1.00  0.00     0.167 HD
ATOM     55  C   UNL A   1      49.096  27.964  26.254  1.00  0.00     0.037 A 
ATOM     56  C   UNL A   1      42.315  28.424  27.977  1.00  0.00     0.037 A 
ATOM     57  C   UNL A   1      48.672  29.250  26.742  1.00  0.00     0.049 A 
ATOM     58  C   UNL A   1      43.272  29.566  28.197  1.00  0.00     0.074 A 
ATOM     59  C   UNL A   1      49.419  30.407  26.875  1.00  0.00     0.029 A 
ATOM     60  N   UNL A   1      47.392  29.545  27.186  1.00  0.00    -0.354 N 
ATOM     61  N   UNL A   1      44.540  29.655  27.878  1.00  0.00    -0.248 NA
ATOM     62  C   UNL A   1      42.738  30.764  28.862  1.00  0.00     0.031 C 
ATOM     63  C   UNL A   1      48.611  31.381  27.467  1.00  0.00     0.029 A 
ATOM     64  C   UNL A   1      47.343  30.851  27.643  1.00  0.00     0.049 A 
ATOM     65  H   UNL A   1      46.632  28.919  27.177  1.00  0.00     0.167 HD
ATOM     66  C   UNL A   1      44.949  30.919  28.283  1.00  0.00     0.074 A 
ATOM     67  C   UNL A   1      43.788  31.572  28.849  1.00  0.00     0.031 C 
ATOM     68  C   UNL A   1      46.177  31.486  28.201  1.00  0.00     0.037 A 
BRANCH  55  69
ATOM     69  C   UNL A   1      50.554  27.779  25.955  1.00  0.00     0.064 A 
ATOM     70  C   UNL A   1      51.475  27.425  26.952  1.00  0.00     0.173 A 
ATOM     71  C   UNL A   1      51.019  27.872  24.634  1.00  0.00     0.173 A 
ATOM     72  F   UNL A   1      51.082  27.330  28.231  1.00  0.00    -0.203 F 
ATOM     73  C   UNL A   1      52.810  27.182  26.639  1.00  0.00     0.198 A 
ATOM     74  C   UNL A   1      52.348  27.601  24.321  1.00  0.00     0.198 A 
ATOM     75  F   UNL A   1      50.178  28.203  23.642  1.00  0.00    -0.203 F 
ATOM     76  F   UNL A   1      53.679  26.874  27.612  1.00  0.00    -0.200 F 
ATOM     77  C   UNL A   1      53.242  27.258  25.323  1.00  0.00     0.200 A 
ATOM     78  F   UNL A   1      52.761  27.660  23.047  1.00  0.00    -0.200 F 
ATOM     79  F   UNL A   1      54.523  27.003  25.021  1.00  0.00    -0.200 F 
ENDBRANCH  55  69
BRANCH  56  80
ATOM     80  C   UNL A   1      40.904  28.517  28.440  1.00  0.00     0.064 A 
ATOM     81  C   UNL A   1      39.890  28.977  27.587  1.00  0.00     0.173 A 
ATOM     82  C   UNL A   1      40.544  28.185  29.754  1.00  0.00     0.173 A 
ATOM     83  F   UNL A   1      40.184  29.328  26.326  1.00  0.00    -0.203 F 
ATOM     84  C   UNL A   1      38.582  29.134  28.041  1.00  0.00     0.198 A 
ATOM     85  C   UNL A   1      39.229  28.307  30.197  1.00  0.00     0.198 A 
ATOM     86  F   UNL A   1      41.472  27.733  30.611  1.00  0.00    -0.203 F 
ATOM     87  F   UNL A   1      37.647  29.637  27.223  1.00  0.00    -0.200 F 
ATOM     88  C   UNL A   1      38.251  28.795  29.344  1.00  0.00     0.200 A 
ATOM     89  F   UNL A   1      38.912  27.960  31.452  1.00  0.00    -0.200 F 
ATOM     90  F   UNL A   1      36.994  28.949  29.782  1.00  0.00    -0.200 F 
ENDBRANCH  56  80
BRANCH  68  91
ATOM     91  C   UNL A   1      46.330  32.885  28.722  1.00  0.00     0.064 A 
ATOM     92  C   UNL A   1      46.056  34.000  27.917  1.00  0.00     0.173 A 
ATOM     93  C   UNL A   1      46.694  33.112  30.058  1.00  0.00     0.173 A 
ATOM     94  F   UNL A   1      45.720  33.836  26.628  1.00  0.00    -0.203 F 
ATOM     95  C   UNL A   1      46.154  35.291  28.426  1.00  0.00     0.198 A 
ATOM     96  C   UNL A   1      46.759  34.403  30.573  1.00  0.00     0.198 A 
ATOM     97  F   UNL A   1      46.960  32.079  30.872  1.00  0.00    -0.203 F 
ATOM     98  F   UNL A   1      45.926  36.344  27.629  1.00  0.00    -0.200 F 
ATOM     99  C   UNL A   1      46.494  35.491  29.757  1.00  0.00     0.200 A 
ATOM    100  F   UNL A   1      47.072  34.593  31.863  1.00  0.00    -0.200 F 
ATOM    101  F   UNL A   1      46.572  36.735  30.250  1.00  0.00    -0.200 F 
ENDBRANCH  68  91
ENDBRANCH  42  43
ENDBRANCH  34  37
ENDBRANCH  32  33
ENDBRANCH  31  32
ENDBRANCH  30  31
ENDBRANCH  29  30
ENDBRANCH   1  29
TORSDOF 19
ENDMDL
MODEL 2
REMARK VINA RESULT:      -9.8      3.007      8.962
REMARK SMILES CC[C@@H](C)[C@H](NC(=O)C1CCN(C(=O)OC(C)(C)C)CC1)C(=O)NCCCCCCNC(=O)c1ccc(-c2c3nc(c(-c4c(F)c(F)c(F)c(F)c4F)c4ccc([nH]4)c(-c4c(F)c(F)c(F)c(F)c4F)c4nc(c(-c5c(F)c(F)c(F)c(F)c5F)c5ccc2[nH]5)C=C4)C=C3)cc1
REMARK SMILES IDX 26 1 25 2 24 3 22 4 23 5 5 7 3 8 4 9 2 10 1 11 6 12 7 13
REMARK SMILES IDX 8 15 9 16 10 17 21 18 11 19 20 20 12 21 13 22 14 23 15 24
REMARK SMILES IDX 16 25 17 26 18 27 19 28 27 29 28 30 29 31 30 32 31 33 32 34
REMARK SMILES IDX 33 36 34 37 35 38 96 39 36 40 95 41 37 42 38 43 39 44 89 45
REMARK SMILES IDX 40 46 94 47 88 48 90 49 41 50 93 51 87 52 86 53 42 55 74 56
REMARK SMILES IDX 54 57 73 58 55 59 58 60 72 61 91 62 56 63 57 64 71 66 92 67
REMARK SMILES IDX 59 68 43 69 44 70 52 71 45 72 46 73 50 74 53 75 47 76 48 77
REMARK SMILES IDX 51 78 49 79 75 80 76 81 84 82 77 83 78 84 82 85 85 86 79 87
REMARK SMILES IDX 80 88 83 89 81 90 60 91 61 92 69 93 62 94 63 95 67 96 70 97
REMARK SMILES IDX 64 98 65 99 68 100 66 101
REMARK H PARENT 24 6 6 14 31 35 90 54 58 65
REMARK Flexibility Score: inf
ROOT
ATOM      1  C   UNL A   1      34.053  29.330  27.152  1.00  0.00     0.021 C 
ENDROOT
BRANCH   1   2
ATOM      2  C   UNL A   1      33.949  28.415  25.941  1.00  0.00     0.116 C 
BRANCH   2   3
ATOM      3  N   UNL A   1      33.764  27.014  26.214  1.00  0.00    -0.354 N 
ATOM      4  C   UNL A   1      33.317  26.012  25.413  1.00  0.00     0.242 C 
ATOM      5  O   UNL A   1      33.552  24.862  25.807  1.00  0.00    -0.273 OA
ATOM      6  H   UNL A   1      33.998  26.737  27.129  1.00  0.00     0.163 HD
BRANCH   4   7
ATOM      7  C   UNL A   1      32.643  26.218  24.022  1.00  0.00     0.174 C 
BRANCH   7   8
ATOM      8  C   UNL A   1      31.152  26.725  24.214  1.00  0.00     0.018 C 
ATOM      9  C   UNL A   1      30.098  25.814  23.563  1.00  0.00     0.010 C 
BRANCH   8  10
ATOM     10  C   UNL A   1      30.954  28.244  23.930  1.00  0.00     0.002 C 
ATOM     11  C   UNL A   1      31.057  28.737  22.490  1.00  0.00     0.004 C 
ENDBRANCH   8  10
ENDBRANCH   7   8
BRANCH   7  12
ATOM     12  N   UNL A   1      32.721  25.213  22.898  1.00  0.00    -0.344 N 
ATOM     13  C   UNL A   1      32.836  23.841  22.895  1.00  0.00     0.223 C 
ATOM     14  H   UNL A   1      32.682  25.614  21.998  1.00  0.00     0.164 HD
ATOM     15  O   UNL A   1      33.876  23.376  22.420  1.00  0.00    -0.275 OA
BRANCH  13  16
ATOM     16  C   UNL A   1      31.620  22.927  23.130  1.00  0.00     0.082 C 
ATOM     17  C   UNL A   1      31.386  22.575  24.567  1.00  0.00     0.035 C 
ATOM     18  C   UNL A   1      31.634  21.590  22.356  1.00  0.00     0.035 C 
ATOM     19  C   UNL A   1      32.568  21.807  25.077  1.00  0.00     0.124 C 
ATOM     20  C   UNL A   1      32.529  20.492  22.982  1.00  0.00     0.124 C 
ATOM     21  N   UNL A   1      32.584  20.525  24.447  1.00  0.00    -0.308 N 
ATOM     22  C   UNL A   1      32.904  19.494  25.296  1.00  0.00     0.410 C 
ATOM     23  O   UNL A   1      33.322  19.699  26.439  1.00  0.00    -0.224 OA
BRANCH  22  24
ATOM     24  O   UNL A   1      32.621  18.268  24.813  1.00  0.00    -0.444 OA
BRANCH  24  25
ATOM     25  C   UNL A   1      33.766  17.414  24.546  1.00  0.00     0.106 C 
ATOM     26  C   UNL A   1      35.080  18.210  24.626  1.00  0.00     0.056 C 
ATOM     27  C   UNL A   1      33.781  16.181  25.471  1.00  0.00     0.056 C 
ATOM     28  C   UNL A   1      33.566  16.929  23.109  1.00  0.00     0.056 C 
ENDBRANCH  24  25
ENDBRANCH  22  24
ENDBRANCH  13  16
ENDBRANCH   7  12
ENDBRANCH   4   7
ENDBRANCH   2   3
ENDBRANCH   1   2
BRANCH   1  29
ATOM     29  C   UNL A   1      32.938  30.378  27.232  1.00  0.00     0.002 C 
BRANCH  29  30
ATOM     30  C   UNL A   1      33.416  31.767  27.655  1.00  0.00     0.002 C 
BRANCH  30  31
ATOM     31  C   UNL A   1      34.526  31.749  28.705  1.00  0.00     0.021 C 
BRANCH  31  32
ATOM     32  C   UNL A   1      34.835  33.128  29.277  1.00  0.00     0.116 C 
BRANCH  32  33
ATOM     33  N   UNL A   1      34.665  33.135  30.721  1.00  0.00    -0.352 N 
ATOM     34  C   UNL A   1      35.461  32.530  31.661  1.00  0.00     0.251 C 
ATOM     35  H   UNL A   1      33.889  33.633  31.065  1.00  0.00     0.163 HD
ATOM     36  O   UNL A   1      35.057  32.327  32.799  1.00  0.00    -0.269 OA
BRANCH  34  37
ATOM     37  C   UNL A   1      36.821  32.120  31.265  1.00  0.00     0.039 A 
ATOM     38  C   UNL A   1      37.562  31.290  32.106  1.00  0.00     0.014 A 
ATOM     39  C   UNL A   1      37.329  32.523  30.025  1.00  0.00     0.014 A 
ATOM     40  C   UNL A   1      38.798  30.810  31.674  1.00  0.00     0.010 A 
ATOM     41  C   UNL A   1      38.527  31.987  29.569  1.00  0.00     0.010 A 
ATOM     42  C   UNL A   1      39.271  31.122  30.387  1.00  0.00    -0.014 A 
BRANCH  42  43
ATOM     43  C   UNL A   1      40.528  30.536  29.862  1.00  0.00     0.031 A 
ATOM     44  C   UNL A   1      41.739  31.403  29.668  1.00  0.00     0.074 A 
ATOM     45  C   UNL A   1      40.543  29.245  29.476  1.00  0.00     0.049 A 
ATOM     46  N   UNL A   1      42.892  31.103  29.129  1.00  0.00    -0.248 NA
ATOM     47  C   UNL A   1      41.632  32.803  30.115  1.00  0.00     0.031 C 
ATOM     48  C   UNL A   1      39.412  28.320  29.569  1.00  0.00     0.029 A 
ATOM     49  N   UNL A   1      41.539  28.491  28.905  1.00  0.00    -0.354 N 
ATOM     50  C   UNL A   1      43.636  32.274  29.152  1.00  0.00     0.074 A 
ATOM     51  C   UNL A   1      42.796  33.302  29.724  1.00  0.00     0.031 C 
ATOM     52  C   UNL A   1      39.777  27.125  29.080  1.00  0.00     0.029 A 
ATOM     53  C   UNL A   1      41.151  27.209  28.594  1.00  0.00     0.049 A 
ATOM     54  H   UNL A   1      42.445  28.835  28.734  1.00  0.00     0.167 HD
ATOM     55  C   UNL A   1      44.913  32.466  28.746  1.00  0.00     0.037 A 
ATOM     56  C   UNL A   1      41.819  26.223  27.966  1.00  0.00     0.037 A 
ATOM     57  C   UNL A   1      45.753  31.426  28.211  1.00  0.00     0.049 A 
ATOM     58  C   UNL A   1      43.233  26.473  27.512  1.00  0.00     0.074 A 
ATOM     59  C   UNL A   1      47.093  31.495  27.871  1.00  0.00     0.029 A 
ATOM     60  N   UNL A   1      45.332  30.136  27.928  1.00  0.00    -0.354 N 
ATOM     61  N   UNL A   1      43.963  27.555  27.640  1.00  0.00    -0.248 NA
ATOM     62  C   UNL A   1      43.918  25.368  26.825  1.00  0.00     0.031 C 
ATOM     63  C   UNL A   1      47.463  30.268  27.316  1.00  0.00     0.029 A 
ATOM     64  C   UNL A   1      46.373  29.415  27.368  1.00  0.00     0.049 A 
ATOM     65  H   UNL A   1      44.428  29.786  28.100  1.00  0.00     0.167 HD
ATOM     66  C   UNL A   1      45.193  27.255  27.070  1.00  0.00     0.074 A 
ATOM     67  C   UNL A   1      45.122  25.882  26.618  1.00  0.00     0.031 C 
ATOM     68  C   UNL A   1      46.283  28.047  26.927  1.00  0.00     0.037 A 
BRANCH  55  69
ATOM     69  C   UNL A   1      45.493  33.845  28.852  1.00  0.00     0.064 A 
ATOM     70  C   UNL A   1      45.371  34.781  27.814  1.00  0.00     0.173 A 
ATOM     71  C   UNL A   1      46.105  34.263  30.044  1.00  0.00     0.173 A 
ATOM     72  F   UNL A   1      44.802  34.429  26.651  1.00  0.00    -0.203 F 
ATOM     73  C   UNL A   1      45.849  36.080  27.962  1.00  0.00     0.198 A 
ATOM     74  C   UNL A   1      46.555  35.571  30.199  1.00  0.00     0.198 A 
ATOM     75  F   UNL A   1      46.242  33.409  31.069  1.00  0.00    -0.203 F 
ATOM     76  F   UNL A   1      45.748  36.949  26.946  1.00  0.00    -0.200 F 
ATOM     77  C   UNL A   1      46.429  36.477  29.157  1.00  0.00     0.200 A 
ATOM     78  F   UNL A   1      47.102  35.957  31.360  1.00  0.00    -0.200 F 
ATOM     79  F   UNL A   1      46.869  37.734  29.306  1.00  0.00    -0.200 F 
ENDBRANCH  55  69
BRANCH  56  80
ATOM     80  C   UNL A   1      41.157  24.917  27.701  1.00  0.00     0.064 A 
ATOM     81  C   UNL A   1      41.581  23.745  28.344  1.00  0.00     0.173 A 
ATOM     82  C   UNL A   1      40.113  24.804  26.771  1.00  0.00     0.173 A 
ATOM     83  F   UNL A   1      42.591  23.795  29.226  1.00  0.00    -0.203 F 
ATOM     84  C   UNL A   1      41.012  22.510  28.042  1.00  0.00     0.198 A 
ATOM     85  C   UNL A   1      39.518  23.574  26.497  1.00  0.00     0.198 A 
ATOM     86  F   UNL A   1      39.661  25.893  26.131  1.00  0.00    -0.203 F 
ATOM     87  F   UNL A   1      41.482  21.398  28.624  1.00  0.00    -0.200 F 
ATOM     88  C   UNL A   1      39.978  22.426  27.123  1.00  0.00     0.200 A 
ATOM     89  F   UNL A   1      38.507  23.502  25.621  1.00  0.00    -0.200 F 
ATOM     90  F   UNL A   1      39.433  21.237  26.830  1.00  0.00    -0.200 F 
ENDBRANCH  56  80
BRANCH  68  91
ATOM     91  C   UNL A   1      47.492  27.450  26.267  1.00  0.00     0.064 A 
ATOM     92  C   UNL A   1      47.710  27.574  24.888  1.00  0.00     0.173 A 
ATOM     93  C   UNL A   1      48.474  26.802  27.033  1.00  0.00     0.173 A 
ATOM     94  F   UNL A   1      46.793  28.170  24.111  1.00  0.00    -0.203 F 
ATOM     95  C   UNL A   1      48.859  27.059  24.296  1.00  0.00     0.198 A 
ATOM     96  C   UNL A   1      49.637  26.318  26.443  1.00  0.00     0.198 A 
ATOM     97  F   UNL A   1      48.317  26.663  28.358  1.00  0.00    -0.203 F 
ATOM     98  F   UNL A   1      49.029  27.153  22.970  1.00  0.00    -0.200 F 
ATOM     99  C   UNL A   1      49.827  26.441  25.076  1.00  0.00     0.200 A 
ATOM    100  F   UNL A   1      50.578  25.736  27.200  1.00  0.00    -0.200 F 
ATOM    101  F   UNL A   1      50.942  25.961  24.506  1.00  0.00    -0.200 F 
ENDBRANCH  68  91
ENDBRANCH  42  43
ENDBRANCH  34  37
ENDBRANCH  32  33
ENDBRANCH  31  32
ENDBRANCH  30  31
ENDBRANCH  29  30
ENDBRANCH   1  29
TORSDOF 19
ENDMDL
MODEL 3
REMARK VINA RESULT:      -9.7      3.428      6.192
REMARK SMILES CC[C@@H](C)[C@H](NC(=O)C1CCN(C(=O)OC(C)(C)C)CC1)C(=O)NCCCCCCNC(=O)c1ccc(-c2c3nc(c(-c4c(F)c(F)c(F)c(F)c4F)c4ccc([nH]4)c(-c4c(F)c(F)c(F)c(F)c4F)c4nc(c(-c5c(F)c(F)c(F)c(F)c5F)c5ccc2[nH]5)C=C4)C=C3)cc1
REMARK SMILES IDX 26 1 25 2 24 3 22 4 23 5 5 7 3 8 4 9 2 10 1 11 6 12 7 13
REMARK SMILES IDX 8 15 9 16 10 17 21 18 11 19 20 20 12 21 13 22 14 23 15 24
REMARK SMILES IDX 16 25 17 26 18 27 19 28 27 29 28 30 29 31 30 32 31 33 32 34
REMARK SMILES IDX 33 36 34 37 35 38 96 39 36 40 95 41 37 42 38 43 39 44 89 45
REMARK SMILES IDX 40 46 94 47 88 48 90 49 41 50 93 51 87 52 86 53 42 55 74 56
REMARK SMILES IDX 54 57 73 58 55 59 58 60 72 61 91 62 56 63 57 64 71 66 92 67
REMARK SMILES IDX 59 68 43 69 44 70 52 71 45 72 46 73 50 74 53 75 47 76 48 77
REMARK SMILES IDX 51 78 49 79 75 80 76 81 84 82 77 83 78 84 82 85 85 86 79 87
REMARK SMILES IDX 80 88 83 89 81 90 60 91 61 92 69 93 62 94 63 95 67 96 70 97
REMARK SMILES IDX 64 98 65 99 68 100 66 101
REMARK H PARENT 24 6 6 14 31 35 90 54 58 65
REMARK Flexibility Score: inf
ROOT
ATOM      1  C   UNL A   1      39.100  28.448  27.999  1.00  0.00     0.021 C 
ENDROOT
BRANCH   1   2
ATOM      2  C   UNL A   1      38.226  29.688  28.115  1.00  0.00     0.116 C 
BRANCH   2   3
ATOM      3  N   UNL A   1      37.613  29.921  29.395  1.00  0.00    -0.354 N 
ATOM      4  C   UNL A   1      36.414  30.475  29.711  1.00  0.00     0.242 C 
ATOM      5  O   UNL A   1      36.011  30.266  30.862  1.00  0.00    -0.273 OA
ATOM      6  H   UNL A   1      38.149  29.630  30.168  1.00  0.00     0.163 HD
BRANCH   4   7
ATOM      7  C   UNL A   1      35.498  31.244  28.710  1.00  0.00     0.174 C 
BRANCH   7   8
ATOM      8  C   UNL A   1      35.706  32.807  28.878  1.00  0.00     0.018 C 
ATOM      9  C   UNL A   1      37.180  33.246  28.829  1.00  0.00     0.010 C 
BRANCH   8  10
ATOM     10  C   UNL A   1      34.886  33.438  30.043  1.00  0.00     0.002 C 
ATOM     11  C   UNL A   1      35.639  34.077  31.205  1.00  0.00     0.004 C 
ENDBRANCH   8  10
ENDBRANCH   7   8
BRANCH   7  12
ATOM     12  N   UNL A   1      34.039  30.922  28.495  1.00  0.00    -0.344 N 
ATOM     13  C   UNL A   1      33.368  30.351  27.437  1.00  0.00     0.223 C 
ATOM     14  H   UNL A   1      33.458  31.164  29.254  1.00  0.00     0.164 HD
ATOM     15  O   UNL A   1      32.554  31.069  26.849  1.00  0.00    -0.275 OA
BRANCH  13  16
ATOM     16  C   UNL A   1      33.353  28.828  27.214  1.00  0.00     0.082 C 
ATOM     17  C   UNL A   1      34.387  28.340  26.246  1.00  0.00     0.035 C 
ATOM     18  C   UNL A   1      32.006  28.238  26.740  1.00  0.00     0.035 C 
ATOM     19  C   UNL A   1      34.115  28.943  24.901  1.00  0.00     0.124 C 
ATOM     20  C   UNL A   1      31.720  28.420  25.229  1.00  0.00     0.124 C 
ATOM     21  N   UNL A   1      32.914  28.370  24.380  1.00  0.00    -0.308 N 
ATOM     22  C   UNL A   1      32.978  28.072  23.041  1.00  0.00     0.410 C 
ATOM     23  O   UNL A   1      33.918  28.447  22.336  1.00  0.00    -0.224 OA
BRANCH  22  24
ATOM     24  O   UNL A   1      31.996  27.257  22.607  1.00  0.00    -0.444 OA
BRANCH  24  25
ATOM     25  C   UNL A   1      32.377  25.874  22.379  1.00  0.00     0.106 C 
ATOM     26  C   UNL A   1      32.597  25.599  20.882  1.00  0.00     0.056 C 
ATOM     27  C   UNL A   1      33.604  25.478  23.225  1.00  0.00     0.056 C 
ATOM     28  C   UNL A   1      31.180  25.054  22.864  1.00  0.00     0.056 C 
ENDBRANCH  24  25
ENDBRANCH  22  24
ENDBRANCH  13  16
ENDBRANCH   7  12
ENDBRANCH   4   7
ENDBRANCH   2   3
ENDBRANCH   1   2
BRANCH   1  29
ATOM     29  C   UNL A   1      40.145  28.530  26.882  1.00  0.00     0.002 C 
BRANCH  29  30
ATOM     30  C   UNL A   1      40.838  27.202  26.578  1.00  0.00     0.002 C 
BRANCH  30  31
ATOM     31  C   UNL A   1      39.964  25.973  26.826  1.00  0.00     0.021 C 
BRANCH  31  32
ATOM     32  C   UNL A   1      40.447  25.116  27.991  1.00  0.00     0.116 C 
BRANCH  32  33
ATOM     33  N   UNL A   1      40.851  23.799  27.527  1.00  0.00    -0.352 N 
ATOM     34  C   UNL A   1      41.947  23.478  26.768  1.00  0.00     0.251 C 
ATOM     35  H   UNL A   1      40.270  23.049  27.790  1.00  0.00     0.163 HD
ATOM     36  O   UNL A   1      42.016  22.411  26.171  1.00  0.00    -0.269 OA
BRANCH  34  37
ATOM     37  C   UNL A   1      43.045  24.458  26.678  1.00  0.00     0.039 A 
ATOM     38  C   UNL A   1      43.378  25.007  25.440  1.00  0.00     0.014 A 
ATOM     39  C   UNL A   1      43.703  24.866  27.843  1.00  0.00     0.014 A 
ATOM     40  C   UNL A   1      44.336  26.019  25.377  1.00  0.00     0.010 A 
ATOM     41  C   UNL A   1      44.605  25.922  27.787  1.00  0.00     0.010 A 
ATOM     42  C   UNL A   1      44.927  26.511  26.554  1.00  0.00    -0.014 A 
BRANCH  42  43
ATOM     43  C   UNL A   1      45.864  27.660  26.527  1.00  0.00     0.031 A 
ATOM     44  C   UNL A   1      47.344  27.420  26.423  1.00  0.00     0.074 A 
ATOM     45  C   UNL A   1      45.384  28.908  26.689  1.00  0.00     0.049 A 
ATOM     46  N   UNL A   1      48.326  28.282  26.486  1.00  0.00    -0.248 NA
ATOM     47  C   UNL A   1      47.780  26.024  26.251  1.00  0.00     0.031 C 
ATOM     48  C   UNL A   1      43.971  29.257  26.851  1.00  0.00     0.029 A 
ATOM     49  N   UNL A   1      46.032  30.116  26.768  1.00  0.00    -0.354 N 
ATOM     50  C   UNL A   1      49.491  27.534  26.384  1.00  0.00     0.074 A 
ATOM     51  C   UNL A   1      49.100  26.146  26.292  1.00  0.00     0.031 C 
ATOM     52  C   UNL A   1      43.859  30.585  27.004  1.00  0.00     0.029 A 
ATOM     53  C   UNL A   1      45.192  31.179  26.999  1.00  0.00     0.049 A 
ATOM     54  H   UNL A   1      47.007  30.212  26.669  1.00  0.00     0.167 HD
ATOM     55  C   UNL A   1      50.771  27.974  26.355  1.00  0.00     0.037 A 
ATOM     56  C   UNL A   1      45.468  32.480  27.209  1.00  0.00     0.037 A 
ATOM     57  C   UNL A   1      51.148  29.362  26.411  1.00  0.00     0.049 A 
ATOM     58  C   UNL A   1      46.904  32.935  27.186  1.00  0.00     0.074 A 
ATOM     59  C   UNL A   1      52.409  29.915  26.281  1.00  0.00     0.029 A 
ATOM     60  N   UNL A   1      50.268  30.412  26.627  1.00  0.00    -0.354 N 
ATOM     61  N   UNL A   1      47.991  32.231  26.979  1.00  0.00    -0.248 NA
ATOM     62  C   UNL A   1      47.155  34.364  27.426  1.00  0.00     0.031 C 
ATOM     63  C   UNL A   1      52.303  31.293  26.489  1.00  0.00     0.029 A 
ATOM     64  C   UNL A   1      50.968  31.605  26.685  1.00  0.00     0.049 A 
ATOM     65  H   UNL A   1      49.293  30.322  26.723  1.00  0.00     0.167 HD
ATOM     66  C   UNL A   1      49.046  33.131  27.044  1.00  0.00     0.074 A 
ATOM     67  C   UNL A   1      48.470  34.436  27.285  1.00  0.00     0.031 C 
ATOM     68  C   UNL A   1      50.376  32.897  26.923  1.00  0.00     0.037 A 
BRANCH  55  69
ATOM     69  C   UNL A   1      51.870  26.957  26.264  1.00  0.00     0.064 A 
ATOM     70  C   UNL A   1      52.211  26.343  25.050  1.00  0.00     0.173 A 
ATOM     71  C   UNL A   1      52.649  26.659  27.392  1.00  0.00     0.173 A 
ATOM     72  F   UNL A   1      51.492  26.588  23.943  1.00  0.00    -0.203 F 
ATOM     73  C   UNL A   1      53.284  25.459  24.972  1.00  0.00     0.198 A 
ATOM     74  C   UNL A   1      53.739  25.798  27.304  1.00  0.00     0.198 A 
ATOM     75  F   UNL A   1      52.369  27.223  28.577  1.00  0.00    -0.203 F 
ATOM     76  F   UNL A   1      53.574  24.861  23.808  1.00  0.00    -0.200 F 
ATOM     77  C   UNL A   1      54.054  25.197  26.095  1.00  0.00     0.200 A 
ATOM     78  F   UNL A   1      54.491  25.557  28.387  1.00  0.00    -0.200 F 
ATOM     79  F   UNL A   1      55.100  24.363  26.013  1.00  0.00    -0.200 F 
ENDBRANCH  55  69
BRANCH  56  80
ATOM     80  C   UNL A   1      44.371  33.447  27.488  1.00  0.00     0.064 A 
ATOM     81  C   UNL A   1      43.907  34.322  26.495  1.00  0.00     0.173 A 
ATOM     82  C   UNL A   1      43.789  33.542  28.760  1.00  0.00     0.173 A 
ATOM     83  F   UNL A   1      44.444  34.286  25.266  1.00  0.00    -0.203 F 
ATOM     84  C   UNL A   1      42.931  35.276  26.774  1.00  0.00     0.198 A 
ATOM     85  C   UNL A   1      42.787  34.472  29.029  1.00  0.00     0.198 A 
ATOM     86  F   UNL A   1      44.189  32.726  29.746  1.00  0.00    -0.203 F 
ATOM     87  F   UNL A   1      42.554  36.143  25.825  1.00  0.00    -0.200 F 
ATOM     88  C   UNL A   1      42.369  35.348  28.040  1.00  0.00     0.200 A 
ATOM     89  F   UNL A   1      42.235  34.525  30.249  1.00  0.00    -0.200 F 
ATOM     90  F   UNL A   1      41.433  36.269  28.309  1.00  0.00    -0.200 F 
ENDBRANCH  56  80
BRANCH  68  91
ATOM     91  C   UNL A   1      51.300  34.074  27.035  1.00  0.00     0.064 A 
ATOM     92  C   UNL A   1      51.914  34.409  28.249  1.00  0.00     0.173 A 
ATOM     93  C   UNL A   1      51.622  34.837  25.902  1.00  0.00     0.173 A 
ATOM     94  F   UNL A   1      51.626  33.721  29.365  1.00  0.00    -0.203 F 
ATOM     95  C   UNL A   1      52.808  35.473  28.329  1.00  0.00     0.198 A 
ATOM     96  C   UNL A   1      52.541  35.879  25.978  1.00  0.00     0.198 A 
ATOM     97  F   UNL A   1      51.067  34.553  24.714  1.00  0.00    -0.203 F 
ATOM     98  F   UNL A   1      53.354  35.801  29.509  1.00  0.00    -0.200 F 
ATOM     99  C   UNL A   1      53.129  36.199  27.192  1.00  0.00     0.200 A 
ATOM    100  F   UNL A   1      52.863  36.568  24.875  1.00  0.00    -0.200 F 
ATOM    101  F   UNL A   1      54.003  37.213  27.267  1.00  0.00    -0.200 F 
ENDBRANCH  68  91
ENDBRANCH  42  43
ENDBRANCH  34  37
ENDBRANCH  32  33
ENDBRANCH  31  32
ENDBRANCH  30  31
ENDBRANCH  29  30
ENDBRANCH   1  29
TORSDOF 19
ENDMDL
