MODEL 1
REMARK VINA RESULT:     -13.3      0.000      0.000
REMARK SMILES C[C@@H](C(=O)NCCCCCCNC(=O)c1ccc(-c2c3nc(c(-c4c(F)c(F)c(F)c(F)c4F)c4ccc([nH]4)c(-c4c(F)c(F)c(F)c(F)c4F)c4nc(c(-c5c(F)c(F)c(F)c(F)c5F)c5ccc2[nH]5)C=C4)C=C3)cc1)c1ccc(C[C@H]2CCCC2=O)c(-c2ccc(F)cc2)c1
REMARK SMILES IDX 8 1 7 2 6 3 5 4 3 5 4 6 2 8 1 9 78 10 79 11 97 12 80 13
REMARK SMILES IDX 89 14 81 15 90 16 91 17 96 18 92 19 95 20 93 21 94 22 82 23
REMARK SMILES IDX 83 24 84 25 87 26 85 27 86 28 88 29 9 30 10 31 11 32 12 33
REMARK SMILES IDX 13 34 14 36 15 37 16 38 77 39 17 40 76 41 18 42 19 43 20 44
REMARK SMILES IDX 70 45 21 46 75 47 69 48 71 49 22 50 74 51 68 52 67 53 23 55
REMARK SMILES IDX 55 56 35 57 54 58 36 59 39 60 53 61 72 62 37 63 38 64 52 66
REMARK SMILES IDX 73 67 40 68 24 69 25 70 33 71 26 72 27 73 31 74 34 75 28 76
REMARK SMILES IDX 29 77 32 78 30 79 56 80 57 81 65 82 58 83 59 84 63 85 66 86
REMARK SMILES IDX 60 87 61 88 64 89 62 90 41 91 42 92 50 93 43 94 44 95 48 96
REMARK SMILES IDX 51 97 45 98 46 99 49 100 47 101
REMARK H PARENT 5 7 12 35 71 54 39 65
REMARK Flexibility Score: inf
ROOT
ATOM      1  C   UNL A   1      32.473  30.041  26.881  1.00  0.00     0.002 C 
ENDROOT
BRANCH   1   2
ATOM      2  C   UNL A   1      31.992  28.695  27.440  1.00  0.00     0.021 C 
BRANCH   2   3
ATOM      3  C   UNL A   1      32.239  27.506  26.507  1.00  0.00     0.116 C 
BRANCH   3   4
ATOM      4  N   UNL A   1      31.383  26.396  26.874  1.00  0.00    -0.356 N 
ATOM      5  C   UNL A   1      30.880  25.387  26.105  1.00  0.00     0.227 C 
ATOM      6  O   UNL A   1      29.958  24.729  26.590  1.00  0.00    -0.274 OA
ATOM      7  H   UNL A   1      31.126  26.365  27.823  1.00  0.00     0.163 HD
BRANCH   5   8
ATOM      8  C   UNL A   1      31.498  25.089  24.725  1.00  0.00     0.105 C 
ATOM      9  C   UNL A   1      30.463  25.317  23.616  1.00  0.00     0.023 C 
BRANCH   8  10
ATOM     10  C   UNL A   1      32.159  23.708  24.674  1.00  0.00    -0.035 A 
ATOM     11  C   UNL A   1      31.386  22.574  24.403  1.00  0.00     0.005 A 
ATOM     12  C   UNL A   1      33.528  23.511  24.908  1.00  0.00     0.013 A 
ATOM     13  C   UNL A   1      31.967  21.306  24.349  1.00  0.00     0.004 A 
ATOM     14  C   UNL A   1      34.137  22.235  24.903  1.00  0.00    -0.015 A 
ATOM     15  C   UNL A   1      33.333  21.109  24.625  1.00  0.00    -0.039 A 
BRANCH  14  16
ATOM     16  C   UNL A   1      35.580  22.182  25.196  1.00  0.00    -0.018 A 
ATOM     17  C   UNL A   1      36.345  21.037  24.917  1.00  0.00     0.012 A 
ATOM     18  C   UNL A   1      36.244  23.322  25.693  1.00  0.00     0.012 A 
ATOM     19  C   UNL A   1      37.723  21.021  25.154  1.00  0.00     0.040 A 
ATOM     20  C   UNL A   1      37.621  23.311  25.919  1.00  0.00     0.040 A 
ATOM     21  C   UNL A   1      38.346  22.158  25.652  1.00  0.00     0.123 A 
ATOM     22  F   UNL A   1      39.667  22.147  25.867  1.00  0.00    -0.207 F 
ENDBRANCH  14  16
BRANCH  15  23
ATOM     23  C   UNL A   1      33.858  19.686  24.623  1.00  0.00     0.047 C 
BRANCH  23  24
ATOM     24  C   UNL A   1      32.929  18.601  24.064  1.00  0.00     0.060 C 
ATOM     25  C   UNL A   1      33.398  17.870  22.803  1.00  0.00     0.012 C 
ATOM     26  C   UNL A   1      32.718  17.456  25.028  1.00  0.00     0.136 C 
ATOM     27  C   UNL A   1      34.035  16.572  23.279  1.00  0.00     0.009 C 
ATOM     28  C   UNL A   1      33.208  16.141  24.482  1.00  0.00     0.076 C 
ATOM     29  O   UNL A   1      32.186  17.576  26.126  1.00  0.00    -0.299 OA
ENDBRANCH  23  24
ENDBRANCH  15  23
ENDBRANCH   8  10
ENDBRANCH   5   8
ENDBRANCH   3   4
ENDBRANCH   2   3
ENDBRANCH   1   2
BRANCH   1  30
ATOM     30  C   UNL A   1      31.406  30.851  26.140  1.00  0.00     0.002 C 
BRANCH  30  31
ATOM     31  C   UNL A   1      31.361  32.339  26.497  1.00  0.00     0.021 C 
BRANCH  31  32
ATOM     32  C   UNL A   1      32.646  32.893  27.108  1.00  0.00     0.116 C 
BRANCH  32  33
ATOM     33  N   UNL A   1      32.458  34.218  27.674  1.00  0.00    -0.352 N 
ATOM     34  C   UNL A   1      33.095  34.812  28.730  1.00  0.00     0.251 C 
ATOM     35  H   UNL A   1      31.772  34.770  27.234  1.00  0.00     0.163 HD
ATOM     36  O   UNL A   1      32.674  35.879  29.180  1.00  0.00    -0.269 OA
BRANCH  34  37
ATOM     37  C   UNL A   1      34.274  34.175  29.353  1.00  0.00     0.039 A 
ATOM     38  C   UNL A   1      34.071  33.273  30.401  1.00  0.00     0.014 A 
ATOM     39  C   UNL A   1      35.574  34.488  28.940  1.00  0.00     0.014 A 
ATOM     40  C   UNL A   1      35.166  32.650  31.004  1.00  0.00     0.010 A 
ATOM     41  C   UNL A   1      36.662  33.821  29.501  1.00  0.00     0.010 A 
ATOM     42  C   UNL A   1      36.468  32.902  30.543  1.00  0.00    -0.014 A 
BRANCH  42  43
ATOM     43  C   UNL A   1      37.632  32.209  31.152  1.00  0.00     0.031 A 
ATOM     44  C   UNL A   1      38.101  32.577  32.531  1.00  0.00     0.074 A 
ATOM     45  C   UNL A   1      38.285  31.265  30.446  1.00  0.00     0.049 A 
ATOM     46  N   UNL A   1      39.104  32.093  33.221  1.00  0.00    -0.248 NA
ATOM     47  C   UNL A   1      37.361  33.646  33.219  1.00  0.00     0.031 C 
ATOM     48  C   UNL A   1      37.959  30.859  29.079  1.00  0.00     0.029 A 
ATOM     49  N   UNL A   1      39.362  30.483  30.779  1.00  0.00    -0.354 N 
ATOM     50  C   UNL A   1      39.114  32.796  34.418  1.00  0.00     0.074 A 
ATOM     51  C   UNL A   1      38.054  33.778  34.341  1.00  0.00     0.031 C 
ATOM     52  C   UNL A   1      38.806  29.889  28.695  1.00  0.00     0.029 A 
ATOM     53  C   UNL A   1      39.746  29.623  29.780  1.00  0.00     0.049 A 
ATOM     54  H   UNL A   1      39.814  30.533  31.651  1.00  0.00     0.167 HD
ATOM     55  C   UNL A   1      39.916  32.619  35.495  1.00  0.00     0.037 A 
ATOM     56  C   UNL A   1      40.743  28.718  29.746  1.00  0.00     0.037 A 
ATOM     57  C   UNL A   1      40.961  31.632  35.579  1.00  0.00     0.049 A 
ATOM     58  C   UNL A   1      41.606  28.529  30.963  1.00  0.00     0.074 A 
ATOM     59  C   UNL A   1      41.810  31.357  36.637  1.00  0.00     0.029 A 
ATOM     60  N   UNL A   1      41.296  30.752  34.559  1.00  0.00    -0.354 N 
ATOM     61  N   UNL A   1      41.567  29.161  32.111  1.00  0.00    -0.248 NA
ATOM     62  C   UNL A   1      42.639  27.488  30.886  1.00  0.00     0.031 C 
ATOM     63  C   UNL A   1      42.677  30.330  36.249  1.00  0.00     0.029 A 
ATOM     64  C   UNL A   1      42.342  29.938  34.962  1.00  0.00     0.049 A 
ATOM     65  H   UNL A   1      40.855  30.712  33.680  1.00  0.00     0.167 HD
ATOM     66  C   UNL A   1      42.554  28.584  32.897  1.00  0.00     0.074 A 
ATOM     67  C   UNL A   1      43.160  27.534  32.104  1.00  0.00     0.031 C 
ATOM     68  C   UNL A   1      42.930  28.897  34.161  1.00  0.00     0.037 A 
BRANCH  55  69
ATOM     69  C   UNL A   1      39.682  33.504  36.685  1.00  0.00     0.064 A 
ATOM     70  C   UNL A   1      40.301  34.758  36.792  1.00  0.00     0.173 A 
ATOM     71  C   UNL A   1      38.800  33.117  37.704  1.00  0.00     0.173 A 
ATOM     72  F   UNL A   1      41.163  35.168  35.849  1.00  0.00    -0.203 F 
ATOM     73  C   UNL A   1      40.065  35.583  37.888  1.00  0.00     0.198 A 
ATOM     74  C   UNL A   1      38.546  33.956  38.786  1.00  0.00     0.198 A 
ATOM     75  F   UNL A   1      38.179  31.930  37.647  1.00  0.00    -0.203 F 
ATOM     76  F   UNL A   1      40.701  36.758  37.990  1.00  0.00    -0.200 F 
ATOM     77  C   UNL A   1      39.182  35.184  38.881  1.00  0.00     0.200 A 
ATOM     78  F   UNL A   1      37.684  33.575  39.740  1.00  0.00    -0.200 F 
ATOM     79  F   UNL A   1      38.949  35.982  39.931  1.00  0.00    -0.200 F 
ENDBRANCH  55  69
BRANCH  56  80
ATOM     80  C   UNL A   1      40.961  27.904  28.524  1.00  0.00     0.064 A 
ATOM     81  C   UNL A   1      41.721  28.397  27.455  1.00  0.00     0.173 A 
ATOM     82  C   UNL A   1      40.407  26.623  28.395  1.00  0.00     0.173 A 
ATOM     83  F   UNL A   1      42.255  29.626  27.523  1.00  0.00    -0.203 F 
ATOM     84  C   UNL A   1      41.900  27.649  26.293  1.00  0.00     0.198 A 
ATOM     85  C   UNL A   1      40.610  25.864  27.245  1.00  0.00     0.198 A 
ATOM     86  F   UNL A   1      39.678  26.103  29.394  1.00  0.00    -0.203 F 
ATOM     87  F   UNL A   1      42.592  28.162  25.267  1.00  0.00    -0.200 F 
ATOM     88  C   UNL A   1      41.348  26.381  26.191  1.00  0.00     0.200 A 
ATOM     89  F   UNL A   1      40.085  24.633  27.155  1.00  0.00    -0.200 F 
ATOM     90  F   UNL A   1      41.520  25.661  25.074  1.00  0.00    -0.200 F 
ENDBRANCH  56  80
BRANCH  68  91
ATOM     91  C   UNL A   1      44.031  28.079  34.769  1.00  0.00     0.064 A 
ATOM     92  C   UNL A   1      43.763  26.884  35.452  1.00  0.00     0.173 A 
ATOM     93  C   UNL A   1      45.368  28.484  34.646  1.00  0.00     0.173 A 
ATOM     94  F   UNL A   1      42.499  26.465  35.609  1.00  0.00    -0.203 F 
ATOM     95  C   UNL A   1      44.794  26.137  36.017  1.00  0.00     0.198 A 
ATOM     96  C   UNL A   1      46.398  27.721  35.189  1.00  0.00     0.198 A 
ATOM     97  F   UNL A   1      45.676  29.616  33.997  1.00  0.00    -0.203 F 
ATOM     98  F   UNL A   1      44.512  25.025  36.707  1.00  0.00    -0.200 F 
ATOM     99  C   UNL A   1      46.110  26.554  35.880  1.00  0.00     0.200 A 
ATOM    100  F   UNL A   1      47.670  28.119  35.048  1.00  0.00    -0.200 F 
ATOM    101  F   UNL A   1      47.102  25.834  36.423  1.00  0.00    -0.200 F 
ENDBRANCH  68  91
ENDBRANCH  42  43
ENDBRANCH  34  37
ENDBRANCH  32  33
ENDBRANCH  31  32
ENDBRANCH  30  31
ENDBRANCH   1  30
TORSDOF 17
ENDMDL
MODEL 2
REMARK VINA RESULT:     -13.1      1.364      2.397
REMARK SMILES C[C@@H](C(=O)NCCCCCCNC(=O)c1ccc(-c2c3nc(c(-c4c(F)c(F)c(F)c(F)c4F)c4ccc([nH]4)c(-c4c(F)c(F)c(F)c(F)c4F)c4nc(c(-c5c(F)c(F)c(F)c(F)c5F)c5ccc2[nH]5)C=C4)C=C3)cc1)c1ccc(C[C@H]2CCCC2=O)c(-c2ccc(F)cc2)c1
REMARK SMILES IDX 8 1 7 2 6 3 5 4 3 5 4 6 2 8 1 9 78 10 79 11 97 12 80 13
REMARK SMILES IDX 89 14 81 15 90 16 91 17 96 18 92 19 95 20 93 21 94 22 82 23
REMARK SMILES IDX 83 24 84 25 87 26 85 27 86 28 88 29 9 30 10 31 11 32 12 33
REMARK SMILES IDX 13 34 14 36 15 37 16 38 77 39 17 40 76 41 18 42 19 43 20 44
REMARK SMILES IDX 70 45 21 46 75 47 69 48 71 49 22 50 74 51 68 52 67 53 23 55
REMARK SMILES IDX 55 56 35 57 54 58 36 59 39 60 53 61 72 62 37 63 38 64 52 66
REMARK SMILES IDX 73 67 40 68 24 69 25 70 33 71 26 72 27 73 31 74 34 75 28 76
REMARK SMILES IDX 29 77 32 78 30 79 56 80 57 81 65 82 58 83 59 84 63 85 66 86
REMARK SMILES IDX 60 87 61 88 64 89 62 90 41 91 42 92 50 93 43 94 44 95 48 96
REMARK SMILES IDX 51 97 45 98 46 99 49 100 47 101
REMARK H PARENT 5 7 12 35 71 54 39 65
REMARK Flexibility Score: inf
ROOT
ATOM      1  C   UNL A   1      32.733  30.102  27.252  1.00  0.00     0.002 C 
ENDROOT
BRANCH   1   2
ATOM      2  C   UNL A   1      33.206  28.780  26.635  1.00  0.00     0.021 C 
BRANCH   2   3
ATOM      3  C   UNL A   1      32.236  28.184  25.610  1.00  0.00     0.116 C 
BRANCH   3   4
ATOM      4  N   UNL A   1      31.437  27.143  26.223  1.00  0.00    -0.356 N 
ATOM      5  C   UNL A   1      30.770  26.099  25.649  1.00  0.00     0.227 C 
ATOM      6  O   UNL A   1      29.941  25.520  26.353  1.00  0.00    -0.274 OA
ATOM      7  H   UNL A   1      31.365  27.196  27.203  1.00  0.00     0.163 HD
BRANCH   5   8
ATOM      8  C   UNL A   1      31.106  25.670  24.208  1.00  0.00     0.105 C 
ATOM      9  C   UNL A   1      29.852  25.137  23.504  1.00  0.00     0.023 C 
BRANCH   8  10
ATOM     10  C   UNL A   1      32.297  24.706  24.156  1.00  0.00    -0.035 A 
ATOM     11  C   UNL A   1      33.588  25.204  23.951  1.00  0.00     0.005 A 
ATOM     12  C   UNL A   1      32.156  23.317  24.288  1.00  0.00     0.013 A 
ATOM     13  C   UNL A   1      34.687  24.345  23.902  1.00  0.00     0.004 A 
ATOM     14  C   UNL A   1      33.245  22.419  24.200  1.00  0.00    -0.015 A 
ATOM     15  C   UNL A   1      34.537  22.948  23.994  1.00  0.00    -0.039 A 
BRANCH  14  16
ATOM     16  C   UNL A   1      32.939  20.983  24.327  1.00  0.00    -0.018 A 
ATOM     17  C   UNL A   1      32.615  20.198  23.208  1.00  0.00     0.012 A 
ATOM     18  C   UNL A   1      33.046  20.346  25.580  1.00  0.00     0.012 A 
ATOM     19  C   UNL A   1      32.377  18.827  23.340  1.00  0.00     0.040 A 
ATOM     20  C   UNL A   1      32.822  18.975  25.710  1.00  0.00     0.040 A 
ATOM     21  C   UNL A   1      32.484  18.230  24.589  1.00  0.00     0.123 A 
ATOM     22  F   UNL A   1      32.269  16.914  24.714  1.00  0.00    -0.207 F 
ENDBRANCH  14  16
BRANCH  15  23
ATOM     23  C   UNL A   1      35.779  22.090  23.848  1.00  0.00     0.047 C 
BRANCH  23  24
ATOM     24  C   UNL A   1      36.333  21.443  25.123  1.00  0.00     0.060 C 
ATOM     25  C   UNL A   1      36.792  19.986  25.016  1.00  0.00     0.012 C 
ATOM     26  C   UNL A   1      37.580  22.127  25.634  1.00  0.00     0.136 C 
ATOM     27  C   UNL A   1      38.301  20.032  24.817  1.00  0.00     0.009 C 
ATOM     28  C   UNL A   1      38.777  21.213  25.652  1.00  0.00     0.076 C 
ATOM     29  O   UNL A   1      37.614  23.291  26.015  1.00  0.00    -0.299 OA
ENDBRANCH  23  24
ENDBRANCH  15  23
ENDBRANCH   8  10
ENDBRANCH   5   8
ENDBRANCH   3   4
ENDBRANCH   2   3
ENDBRANCH   1   2
BRANCH   1  30
ATOM     30  C   UNL A   1      31.516  30.734  26.570  1.00  0.00     0.002 C 
BRANCH  30  31
ATOM     31  C   UNL A   1      31.390  32.249  26.748  1.00  0.00     0.021 C 
BRANCH  31  32
ATOM     32  C   UNL A   1      32.699  32.970  27.064  1.00  0.00     0.116 C 
BRANCH  32  33
ATOM     33  N   UNL A   1      32.475  34.274  27.665  1.00  0.00    -0.352 N 
ATOM     34  C   UNL A   1      33.090  34.854  28.743  1.00  0.00     0.251 C 
ATOM     35  H   UNL A   1      31.780  34.822  27.234  1.00  0.00     0.163 HD
ATOM     36  O   UNL A   1      32.641  35.898  29.218  1.00  0.00    -0.269 OA
BRANCH  34  37
ATOM     37  C   UNL A   1      34.279  34.227  29.357  1.00  0.00     0.039 A 
ATOM     38  C   UNL A   1      34.089  33.266  30.354  1.00  0.00     0.014 A 
ATOM     39  C   UNL A   1      35.574  34.606  28.988  1.00  0.00     0.014 A 
ATOM     40  C   UNL A   1      35.193  32.652  30.948  1.00  0.00     0.010 A 
ATOM     41  C   UNL A   1      36.675  33.950  29.538  1.00  0.00     0.010 A 
ATOM     42  C   UNL A   1      36.494  32.972  30.527  1.00  0.00    -0.014 A 
BRANCH  42  43
ATOM     43  C   UNL A   1      37.670  32.290  31.126  1.00  0.00     0.031 A 
ATOM     44  C   UNL A   1      38.162  32.678  32.491  1.00  0.00     0.074 A 
ATOM     45  C   UNL A   1      38.313  31.339  30.421  1.00  0.00     0.049 A 
ATOM     46  N   UNL A   1      39.178  32.205  33.170  1.00  0.00    -0.248 NA
ATOM     47  C   UNL A   1      37.431  33.755  33.178  1.00  0.00     0.031 C 
ATOM     48  C   UNL A   1      37.964  30.913  29.065  1.00  0.00     0.029 A 
ATOM     49  N   UNL A   1      39.397  30.564  30.746  1.00  0.00    -0.354 N 
ATOM     50  C   UNL A   1      39.206  32.924  34.357  1.00  0.00     0.074 A 
ATOM     51  C   UNL A   1      38.143  33.903  34.286  1.00  0.00     0.031 C 
ATOM     52  C   UNL A   1      38.807  29.941  28.680  1.00  0.00     0.029 A 
ATOM     53  C   UNL A   1      39.766  29.691  29.752  1.00  0.00     0.049 A 
ATOM     54  H   UNL A   1      39.865  30.626  31.609  1.00  0.00     0.167 HD
ATOM     55  C   UNL A   1      40.028  32.763  35.423  1.00  0.00     0.037 A 
ATOM     56  C   UNL A   1      40.765  28.788  29.712  1.00  0.00     0.037 A 
ATOM     57  C   UNL A   1      41.076  31.780  35.501  1.00  0.00     0.049 A 
ATOM     58  C   UNL A   1      41.649  28.617  30.917  1.00  0.00     0.074 A 
ATOM     59  C   UNL A   1      41.944  31.521  36.549  1.00  0.00     0.029 A 
ATOM     60  N   UNL A   1      41.396  30.887  34.488  1.00  0.00    -0.354 N 
ATOM     61  N   UNL A   1      41.629  29.264  32.057  1.00  0.00    -0.248 NA
ATOM     62  C   UNL A   1      42.684  27.577  30.835  1.00  0.00     0.031 C 
ATOM     63  C   UNL A   1      42.807  30.490  36.159  1.00  0.00     0.029 A 
ATOM     64  C   UNL A   1      42.451  30.081  34.883  1.00  0.00     0.049 A 
ATOM     65  H   UNL A   1      40.940  30.834  33.617  1.00  0.00     0.167 HD
ATOM     66  C   UNL A   1      42.631  28.700  32.833  1.00  0.00     0.074 A 
ATOM     67  C   UNL A   1      43.225  27.641  32.043  1.00  0.00     0.031 C 
ATOM     68  C   UNL A   1      43.027  29.031  34.086  1.00  0.00     0.037 A 
BRANCH  55  69
ATOM     69  C   UNL A   1      39.812  33.663  36.604  1.00  0.00     0.064 A 
ATOM     70  C   UNL A   1      40.449  34.910  36.696  1.00  0.00     0.173 A 
ATOM     71  C   UNL A   1      38.930  33.298  37.633  1.00  0.00     0.173 A 
ATOM     72  F   UNL A   1      41.311  35.299  35.744  1.00  0.00    -0.203 F 
ATOM     73  C   UNL A   1      40.230  35.749  37.785  1.00  0.00     0.198 A 
ATOM     74  C   UNL A   1      38.693  34.152  38.707  1.00  0.00     0.198 A 
ATOM     75  F   UNL A   1      38.292  32.120  37.591  1.00  0.00    -0.203 F 
ATOM     76  F   UNL A   1      40.882  36.916  37.871  1.00  0.00    -0.200 F 
ATOM     77  C   UNL A   1      39.346  35.372  38.786  1.00  0.00     0.200 A 
ATOM     78  F   UNL A   1      37.831  33.793  39.669  1.00  0.00    -0.200 F 
ATOM     79  F   UNL A   1      39.130  36.184  39.829  1.00  0.00    -0.200 F 
ENDBRANCH  55  69
BRANCH  56  80
ATOM     80  C   UNL A   1      40.964  27.958  28.498  1.00  0.00     0.064 A 
ATOM     81  C   UNL A   1      41.728  28.428  27.421  1.00  0.00     0.173 A 
ATOM     82  C   UNL A   1      40.387  26.686  28.384  1.00  0.00     0.173 A 
ATOM     83  F   UNL A   1      42.283  29.648  27.475  1.00  0.00    -0.203 F 
ATOM     84  C   UNL A   1      41.889  27.665  26.265  1.00  0.00     0.198 A 
ATOM     85  C   UNL A   1      40.572  25.912  27.240  1.00  0.00     0.198 A 
ATOM     86  F   UNL A   1      39.653  26.188  29.390  1.00  0.00    -0.203 F 
ATOM     87  F   UNL A   1      42.586  28.157  25.232  1.00  0.00    -0.200 F 
ATOM     88  C   UNL A   1      41.315  26.406  26.178  1.00  0.00     0.200 A 
ATOM     89  F   UNL A   1      40.026  24.690  27.165  1.00  0.00    -0.200 F 
ATOM     90  F   UNL A   1      41.470  25.672  25.068  1.00  0.00    -0.200 F 
ENDBRANCH  56  80
BRANCH  68  91
ATOM     91  C   UNL A   1      44.140  28.223  34.685  1.00  0.00     0.064 A 
ATOM     92  C   UNL A   1      43.887  27.038  35.391  1.00  0.00     0.173 A 
ATOM     93  C   UNL A   1      45.474  28.628  34.533  1.00  0.00     0.173 A 
ATOM     94  F   UNL A   1      42.627  26.619  35.577  1.00  0.00    -0.203 F 
ATOM     95  C   UNL A   1      44.930  26.301  35.947  1.00  0.00     0.198 A 
ATOM     96  C   UNL A   1      46.516  27.874  35.067  1.00  0.00     0.198 A 
ATOM     97  F   UNL A   1      45.768  29.751  33.861  1.00  0.00    -0.203 F 
ATOM     98  F   UNL A   1      44.662  25.198  36.659  1.00  0.00    -0.200 F 
ATOM     99  C   UNL A   1      46.243  26.717  35.781  1.00  0.00     0.200 A 
ATOM    100  F   UNL A   1      47.784  28.273  34.897  1.00  0.00    -0.200 F 
ATOM    101  F   UNL A   1      47.245  26.007  36.316  1.00  0.00    -0.200 F 
ENDBRANCH  68  91
ENDBRANCH  42  43
ENDBRANCH  34  37
ENDBRANCH  32  33
ENDBRANCH  31  32
ENDBRANCH  30  31
ENDBRANCH   1  30
TORSDOF 17
ENDMDL
MODEL 3
REMARK VINA RESULT:     -12.6      5.324     10.136
REMARK SMILES C[C@@H](C(=O)NCCCCCCNC(=O)c1ccc(-c2c3nc(c(-c4c(F)c(F)c(F)c(F)c4F)c4ccc([nH]4)c(-c4c(F)c(F)c(F)c(F)c4F)c4nc(c(-c5c(F)c(F)c(F)c(F)c5F)c5ccc2[nH]5)C=C4)C=C3)cc1)c1ccc(C[C@H]2CCCC2=O)c(-c2ccc(F)cc2)c1
REMARK SMILES IDX 8 1 7 2 6 3 5 4 3 5 4 6 2 8 1 9 78 10 79 11 97 12 80 13
REMARK SMILES IDX 89 14 81 15 90 16 91 17 96 18 92 19 95 20 93 21 94 22 82 23
REMARK SMILES IDX 83 24 84 25 87 26 85 27 86 28 88 29 9 30 10 31 11 32 12 33
REMARK SMILES IDX 13 34 14 36 15 37 16 38 77 39 17 40 76 41 18 42 19 43 20 44
REMARK SMILES IDX 70 45 21 46 75 47 69 48 71 49 22 50 74 51 68 52 67 53 23 55
REMARK SMILES IDX 55 56 35 57 54 58 36 59 39 60 53 61 72 62 37 63 38 64 52 66
REMARK SMILES IDX 73 67 40 68 24 69 25 70 33 71 26 72 27 73 31 74 34 75 28 76
REMARK SMILES IDX 29 77 32 78 30 79 56 80 57 81 65 82 58 83 59 84 63 85 66 86
REMARK SMILES IDX 60 87 61 88 64 89 62 90 41 91 42 92 50 93 43 94 44 95 48 96
REMARK SMILES IDX 51 97 45 98 46 99 49 100 47 101
REMARK H PARENT 5 7 12 35 71 54 39 65
REMARK Flexibility Score: inf
ROOT
ATOM      1  C   UNL A   1      35.928  20.560  25.049  1.00  0.00     0.002 C 
ENDROOT
BRANCH   1   2
ATOM      2  C   UNL A   1      35.371  21.517  26.111  1.00  0.00     0.021 C 
BRANCH   2   3
ATOM      3  C   UNL A   1      34.065  22.207  25.709  1.00  0.00     0.116 C 
BRANCH   3   4
ATOM      4  N   UNL A   1      33.418  21.472  24.642  1.00  0.00    -0.356 N 
ATOM      5  C   UNL A   1      32.925  21.912  23.448  1.00  0.00     0.227 C 
ATOM      6  O   UNL A   1      32.177  21.143  22.841  1.00  0.00    -0.274 OA
ATOM      7  H   UNL A   1      33.320  20.505  24.803  1.00  0.00     0.163 HD
BRANCH   5   8
ATOM      8  C   UNL A   1      33.349  23.289  22.902  1.00  0.00     0.105 C 
ATOM      9  C   UNL A   1      34.798  23.598  23.298  1.00  0.00     0.023 C 
BRANCH   8  10
ATOM     10  C   UNL A   1      32.358  24.393  23.288  1.00  0.00    -0.035 A 
ATOM     11  C   UNL A   1      31.061  24.381  22.765  1.00  0.00     0.005 A 
ATOM     12  C   UNL A   1      32.695  25.450  24.145  1.00  0.00     0.013 A 
ATOM     13  C   UNL A   1      30.142  25.374  23.103  1.00  0.00     0.004 A 
ATOM     14  C   UNL A   1      31.800  26.494  24.473  1.00  0.00    -0.015 A 
ATOM     15  C   UNL A   1      30.497  26.456  23.932  1.00  0.00    -0.039 A 
BRANCH  14  16
ATOM     16  C   UNL A   1      32.306  27.555  25.362  1.00  0.00    -0.018 A 
ATOM     17  C   UNL A   1      32.830  28.755  24.852  1.00  0.00     0.012 A 
ATOM     18  C   UNL A   1      32.198  27.417  26.761  1.00  0.00     0.012 A 
ATOM     19  C   UNL A   1      33.259  29.771  25.710  1.00  0.00     0.040 A 
ATOM     20  C   UNL A   1      32.614  28.436  27.619  1.00  0.00     0.040 A 
ATOM     21  C   UNL A   1      33.146  29.601  27.085  1.00  0.00     0.123 A 
ATOM     22  F   UNL A   1      33.545  30.580  27.907  1.00  0.00    -0.207 F 
ENDBRANCH  14  16
BRANCH  15  23
ATOM     23  C   UNL A   1      29.456  27.531  24.179  1.00  0.00     0.047 C 
BRANCH  23  24
ATOM     24  C   UNL A   1      28.824  28.187  22.944  1.00  0.00     0.060 C 
ATOM     25  C   UNL A   1      27.433  28.800  23.123  1.00  0.00     0.012 C 
ATOM     26  C   UNL A   1      29.622  29.364  22.432  1.00  0.00     0.136 C 
ATOM     27  C   UNL A   1      27.655  30.290  23.353  1.00  0.00     0.009 C 
ATOM     28  C   UNL A   1      28.847  30.654  22.479  1.00  0.00     0.076 C 
ATOM     29  O   UNL A   1      30.767  29.278  22.003  1.00  0.00    -0.299 OA
ENDBRANCH  23  24
ENDBRANCH  15  23
ENDBRANCH   8  10
ENDBRANCH   5   8
ENDBRANCH   3   4
ENDBRANCH   2   3
ENDBRANCH   1   2
BRANCH   1  30
ATOM     30  C   UNL A   1      37.398  20.783  24.685  1.00  0.00     0.002 C 
BRANCH  30  31
ATOM     31  C   UNL A   1      38.317  19.589  24.950  1.00  0.00     0.021 C 
BRANCH  31  32
ATOM     32  C   UNL A   1      39.274  19.763  26.128  1.00  0.00     0.116 C 
BRANCH  32  33
ATOM     33  N   UNL A   1      40.412  18.862  26.049  1.00  0.00    -0.352 N 
ATOM     34  C   UNL A   1      41.750  19.149  26.041  1.00  0.00     0.251 C 
ATOM     35  H   UNL A   1      40.187  17.905  25.993  1.00  0.00     0.163 HD
ATOM     36  O   UNL A   1      42.567  18.262  25.786  1.00  0.00    -0.269 OA
BRANCH  34  37
ATOM     37  C   UNL A   1      42.228  20.520  26.315  1.00  0.00     0.039 A 
ATOM     38  C   UNL A   1      42.497  21.363  25.233  1.00  0.00     0.014 A 
ATOM     39  C   UNL A   1      42.449  20.967  27.622  1.00  0.00     0.014 A 
ATOM     40  C   UNL A   1      42.943  22.666  25.461  1.00  0.00     0.010 A 
ATOM     41  C   UNL A   1      42.836  22.286  27.851  1.00  0.00     0.010 A 
ATOM     42  C   UNL A   1      43.093  23.146  26.773  1.00  0.00    -0.014 A 
BRANCH  42  43
ATOM     43  C   UNL A   1      43.525  24.545  27.020  1.00  0.00     0.031 A 
ATOM     44  C   UNL A   1      42.550  25.562  27.544  1.00  0.00     0.074 A 
ATOM     45  C   UNL A   1      44.793  24.905  26.742  1.00  0.00     0.049 A 
ATOM     46  N   UNL A   1      42.740  26.831  27.808  1.00  0.00    -0.248 NA
ATOM     47  C   UNL A   1      41.174  25.099  27.782  1.00  0.00     0.031 C 
ATOM     48  C   UNL A   1      45.816  24.024  26.179  1.00  0.00     0.029 A 
ATOM     49  N   UNL A   1      45.434  26.109  26.890  1.00  0.00    -0.354 N 
ATOM     50  C   UNL A   1      41.514  27.314  28.242  1.00  0.00     0.074 A 
ATOM     51  C   UNL A   1      40.571  26.220  28.153  1.00  0.00     0.031 C 
ATOM     52  C   UNL A   1      46.962  24.711  26.046  1.00  0.00     0.029 A 
ATOM     53  C   UNL A   1      46.748  26.084  26.492  1.00  0.00     0.049 A 
ATOM     54  H   UNL A   1      44.994  26.913  27.248  1.00  0.00     0.167 HD
ATOM     55  C   UNL A   1      41.207  28.552  28.700  1.00  0.00     0.037 A 
ATOM     56  C   UNL A   1      47.676  27.060  26.492  1.00  0.00     0.037 A 
ATOM     57  C   UNL A   1      42.147  29.637  28.803  1.00  0.00     0.049 A 
ATOM     58  C   UNL A   1      47.314  28.419  27.024  1.00  0.00     0.074 A 
ATOM     59  C   UNL A   1      41.939  30.921  29.279  1.00  0.00     0.029 A 
ATOM     60  N   UNL A   1      43.480  29.563  28.425  1.00  0.00    -0.354 N 
ATOM     61  N   UNL A   1      46.164  28.848  27.485  1.00  0.00    -0.248 NA
ATOM     62  C   UNL A   1      48.384  29.425  27.051  1.00  0.00     0.031 C 
ATOM     63  C   UNL A   1      43.139  31.631  29.164  1.00  0.00     0.029 A 
ATOM     64  C   UNL A   1      44.104  30.779  28.652  1.00  0.00     0.049 A 
ATOM     65  H   UNL A   1      43.918  28.764  28.052  1.00  0.00     0.167 HD
ATOM     66  C   UNL A   1      46.376  30.162  27.874  1.00  0.00     0.074 A 
ATOM     67  C   UNL A   1      47.771  30.455  27.617  1.00  0.00     0.031 C 
ATOM     68  C   UNL A   1      45.494  31.051  28.394  1.00  0.00     0.037 A 
BRANCH  55  69
ATOM     69  C   UNL A   1      39.794  28.795  29.144  1.00  0.00     0.064 A 
ATOM     70  C   UNL A   1      39.401  28.575  30.473  1.00  0.00     0.173 A 
ATOM     71  C   UNL A   1      38.835  29.290  28.248  1.00  0.00     0.173 A 
ATOM     72  F   UNL A   1      40.278  28.089  31.365  1.00  0.00    -0.203 F 
ATOM     73  C   UNL A   1      38.094  28.820  30.884  1.00  0.00     0.198 A 
ATOM     74  C   UNL A   1      37.535  29.559  28.669  1.00  0.00     0.198 A 
ATOM     75  F   UNL A   1      39.161  29.521  26.968  1.00  0.00    -0.203 F 
ATOM     76  F   UNL A   1      37.731  28.562  32.148  1.00  0.00    -0.200 F 
ATOM     77  C   UNL A   1      37.164  29.319  29.983  1.00  0.00     0.200 A 
ATOM     78  F   UNL A   1      36.639  30.051  27.802  1.00  0.00    -0.200 F 
ATOM     79  F   UNL A   1      35.908  29.562  30.382  1.00  0.00    -0.200 F 
ENDBRANCH  55  69
BRANCH  56  80
ATOM     80  C   UNL A   1      49.046  26.777  25.994  1.00  0.00     0.064 A 
ATOM     81  C   UNL A   1      50.042  26.297  26.856  1.00  0.00     0.173 A 
ATOM     82  C   UNL A   1      49.391  26.992  24.653  1.00  0.00     0.173 A 
ATOM     83  F   UNL A   1      49.765  26.096  28.153  1.00  0.00    -0.203 F 
ATOM     84  C   UNL A   1      51.338  26.063  26.400  1.00  0.00     0.198 A 
ATOM     85  C   UNL A   1      50.679  26.731  24.191  1.00  0.00     0.198 A 
ATOM     86  F   UNL A   1      48.472  27.444  23.787  1.00  0.00    -0.203 F 
ATOM     87  F   UNL A   1      52.282  25.648  27.254  1.00  0.00    -0.200 F 
ATOM     88  C   UNL A   1      51.654  26.275  25.066  1.00  0.00     0.200 A 
ATOM     89  F   UNL A   1      50.978  26.925  22.898  1.00  0.00    -0.200 F 
ATOM     90  F   UNL A   1      52.899  26.050  24.627  1.00  0.00    -0.200 F 
ENDBRANCH  56  80
BRANCH  68  91
ATOM     91  C   UNL A   1      46.020  32.413  28.738  1.00  0.00     0.064 A 
ATOM     92  C   UNL A   1      45.981  33.467  27.815  1.00  0.00     0.173 A 
ATOM     93  C   UNL A   1      46.546  32.670  30.012  1.00  0.00     0.173 A 
ATOM     94  F   UNL A   1      45.502  33.265  26.578  1.00  0.00    -0.203 F 
ATOM     95  C   UNL A   1      46.479  34.726  28.146  1.00  0.00     0.198 A 
ATOM     96  C   UNL A   1      47.018  33.937  30.348  1.00  0.00     0.198 A 
ATOM     97  F   UNL A   1      46.599  31.696  30.933  1.00  0.00    -0.203 F 
ATOM     98  F   UNL A   1      46.477  35.705  27.232  1.00  0.00    -0.200 F 
ATOM     99  C   UNL A   1      46.992  34.960  29.413  1.00  0.00     0.200 A 
ATOM    100  F   UNL A   1      47.504  34.164  31.577  1.00  0.00    -0.200 F 
ATOM    101  F   UNL A   1      47.469  36.171  29.730  1.00  0.00    -0.200 F 
ENDBRANCH  68  91
ENDBRANCH  42  43
ENDBRANCH  34  37
ENDBRANCH  32  33
ENDBRANCH  31  32
ENDBRANCH  30  31
ENDBRANCH   1  30
TORSDOF 17
ENDMDL
