MODEL 1
REMARK VINA RESULT:     -12.7      0.000      0.000
REMARK SMILES O=C(NCCCCCCNC(=O)[C@@H]1CCCN(c2ccc3cc(S(=O)(=O)N4CCCCC4)ccc3n2)C1)c1ccc(-c2c3nc(c(-c4c(F)c(F)c(F)c(F)c4F)c4ccc([nH]4)c(-c4c(F)c(F)c(F)c(F)c4F)c4nc(c(-c5c(F)c(F)c(F)c(F)c5F)c5ccc2[nH]5)C=C4)C=C3)cc1
REMARK SMILES IDX 7 1 6 2 5 3 4 4 3 5 1 6 2 7 38 9 39 10 100 11 40 12 99 13
REMARK SMILES IDX 41 14 42 15 43 16 93 17 44 18 98 19 92 20 94 21 45 22 97 23
REMARK SMILES IDX 91 24 90 25 46 27 78 28 58 29 77 30 59 31 62 32 76 33 95 34
REMARK SMILES IDX 60 35 61 36 75 38 96 39 63 40 47 41 48 42 56 43 49 44 50 45
REMARK SMILES IDX 54 46 57 47 51 48 52 49 55 50 53 51 79 52 80 53 88 54 81 55
REMARK SMILES IDX 82 56 86 57 89 58 83 59 84 60 87 61 85 62 64 63 65 64 73 65
REMARK SMILES IDX 66 66 67 67 71 68 74 69 68 70 69 71 72 72 70 73 8 74 9 75
REMARK SMILES IDX 10 76 11 77 12 79 13 80 14 81 37 82 15 83 17 84 16 85 18 86
REMARK SMILES IDX 19 87 36 88 20 89 35 90 21 91 34 92 22 93 33 94 23 95 24 96
REMARK SMILES IDX 25 97 26 98 27 99 28 100 32 101 29 102 31 103 30 104
REMARK H PARENT 3 8 94 26 62 37 10 78
REMARK Flexibility Score: inf
ROOT
ATOM      1  C   UNL A   1      32.476  29.731  26.885  1.00  0.00     0.002 C 
ENDROOT
BRANCH   1   2
ATOM      2  C   UNL A   1      31.543  30.711  26.166  1.00  0.00     0.002 C 
BRANCH   2   3
ATOM      3  C   UNL A   1      31.366  32.057  26.870  1.00  0.00     0.021 C 
BRANCH   3   4
ATOM      4  C   UNL A   1      32.590  32.961  26.801  1.00  0.00     0.116 C 
BRANCH   4   5
ATOM      5  N   UNL A   1      32.382  34.213  27.512  1.00  0.00    -0.352 N 
ATOM      6  O   UNL A   1      32.536  35.647  29.252  1.00  0.00    -0.269 OA
ATOM      7  C   UNL A   1      32.992  34.681  28.649  1.00  0.00     0.251 C 
ATOM      8  H   UNL A   1      31.705  34.811  27.122  1.00  0.00     0.163 HD
BRANCH   7   9
ATOM      9  C   UNL A   1      34.199  33.998  29.154  1.00  0.00     0.039 A 
ATOM     10  C   UNL A   1      34.078  32.818  29.888  1.00  0.00     0.014 A 
ATOM     11  C   UNL A   1      35.459  34.545  28.900  1.00  0.00     0.014 A 
ATOM     12  C   UNL A   1      35.194  32.284  30.516  1.00  0.00     0.010 A 
ATOM     13  C   UNL A   1      36.596  33.940  29.442  1.00  0.00     0.010 A 
ATOM     14  C   UNL A   1      36.469  32.827  30.288  1.00  0.00    -0.014 A 
BRANCH  14  15
ATOM     15  C   UNL A   1      37.648  32.177  30.912  1.00  0.00     0.031 A 
ATOM     16  C   UNL A   1      38.048  32.479  32.329  1.00  0.00     0.074 A 
ATOM     17  C   UNL A   1      38.336  31.268  30.193  1.00  0.00     0.049 A 
ATOM     18  N   UNL A   1      39.022  31.966  33.039  1.00  0.00    -0.248 NA
ATOM     19  C   UNL A   1      37.263  33.498  33.042  1.00  0.00     0.031 C 
ATOM     20  C   UNL A   1      38.045  30.901  28.805  1.00  0.00     0.029 A 
ATOM     21  N   UNL A   1      39.397  30.469  30.531  1.00  0.00    -0.354 N 
ATOM     22  C   UNL A   1      38.984  32.613  34.267  1.00  0.00     0.074 A 
ATOM     23  C   UNL A   1      37.907  33.578  34.199  1.00  0.00     0.031 C 
ATOM     24  C   UNL A   1      38.863  29.908  28.430  1.00  0.00     0.029 A 
ATOM     25  C   UNL A   1      39.783  29.619  29.524  1.00  0.00     0.049 A 
ATOM     26  H   UNL A   1      39.839  30.501  31.410  1.00  0.00     0.167 HD
ATOM     27  C   UNL A   1      39.771  32.412  35.352  1.00  0.00     0.037 A 
ATOM     28  C   UNL A   1      40.780  28.717  29.479  1.00  0.00     0.037 A 
ATOM     29  C   UNL A   1      40.830  31.436  35.414  1.00  0.00     0.049 A 
ATOM     30  C   UNL A   1      41.651  28.537  30.688  1.00  0.00     0.074 A 
ATOM     31  C   UNL A   1      41.655  31.123  36.482  1.00  0.00     0.029 A 
ATOM     32  N   UNL A   1      41.219  30.620  34.360  1.00  0.00    -0.354 N 
ATOM     33  N   UNL A   1      41.573  29.119  31.858  1.00  0.00    -0.248 NA
ATOM     34  C   UNL A   1      42.749  27.571  30.566  1.00  0.00     0.031 C 
ATOM     35  C   UNL A   1      42.581  30.165  36.055  1.00  0.00     0.029 A 
ATOM     36  C   UNL A   1      42.291  29.828  34.744  1.00  0.00     0.049 A 
ATOM     37  H   UNL A   1      40.796  30.607  33.471  1.00  0.00     0.167 HD
ATOM     38  C   UNL A   1      42.592  28.572  32.625  1.00  0.00     0.074 A 
ATOM     39  C   UNL A   1      43.261  27.595  31.789  1.00  0.00     0.031 C 
ATOM     40  C   UNL A   1      42.943  28.853  33.904  1.00  0.00     0.037 A 
BRANCH  27  41
ATOM     41  C   UNL A   1      39.542  33.285  36.555  1.00  0.00     0.064 A 
ATOM     42  C   UNL A   1      38.626  32.942  37.561  1.00  0.00     0.173 A 
ATOM     43  C   UNL A   1      40.283  34.467  36.724  1.00  0.00     0.173 A 
ATOM     44  F   UNL A   1      37.884  31.829  37.448  1.00  0.00    -0.203 F 
ATOM     45  C   UNL A   1      38.439  33.761  38.673  1.00  0.00     0.198 A 
ATOM     46  C   UNL A   1      40.118  35.266  37.852  1.00  0.00     0.198 A 
ATOM     47  F   UNL A   1      41.179  34.840  35.798  1.00  0.00    -0.203 F 
ATOM     48  F   UNL A   1      37.522  33.438  39.595  1.00  0.00    -0.200 F 
ATOM     49  C   UNL A   1      39.190  34.918  38.821  1.00  0.00     0.200 A 
ATOM     50  F   UNL A   1      40.856  36.374  38.000  1.00  0.00    -0.200 F 
ATOM     51  F   UNL A   1      39.013  35.701  39.894  1.00  0.00    -0.200 F 
ENDBRANCH  27  41
BRANCH  28  52
ATOM     52  C   UNL A   1      40.996  27.914  28.247  1.00  0.00     0.064 A 
ATOM     53  C   UNL A   1      40.360  26.678  28.070  1.00  0.00     0.173 A 
ATOM     54  C   UNL A   1      41.841  28.365  27.221  1.00  0.00     0.173 A 
ATOM     55  F   UNL A   1      39.555  26.196  29.030  1.00  0.00    -0.203 F 
ATOM     56  C   UNL A   1      40.578  25.913  26.926  1.00  0.00     0.198 A 
ATOM     57  C   UNL A   1      42.030  27.616  26.062  1.00  0.00     0.198 A 
ATOM     58  F   UNL A   1      42.468  29.545  27.336  1.00  0.00    -0.203 F 
ATOM     59  F   UNL A   1      39.996  24.712  26.807  1.00  0.00    -0.200 F 
ATOM     60  C   UNL A   1      41.408  26.386  25.920  1.00  0.00     0.200 A 
ATOM     61  F   UNL A   1      42.816  28.087  25.084  1.00  0.00    -0.200 F 
ATOM     62  F   UNL A   1      41.611  25.653  24.818  1.00  0.00    -0.200 F 
ENDBRANCH  28  52
BRANCH  40  63
ATOM     63  C   UNL A   1      44.069  28.054  34.494  1.00  0.00     0.064 A 
ATOM     64  C   UNL A   1      43.853  26.817  35.121  1.00  0.00     0.173 A 
ATOM     65  C   UNL A   1      45.387  28.529  34.420  1.00  0.00     0.173 A 
ATOM     66  F   UNL A   1      42.611  26.324  35.233  1.00  0.00    -0.203 F 
ATOM     67  C   UNL A   1      44.909  26.107  35.686  1.00  0.00     0.198 A 
ATOM     68  C   UNL A   1      46.445  27.799  34.953  1.00  0.00     0.198 A 
ATOM     69  F   UNL A   1      45.651  29.703  33.826  1.00  0.00    -0.203 F 
ATOM     70  F   UNL A   1      44.671  24.961  36.338  1.00  0.00    -0.200 F 
ATOM     71  C   UNL A   1      46.205  26.595  35.595  1.00  0.00     0.200 A 
ATOM     72  F   UNL A   1      47.698  28.265  34.851  1.00  0.00    -0.200 F 
ATOM     73  F   UNL A   1      47.219  25.910  36.139  1.00  0.00    -0.200 F 
ENDBRANCH  40  63
ENDBRANCH  14  15
ENDBRANCH   7   9
ENDBRANCH   4   5
ENDBRANCH   3   4
ENDBRANCH   2   3
ENDBRANCH   1   2
BRANCH   1  74
ATOM     74  C   UNL A   1      31.817  28.416  27.306  1.00  0.00     0.021 C 
BRANCH  74  75
ATOM     75  C   UNL A   1      31.713  27.379  26.193  1.00  0.00     0.116 C 
BRANCH  75  76
ATOM     76  N   UNL A   1      32.952  27.161  25.489  1.00  0.00    -0.356 N 
ATOM     77  C   UNL A   1      33.285  26.329  24.473  1.00  0.00     0.224 C 
ATOM     78  H   UNL A   1      33.696  27.721  25.806  1.00  0.00     0.163 HD
ATOM     79  O   UNL A   1      34.435  26.470  24.029  1.00  0.00    -0.275 OA
BRANCH  77  80
ATOM     80  C   UNL A   1      32.432  25.179  23.928  1.00  0.00     0.098 C 
ATOM     81  C   UNL A   1      31.196  24.649  24.663  1.00  0.00     0.017 C 
ATOM     82  C   UNL A   1      33.353  24.047  23.502  1.00  0.00     0.131 C 
ATOM     83  C   UNL A   1      31.357  23.355  25.494  1.00  0.00     0.022 C 
ATOM     84  N   UNL A   1      33.677  23.262  24.679  1.00  0.00    -0.356 N 
ATOM     85  C   UNL A   1      32.594  22.476  25.240  1.00  0.00     0.118 C 
BRANCH  84  86
ATOM     86  C   UNL A   1      34.995  22.963  24.968  1.00  0.00     0.129 A 
ATOM     87  C   UNL A   1      35.824  23.929  25.544  1.00  0.00     0.047 A 
ATOM     88  N   UNL A   1      35.443  21.706  24.774  1.00  0.00    -0.231 NA
ATOM     89  C   UNL A   1      37.097  23.595  25.983  1.00  0.00     0.014 A 
ATOM     90  C   UNL A   1      36.702  21.396  25.130  1.00  0.00     0.073 A 
ATOM     91  C   UNL A   1      37.562  22.305  25.777  1.00  0.00     0.002 A 
ATOM     92  C   UNL A   1      37.197  20.133  24.848  1.00  0.00     0.030 A 
ATOM     93  C   UNL A   1      38.847  21.922  26.186  1.00  0.00     0.032 A 
ATOM     94  C   UNL A   1      38.497  19.751  25.208  1.00  0.00     0.024 A 
ATOM     95  C   UNL A   1      39.316  20.639  25.901  1.00  0.00     0.083 A 
BRANCH  95  96
ATOM     96  S   UNL A   1      40.970  20.260  26.455  1.00  0.00     0.243 S 
ATOM     97  O   UNL A   1      40.824  19.746  27.805  1.00  0.00    -0.207 OA
ATOM     98  O   UNL A   1      41.564  19.461  25.409  1.00  0.00    -0.207 OA
BRANCH  96  99
ATOM     99  N   UNL A   1      41.832  21.727  26.554  1.00  0.00    -0.198 NA
ATOM    100  C   UNL A   1      42.220  22.164  27.917  1.00  0.00     0.102 C 
ATOM    101  C   UNL A   1      42.754  22.017  25.430  1.00  0.00     0.102 C 
ATOM    102  C   UNL A   1      42.818  23.563  27.925  1.00  0.00     0.017 C 
ATOM    103  C   UNL A   1      43.324  23.426  25.506  1.00  0.00     0.017 C 
ATOM    104  C   UNL A   1      43.912  23.706  26.879  1.00  0.00     0.003 C 
ENDBRANCH  96  99
ENDBRANCH  95  96
ENDBRANCH  84  86
ENDBRANCH  77  80
ENDBRANCH  75  76
ENDBRANCH  74  75
ENDBRANCH   1  74
TORSDOF 16
ENDMDL
MODEL 2
REMARK VINA RESULT:     -12.6      4.558     10.894
REMARK SMILES O=C(NCCCCCCNC(=O)[C@@H]1CCCN(c2ccc3cc(S(=O)(=O)N4CCCCC4)ccc3n2)C1)c1ccc(-c2c3nc(c(-c4c(F)c(F)c(F)c(F)c4F)c4ccc([nH]4)c(-c4c(F)c(F)c(F)c(F)c4F)c4nc(c(-c5c(F)c(F)c(F)c(F)c5F)c5ccc2[nH]5)C=C4)C=C3)cc1
REMARK SMILES IDX 7 1 6 2 5 3 4 4 3 5 1 6 2 7 38 9 39 10 100 11 40 12 99 13
REMARK SMILES IDX 41 14 42 15 43 16 93 17 44 18 98 19 92 20 94 21 45 22 97 23
REMARK SMILES IDX 91 24 90 25 46 27 78 28 58 29 77 30 59 31 62 32 76 33 95 34
REMARK SMILES IDX 60 35 61 36 75 38 96 39 63 40 47 41 48 42 56 43 49 44 50 45
REMARK SMILES IDX 54 46 57 47 51 48 52 49 55 50 53 51 79 52 80 53 88 54 81 55
REMARK SMILES IDX 82 56 86 57 89 58 83 59 84 60 87 61 85 62 64 63 65 64 73 65
REMARK SMILES IDX 66 66 67 67 71 68 74 69 68 70 69 71 72 72 70 73 8 74 9 75
REMARK SMILES IDX 10 76 11 77 12 79 13 80 14 81 37 82 15 83 17 84 16 85 18 86
REMARK SMILES IDX 19 87 36 88 20 89 35 90 21 91 34 92 22 93 33 94 23 95 24 96
REMARK SMILES IDX 25 97 26 98 27 99 28 100 32 101 29 102 31 103 30 104
REMARK H PARENT 3 8 94 26 62 37 10 78
REMARK Flexibility Score: inf
ROOT
ATOM      1  C   UNL A   1      42.762  23.912  27.727  1.00  0.00     0.002 C 
ENDROOT
BRANCH   1   2
ATOM      2  C   UNL A   1      42.975  23.552  26.254  1.00  0.00     0.002 C 
BRANCH   2   3
ATOM      3  C   UNL A   1      42.062  22.444  25.728  1.00  0.00     0.021 C 
BRANCH   3   4
ATOM      4  C   UNL A   1      40.822  22.204  26.580  1.00  0.00     0.116 C 
BRANCH   4   5
ATOM      5  N   UNL A   1      39.606  22.620  25.898  1.00  0.00    -0.352 N 
ATOM      6  O   UNL A   1      37.709  23.813  25.608  1.00  0.00    -0.269 OA
ATOM      7  C   UNL A   1      38.827  23.732  26.104  1.00  0.00     0.251 C 
ATOM      8  H   UNL A   1      39.296  22.017  25.185  1.00  0.00     0.163 HD
BRANCH   7   9
ATOM      9  C   UNL A   1      39.343  24.826  26.949  1.00  0.00     0.039 A 
ATOM     10  C   UNL A   1      39.110  24.817  28.325  1.00  0.00     0.014 A 
ATOM     11  C   UNL A   1      40.054  25.875  26.361  1.00  0.00     0.014 A 
ATOM     12  C   UNL A   1      39.431  25.933  29.083  1.00  0.00     0.010 A 
ATOM     13  C   UNL A   1      40.477  26.949  27.149  1.00  0.00     0.010 A 
ATOM     14  C   UNL A   1      40.133  27.006  28.509  1.00  0.00    -0.014 A 
BRANCH  14  15
ATOM     15  C   UNL A   1      40.532  28.146  29.372  1.00  0.00     0.031 A 
ATOM     16  C   UNL A   1      41.931  28.267  29.909  1.00  0.00     0.074 A 
ATOM     17  C   UNL A   1      39.621  29.103  29.634  1.00  0.00     0.049 A 
ATOM     18  N   UNL A   1      42.456  29.221  30.638  1.00  0.00    -0.248 NA
ATOM     19  C   UNL A   1      42.863  27.172  29.599  1.00  0.00     0.031 C 
ATOM     20  C   UNL A   1      38.230  29.086  29.175  1.00  0.00     0.029 A 
ATOM     21  N   UNL A   1      39.728  30.284  30.321  1.00  0.00    -0.354 N 
ATOM     22  C   UNL A   1      43.764  28.832  30.894  1.00  0.00     0.074 A 
ATOM     23  C   UNL A   1      43.948  27.542  30.265  1.00  0.00     0.031 C 
ATOM     24  C   UNL A   1      37.631  30.229  29.538  1.00  0.00     0.029 A 
ATOM     25  C   UNL A   1      38.572  31.025  30.317  1.00  0.00     0.049 A 
ATOM     26  H   UNL A   1      40.553  30.573  30.774  1.00  0.00     0.167 HD
ATOM     27  C   UNL A   1      44.722  29.497  31.584  1.00  0.00     0.037 A 
ATOM     28  C   UNL A   1      38.293  32.210  30.891  1.00  0.00     0.037 A 
ATOM     29  C   UNL A   1      44.532  30.791  32.192  1.00  0.00     0.049 A 
ATOM     30  C   UNL A   1      39.368  32.909  31.671  1.00  0.00     0.074 A 
ATOM     31  C   UNL A   1      45.453  31.569  32.872  1.00  0.00     0.029 A 
ATOM     32  N   UNL A   1      43.334  31.494  32.201  1.00  0.00    -0.354 N 
ATOM     33  N   UNL A   1      40.614  32.554  31.864  1.00  0.00    -0.248 NA
ATOM     34  C   UNL A   1      38.995  34.175  32.312  1.00  0.00     0.031 C 
ATOM     35  C   UNL A   1      44.798  32.711  33.347  1.00  0.00     0.029 A 
ATOM     36  C   UNL A   1      43.487  32.681  32.902  1.00  0.00     0.049 A 
ATOM     37  H   UNL A   1      42.500  31.193  31.773  1.00  0.00     0.167 HD
ATOM     38  C   UNL A   1      41.185  33.565  32.624  1.00  0.00     0.074 A 
ATOM     39  C   UNL A   1      40.150  34.557  32.838  1.00  0.00     0.031 C 
ATOM     40  C   UNL A   1      42.450  33.663  33.102  1.00  0.00     0.037 A 
BRANCH  27  41
ATOM     41  C   UNL A   1      46.059  28.828  31.750  1.00  0.00     0.064 A 
ATOM     42  C   UNL A   1      46.362  28.035  32.867  1.00  0.00     0.173 A 
ATOM     43  C   UNL A   1      47.040  28.951  30.752  1.00  0.00     0.173 A 
ATOM     44  F   UNL A   1      45.466  27.890  33.855  1.00  0.00    -0.203 F 
ATOM     45  C   UNL A   1      47.604  27.416  32.993  1.00  0.00     0.198 A 
ATOM     46  C   UNL A   1      48.267  28.304  30.865  1.00  0.00     0.198 A 
ATOM     47  F   UNL A   1      46.803  29.690  29.658  1.00  0.00    -0.203 F 
ATOM     48  F   UNL A   1      47.887  26.705  34.093  1.00  0.00    -0.200 F 
ATOM     49  C   UNL A   1      48.552  27.544  31.990  1.00  0.00     0.200 A 
ATOM     50  F   UNL A   1      49.176  28.417  29.887  1.00  0.00    -0.200 F 
ATOM     51  F   UNL A   1      49.744  26.942  32.110  1.00  0.00    -0.200 F 
ENDBRANCH  27  41
BRANCH  28  52
ATOM     52  C   UNL A   1      36.940  32.806  30.740  1.00  0.00     0.064 A 
ATOM     53  C   UNL A   1      36.612  33.575  29.615  1.00  0.00     0.173 A 
ATOM     54  C   UNL A   1      35.947  32.618  31.714  1.00  0.00     0.173 A 
ATOM     55  F   UNL A   1      37.532  33.795  28.664  1.00  0.00    -0.203 F 
ATOM     56  C   UNL A   1      35.352  34.153  29.481  1.00  0.00     0.198 A 
ATOM     57  C   UNL A   1      34.676  33.166  31.561  1.00  0.00     0.198 A 
ATOM     58  F   UNL A   1      36.206  31.884  32.806  1.00  0.00    -0.203 F 
ATOM     59  F   UNL A   1      35.082  34.924  28.419  1.00  0.00    -0.200 F 
ATOM     60  C   UNL A   1      34.382  33.942  30.451  1.00  0.00     0.200 A 
ATOM     61  F   UNL A   1      33.736  32.943  32.491  1.00  0.00    -0.200 F 
ATOM     62  F   UNL A   1      33.169  34.492  30.317  1.00  0.00    -0.200 F 
ENDBRANCH  28  52
BRANCH  40  63
ATOM     63  C   UNL A   1      42.798  34.914  33.858  1.00  0.00     0.064 A 
ATOM     64  C   UNL A   1      42.818  34.952  35.261  1.00  0.00     0.173 A 
ATOM     65  C   UNL A   1      43.128  36.089  33.166  1.00  0.00     0.173 A 
ATOM     66  F   UNL A   1      42.495  33.861  35.971  1.00  0.00    -0.203 F 
ATOM     67  C   UNL A   1      43.116  36.130  35.940  1.00  0.00     0.198 A 
ATOM     68  C   UNL A   1      43.461  37.255  33.848  1.00  0.00     0.198 A 
ATOM     69  F   UNL A   1      43.130  36.107  31.824  1.00  0.00    -0.203 F 
ATOM     70  F   UNL A   1      43.063  36.161  37.279  1.00  0.00    -0.200 F 
ATOM     71  C   UNL A   1      43.444  37.278  35.234  1.00  0.00     0.200 A 
ATOM     72  F   UNL A   1      43.793  38.358  33.164  1.00  0.00    -0.200 F 
ATOM     73  F   UNL A   1      43.731  38.411  35.890  1.00  0.00    -0.200 F 
ENDBRANCH  40  63
ENDBRANCH  14  15
ENDBRANCH   7   9
ENDBRANCH   4   5
ENDBRANCH   3   4
ENDBRANCH   2   3
ENDBRANCH   1   2
BRANCH   1  74
ATOM     74  C   UNL A   1      43.969  23.646  28.630  1.00  0.00     0.021 C 
BRANCH  74  75
ATOM     75  C   UNL A   1      45.245  23.277  27.882  1.00  0.00     0.116 C 
BRANCH  75  76
ATOM     76  N   UNL A   1      46.296  24.256  28.012  1.00  0.00    -0.356 N 
ATOM     77  C   UNL A   1      46.879  25.086  27.116  1.00  0.00     0.224 C 
ATOM     78  H   UNL A   1      46.658  24.334  28.923  1.00  0.00     0.163 HD
ATOM     79  O   UNL A   1      47.699  25.887  27.591  1.00  0.00    -0.275 OA
BRANCH  77  80
ATOM     80  C   UNL A   1      46.711  25.038  25.594  1.00  0.00     0.098 C 
ATOM     81  C   UNL A   1      47.901  25.114  24.631  1.00  0.00     0.017 C 
ATOM     82  C   UNL A   1      45.610  26.006  25.192  1.00  0.00     0.131 C 
ATOM     83  C   UNL A   1      48.199  26.478  23.966  1.00  0.00     0.022 C 
ATOM     84  N   UNL A   1      46.188  27.334  25.097  1.00  0.00    -0.356 N 
ATOM     85  C   UNL A   1      47.100  27.554  23.990  1.00  0.00     0.118 C 
BRANCH  84  86
ATOM     86  C   UNL A   1      45.588  28.396  25.746  1.00  0.00     0.129 A 
ATOM     87  C   UNL A   1      44.281  28.280  26.225  1.00  0.00     0.047 A 
ATOM     88  N   UNL A   1      46.309  29.510  25.990  1.00  0.00    -0.231 NA
ATOM     89  C   UNL A   1      43.727  29.279  27.013  1.00  0.00     0.014 A 
ATOM     90  C   UNL A   1      45.750  30.513  26.690  1.00  0.00     0.073 A 
ATOM     91  C   UNL A   1      44.464  30.428  27.258  1.00  0.00     0.002 A 
ATOM     92  C   UNL A   1      46.452  31.695  26.865  1.00  0.00     0.030 A 
ATOM     93  C   UNL A   1      43.942  31.473  28.033  1.00  0.00     0.032 A 
ATOM     94  C   UNL A   1      45.924  32.767  27.596  1.00  0.00     0.024 A 
ATOM     95  C   UNL A   1      44.677  32.648  28.204  1.00  0.00     0.083 A 
BRANCH  95  96
ATOM     96  S   UNL A   1      43.914  33.920  29.197  1.00  0.00     0.243 S 
ATOM     97  O   UNL A   1      42.615  33.394  29.578  1.00  0.00    -0.207 OA
ATOM     98  O   UNL A   1      44.895  34.286  30.191  1.00  0.00    -0.207 OA
BRANCH  96  99
ATOM     99  N   UNL A   1      43.647  35.271  28.193  1.00  0.00    -0.198 NA
ATOM    100  C   UNL A   1      42.329  35.937  28.334  1.00  0.00     0.102 C 
ATOM    101  C   UNL A   1      44.834  36.109  27.901  1.00  0.00     0.102 C 
ATOM    102  C   UNL A   1      42.110  37.010  27.278  1.00  0.00     0.017 C 
ATOM    103  C   UNL A   1      44.543  37.167  26.847  1.00  0.00     0.017 C 
ATOM    104  C   UNL A   1      43.294  37.960  27.197  1.00  0.00     0.003 C 
ENDBRANCH  96  99
ENDBRANCH  95  96
ENDBRANCH  84  86
ENDBRANCH  77  80
ENDBRANCH  75  76
ENDBRANCH  74  75
ENDBRANCH   1  74
TORSDOF 16
ENDMDL
MODEL 3
REMARK VINA RESULT:     -12.4      0.515      6.923
REMARK SMILES O=C(NCCCCCCNC(=O)[C@@H]1CCCN(c2ccc3cc(S(=O)(=O)N4CCCCC4)ccc3n2)C1)c1ccc(-c2c3nc(c(-c4c(F)c(F)c(F)c(F)c4F)c4ccc([nH]4)c(-c4c(F)c(F)c(F)c(F)c4F)c4nc(c(-c5c(F)c(F)c(F)c(F)c5F)c5ccc2[nH]5)C=C4)C=C3)cc1
REMARK SMILES IDX 7 1 6 2 5 3 4 4 3 5 1 6 2 7 38 9 39 10 100 11 40 12 99 13
REMARK SMILES IDX 41 14 42 15 43 16 93 17 44 18 98 19 92 20 94 21 45 22 97 23
REMARK SMILES IDX 91 24 90 25 46 27 78 28 58 29 77 30 59 31 62 32 76 33 95 34
REMARK SMILES IDX 60 35 61 36 75 38 96 39 63 40 47 41 48 42 56 43 49 44 50 45
REMARK SMILES IDX 54 46 57 47 51 48 52 49 55 50 53 51 79 52 80 53 88 54 81 55
REMARK SMILES IDX 82 56 86 57 89 58 83 59 84 60 87 61 85 62 64 63 65 64 73 65
REMARK SMILES IDX 66 66 67 67 71 68 74 69 68 70 69 71 72 72 70 73 8 74 9 75
REMARK SMILES IDX 10 76 11 77 12 79 13 80 14 81 37 82 15 83 17 84 16 85 18 86
REMARK SMILES IDX 19 87 36 88 20 89 35 90 21 91 34 92 22 93 33 94 23 95 24 96
REMARK SMILES IDX 25 97 26 98 27 99 28 100 32 101 29 102 31 103 30 104
REMARK H PARENT 3 8 94 26 62 37 10 78
REMARK Flexibility Score: inf
ROOT
ATOM      1  C   UNL A   1      32.561  29.708  26.888  1.00  0.00     0.002 C 
ENDROOT
BRANCH   1   2
ATOM      2  C   UNL A   1      31.565  30.666  26.226  1.00  0.00     0.002 C 
BRANCH   2   3
ATOM      3  C   UNL A   1      31.395  32.006  26.943  1.00  0.00     0.021 C 
BRANCH   3   4
ATOM      4  C   UNL A   1      32.601  32.930  26.827  1.00  0.00     0.116 C 
BRANCH   4   5
ATOM      5  N   UNL A   1      32.386  34.193  27.517  1.00  0.00    -0.352 N 
ATOM      6  O   UNL A   1      32.523  35.654  29.235  1.00  0.00    -0.269 OA
ATOM      7  C   UNL A   1      32.985  34.680  28.652  1.00  0.00     0.251 C 
ATOM      8  H   UNL A   1      31.712  34.784  27.111  1.00  0.00     0.163 HD
BRANCH   7   9
ATOM      9  C   UNL A   1      34.188  34.005  29.178  1.00  0.00     0.039 A 
ATOM     10  C   UNL A   1      34.062  32.826  29.914  1.00  0.00     0.014 A 
ATOM     11  C   UNL A   1      35.448  34.560  28.944  1.00  0.00     0.014 A 
ATOM     12  C   UNL A   1      35.171  32.300  30.562  1.00  0.00     0.010 A 
ATOM     13  C   UNL A   1      36.580  33.963  29.507  1.00  0.00     0.010 A 
ATOM     14  C   UNL A   1      36.446  32.851  30.353  1.00  0.00    -0.014 A 
BRANCH  14  15
ATOM     15  C   UNL A   1      37.619  32.210  30.998  1.00  0.00     0.031 A 
ATOM     16  C   UNL A   1      38.447  31.187  30.271  1.00  0.00     0.074 A 
ATOM     17  C   UNL A   1      37.958  32.595  32.244  1.00  0.00     0.049 A 
ATOM     18  N   UNL A   1      39.529  30.565  30.672  1.00  0.00    -0.248 NA
ATOM     19  C   UNL A   1      38.002  30.802  28.923  1.00  0.00     0.031 C 
ATOM     20  C   UNL A   1      37.221  33.572  33.050  1.00  0.00     0.029 A 
ATOM     21  N   UNL A   1      39.015  32.239  33.040  1.00  0.00    -0.354 N 
ATOM     22  C   UNL A   1      39.877  29.701  29.642  1.00  0.00     0.074 A 
ATOM     23  C   UNL A   1      38.878  29.858  28.607  1.00  0.00     0.031 C 
ATOM     24  C   UNL A   1      37.880  33.784  34.197  1.00  0.00     0.029 A 
ATOM     25  C   UNL A   1      39.044  32.906  34.240  1.00  0.00     0.049 A 
ATOM     26  H   UNL A   1      39.688  31.570  32.777  1.00  0.00     0.167 HD
ATOM     27  C   UNL A   1      40.939  28.862  29.568  1.00  0.00     0.037 A 
ATOM     28  C   UNL A   1      39.904  32.810  35.270  1.00  0.00     0.037 A 
ATOM     29  C   UNL A   1      41.938  28.727  30.599  1.00  0.00     0.049 A 
ATOM     30  C   UNL A   1      41.055  31.851  35.168  1.00  0.00     0.074 A 
ATOM     31  C   UNL A   1      43.076  27.939  30.600  1.00  0.00     0.029 A 
ATOM     32  N   UNL A   1      41.912  29.389  31.819  1.00  0.00    -0.354 N 
ATOM     33  N   UNL A   1      41.401  31.077  34.170  1.00  0.00    -0.248 NA
ATOM     34  C   UNL A   1      41.935  31.757  36.339  1.00  0.00     0.031 C 
ATOM     35  C   UNL A   1      43.705  28.076  31.843  1.00  0.00     0.029 A 
ATOM     36  C   UNL A   1      42.998  29.004  32.591  1.00  0.00     0.049 A 
ATOM     37  H   UNL A   1      41.225  30.038  32.095  1.00  0.00     0.167 HD
ATOM     38  C   UNL A   1      42.554  30.423  34.578  1.00  0.00     0.074 A 
ATOM     39  C   UNL A   1      42.859  30.910  35.908  1.00  0.00     0.031 C 
ATOM     40  C   UNL A   1      43.294  29.502  33.912  1.00  0.00     0.037 A 
BRANCH  27  41
ATOM     41  C   UNL A   1      41.064  27.996  28.344  1.00  0.00     0.064 A 
ATOM     42  C   UNL A   1      40.386  26.774  28.224  1.00  0.00     0.173 A 
ATOM     43  C   UNL A   1      41.846  28.418  27.256  1.00  0.00     0.173 A 
ATOM     44  F   UNL A   1      39.632  26.317  29.236  1.00  0.00    -0.203 F 
ATOM     45  C   UNL A   1      40.509  25.994  27.075  1.00  0.00     0.198 A 
ATOM     46  C   UNL A   1      41.940  27.653  26.097  1.00  0.00     0.198 A 
ATOM     47  F   UNL A   1      42.510  29.582  27.312  1.00  0.00    -0.203 F 
ATOM     48  F   UNL A   1      39.891  24.806  27.005  1.00  0.00    -0.200 F 
ATOM     49  C   UNL A   1      41.279  26.437  26.011  1.00  0.00     0.200 A 
ATOM     50  F   UNL A   1      42.672  28.090  25.064  1.00  0.00    -0.200 F 
ATOM     51  F   UNL A   1      41.390  25.689  24.905  1.00  0.00    -0.200 F 
ENDBRANCH  27  41
BRANCH  28  52
ATOM     52  C   UNL A   1      39.708  33.652  36.479  1.00  0.00     0.064 A 
ATOM     53  C   UNL A   1      38.908  33.212  37.542  1.00  0.00     0.173 A 
ATOM     54  C   UNL A   1      40.315  34.912  36.597  1.00  0.00     0.173 A 
ATOM     55  F   UNL A   1      38.294  32.021  37.470  1.00  0.00    -0.203 F 
ATOM     56  C   UNL A   1      38.705  34.007  38.668  1.00  0.00     0.198 A 
ATOM     57  C   UNL A   1      40.140  35.691  37.738  1.00  0.00     0.198 A 
ATOM     58  F   UNL A   1      41.096  35.377  35.611  1.00  0.00    -0.203 F 
ATOM     59  F   UNL A   1      37.897  33.582  39.648  1.00  0.00    -0.200 F 
ATOM     60  C   UNL A   1      39.327  35.244  38.768  1.00  0.00     0.200 A 
ATOM     61  F   UNL A   1      40.759  36.875  37.839  1.00  0.00    -0.200 F 
ATOM     62  F   UNL A   1      39.136  36.005  39.853  1.00  0.00    -0.200 F 
ENDBRANCH  28  52
BRANCH  40  63
ATOM     63  C   UNL A   1      44.536  29.002  34.593  1.00  0.00     0.064 A 
ATOM     64  C   UNL A   1      45.770  29.658  34.463  1.00  0.00     0.173 A 
ATOM     65  C   UNL A   1      44.486  27.854  35.398  1.00  0.00     0.173 A 
ATOM     66  F   UNL A   1      45.876  30.750  33.692  1.00  0.00    -0.203 F 
ATOM     67  C   UNL A   1      46.913  29.159  35.081  1.00  0.00     0.198 A 
ATOM     68  C   UNL A   1      45.623  27.380  36.045  1.00  0.00     0.198 A 
ATOM     69  F   UNL A   1      43.331  27.191  35.562  1.00  0.00    -0.203 F 
ATOM     70  F   UNL A   1      48.094  29.764  34.888  1.00  0.00    -0.200 F 
ATOM     71  C   UNL A   1      46.838  28.026  35.877  1.00  0.00     0.200 A 
ATOM     72  F   UNL A   1      45.545  26.293  36.825  1.00  0.00    -0.200 F 
ATOM     73  F   UNL A   1      47.940  27.548  36.471  1.00  0.00    -0.200 F 
ENDBRANCH  40  63
ENDBRANCH  14  15
ENDBRANCH   7   9
ENDBRANCH   4   5
ENDBRANCH   3   4
ENDBRANCH   2   3
ENDBRANCH   1   2
BRANCH   1  74
ATOM     74  C   UNL A   1      31.974  28.352  27.285  1.00  0.00     0.021 C 
BRANCH  74  75
ATOM     75  C   UNL A   1      31.803  27.377  26.126  1.00  0.00     0.116 C 
BRANCH  75  76
ATOM     76  N   UNL A   1      33.003  27.186  25.348  1.00  0.00    -0.356 N 
ATOM     77  C   UNL A   1      33.293  26.365  24.312  1.00  0.00     0.224 C 
ATOM     78  H   UNL A   1      33.753  27.761  25.623  1.00  0.00     0.163 HD
ATOM     79  O   UNL A   1      34.411  26.531  23.800  1.00  0.00    -0.275 OA
BRANCH  77  80
ATOM     80  C   UNL A   1      32.434  25.199  23.813  1.00  0.00     0.098 C 
ATOM     81  C   UNL A   1      31.197  24.703  24.570  1.00  0.00     0.017 C 
ATOM     82  C   UNL A   1      33.348  24.046  23.430  1.00  0.00     0.131 C 
ATOM     83  C   UNL A   1      31.353  23.442  25.451  1.00  0.00     0.022 C 
ATOM     84  N   UNL A   1      33.671  23.306  24.636  1.00  0.00    -0.356 N 
ATOM     85  C   UNL A   1      32.585  22.548  25.229  1.00  0.00     0.118 C 
BRANCH  84  86
ATOM     86  C   UNL A   1      34.988  23.013  24.935  1.00  0.00     0.129 A 
ATOM     87  C   UNL A   1      35.805  23.978  25.529  1.00  0.00     0.047 A 
ATOM     88  N   UNL A   1      35.446  21.761  24.730  1.00  0.00    -0.231 NA
ATOM     89  C   UNL A   1      37.076  23.647  25.977  1.00  0.00     0.014 A 
ATOM     90  C   UNL A   1      36.704  21.455  25.094  1.00  0.00     0.073 A 
ATOM     91  C   UNL A   1      37.551  22.362  25.760  1.00  0.00     0.002 A 
ATOM     92  C   UNL A   1      37.210  20.198  24.804  1.00  0.00     0.030 A 
ATOM     93  C   UNL A   1      38.835  21.983  26.177  1.00  0.00     0.032 A 
ATOM     94  C   UNL A   1      38.509  19.821  25.171  1.00  0.00     0.024 A 
ATOM     95  C   UNL A   1      39.315  20.706  25.882  1.00  0.00     0.083 A 
BRANCH  95  96
ATOM     96  S   UNL A   1      40.967  20.332  26.448  1.00  0.00     0.243 S 
ATOM     97  O   UNL A   1      40.816  19.850  27.809  1.00  0.00    -0.207 OA
ATOM     98  O   UNL A   1      41.558  19.505  25.422  1.00  0.00    -0.207 OA
BRANCH  96  99
ATOM     99  N   UNL A   1      41.836  21.796  26.515  1.00  0.00    -0.198 NA
ATOM    100  C   UNL A   1      42.196  22.279  27.870  1.00  0.00     0.102 C 
ATOM    101  C   UNL A   1      42.784  22.041  25.403  1.00  0.00     0.102 C 
ATOM    102  C   UNL A   1      42.803  23.674  27.842  1.00  0.00     0.017 C 
ATOM    103  C   UNL A   1      43.362  23.448  25.441  1.00  0.00     0.017 C 
ATOM    104  C   UNL A   1      43.921  23.774  26.817  1.00  0.00     0.003 C 
ENDBRANCH  96  99
ENDBRANCH  95  96
ENDBRANCH  84  86
ENDBRANCH  77  80
ENDBRANCH  75  76
ENDBRANCH  74  75
ENDBRANCH   1  74
TORSDOF 16
ENDMDL
