MODEL 1
REMARK VINA RESULT:     -12.9      0.000      0.000
REMARK SMILES CC1(C)[C@H](C(=O)NCCCCCCNC(=O)c2ccc(-c3c4nc(c(-c5c(F)c(F)c(F)c(F)c5F)c5ccc([nH]5)c(-c5c(F)c(F)c(F)c(F)c5F)c5nc(c(-c6c(F)c(F)c(F)c(F)c6F)c6ccc3[nH]6)C=C5)C=C4)cc2)[C@@H]1C(=O)N1CC[NH+](Cc2ccccc2)CC1
REMARK SMILES IDX 10 1 9 2 8 3 7 4 5 5 6 6 4 8 1 9 2 10 3 11 80 12 81 13 82 14
REMARK SMILES IDX 83 15 84 16 95 17 85 18 94 19 86 20 87 22 88 23 89 24 93 25
REMARK SMILES IDX 90 26 92 27 91 28 11 29 12 30 13 31 14 32 15 33 16 35 17 36
REMARK SMILES IDX 18 37 79 38 19 39 78 40 20 41 21 42 22 43 72 44 23 45 77 46
REMARK SMILES IDX 71 47 73 48 24 49 76 50 70 51 69 52 25 54 57 55 37 56 56 57
REMARK SMILES IDX 38 58 41 59 55 60 74 61 39 62 40 63 54 65 75 66 42 67 26 68
REMARK SMILES IDX 27 69 35 70 28 71 29 72 33 73 36 74 30 75 31 76 34 77 32 78
REMARK SMILES IDX 58 79 59 80 67 81 60 82 61 83 65 84 68 85 62 86 63 87 66 88
REMARK SMILES IDX 64 89 43 90 44 91 52 92 45 93 46 94 50 95 53 96 47 97 48 98
REMARK SMILES IDX 51 99 49 100
REMARK H PARENT 7 7 86 21 14 34 73 53 41 64
REMARK Flexibility Score: inf
ROOT
ATOM      1  C   UNL A   1      33.039  30.011  26.180  1.00  0.00     0.002 C 
ENDROOT
BRANCH   1   2
ATOM      2  C   UNL A   1      33.194  28.596  26.762  1.00  0.00     0.021 C 
BRANCH   2   3
ATOM      3  C   UNL A   1      33.595  27.545  25.739  1.00  0.00     0.116 C 
BRANCH   3   4
ATOM      4  N   UNL A   1      33.194  26.200  26.064  1.00  0.00    -0.356 N 
ATOM      5  C   UNL A   1      33.784  24.998  25.779  1.00  0.00     0.224 C 
ATOM      6  O   UNL A   1      33.666  24.128  26.644  1.00  0.00    -0.275 OA
ATOM      7  H   UNL A   1      32.356  26.134  26.576  1.00  0.00     0.163 HD
BRANCH   5   8
ATOM      8  C   UNL A   1      34.466  24.586  24.523  1.00  0.00     0.098 C 
ATOM      9  C   UNL A   1      35.959  23.047  23.127  1.00  0.00     0.013 C 
ATOM     10  C   UNL A   1      34.589  23.300  23.732  1.00  0.00    -0.011 C 
ATOM     11  C   UNL A   1      33.962  22.001  24.175  1.00  0.00     0.013 C 
ATOM     12  C   UNL A   1      33.773  24.508  23.186  1.00  0.00     0.098 C 
BRANCH  12  13
ATOM     13  C   UNL A   1      32.297  24.461  23.050  1.00  0.00     0.227 C 
ATOM     14  O   UNL A   1      31.738  23.368  22.980  1.00  0.00    -0.275 OA
ATOM     15  N   UNL A   1      31.597  25.654  23.081  1.00  0.00    -0.331 N 
ATOM     16  C   UNL A   1      30.217  25.587  23.501  1.00  0.00     0.181 C 
ATOM     17  C   UNL A   1      31.904  26.831  22.261  1.00  0.00     0.181 C 
ATOM     18  C   UNL A   1      29.836  26.874  24.253  1.00  0.00     0.284 C 
ATOM     19  C   UNL A   1      31.230  28.158  22.745  1.00  0.00     0.284 C 
ATOM     20  N   UNL A   1      29.938  28.087  23.453  1.00  0.00    -0.328 N 
ATOM     21  H   UNL A   1      29.992  28.894  24.076  1.00  0.00     0.348 HD
BRANCH  20  22
ATOM     22  C   UNL A   1      28.707  28.458  22.751  1.00  0.00     0.299 C 
BRANCH  22  23
ATOM     23  C   UNL A   1      28.472  29.939  22.563  1.00  0.00     0.006 A 
ATOM     24  C   UNL A   1      28.802  30.832  23.586  1.00  0.00     0.009 A 
ATOM     25  C   UNL A   1      28.028  30.452  21.329  1.00  0.00     0.009 A 
ATOM     26  C   UNL A   1      28.784  32.207  23.352  1.00  0.00     0.001 A 
ATOM     27  C   UNL A   1      28.058  31.825  21.081  1.00  0.00     0.001 A 
ATOM     28  C   UNL A   1      28.451  32.700  22.090  1.00  0.00     0.000 A 
ENDBRANCH  22  23
ENDBRANCH  20  22
ENDBRANCH  12  13
ENDBRANCH   5   8
ENDBRANCH   3   4
ENDBRANCH   2   3
ENDBRANCH   1   2
BRANCH   1  29
ATOM     29  C   UNL A   1      31.616  30.589  26.133  1.00  0.00     0.002 C 
BRANCH  29  30
ATOM     30  C   UNL A   1      31.450  32.026  26.635  1.00  0.00     0.021 C 
BRANCH  30  31
ATOM     31  C   UNL A   1      32.715  32.631  27.226  1.00  0.00     0.116 C 
BRANCH  31  32
ATOM     32  N   UNL A   1      32.521  34.015  27.625  1.00  0.00    -0.352 N 
ATOM     33  C   UNL A   1      33.111  34.729  28.637  1.00  0.00     0.251 C 
ATOM     34  H   UNL A   1      31.867  34.516  27.089  1.00  0.00     0.163 HD
ATOM     35  O   UNL A   1      32.683  35.834  28.937  1.00  0.00    -0.269 OA
BRANCH  33  36
ATOM     36  C   UNL A   1      34.257  34.155  29.375  1.00  0.00     0.039 A 
ATOM     37  C   UNL A   1      34.001  33.316  30.462  1.00  0.00     0.014 A 
ATOM     38  C   UNL A   1      35.572  34.463  29.018  1.00  0.00     0.014 A 
ATOM     39  C   UNL A   1      35.066  32.752  31.165  1.00  0.00     0.010 A 
ATOM     40  C   UNL A   1      36.631  33.832  29.663  1.00  0.00     0.010 A 
ATOM     41  C   UNL A   1      36.389  32.985  30.754  1.00  0.00    -0.014 A 
BRANCH  41  42
ATOM     42  C   UNL A   1      37.533  32.371  31.469  1.00  0.00     0.031 A 
ATOM     43  C   UNL A   1      38.281  31.226  30.846  1.00  0.00     0.074 A 
ATOM     44  C   UNL A   1      37.858  32.810  32.700  1.00  0.00     0.049 A 
ATOM     45  N   UNL A   1      39.271  30.519  31.334  1.00  0.00    -0.248 NA
ATOM     46  C   UNL A   1      37.841  30.794  29.510  1.00  0.00     0.031 C 
ATOM     47  C   UNL A   1      37.170  33.878  33.425  1.00  0.00     0.029 A 
ATOM     48  N   UNL A   1      38.846  32.407  33.562  1.00  0.00    -0.354 N 
ATOM     49  C   UNL A   1      39.556  29.557  30.374  1.00  0.00     0.074 A 
ATOM     50  C   UNL A   1      38.598  29.728  29.304  1.00  0.00     0.031 C 
ATOM     51  C   UNL A   1      37.772  34.065  34.610  1.00  0.00     0.029 A 
ATOM     52  C   UNL A   1      38.862  33.105  34.744  1.00  0.00     0.049 A 
ATOM     53  H   UNL A   1      39.483  31.686  33.352  1.00  0.00     0.167 HD
ATOM     54  C   UNL A   1      40.545  28.632  30.373  1.00  0.00     0.037 A 
ATOM     55  C   UNL A   1      39.664  32.977  35.818  1.00  0.00     0.037 A 
ATOM     56  C   UNL A   1      41.510  28.487  31.431  1.00  0.00     0.049 A 
ATOM     57  C   UNL A   1      40.758  31.943  35.790  1.00  0.00     0.074 A 
ATOM     58  C   UNL A   1      42.588  27.624  31.505  1.00  0.00     0.029 A 
ATOM     59  N   UNL A   1      41.510  29.229  32.606  1.00  0.00    -0.354 N 
ATOM     60  N   UNL A   1      41.065  31.086  34.846  1.00  0.00    -0.248 NA
ATOM     61  C   UNL A   1      41.623  31.865  36.974  1.00  0.00     0.031 C 
ATOM     62  C   UNL A   1      43.208  27.804  32.745  1.00  0.00     0.029 A 
ATOM     63  C   UNL A   1      42.556  28.825  33.419  1.00  0.00     0.049 A 
ATOM     64  H   UNL A   1      40.862  29.936  32.827  1.00  0.00     0.167 HD
ATOM     65  C   UNL A   1      42.176  30.393  35.306  1.00  0.00     0.074 A 
ATOM     66  C   UNL A   1      42.499  30.941  36.606  1.00  0.00     0.031 C 
ATOM     67  C   UNL A   1      42.867  29.391  34.707  1.00  0.00     0.037 A 
BRANCH  54  68
ATOM     68  C   UNL A   1      40.636  27.708  29.193  1.00  0.00     0.064 A 
ATOM     69  C   UNL A   1      39.789  26.596  29.060  1.00  0.00     0.173 A 
ATOM     70  C   UNL A   1      41.555  27.957  28.162  1.00  0.00     0.173 A 
ATOM     71  F   UNL A   1      38.901  26.304  30.021  1.00  0.00    -0.203 F 
ATOM     72  C   UNL A   1      39.881  25.751  27.956  1.00  0.00     0.198 A 
ATOM     73  C   UNL A   1      41.619  27.130  27.043  1.00  0.00     0.198 A 
ATOM     74  F   UNL A   1      42.384  29.008  28.234  1.00  0.00    -0.203 F 
ATOM     75  F   UNL A   1      39.099  24.665  27.879  1.00  0.00    -0.200 F 
ATOM     76  C   UNL A   1      40.789  26.024  26.945  1.00  0.00     0.200 A 
ATOM     77  F   UNL A   1      42.488  27.402  26.059  1.00  0.00    -0.200 F 
ATOM     78  F   UNL A   1      40.870  25.215  25.879  1.00  0.00    -0.200 F 
ENDBRANCH  54  68
BRANCH  55  79
ATOM     79  C   UNL A   1      39.483  33.867  36.995  1.00  0.00     0.064 A 
ATOM     80  C   UNL A   1      38.740  33.447  38.109  1.00  0.00     0.173 A 
ATOM     81  C   UNL A   1      40.037  35.154  37.030  1.00  0.00     0.173 A 
ATOM     82  F   UNL A   1      38.175  32.231  38.117  1.00  0.00    -0.203 F 
ATOM     83  C   UNL A   1      38.534  34.292  39.198  1.00  0.00     0.198 A 
ATOM     84  C   UNL A   1      39.858  35.986  38.134  1.00  0.00     0.198 A 
ATOM     85  F   UNL A   1      40.764  35.602  35.996  1.00  0.00    -0.203 F 
ATOM     86  F   UNL A   1      37.774  33.884  40.223  1.00  0.00    -0.200 F 
ATOM     87  C   UNL A   1      39.098  35.559  39.212  1.00  0.00     0.200 A 
ATOM     88  F   UNL A   1      40.420  37.203  38.151  1.00  0.00    -0.200 F 
ATOM     89  F   UNL A   1      38.901  36.370  40.260  1.00  0.00    -0.200 F 
ENDBRANCH  55  79
BRANCH  67  90
ATOM     90  C   UNL A   1      44.069  28.857  35.432  1.00  0.00     0.064 A 
ATOM     91  C   UNL A   1      43.975  27.783  36.331  1.00  0.00     0.173 A 
ATOM     92  C   UNL A   1      45.338  29.410  35.201  1.00  0.00     0.173 A 
ATOM     93  F   UNL A   1      42.783  27.229  36.597  1.00  0.00    -0.203 F 
ATOM     94  C   UNL A   1      45.102  27.306  36.995  1.00  0.00     0.198 A 
ATOM     95  C   UNL A   1      46.467  28.907  35.840  1.00  0.00     0.198 A 
ATOM     96  F   UNL A   1      45.485  30.433  34.345  1.00  0.00    -0.203 F 
ATOM     97  F   UNL A   1      44.979  26.319  37.893  1.00  0.00    -0.200 F 
ATOM     98  C   UNL A   1      46.347  27.864  36.744  1.00  0.00     0.200 A 
ATOM     99  F   UNL A   1      47.672  29.435  35.583  1.00  0.00    -0.200 F 
ATOM    100  F   UNL A   1      47.431  27.398  37.381  1.00  0.00    -0.200 F 
ENDBRANCH  67  90
ENDBRANCH  41  42
ENDBRANCH  33  36
ENDBRANCH  31  32
ENDBRANCH  30  31
ENDBRANCH  29  30
ENDBRANCH   1  29
TORSDOF 16
ENDMDL
MODEL 2
REMARK VINA RESULT:     -12.9      0.758      7.221
REMARK SMILES CC1(C)[C@H](C(=O)NCCCCCCNC(=O)c2ccc(-c3c4nc(c(-c5c(F)c(F)c(F)c(F)c5F)c5ccc([nH]5)c(-c5c(F)c(F)c(F)c(F)c5F)c5nc(c(-c6c(F)c(F)c(F)c(F)c6F)c6ccc3[nH]6)C=C5)C=C4)cc2)[C@@H]1C(=O)N1CC[NH+](Cc2ccccc2)CC1
REMARK SMILES IDX 10 1 9 2 8 3 7 4 5 5 6 6 4 8 1 9 2 10 3 11 80 12 81 13 82 14
REMARK SMILES IDX 83 15 84 16 95 17 85 18 94 19 86 20 87 22 88 23 89 24 93 25
REMARK SMILES IDX 90 26 92 27 91 28 11 29 12 30 13 31 14 32 15 33 16 35 17 36
REMARK SMILES IDX 18 37 79 38 19 39 78 40 20 41 21 42 22 43 72 44 23 45 77 46
REMARK SMILES IDX 71 47 73 48 24 49 76 50 70 51 69 52 25 54 57 55 37 56 56 57
REMARK SMILES IDX 38 58 41 59 55 60 74 61 39 62 40 63 54 65 75 66 42 67 26 68
REMARK SMILES IDX 27 69 35 70 28 71 29 72 33 73 36 74 30 75 31 76 34 77 32 78
REMARK SMILES IDX 58 79 59 80 67 81 60 82 61 83 65 84 68 85 62 86 63 87 66 88
REMARK SMILES IDX 64 89 43 90 44 91 52 92 45 93 46 94 50 95 53 96 47 97 48 98
REMARK SMILES IDX 51 99 49 100
REMARK H PARENT 7 7 86 21 14 34 73 53 41 64
REMARK Flexibility Score: inf
ROOT
ATOM      1  C   UNL A   1      32.786  29.708  26.009  1.00  0.00     0.002 C 
ENDROOT
BRANCH   1   2
ATOM      2  C   UNL A   1      32.669  28.283  26.573  1.00  0.00     0.021 C 
BRANCH   2   3
ATOM      3  C   UNL A   1      33.607  27.279  25.923  1.00  0.00     0.116 C 
BRANCH   3   4
ATOM      4  N   UNL A   1      33.293  25.898  26.184  1.00  0.00    -0.356 N 
ATOM      5  C   UNL A   1      33.971  24.751  25.868  1.00  0.00     0.224 C 
ATOM      6  O   UNL A   1      33.892  23.840  26.695  1.00  0.00    -0.275 OA
ATOM      7  H   UNL A   1      32.449  25.754  26.671  1.00  0.00     0.163 HD
BRANCH   5   8
ATOM      8  C   UNL A   1      34.709  24.438  24.616  1.00  0.00     0.098 C 
ATOM      9  C   UNL A   1      36.282  23.021  23.178  1.00  0.00     0.013 C 
ATOM     10  C   UNL A   1      34.885  23.214  23.742  1.00  0.00    -0.011 C 
ATOM     11  C   UNL A   1      34.261  21.878  24.066  1.00  0.00     0.013 C 
ATOM     12  C   UNL A   1      34.072  24.446  23.249  1.00  0.00     0.098 C 
BRANCH  12  13
ATOM     13  C   UNL A   1      32.605  24.389  23.048  1.00  0.00     0.227 C 
ATOM     14  O   UNL A   1      32.066  23.297  22.882  1.00  0.00    -0.275 OA
ATOM     15  N   UNL A   1      31.886  25.569  23.130  1.00  0.00    -0.331 N 
ATOM     16  C   UNL A   1      30.491  25.457  23.486  1.00  0.00     0.181 C 
ATOM     17  C   UNL A   1      32.208  26.803  22.403  1.00  0.00     0.181 C 
ATOM     18  C   UNL A   1      30.060  26.685  24.305  1.00  0.00     0.284 C 
ATOM     19  C   UNL A   1      31.494  28.085  22.946  1.00  0.00     0.284 C 
ATOM     20  N   UNL A   1      30.176  27.951  23.593  1.00  0.00    -0.328 N 
ATOM     21  H   UNL A   1      30.192  28.714  24.270  1.00  0.00     0.348 HD
BRANCH  20  22
ATOM     22  C   UNL A   1      28.969  28.353  22.867  1.00  0.00     0.299 C 
BRANCH  22  23
ATOM     23  C   UNL A   1      28.843  29.825  22.554  1.00  0.00     0.006 A 
ATOM     24  C   UNL A   1      28.374  30.235  21.303  1.00  0.00     0.009 A 
ATOM     25  C   UNL A   1      29.086  30.800  23.542  1.00  0.00     0.009 A 
ATOM     26  C   UNL A   1      28.058  31.574  21.074  1.00  0.00     0.001 A 
ATOM     27  C   UNL A   1      28.724  32.131  23.327  1.00  0.00     0.001 A 
ATOM     28  C   UNL A   1      28.196  32.513  22.097  1.00  0.00     0.000 A 
ENDBRANCH  22  23
ENDBRANCH  20  22
ENDBRANCH  12  13
ENDBRANCH   5   8
ENDBRANCH   3   4
ENDBRANCH   2   3
ENDBRANCH   1   2
BRANCH   1  29
ATOM     29  C   UNL A   1      31.477  30.496  25.841  1.00  0.00     0.002 C 
BRANCH  29  30
ATOM     30  C   UNL A   1      31.361  31.798  26.639  1.00  0.00     0.021 C 
BRANCH  30  31
ATOM     31  C   UNL A   1      32.695  32.461  26.949  1.00  0.00     0.116 C 
BRANCH  31  32
ATOM     32  N   UNL A   1      32.528  33.820  27.436  1.00  0.00    -0.352 N 
ATOM     33  C   UNL A   1      33.160  34.470  28.464  1.00  0.00     0.251 C 
ATOM     34  H   UNL A   1      31.857  34.355  26.954  1.00  0.00     0.163 HD
ATOM     35  O   UNL A   1      32.753  35.559  28.844  1.00  0.00    -0.269 OA
BRANCH  33  36
ATOM     36  C   UNL A   1      34.329  33.848  29.122  1.00  0.00     0.039 A 
ATOM     37  C   UNL A   1      34.108  32.856  30.080  1.00  0.00     0.014 A 
ATOM     38  C   UNL A   1      35.631  34.258  28.822  1.00  0.00     0.014 A 
ATOM     39  C   UNL A   1      35.195  32.245  30.705  1.00  0.00     0.010 A 
ATOM     40  C   UNL A   1      36.714  33.589  29.380  1.00  0.00     0.010 A 
ATOM     41  C   UNL A   1      36.507  32.588  30.341  1.00  0.00    -0.014 A 
BRANCH  41  42
ATOM     42  C   UNL A   1      37.676  31.929  30.971  1.00  0.00     0.031 A 
ATOM     43  C   UNL A   1      38.116  32.336  32.349  1.00  0.00     0.074 A 
ATOM     44  C   UNL A   1      38.369  31.005  30.278  1.00  0.00     0.049 A 
ATOM     45  N   UNL A   1      39.143  31.921  33.048  1.00  0.00    -0.248 NA
ATOM     46  C   UNL A   1      37.315  33.372  33.022  1.00  0.00     0.031 C 
ATOM     47  C   UNL A   1      38.066  30.569  28.915  1.00  0.00     0.029 A 
ATOM     48  N   UNL A   1      39.476  30.272  30.623  1.00  0.00    -0.354 N 
ATOM     49  C   UNL A   1      39.118  32.653  34.228  1.00  0.00     0.074 A 
ATOM     50  C   UNL A   1      38.014  33.581  34.128  1.00  0.00     0.031 C 
ATOM     51  C   UNL A   1      38.948  29.625  28.548  1.00  0.00     0.029 A 
ATOM     52  C   UNL A   1      39.900  29.419  29.634  1.00  0.00     0.049 A 
ATOM     53  H   UNL A   1      39.923  30.350  31.497  1.00  0.00     0.167 HD
ATOM     54  C   UNL A   1      39.926  32.541  35.308  1.00  0.00     0.037 A 
ATOM     55  C   UNL A   1      40.945  28.571  29.607  1.00  0.00     0.037 A 
ATOM     56  C   UNL A   1      41.007  31.595  35.409  1.00  0.00     0.049 A 
ATOM     57  C   UNL A   1      41.827  28.464  30.823  1.00  0.00     0.074 A 
ATOM     58  C   UNL A   1      41.850  31.357  36.480  1.00  0.00     0.029 A 
ATOM     59  N   UNL A   1      41.393  30.729  34.395  1.00  0.00    -0.354 N 
ATOM     60  N   UNL A   1      41.750  29.109  31.962  1.00  0.00    -0.248 NA
ATOM     61  C   UNL A   1      42.935  27.503  30.753  1.00  0.00     0.031 C 
ATOM     62  C   UNL A   1      42.780  30.387  36.096  1.00  0.00     0.029 A 
ATOM     63  C   UNL A   1      42.478  29.972  34.808  1.00  0.00     0.049 A 
ATOM     64  H   UNL A   1      40.961  30.663  33.513  1.00  0.00     0.167 HD
ATOM     65  C   UNL A   1      42.775  28.610  32.754  1.00  0.00     0.074 A 
ATOM     66  C   UNL A   1      43.448  27.596  31.971  1.00  0.00     0.031 C 
ATOM     67  C   UNL A   1      43.128  28.959  34.016  1.00  0.00     0.037 A 
BRANCH  54  68
ATOM     68  C   UNL A   1      39.672  33.461  36.468  1.00  0.00     0.064 A 
ATOM     69  C   UNL A   1      38.820  33.101  37.523  1.00  0.00     0.173 A 
ATOM     70  C   UNL A   1      40.319  34.704  36.546  1.00  0.00     0.173 A 
ATOM     71  F   UNL A   1      38.167  31.929  37.495  1.00  0.00    -0.203 F 
ATOM     72  C   UNL A   1      38.599  33.962  38.596  1.00  0.00     0.198 A 
ATOM     73  C   UNL A   1      40.123  35.548  37.637  1.00  0.00     0.198 A 
ATOM     74  F   UNL A   1      41.149  35.098  35.568  1.00  0.00    -0.203 F 
ATOM     75  F   UNL A   1      37.739  33.618  39.564  1.00  0.00    -0.200 F 
ATOM     76  C   UNL A   1      39.258  35.181  38.655  1.00  0.00     0.200 A 
ATOM     77  F   UNL A   1      40.771  36.720  37.701  1.00  0.00    -0.200 F 
ATOM     78  F   UNL A   1      39.052  36.005  39.692  1.00  0.00    -0.200 F 
ENDBRANCH  54  68
BRANCH  55  79
ATOM     79  C   UNL A   1      41.200  27.738  28.403  1.00  0.00     0.064 A 
ATOM     80  C   UNL A   1      42.075  28.172  27.397  1.00  0.00     0.173 A 
ATOM     81  C   UNL A   1      40.569  26.497  28.226  1.00  0.00     0.173 A 
ATOM     82  F   UNL A   1      42.689  29.359  27.510  1.00  0.00    -0.203 F 
ATOM     83  C   UNL A   1      42.286  27.412  26.247  1.00  0.00     0.198 A 
ATOM     84  C   UNL A   1      40.807  25.724  27.092  1.00  0.00     0.198 A 
ATOM     85  F   UNL A   1      39.730  26.030  29.162  1.00  0.00    -0.203 F 
ATOM     86  F   UNL A   1      43.085  27.879  25.278  1.00  0.00    -0.200 F 
ATOM     87  C   UNL A   1      41.656  26.186  26.098  1.00  0.00     0.200 A 
ATOM     88  F   UNL A   1      40.210  24.531  26.960  1.00  0.00    -0.200 F 
ATOM     89  F   UNL A   1      41.861  25.456  24.994  1.00  0.00    -0.200 F 
ENDBRANCH  55  79
BRANCH  67  90
ATOM     90  C   UNL A   1      44.265  28.206  34.645  1.00  0.00     0.064 A 
ATOM     91  C   UNL A   1      45.589  28.668  34.574  1.00  0.00     0.173 A 
ATOM     92  C   UNL A   1      44.021  27.020  35.353  1.00  0.00     0.173 A 
ATOM     93  F   UNL A   1      45.876  29.789  33.896  1.00  0.00    -0.203 F 
ATOM     94  C   UNL A   1      46.628  27.951  35.160  1.00  0.00     0.198 A 
ATOM     95  C   UNL A   1      45.058  26.325  35.969  1.00  0.00     0.198 A 
ATOM     96  F   UNL A   1      42.773  26.539  35.459  1.00  0.00    -0.203 F 
ATOM     97  F   UNL A   1      47.891  28.379  35.029  1.00  0.00    -0.200 F 
ATOM     98  C   UNL A   1      46.361  26.785  35.863  1.00  0.00     0.200 A 
ATOM     99  F   UNL A   1      44.796  25.208  36.662  1.00  0.00    -0.200 F 
ATOM    100  F   UNL A   1      47.364  26.100  36.431  1.00  0.00    -0.200 F 
ENDBRANCH  67  90
ENDBRANCH  41  42
ENDBRANCH  33  36
ENDBRANCH  31  32
ENDBRANCH  30  31
ENDBRANCH  29  30
ENDBRANCH   1  29
TORSDOF 16
ENDMDL
MODEL 3
REMARK VINA RESULT:     -12.9      0.624      1.262
REMARK SMILES CC1(C)[C@H](C(=O)NCCCCCCNC(=O)c2ccc(-c3c4nc(c(-c5c(F)c(F)c(F)c(F)c5F)c5ccc([nH]5)c(-c5c(F)c(F)c(F)c(F)c5F)c5nc(c(-c6c(F)c(F)c(F)c(F)c6F)c6ccc3[nH]6)C=C5)C=C4)cc2)[C@@H]1C(=O)N1CC[NH+](Cc2ccccc2)CC1
REMARK SMILES IDX 10 1 9 2 8 3 7 4 5 5 6 6 4 8 1 9 2 10 3 11 80 12 81 13 82 14
REMARK SMILES IDX 83 15 84 16 95 17 85 18 94 19 86 20 87 22 88 23 89 24 93 25
REMARK SMILES IDX 90 26 92 27 91 28 11 29 12 30 13 31 14 32 15 33 16 35 17 36
REMARK SMILES IDX 18 37 79 38 19 39 78 40 20 41 21 42 22 43 72 44 23 45 77 46
REMARK SMILES IDX 71 47 73 48 24 49 76 50 70 51 69 52 25 54 57 55 37 56 56 57
REMARK SMILES IDX 38 58 41 59 55 60 74 61 39 62 40 63 54 65 75 66 42 67 26 68
REMARK SMILES IDX 27 69 35 70 28 71 29 72 33 73 36 74 30 75 31 76 34 77 32 78
REMARK SMILES IDX 58 79 59 80 67 81 60 82 61 83 65 84 68 85 62 86 63 87 66 88
REMARK SMILES IDX 64 89 43 90 44 91 52 92 45 93 46 94 50 95 53 96 47 97 48 98
REMARK SMILES IDX 51 99 49 100
REMARK H PARENT 7 7 86 21 14 34 73 53 41 64
REMARK Flexibility Score: inf
ROOT
ATOM      1  C   UNL A   1      32.568  29.961  26.864  1.00  0.00     0.002 C 
ENDROOT
BRANCH   1   2
ATOM      2  C   UNL A   1      32.235  28.481  27.112  1.00  0.00     0.021 C 
BRANCH   2   3
ATOM      3  C   UNL A   1      33.235  27.510  26.505  1.00  0.00     0.116 C 
BRANCH   3   4
ATOM      4  N   UNL A   1      32.739  26.172  26.311  1.00  0.00    -0.356 N 
ATOM      5  C   UNL A   1      33.403  24.993  26.107  1.00  0.00     0.224 C 
ATOM      6  O   UNL A   1      32.883  23.993  26.607  1.00  0.00    -0.275 OA
ATOM      7  H   UNL A   1      31.758  26.092  26.327  1.00  0.00     0.163 HD
BRANCH   5   8
ATOM      8  C   UNL A   1      34.619  24.756  25.284  1.00  0.00     0.098 C 
ATOM      9  C   UNL A   1      36.682  23.414  24.579  1.00  0.00     0.013 C 
ATOM     10  C   UNL A   1      35.176  23.594  24.487  1.00  0.00    -0.011 C 
ATOM     11  C   UNL A   1      34.492  22.251  24.407  1.00  0.00     0.013 C 
ATOM     12  C   UNL A   1      34.645  24.874  23.781  1.00  0.00     0.098 C 
BRANCH  12  13
ATOM     13  C   UNL A   1      33.414  24.862  22.955  1.00  0.00     0.227 C 
ATOM     14  O   UNL A   1      33.104  23.833  22.359  1.00  0.00    -0.275 OA
ATOM     15  N   UNL A   1      32.618  25.994  22.948  1.00  0.00    -0.331 N 
ATOM     16  C   UNL A   1      31.221  25.805  22.632  1.00  0.00     0.181 C 
ATOM     17  C   UNL A   1      33.097  27.358  22.694  1.00  0.00     0.181 C 
ATOM     18  C   UNL A   1      30.367  26.822  23.407  1.00  0.00     0.284 C 
ATOM     19  C   UNL A   1      32.099  28.488  23.114  1.00  0.00     0.284 C 
ATOM     20  N   UNL A   1      30.651  28.213  23.083  1.00  0.00    -0.328 N 
ATOM     21  H   UNL A   1      30.305  28.809  23.836  1.00  0.00     0.348 HD
BRANCH  20  22
ATOM     22  C   UNL A   1      29.834  28.764  22.000  1.00  0.00     0.299 C 
BRANCH  22  23
ATOM     23  C   UNL A   1      29.196  30.107  22.268  1.00  0.00     0.006 A 
ATOM     24  C   UNL A   1      29.220  30.646  23.558  1.00  0.00     0.009 A 
ATOM     25  C   UNL A   1      28.671  30.884  21.217  1.00  0.00     0.009 A 
ATOM     26  C   UNL A   1      28.823  31.964  23.776  1.00  0.00     0.001 A 
ATOM     27  C   UNL A   1      28.320  32.218  21.429  1.00  0.00     0.001 A 
ATOM     28  C   UNL A   1      28.411  32.760  22.708  1.00  0.00     0.000 A 
ENDBRANCH  22  23
ENDBRANCH  20  22
ENDBRANCH  12  13
ENDBRANCH   5   8
ENDBRANCH   3   4
ENDBRANCH   2   3
ENDBRANCH   1   2
BRANCH   1  29
ATOM     29  C   UNL A   1      31.499  30.801  26.147  1.00  0.00     0.002 C 
BRANCH  29  30
ATOM     30  C   UNL A   1      31.347  32.250  26.617  1.00  0.00     0.021 C 
BRANCH  30  31
ATOM     31  C   UNL A   1      32.627  32.870  27.157  1.00  0.00     0.116 C 
BRANCH  31  32
ATOM     32  N   UNL A   1      32.418  34.228  27.629  1.00  0.00    -0.352 N 
ATOM     33  C   UNL A   1      33.020  34.903  28.660  1.00  0.00     0.251 C 
ATOM     34  H   UNL A   1      31.740  34.741  27.135  1.00  0.00     0.163 HD
ATOM     35  O   UNL A   1      32.580  35.984  29.025  1.00  0.00    -0.269 OA
BRANCH  33  36
ATOM     36  C   UNL A   1      34.196  34.318  29.339  1.00  0.00     0.039 A 
ATOM     37  C   UNL A   1      33.988  33.505  30.456  1.00  0.00     0.014 A 
ATOM     38  C   UNL A   1      35.494  34.589  28.898  1.00  0.00     0.014 A 
ATOM     39  C   UNL A   1      35.081  32.930  31.105  1.00  0.00     0.010 A 
ATOM     40  C   UNL A   1      36.575  33.947  29.491  1.00  0.00     0.010 A 
ATOM     41  C   UNL A   1      36.381  33.126  30.611  1.00  0.00    -0.014 A 
BRANCH  41  42
ATOM     42  C   UNL A   1      37.553  32.499  31.269  1.00  0.00     0.031 A 
ATOM     43  C   UNL A   1      38.283  31.374  30.590  1.00  0.00     0.074 A 
ATOM     44  C   UNL A   1      37.920  32.908  32.498  1.00  0.00     0.049 A 
ATOM     45  N   UNL A   1      39.292  30.660  31.023  1.00  0.00    -0.248 NA
ATOM     46  C   UNL A   1      37.797  30.975  29.259  1.00  0.00     0.031 C 
ATOM     47  C   UNL A   1      37.254  33.954  33.275  1.00  0.00     0.029 A 
ATOM     48  N   UNL A   1      38.940  32.487  33.314  1.00  0.00    -0.354 N 
ATOM     49  C   UNL A   1      39.547  29.724  30.029  1.00  0.00     0.074 A 
ATOM     50  C   UNL A   1      38.551  29.918  28.999  1.00  0.00     0.031 C 
ATOM     51  C   UNL A   1      37.897  34.113  34.442  1.00  0.00     0.029 A 
ATOM     52  C   UNL A   1      38.996  33.155  34.512  1.00  0.00     0.049 A 
ATOM     53  H   UNL A   1      39.572  31.776  33.063  1.00  0.00     0.167 HD
ATOM     54  C   UNL A   1      40.540  28.805  29.969  1.00  0.00     0.037 A 
ATOM     55  C   UNL A   1      39.836  33.004  35.553  1.00  0.00     0.037 A 
ATOM     56  C   UNL A   1      41.542  28.638  30.988  1.00  0.00     0.049 A 
ATOM     57  C   UNL A   1      40.933  31.976  35.459  1.00  0.00     0.074 A 
ATOM     58  C   UNL A   1      42.626  27.778  31.001  1.00  0.00     0.029 A 
ATOM     59  N   UNL A   1      41.581  29.349  32.180  1.00  0.00    -0.354 N 
ATOM     60  N   UNL A   1      41.209  31.145  34.483  1.00  0.00    -0.248 NA
ATOM     61  C   UNL A   1      41.840  31.872  36.609  1.00  0.00     0.031 C 
ATOM     62  C   UNL A   1      43.289  27.929  32.223  1.00  0.00     0.029 A 
ATOM     63  C   UNL A   1      42.658  28.929  32.945  1.00  0.00     0.049 A 
ATOM     64  H   UNL A   1      40.939  30.046  32.443  1.00  0.00     0.167 HD
ATOM     65  C   UNL A   1      42.339  30.446  34.884  1.00  0.00     0.074 A 
ATOM     66  C   UNL A   1      42.706  30.962  36.186  1.00  0.00     0.031 C 
ATOM     67  C   UNL A   1      43.012  29.464  34.236  1.00  0.00     0.037 A 
BRANCH  54  68
ATOM     68  C   UNL A   1      40.591  27.912  28.763  1.00  0.00     0.064 A 
ATOM     69  C   UNL A   1      39.869  26.710  28.703  1.00  0.00     0.173 A 
ATOM     70  C   UNL A   1      41.343  28.279  27.636  1.00  0.00     0.173 A 
ATOM     71  F   UNL A   1      39.143  26.305  29.755  1.00  0.00    -0.203 F 
ATOM     72  C   UNL A   1      39.922  25.895  27.574  1.00  0.00     0.198 A 
ATOM     73  C   UNL A   1      41.366  27.479  26.496  1.00  0.00     0.198 A 
ATOM     74  F   UNL A   1      42.049  29.420  27.636  1.00  0.00    -0.203 F 
ATOM     75  F   UNL A   1      39.266  24.726  27.563  1.00  0.00    -0.200 F 
ATOM     76  C   UNL A   1      40.663  26.285  26.470  1.00  0.00     0.200 A 
ATOM     77  F   UNL A   1      42.071  27.863  25.423  1.00  0.00    -0.200 F 
ATOM     78  F   UNL A   1      40.706  25.504  25.380  1.00  0.00    -0.200 F 
ENDBRANCH  54  68
BRANCH  55  79
ATOM     79  C   UNL A   1      39.693  33.862  36.759  1.00  0.00     0.064 A 
ATOM     80  C   UNL A   1      38.888  33.463  37.836  1.00  0.00     0.173 A 
ATOM     81  C   UNL A   1      40.348  35.098  36.857  1.00  0.00     0.173 A 
ATOM     82  F   UNL A   1      38.228  32.297  37.783  1.00  0.00    -0.203 F 
ATOM     83  C   UNL A   1      38.720  34.282  38.951  1.00  0.00     0.198 A 
ATOM     84  C   UNL A   1      40.205  35.901  37.988  1.00  0.00     0.198 A 
ATOM     85  F   UNL A   1      41.137  35.523  35.860  1.00  0.00    -0.203 F 
ATOM     86  F   UNL A   1      37.902  33.900  39.941  1.00  0.00    -0.200 F 
ATOM     87  C   UNL A   1      39.383  35.498  39.029  1.00  0.00     0.200 A 
ATOM     88  F   UNL A   1      40.861  37.067  38.066  1.00  0.00    -0.200 F 
ATOM     89  F   UNL A   1      39.222  36.283  40.102  1.00  0.00    -0.200 F 
ENDBRANCH  55  79
BRANCH  67  90
ATOM     90  C   UNL A   1      44.242  28.917  34.903  1.00  0.00     0.064 A 
ATOM     91  C   UNL A   1      45.506  29.496  34.713  1.00  0.00     0.173 A 
ATOM     92  C   UNL A   1      44.147  27.817  35.768  1.00  0.00     0.173 A 
ATOM     93  F   UNL A   1      45.652  30.541  33.885  1.00  0.00    -0.203 F 
ATOM     94  C   UNL A   1      46.634  28.971  35.338  1.00  0.00     0.198 A 
ATOM     95  C   UNL A   1      45.271  27.317  36.419  1.00  0.00     0.198 A 
ATOM     96  F   UNL A   1      42.960  27.231  35.991  1.00  0.00    -0.203 F 
ATOM     97  F   UNL A   1      47.840  29.503  35.096  1.00  0.00    -0.200 F 
ATOM     98  C   UNL A   1      46.514  27.887  36.196  1.00  0.00     0.200 A 
ATOM     99  F   UNL A   1      45.150  26.281  37.261  1.00  0.00    -0.200 F 
ATOM    100  F   UNL A   1      47.600  27.388  36.801  1.00  0.00    -0.200 F 
ENDBRANCH  67  90
ENDBRANCH  41  42
ENDBRANCH  33  36
ENDBRANCH  31  32
ENDBRANCH  30  31
ENDBRANCH  29  30
ENDBRANCH   1  29
TORSDOF 16
ENDMDL
