MODEL 1
REMARK VINA RESULT:     -11.9      0.000      0.000
REMARK SMILES Cc1ccc(Cl)c(Nc2ccccc2C(=O)NCCCCCCNC(=O)c2ccc(-c3c4nc(c(-c5c(F)c(F)c(F)c(F)c5F)c5ccc([nH]5)c(-c5c(F)c(F)c(F)c(F)c5F)c5nc(c(-c6c(F)c(F)c(F)c(F)c6F)c6ccc3[nH]6)C=C5)C=C4)cc2)c1Cl
REMARK SMILES IDX 20 1 19 2 18 3 17 4 15 5 16 6 14 8 9 9 10 10 11 11 13 12
REMARK SMILES IDX 12 13 8 14 7 16 1 17 2 18 3 19 90 20 4 21 91 22 5 23 6 24
REMARK SMILES IDX 21 25 22 26 23 27 24 28 25 29 26 31 27 32 28 33 89 34 29 35
REMARK SMILES IDX 88 36 30 37 31 38 32 39 82 40 33 41 87 42 81 43 83 44 34 45
REMARK SMILES IDX 86 46 80 47 79 48 35 50 67 51 47 52 66 53 48 54 51 55 65 56
REMARK SMILES IDX 84 57 49 58 50 59 64 61 85 62 52 63 36 64 37 65 45 66 38 67
REMARK SMILES IDX 39 68 43 69 46 70 40 71 41 72 44 73 42 74 68 75 69 76 77 77
REMARK SMILES IDX 70 78 71 79 75 80 78 81 72 82 73 83 76 84 74 85 53 86 54 87
REMARK SMILES IDX 62 88 55 89 56 90 60 91 63 92 57 93 58 94 61 95 59 96
REMARK H PARENT 17 7 8 15 24 30 83 49 51 60
REMARK Flexibility Score: inf
ROOT
ATOM      1  C   UNL A   1      36.921  21.468  25.251  1.00  0.00     0.002 C 
ENDROOT
BRANCH   1   2
ATOM      2  C   UNL A   1      36.999  22.646  24.268  1.00  0.00     0.021 C 
BRANCH   2   3
ATOM      3  C   UNL A   1      35.712  23.428  24.010  1.00  0.00     0.116 C 
BRANCH   3   4
ATOM      4  N   UNL A   1      35.413  24.432  25.000  1.00  0.00    -0.352 N 
ATOM      5  C   UNL A   1      34.329  25.263  25.128  1.00  0.00     0.253 C 
ATOM      6  O   UNL A   1      34.305  26.002  26.117  1.00  0.00    -0.269 OA
ATOM      7  H   UNL A   1      36.100  24.539  25.699  1.00  0.00     0.163 HD
BRANCH   5   8
ATOM      8  C   UNL A   1      33.256  25.407  24.097  1.00  0.00     0.063 A 
ATOM      9  C   UNL A   1      32.204  24.514  23.806  1.00  0.00     0.051 A 
ATOM     10  C   UNL A   1      31.326  24.849  22.745  1.00  0.00     0.027 A 
ATOM     11  C   UNL A   1      31.430  26.049  22.041  1.00  0.00     0.002 A 
ATOM     12  C   UNL A   1      33.331  26.628  23.385  1.00  0.00     0.016 A 
ATOM     13  C   UNL A   1      32.424  26.951  22.376  1.00  0.00     0.001 A 
BRANCH   9  14
ATOM     14  N   UNL A   1      31.831  23.360  24.524  1.00  0.00    -0.352 N 
ATOM     15  H   UNL A   1      31.007  23.490  25.049  1.00  0.00     0.167 HD
BRANCH  14  16
ATOM     16  C   UNL A   1      32.369  22.058  24.663  1.00  0.00     0.077 A 
ATOM     17  C   UNL A   1      32.528  18.608  22.980  1.00  0.00     0.046 C 
ATOM     18  C   UNL A   1      32.656  19.713  23.994  1.00  0.00    -0.030 A 
ATOM     19  C   UNL A   1      33.127  19.401  25.278  1.00  0.00     0.006 A 
ATOM     20  C   UNL A   1      32.325  21.051  23.679  1.00  0.00     0.069 A 
ATOM     21  C   UNL A   1      33.288  20.401  26.228  1.00  0.00     0.023 A 
ATOM     22  Cl  UNL A   1      32.049  21.450  22.008  1.00  0.00    -0.082 Cl
ATOM     23  C   UNL A   1      32.914  21.709  25.923  1.00  0.00     0.066 A 
ATOM     24  Cl  UNL A   1      33.098  22.907  27.168  1.00  0.00    -0.082 Cl
ENDBRANCH  14  16
ENDBRANCH   9  14
ENDBRANCH   5   8
ENDBRANCH   3   4
ENDBRANCH   2   3
ENDBRANCH   1   2
BRANCH   1  25
ATOM     25  C   UNL A   1      36.890  20.046  24.680  1.00  0.00     0.002 C 
BRANCH  25  26
ATOM     26  C   UNL A   1      38.050  19.117  25.040  1.00  0.00     0.021 C 
BRANCH  26  27
ATOM     27  C   UNL A   1      39.244  19.743  25.750  1.00  0.00     0.116 C 
BRANCH  27  28
ATOM     28  N   UNL A   1      40.374  18.841  25.873  1.00  0.00    -0.352 N 
ATOM     29  C   UNL A   1      41.698  19.105  26.124  1.00  0.00     0.251 C 
ATOM     30  H   UNL A   1      40.157  17.887  25.758  1.00  0.00     0.163 HD
ATOM     31  O   UNL A   1      42.516  18.182  26.071  1.00  0.00    -0.269 OA
BRANCH  29  32
ATOM     32  C   UNL A   1      42.178  20.474  26.432  1.00  0.00     0.039 A 
ATOM     33  C   UNL A   1      42.568  21.299  25.369  1.00  0.00     0.014 A 
ATOM     34  C   UNL A   1      42.307  20.942  27.742  1.00  0.00     0.014 A 
ATOM     35  C   UNL A   1      43.030  22.597  25.612  1.00  0.00     0.010 A 
ATOM     36  C   UNL A   1      42.703  22.260  27.983  1.00  0.00     0.010 A 
ATOM     37  C   UNL A   1      43.078  23.099  26.921  1.00  0.00    -0.014 A 
BRANCH  37  38
ATOM     38  C   UNL A   1      43.536  24.486  27.202  1.00  0.00     0.031 A 
ATOM     39  C   UNL A   1      42.569  25.511  27.728  1.00  0.00     0.074 A 
ATOM     40  C   UNL A   1      44.805  24.846  26.925  1.00  0.00     0.049 A 
ATOM     41  N   UNL A   1      42.751  26.790  27.945  1.00  0.00    -0.248 NA
ATOM     42  C   UNL A   1      41.209  25.040  28.026  1.00  0.00     0.031 C 
ATOM     43  C   UNL A   1      45.833  23.962  26.376  1.00  0.00     0.029 A 
ATOM     44  N   UNL A   1      45.440  26.057  27.050  1.00  0.00    -0.354 N 
ATOM     45  C   UNL A   1      41.525  27.279  28.378  1.00  0.00     0.074 A 
ATOM     46  C   UNL A   1      40.598  26.169  28.357  1.00  0.00     0.031 C 
ATOM     47  C   UNL A   1      46.972  24.656  26.221  1.00  0.00     0.029 A 
ATOM     48  C   UNL A   1      46.746  26.041  26.625  1.00  0.00     0.049 A 
ATOM     49  H   UNL A   1      45.000  26.861  27.409  1.00  0.00     0.167 HD
ATOM     50  C   UNL A   1      41.205  28.535  28.772  1.00  0.00     0.037 A 
ATOM     51  C   UNL A   1      47.656  27.032  26.558  1.00  0.00     0.037 A 
ATOM     52  C   UNL A   1      42.137  29.631  28.832  1.00  0.00     0.049 A 
ATOM     53  C   UNL A   1      47.282  28.415  27.016  1.00  0.00     0.074 A 
ATOM     54  C   UNL A   1      41.924  30.920  29.292  1.00  0.00     0.029 A 
ATOM     55  N   UNL A   1      43.459  29.567  28.421  1.00  0.00    -0.354 N 
ATOM     56  N   UNL A   1      46.136  28.851  27.480  1.00  0.00    -0.248 NA
ATOM     57  C   UNL A   1      48.330  29.444  26.945  1.00  0.00     0.031 C 
ATOM     58  C   UNL A   1      43.108  31.646  29.122  1.00  0.00     0.029 A 
ATOM     59  C   UNL A   1      44.070  30.799  28.597  1.00  0.00     0.049 A 
ATOM     60  H   UNL A   1      43.900  28.765  28.058  1.00  0.00     0.167 HD
ATOM     61  C   UNL A   1      46.329  30.193  27.777  1.00  0.00     0.074 A 
ATOM     62  C   UNL A   1      47.706  30.499  27.452  1.00  0.00     0.031 C 
ATOM     63  C   UNL A   1      45.443  31.089  28.275  1.00  0.00     0.037 A 
BRANCH  50  64
ATOM     64  C   UNL A   1      39.782  28.795  29.170  1.00  0.00     0.064 A 
ATOM     65  C   UNL A   1      39.347  28.632  30.494  1.00  0.00     0.173 A 
ATOM     66  C   UNL A   1      38.850  29.244  28.223  1.00  0.00     0.173 A 
ATOM     67  F   UNL A   1      40.197  28.195  31.435  1.00  0.00    -0.203 F 
ATOM     68  C   UNL A   1      38.023  28.880  30.848  1.00  0.00     0.198 A 
ATOM     69  C   UNL A   1      37.534  29.517  28.586  1.00  0.00     0.198 A 
ATOM     70  F   UNL A   1      39.216  29.423  26.945  1.00  0.00    -0.203 F 
ATOM     71  F   UNL A   1      37.618  28.671  32.108  1.00  0.00    -0.200 F 
ATOM     72  C   UNL A   1      37.120  29.328  29.896  1.00  0.00     0.200 A 
ATOM     73  F   UNL A   1      36.665  29.962  27.667  1.00  0.00    -0.200 F 
ATOM     74  F   UNL A   1      35.846  29.569  30.239  1.00  0.00    -0.200 F 
ENDBRANCH  50  64
BRANCH  51  75
ATOM     75  C   UNL A   1      49.022  26.743  26.053  1.00  0.00     0.064 A 
ATOM     76  C   UNL A   1      49.356  26.975  24.712  1.00  0.00     0.173 A 
ATOM     77  C   UNL A   1      50.022  26.242  26.898  1.00  0.00     0.173 A 
ATOM     78  F   UNL A   1      48.426  27.434  23.861  1.00  0.00    -0.203 F 
ATOM     79  C   UNL A   1      50.636  26.706  24.232  1.00  0.00     0.198 A 
ATOM     80  C   UNL A   1      51.308  25.996  26.423  1.00  0.00     0.198 A 
ATOM     81  F   UNL A   1      49.752  26.005  28.191  1.00  0.00    -0.203 F 
ATOM     82  F   UNL A   1      50.919  26.904  22.938  1.00  0.00    -0.200 F 
ATOM     83  C   UNL A   1      51.613  26.222  25.090  1.00  0.00     0.200 A 
ATOM     84  F   UNL A   1      52.252  25.539  27.258  1.00  0.00    -0.200 F 
ATOM     85  F   UNL A   1      52.846  25.971  24.630  1.00  0.00    -0.200 F 
ENDBRANCH  51  75
BRANCH  63  86
ATOM     86  C   UNL A   1      45.939  32.482  28.526  1.00  0.00     0.064 A 
ATOM     87  C   UNL A   1      46.537  32.840  29.742  1.00  0.00     0.173 A 
ATOM     88  C   UNL A   1      45.860  33.455  27.518  1.00  0.00     0.173 A 
ATOM     89  F   UNL A   1      46.622  31.948  30.741  1.00  0.00    -0.203 F 
ATOM     90  C   UNL A   1      47.022  34.128  29.947  1.00  0.00     0.198 A 
ATOM     91  C   UNL A   1      46.368  34.736  27.718  1.00  0.00     0.198 A 
ATOM     92  F   UNL A   1      45.301  33.160  26.336  1.00  0.00    -0.203 F 
ATOM     93  F   UNL A   1      47.558  34.461  31.131  1.00  0.00    -0.200 F 
ATOM     94  C   UNL A   1      46.944  35.073  28.934  1.00  0.00     0.200 A 
ATOM     95  F   UNL A   1      46.302  35.644  26.735  1.00  0.00    -0.200 F 
ATOM     96  F   UNL A   1      47.420  36.310  29.130  1.00  0.00    -0.200 F 
ENDBRANCH  63  86
ENDBRANCH  37  38
ENDBRANCH  29  32
ENDBRANCH  27  28
ENDBRANCH  26  27
ENDBRANCH  25  26
ENDBRANCH   1  25
TORSDOF 15
ENDMDL
MODEL 2
REMARK VINA RESULT:     -11.8      6.359     10.826
REMARK SMILES Cc1ccc(Cl)c(Nc2ccccc2C(=O)NCCCCCCNC(=O)c2ccc(-c3c4nc(c(-c5c(F)c(F)c(F)c(F)c5F)c5ccc([nH]5)c(-c5c(F)c(F)c(F)c(F)c5F)c5nc(c(-c6c(F)c(F)c(F)c(F)c6F)c6ccc3[nH]6)C=C5)C=C4)cc2)c1Cl
REMARK SMILES IDX 20 1 19 2 18 3 17 4 15 5 16 6 14 8 9 9 10 10 11 11 13 12
REMARK SMILES IDX 12 13 8 14 7 16 1 17 2 18 3 19 90 20 4 21 91 22 5 23 6 24
REMARK SMILES IDX 21 25 22 26 23 27 24 28 25 29 26 31 27 32 28 33 89 34 29 35
REMARK SMILES IDX 88 36 30 37 31 38 32 39 82 40 33 41 87 42 81 43 83 44 34 45
REMARK SMILES IDX 86 46 80 47 79 48 35 50 67 51 47 52 66 53 48 54 51 55 65 56
REMARK SMILES IDX 84 57 49 58 50 59 64 61 85 62 52 63 36 64 37 65 45 66 38 67
REMARK SMILES IDX 39 68 43 69 46 70 40 71 41 72 44 73 42 74 68 75 69 76 77 77
REMARK SMILES IDX 70 78 71 79 75 80 78 81 72 82 73 83 76 84 74 85 53 86 54 87
REMARK SMILES IDX 62 88 55 89 56 90 60 91 63 92 57 93 58 94 61 95 59 96
REMARK H PARENT 17 7 8 15 24 30 83 49 51 60
REMARK Flexibility Score: inf
ROOT
ATOM      1  C   UNL A   1      34.800  32.647  28.022  1.00  0.00     0.002 C 
ENDROOT
BRANCH   1   2
ATOM      2  C   UNL A   1      33.536  31.809  27.774  1.00  0.00     0.021 C 
BRANCH   2   3
ATOM      3  C   UNL A   1      33.730  30.392  27.238  1.00  0.00     0.116 C 
BRANCH   3   4
ATOM      4  N   UNL A   1      32.702  29.460  27.627  1.00  0.00    -0.352 N 
ATOM      5  C   UNL A   1      32.279  28.298  27.030  1.00  0.00     0.253 C 
ATOM      6  O   UNL A   1      31.401  27.657  27.614  1.00  0.00    -0.269 OA
ATOM      7  H   UNL A   1      32.224  29.695  28.456  1.00  0.00     0.163 HD
BRANCH   5   8
ATOM      8  C   UNL A   1      32.728  27.838  25.680  1.00  0.00     0.063 A 
ATOM      9  C   UNL A   1      33.260  26.582  25.322  1.00  0.00     0.051 A 
ATOM     10  C   UNL A   1      33.657  26.391  23.974  1.00  0.00     0.027 A 
ATOM     11  C   UNL A   1      33.475  27.370  22.997  1.00  0.00     0.002 A 
ATOM     12  C   UNL A   1      32.533  28.810  24.669  1.00  0.00     0.016 A 
ATOM     13  C   UNL A   1      32.892  28.576  23.342  1.00  0.00     0.001 A 
BRANCH   9  14
ATOM     14  N   UNL A   1      33.342  25.423  26.119  1.00  0.00    -0.352 N 
ATOM     15  H   UNL A   1      33.368  25.626  27.083  1.00  0.00     0.167 HD
BRANCH  14  16
ATOM     16  C   UNL A   1      33.395  24.034  25.852  1.00  0.00     0.077 A 
ATOM     17  C   UNL A   1      35.721  21.228  24.638  1.00  0.00     0.046 C 
ATOM     18  C   UNL A   1      34.489  21.987  25.050  1.00  0.00    -0.030 A 
ATOM     19  C   UNL A   1      33.240  21.357  24.944  1.00  0.00     0.006 A 
ATOM     20  C   UNL A   1      34.564  23.307  25.551  1.00  0.00     0.069 A 
ATOM     21  C   UNL A   1      32.086  22.016  25.347  1.00  0.00     0.023 A 
ATOM     22  Cl  UNL A   1      36.134  23.936  25.961  1.00  0.00    -0.082 Cl
ATOM     23  C   UNL A   1      32.164  23.334  25.794  1.00  0.00     0.066 A 
ATOM     24  Cl  UNL A   1      30.680  24.120  26.242  1.00  0.00    -0.082 Cl
ENDBRANCH  14  16
ENDBRANCH   9  14
ENDBRANCH   5   8
ENDBRANCH   3   4
ENDBRANCH   2   3
ENDBRANCH   1   2
BRANCH   1  25
ATOM     25  C   UNL A   1      34.665  33.947  28.822  1.00  0.00     0.002 C 
BRANCH  25  26
ATOM     26  C   UNL A   1      33.303  34.641  28.813  1.00  0.00     0.021 C 
BRANCH  26  27
ATOM     27  C   UNL A   1      33.270  36.108  29.227  1.00  0.00     0.116 C 
BRANCH  27  28
ATOM     28  N   UNL A   1      32.464  36.351  30.409  1.00  0.00    -0.352 N 
ATOM     29  C   UNL A   1      32.630  35.922  31.702  1.00  0.00     0.251 C 
ATOM     30  H   UNL A   1      31.669  36.915  30.259  1.00  0.00     0.163 HD
ATOM     31  O   UNL A   1      31.748  36.158  32.532  1.00  0.00    -0.269 OA
BRANCH  29  32
ATOM     32  C   UNL A   1      33.830  35.160  32.125  1.00  0.00     0.039 A 
ATOM     33  C   UNL A   1      33.658  33.846  32.581  1.00  0.00     0.014 A 
ATOM     34  C   UNL A   1      35.108  35.725  32.135  1.00  0.00     0.014 A 
ATOM     35  C   UNL A   1      34.761  33.091  32.993  1.00  0.00     0.010 A 
ATOM     36  C   UNL A   1      36.217  34.951  32.481  1.00  0.00     0.010 A 
ATOM     37  C   UNL A   1      36.056  33.628  32.923  1.00  0.00    -0.014 A 
BRANCH  37  38
ATOM     38  C   UNL A   1      37.246  32.833  33.326  1.00  0.00     0.031 A 
ATOM     39  C   UNL A   1      37.945  33.122  34.627  1.00  0.00     0.074 A 
ATOM     40  C   UNL A   1      37.742  31.893  32.497  1.00  0.00     0.049 A 
ATOM     41  N   UNL A   1      39.048  32.607  35.109  1.00  0.00    -0.248 NA
ATOM     42  C   UNL A   1      37.334  34.146  35.487  1.00  0.00     0.031 C 
ATOM     43  C   UNL A   1      37.185  31.538  31.192  1.00  0.00     0.029 A 
ATOM     44  N   UNL A   1      38.839  31.076  32.623  1.00  0.00    -0.354 N 
ATOM     45  C   UNL A   1      39.276  33.261  36.313  1.00  0.00     0.074 A 
ATOM     46  C   UNL A   1      38.220  34.237  36.469  1.00  0.00     0.031 C 
ATOM     47  C   UNL A   1      37.935  30.571  30.642  1.00  0.00     0.029 A 
ATOM     48  C   UNL A   1      39.046  30.260  31.538  1.00  0.00     0.049 A 
ATOM     49  H   UNL A   1      39.421  31.075  33.417  1.00  0.00     0.167 HD
ATOM     50  C   UNL A   1      40.268  33.057  37.214  1.00  0.00     0.037 A 
ATOM     51  C   UNL A   1      40.027  29.371  31.287  1.00  0.00     0.037 A 
ATOM     52  C   UNL A   1      41.296  32.059  37.079  1.00  0.00     0.049 A 
ATOM     53  C   UNL A   1      41.108  29.151  32.309  1.00  0.00     0.074 A 
ATOM     54  C   UNL A   1      42.298  31.725  37.976  1.00  0.00     0.029 A 
ATOM     55  N   UNL A   1      41.455  31.233  35.977  1.00  0.00    -0.354 N 
ATOM     56  N   UNL A   1      41.279  29.733  33.470  1.00  0.00    -0.248 NA
ATOM     57  C   UNL A   1      42.130  28.144  31.987  1.00  0.00     0.031 C 
ATOM     58  C   UNL A   1      43.085  30.723  37.400  1.00  0.00     0.029 A 
ATOM     59  C   UNL A   1      42.550  30.403  36.163  1.00  0.00     0.049 A 
ATOM     60  H   UNL A   1      40.876  31.234  35.182  1.00  0.00     0.167 HD
ATOM     61  C   UNL A   1      42.410  29.152  34.027  1.00  0.00     0.074 A 
ATOM     62  C   UNL A   1      42.880  28.162  33.082  1.00  0.00     0.031 C 
ATOM     63  C   UNL A   1      43.004  29.417  35.216  1.00  0.00     0.037 A 
BRANCH  50  64
ATOM     64  C   UNL A   1      40.290  33.935  38.431  1.00  0.00     0.064 A 
ATOM     65  C   UNL A   1      41.033  35.123  38.469  1.00  0.00     0.173 A 
ATOM     66  C   UNL A   1      39.531  33.599  39.562  1.00  0.00     0.173 A 
ATOM     67  F   UNL A   1      41.784  35.484  37.416  1.00  0.00    -0.203 F 
ATOM     68  C   UNL A   1      41.041  35.928  39.605  1.00  0.00     0.198 A 
ATOM     69  C   UNL A   1      39.519  34.419  40.687  1.00  0.00     0.198 A 
ATOM     70  F   UNL A   1      38.796  32.476  39.575  1.00  0.00    -0.203 F 
ATOM     71  F   UNL A   1      41.797  37.033  39.636  1.00  0.00    -0.200 F 
ATOM     72  C   UNL A   1      40.279  35.579  40.710  1.00  0.00     0.200 A 
ATOM     73  F   UNL A   1      38.773  34.087  41.750  1.00  0.00    -0.200 F 
ATOM     74  F   UNL A   1      40.285  36.356  41.803  1.00  0.00    -0.200 F 
ENDBRANCH  50  64
BRANCH  51  75
ATOM     75  C   UNL A   1      40.016  28.605  30.015  1.00  0.00     0.064 A 
ATOM     76  C   UNL A   1      40.606  29.128  28.856  1.00  0.00     0.173 A 
ATOM     77  C   UNL A   1      39.430  27.334  29.933  1.00  0.00     0.173 A 
ATOM     78  F   UNL A   1      41.160  30.350  28.881  1.00  0.00    -0.203 F 
ATOM     79  C   UNL A   1      40.600  28.414  27.660  1.00  0.00     0.198 A 
ATOM     80  C   UNL A   1      39.446  26.611  28.743  1.00  0.00     0.198 A 
ATOM     81  F   UNL A   1      38.855  26.789  31.016  1.00  0.00    -0.203 F 
ATOM     82  F   UNL A   1      41.139  28.953  26.558  1.00  0.00    -0.200 F 
ATOM     83  C   UNL A   1      40.025  27.153  27.606  1.00  0.00     0.200 A 
ATOM     84  F   UNL A   1      38.900  25.387  28.698  1.00  0.00    -0.200 F 
ATOM     85  F   UNL A   1      40.026  26.464  26.458  1.00  0.00    -0.200 F 
ENDBRANCH  51  75
BRANCH  63  86
ATOM     86  C   UNL A   1      44.213  28.607  35.578  1.00  0.00     0.064 A 
ATOM     87  C   UNL A   1      45.502  29.005  35.200  1.00  0.00     0.173 A 
ATOM     88  C   UNL A   1      44.082  27.445  36.354  1.00  0.00     0.173 A 
ATOM     89  F   UNL A   1      45.677  30.100  34.445  1.00  0.00    -0.203 F 
ATOM     90  C   UNL A   1      46.618  28.259  35.572  1.00  0.00     0.198 A 
ATOM     91  C   UNL A   1      45.201  26.714  36.744  1.00  0.00     0.198 A 
ATOM     92  F   UNL A   1      42.869  27.025  36.744  1.00  0.00    -0.203 F 
ATOM     93  F   UNL A   1      47.839  28.637  35.170  1.00  0.00    -0.200 F 
ATOM     94  C   UNL A   1      46.468  27.120  36.349  1.00  0.00     0.200 A 
ATOM     95  F   UNL A   1      45.055  25.621  37.504  1.00  0.00    -0.200 F 
ATOM     96  F   UNL A   1      47.543  26.408  36.714  1.00  0.00    -0.200 F 
ENDBRANCH  63  86
ENDBRANCH  37  38
ENDBRANCH  29  32
ENDBRANCH  27  28
ENDBRANCH  26  27
ENDBRANCH  25  26
ENDBRANCH   1  25
TORSDOF 15
ENDMDL
MODEL 3
REMARK VINA RESULT:     -11.8      0.847      2.120
REMARK SMILES Cc1ccc(Cl)c(Nc2ccccc2C(=O)NCCCCCCNC(=O)c2ccc(-c3c4nc(c(-c5c(F)c(F)c(F)c(F)c5F)c5ccc([nH]5)c(-c5c(F)c(F)c(F)c(F)c5F)c5nc(c(-c6c(F)c(F)c(F)c(F)c6F)c6ccc3[nH]6)C=C5)C=C4)cc2)c1Cl
REMARK SMILES IDX 20 1 19 2 18 3 17 4 15 5 16 6 14 8 9 9 10 10 11 11 13 12
REMARK SMILES IDX 12 13 8 14 7 16 1 17 2 18 3 19 90 20 4 21 91 22 5 23 6 24
REMARK SMILES IDX 21 25 22 26 23 27 24 28 25 29 26 31 27 32 28 33 89 34 29 35
REMARK SMILES IDX 88 36 30 37 31 38 32 39 82 40 33 41 87 42 81 43 83 44 34 45
REMARK SMILES IDX 86 46 80 47 79 48 35 50 67 51 47 52 66 53 48 54 51 55 65 56
REMARK SMILES IDX 84 57 49 58 50 59 64 61 85 62 52 63 36 64 37 65 45 66 38 67
REMARK SMILES IDX 39 68 43 69 46 70 40 71 41 72 44 73 42 74 68 75 69 76 77 77
REMARK SMILES IDX 70 78 71 79 75 80 78 81 72 82 73 83 76 84 74 85 53 86 54 87
REMARK SMILES IDX 62 88 55 89 56 90 60 91 63 92 57 93 58 94 61 95 59 96
REMARK H PARENT 17 7 8 15 24 30 83 49 51 60
REMARK Flexibility Score: inf
ROOT
ATOM      1  C   UNL A   1      36.052  21.768  24.755  1.00  0.00     0.002 C 
ENDROOT
BRANCH   1   2
ATOM      2  C   UNL A   1      35.984  23.110  25.500  1.00  0.00     0.021 C 
BRANCH   2   3
ATOM      3  C   UNL A   1      35.224  24.249  24.823  1.00  0.00     0.116 C 
BRANCH   3   4
ATOM      4  N   UNL A   1      34.784  23.959  23.481  1.00  0.00    -0.352 N 
ATOM      5  C   UNL A   1      33.664  24.371  22.801  1.00  0.00     0.253 C 
ATOM      6  O   UNL A   1      33.560  24.010  21.626  1.00  0.00    -0.269 OA
ATOM      7  H   UNL A   1      35.385  23.370  22.968  1.00  0.00     0.163 HD
BRANCH   5   8
ATOM      8  C   UNL A   1      32.529  25.115  23.428  1.00  0.00     0.063 A 
ATOM      9  C   UNL A   1      31.384  24.586  24.058  1.00  0.00     0.051 A 
ATOM     10  C   UNL A   1      30.415  25.499  24.544  1.00  0.00     0.027 A 
ATOM     11  C   UNL A   1      30.593  26.880  24.481  1.00  0.00     0.002 A 
ATOM     12  C   UNL A   1      32.701  26.520  23.392  1.00  0.00     0.016 A 
ATOM     13  C   UNL A   1      31.751  27.393  23.921  1.00  0.00     0.001 A 
BRANCH   9  14
ATOM     14  N   UNL A   1      31.125  23.239  24.380  1.00  0.00    -0.352 N 
ATOM     15  H   UNL A   1      30.163  23.023  24.363  1.00  0.00     0.167 HD
BRANCH  14  16
ATOM     16  C   UNL A   1      31.929  22.125  24.722  1.00  0.00     0.077 A 
ATOM     17  C   UNL A   1      32.921  18.591  23.586  1.00  0.00     0.046 C 
ATOM     18  C   UNL A   1      32.755  19.832  24.421  1.00  0.00    -0.030 A 
ATOM     19  C   UNL A   1      33.225  19.825  25.743  1.00  0.00     0.006 A 
ATOM     20  C   UNL A   1      32.153  21.001  23.902  1.00  0.00     0.069 A 
ATOM     21  C   UNL A   1      33.118  20.963  26.532  1.00  0.00     0.023 A 
ATOM     22  Cl  UNL A   1      31.872  21.080  22.186  1.00  0.00    -0.082 Cl
ATOM     23  C   UNL A   1      32.480  22.095  26.027  1.00  0.00     0.066 A 
ATOM     24  Cl  UNL A   1      32.339  23.473  27.076  1.00  0.00    -0.082 Cl
ENDBRANCH  14  16
ENDBRANCH   9  14
ENDBRANCH   5   8
ENDBRANCH   3   4
ENDBRANCH   2   3
ENDBRANCH   1   2
BRANCH   1  25
ATOM     25  C   UNL A   1      37.427  21.246  24.324  1.00  0.00     0.002 C 
BRANCH  25  26
ATOM     26  C   UNL A   1      37.927  19.957  24.977  1.00  0.00     0.021 C 
BRANCH  26  27
ATOM     27  C   UNL A   1      38.920  20.101  26.124  1.00  0.00     0.116 C 
BRANCH  27  28
ATOM     28  N   UNL A   1      40.049  19.196  26.022  1.00  0.00    -0.352 N 
ATOM     29  C   UNL A   1      41.397  19.446  26.096  1.00  0.00     0.251 C 
ATOM     30  H   UNL A   1      39.811  18.251  25.875  1.00  0.00     0.163 HD
ATOM     31  O   UNL A   1      42.192  18.530  25.863  1.00  0.00    -0.269 OA
BRANCH  29  32
ATOM     32  C   UNL A   1      41.927  20.792  26.423  1.00  0.00     0.039 A 
ATOM     33  C   UNL A   1      42.131  21.700  25.376  1.00  0.00     0.014 A 
ATOM     34  C   UNL A   1      42.279  21.159  27.725  1.00  0.00     0.014 A 
ATOM     35  C   UNL A   1      42.632  22.980  25.638  1.00  0.00     0.010 A 
ATOM     36  C   UNL A   1      42.714  22.458  27.996  1.00  0.00     0.010 A 
ATOM     37  C   UNL A   1      42.904  23.380  26.955  1.00  0.00    -0.014 A 
BRANCH  37  38
ATOM     38  C   UNL A   1      43.408  24.746  27.260  1.00  0.00     0.031 A 
ATOM     39  C   UNL A   1      42.478  25.789  27.817  1.00  0.00     0.074 A 
ATOM     40  C   UNL A   1      44.684  25.072  26.978  1.00  0.00     0.049 A 
ATOM     41  N   UNL A   1      42.701  27.057  28.059  1.00  0.00    -0.248 NA
ATOM     42  C   UNL A   1      41.107  25.353  28.118  1.00  0.00     0.031 C 
ATOM     43  C   UNL A   1      45.680  24.169  26.401  1.00  0.00     0.029 A 
ATOM     44  N   UNL A   1      45.358  26.261  27.122  1.00  0.00    -0.354 N 
ATOM     45  C   UNL A   1      41.495  27.574  28.514  1.00  0.00     0.074 A 
ATOM     46  C   UNL A   1      40.533  26.493  28.478  1.00  0.00     0.031 C 
ATOM     47  C   UNL A   1      46.838  24.831  26.249  1.00  0.00     0.029 A 
ATOM     48  C   UNL A   1      46.659  26.214  26.685  1.00  0.00     0.049 A 
ATOM     49  H   UNL A   1      44.946  27.070  27.503  1.00  0.00     0.167 HD
ATOM     50  C   UNL A   1      41.218  28.831  28.937  1.00  0.00     0.037 A 
ATOM     51  C   UNL A   1      47.598  27.178  26.629  1.00  0.00     0.037 A 
ATOM     52  C   UNL A   1      42.183  29.895  29.012  1.00  0.00     0.049 A 
ATOM     53  C   UNL A   1      47.271  28.562  27.119  1.00  0.00     0.074 A 
ATOM     54  C   UNL A   1      42.015  31.180  29.500  1.00  0.00     0.029 A 
ATOM     55  N   UNL A   1      43.499  29.799  28.586  1.00  0.00    -0.354 N 
ATOM     56  N   UNL A   1      46.144  29.022  27.604  1.00  0.00    -0.248 NA
ATOM     57  C   UNL A   1      48.350  29.559  27.060  1.00  0.00     0.031 C 
ATOM     58  C   UNL A   1      43.218  31.873  29.335  1.00  0.00     0.029 A 
ATOM     59  C   UNL A   1      44.149  31.008  28.782  1.00  0.00     0.049 A 
ATOM     60  H   UNL A   1      43.911  28.992  28.202  1.00  0.00     0.167 HD
ATOM     61  C   UNL A   1      46.381  30.351  27.927  1.00  0.00     0.074 A 
ATOM     62  C   UNL A   1      47.764  30.622  27.595  1.00  0.00     0.031 C 
ATOM     63  C   UNL A   1      45.528  31.263  28.453  1.00  0.00     0.037 A 
BRANCH  50  64
ATOM     64  C   UNL A   1      39.806  29.125  29.355  1.00  0.00     0.064 A 
ATOM     65  C   UNL A   1      38.834  29.530  28.429  1.00  0.00     0.173 A 
ATOM     66  C   UNL A   1      39.415  28.970  30.693  1.00  0.00     0.173 A 
ATOM     67  F   UNL A   1      39.161  29.703  27.139  1.00  0.00    -0.203 F 
ATOM     68  C   UNL A   1      37.528  29.797  28.833  1.00  0.00     0.198 A 
ATOM     69  C   UNL A   1      38.103  29.212  31.089  1.00  0.00     0.198 A 
ATOM     70  F   UNL A   1      40.305  28.578  31.618  1.00  0.00    -0.203 F 
ATOM     71  F   UNL A   1      36.628  30.229  27.939  1.00  0.00    -0.200 F 
ATOM     72  C   UNL A   1      37.162  29.632  30.160  1.00  0.00     0.200 A 
ATOM     73  F   UNL A   1      37.747  29.040  32.370  1.00  0.00    -0.200 F 
ATOM     74  F   UNL A   1      35.904  29.886  30.546  1.00  0.00    -0.200 F 
ENDBRANCH  50  64
BRANCH  51  75
ATOM     75  C   UNL A   1      48.950  26.858  26.105  1.00  0.00     0.064 A 
ATOM     76  C   UNL A   1      49.945  26.343  26.948  1.00  0.00     0.173 A 
ATOM     77  C   UNL A   1      49.272  27.048  24.754  1.00  0.00     0.173 A 
ATOM     78  F   UNL A   1      49.689  26.164  28.252  1.00  0.00    -0.203 F 
ATOM     79  C   UNL A   1      51.214  26.040  26.461  1.00  0.00     0.198 A 
ATOM     80  C   UNL A   1      50.535  26.723  24.264  1.00  0.00     0.198 A 
ATOM     81  F   UNL A   1      48.354  27.536  23.907  1.00  0.00    -0.203 F 
ATOM     82  F   UNL A   1      52.157  25.582  27.296  1.00  0.00    -0.200 F 
ATOM     83  C   UNL A   1      51.507  26.225  25.118  1.00  0.00     0.200 A 
ATOM     84  F   UNL A   1      50.810  26.891  22.963  1.00  0.00    -0.200 F 
ATOM     85  F   UNL A   1      52.726  25.927  24.649  1.00  0.00    -0.200 F 
ENDBRANCH  51  75
BRANCH  63  86
ATOM     86  C   UNL A   1      46.069  32.634  28.728  1.00  0.00     0.064 A 
ATOM     87  C   UNL A   1      45.979  33.663  27.781  1.00  0.00     0.173 A 
ATOM     88  C   UNL A   1      46.640  32.934  29.975  1.00  0.00     0.173 A 
ATOM     89  F   UNL A   1      45.456  33.420  26.569  1.00  0.00    -0.203 F 
ATOM     90  C   UNL A   1      46.457  34.939  28.064  1.00  0.00     0.198 A 
ATOM     91  C   UNL A   1      47.095  34.218  30.264  1.00  0.00     0.198 A 
ATOM     92  F   UNL A   1      46.745  31.985  30.917  1.00  0.00    -0.203 F 
ATOM     93  F   UNL A   1      46.394  35.899  27.131  1.00  0.00    -0.200 F 
ATOM     94  C   UNL A   1      47.007  35.218  29.307  1.00  0.00     0.200 A 
ATOM     95  F   UNL A   1      47.616  34.488  31.468  1.00  0.00    -0.200 F 
ATOM     96  F   UNL A   1      47.458  36.450  29.581  1.00  0.00    -0.200 F 
ENDBRANCH  63  86
ENDBRANCH  37  38
ENDBRANCH  29  32
ENDBRANCH  27  28
ENDBRANCH  26  27
ENDBRANCH  25  26
ENDBRANCH   1  25
TORSDOF 15
ENDMDL
