MODEL 1
REMARK VINA RESULT:     -13.1      0.000      0.000
REMARK SMILES CCN1C(=O)[C@H](CC(=O)Nc2ccc(C(=O)NCCCCCCNC(=O)c3ccc(-c4c5nc(c(-c6c(F)c(F)c(F)c(F)c6F)c6ccc([nH]6)c(-c6c(F)c(F)c(F)c(F)c6F)c6nc(c(-c7c(F)c(F)c(F)c(F)c7F)c7ccc4[nH]7)C=C6)C=C5)cc3)cc2)S/C1=[NH+]\c1ccc(Cl)cc1
REMARK SMILES IDX 19 1 18 2 17 3 15 4 16 5 14 7 11 8 12 9 91 10 13 11 90 12
REMARK SMILES IDX 10 13 8 14 9 15 7 17 6 18 3 19 4 20 93 21 5 22 92 23 94 24
REMARK SMILES IDX 2 26 1 27 95 28 96 29 101 30 97 31 100 32 98 33 99 34 20 35
REMARK SMILES IDX 21 36 22 37 23 38 24 39 25 40 26 42 27 43 28 44 89 45 29 46
REMARK SMILES IDX 88 47 30 48 31 49 32 50 82 51 33 52 87 53 81 54 83 55 34 56
REMARK SMILES IDX 86 57 80 58 79 59 35 61 67 62 47 63 66 64 48 65 51 66 65 67
REMARK SMILES IDX 84 68 49 69 50 70 64 72 85 73 52 74 36 75 37 76 45 77 38 78
REMARK SMILES IDX 39 79 43 80 46 81 40 82 41 83 44 84 42 85 68 86 69 87 77 88
REMARK SMILES IDX 70 89 71 90 75 91 78 92 72 93 73 94 76 95 74 96 53 97 54 98
REMARK SMILES IDX 62 99 55 100 56 101 60 102 63 103 57 104 58 105 61 106
REMARK SMILES IDX 59 107
REMARK H PARENT 17 6 10 16 94 25 24 41 83 60 51 71
REMARK Flexibility Score: inf
ROOT
ATOM      1  C   UNL A   1      34.758  32.761  29.201  1.00  0.00     0.021 C 
ENDROOT
BRANCH   1   2
ATOM      2  C   UNL A   1      34.633  31.888  27.949  1.00  0.00     0.116 C 
BRANCH   2   3
ATOM      3  N   UNL A   1      34.155  30.539  28.256  1.00  0.00    -0.352 N 
ATOM      4  C   UNL A   1      34.535  29.471  27.457  1.00  0.00     0.251 C 
ATOM      5  O   UNL A   1      35.713  29.179  27.290  1.00  0.00    -0.269 OA
ATOM      6  H   UNL A   1      33.564  30.391  29.028  1.00  0.00     0.163 HD
BRANCH   4   7
ATOM      7  C   UNL A   1      33.444  28.743  26.731  1.00  0.00     0.039 A 
ATOM      8  C   UNL A   1      31.671  26.890  25.573  1.00  0.00     0.041 A 
ATOM      9  C   UNL A   1      31.430  27.366  26.859  1.00  0.00     0.027 A 
ATOM     10  C   UNL A   1      32.664  27.495  24.809  1.00  0.00     0.027 A 
ATOM     11  C   UNL A   1      32.333  28.270  27.446  1.00  0.00     0.016 A 
ATOM     12  C   UNL A   1      33.547  28.423  25.377  1.00  0.00     0.016 A 
BRANCH   8  13
ATOM     13  N   UNL A   1      30.875  25.867  25.028  1.00  0.00    -0.326 N 
ATOM     14  C   UNL A   1      31.293  24.901  24.131  1.00  0.00     0.226 C 
ATOM     15  O   UNL A   1      30.569  24.561  23.197  1.00  0.00    -0.275 OA
ATOM     16  H   UNL A   1      29.932  25.837  25.310  1.00  0.00     0.169 HD
BRANCH  14  17
ATOM     17  C   UNL A   1      32.550  24.101  24.487  1.00  0.00     0.128 C 
BRANCH  17  18
ATOM     18  C   UNL A   1      33.090  23.214  23.360  1.00  0.00     0.183 C 
ATOM     19  N   UNL A   1      34.788  22.093  24.534  1.00  0.00    -0.190 N 
ATOM     20  C   UNL A   1      34.573  23.050  23.580  1.00  0.00     0.324 C 
ATOM     21  C   UNL A   1      33.976  21.009  24.411  1.00  0.00     0.319 C 
ATOM     22  O   UNL A   1      35.437  23.650  22.958  1.00  0.00    -0.245 OA
ATOM     23  S   UNL A   1      32.540  21.430  23.532  1.00  0.00    -0.022 SA
ATOM     24  N   UNL A   1      34.405  19.908  24.910  1.00  0.00    -0.235 N 
ATOM     25  H   UNL A   1      35.202  19.992  25.483  1.00  0.00     0.313 HD
BRANCH  19  26
ATOM     26  C   UNL A   1      35.973  22.024  25.361  1.00  0.00     0.243 C 
ATOM     27  C   UNL A   1      37.211  21.749  24.498  1.00  0.00     0.054 C 
ENDBRANCH  19  26
BRANCH  24  28
ATOM     28  C   UNL A   1      33.919  18.624  24.768  1.00  0.00     0.125 A 
ATOM     29  C   UNL A   1      32.802  18.288  25.540  1.00  0.00     0.053 A 
ATOM     30  C   UNL A   1      34.697  17.608  24.210  1.00  0.00     0.053 A 
ATOM     31  C   UNL A   1      32.459  16.954  25.755  1.00  0.00     0.025 A 
ATOM     32  C   UNL A   1      34.356  16.270  24.419  1.00  0.00     0.025 A 
ATOM     33  C   UNL A   1      33.243  15.949  25.196  1.00  0.00     0.041 A 
ATOM     34  Cl  UNL A   1      32.872  14.299  25.511  1.00  0.00    -0.084 Cl
ENDBRANCH  24  28
ENDBRANCH  17  18
ENDBRANCH  14  17
ENDBRANCH   8  13
ENDBRANCH   4   7
ENDBRANCH   2   3
ENDBRANCH   1   2
BRANCH   1  35
ATOM     35  C   UNL A   1      34.654  34.263  28.904  1.00  0.00     0.002 C 
BRANCH  35  36
ATOM     36  C   UNL A   1      33.239  34.840  28.800  1.00  0.00     0.002 C 
BRANCH  36  37
ATOM     37  C   UNL A   1      33.115  36.363  28.914  1.00  0.00     0.021 C 
BRANCH  37  38
ATOM     38  C   UNL A   1      33.405  36.972  30.286  1.00  0.00     0.116 C 
BRANCH  38  39
ATOM     39  N   UNL A   1      32.425  36.616  31.302  1.00  0.00    -0.352 N 
ATOM     40  C   UNL A   1      32.480  35.668  32.294  1.00  0.00     0.251 C 
ATOM     41  H   UNL A   1      31.591  37.138  31.273  1.00  0.00     0.163 HD
ATOM     42  O   UNL A   1      31.493  35.458  32.993  1.00  0.00    -0.269 OA
BRANCH  40  43
ATOM     43  C   UNL A   1      33.708  34.871  32.512  1.00  0.00     0.039 A 
ATOM     44  C   UNL A   1      34.949  35.496  32.351  1.00  0.00     0.014 A 
ATOM     45  C   UNL A   1      33.651  33.516  32.847  1.00  0.00     0.014 A 
ATOM     46  C   UNL A   1      36.127  34.783  32.595  1.00  0.00     0.010 A 
ATOM     47  C   UNL A   1      34.820  32.826  33.159  1.00  0.00     0.010 A 
ATOM     48  C   UNL A   1      36.071  33.452  33.040  1.00  0.00    -0.014 A 
BRANCH  48  49
ATOM     49  C   UNL A   1      37.307  32.708  33.396  1.00  0.00     0.031 A 
ATOM     50  C   UNL A   1      38.044  33.023  34.670  1.00  0.00     0.074 A 
ATOM     51  C   UNL A   1      37.800  31.793  32.538  1.00  0.00     0.049 A 
ATOM     52  N   UNL A   1      39.174  32.534  35.115  1.00  0.00    -0.248 NA
ATOM     53  C   UNL A   1      37.444  34.040  35.549  1.00  0.00     0.031 C 
ATOM     54  C   UNL A   1      37.201  31.429  31.252  1.00  0.00     0.029 A 
ATOM     55  N   UNL A   1      38.924  31.007  32.612  1.00  0.00    -0.354 N 
ATOM     56  C   UNL A   1      39.426  33.193  36.312  1.00  0.00     0.074 A 
ATOM     57  C   UNL A   1      38.358  34.150  36.502  1.00  0.00     0.031 C 
ATOM     58  C   UNL A   1      37.950  30.480  30.670  1.00  0.00     0.029 A 
ATOM     59  C   UNL A   1      39.105  30.198  31.516  1.00  0.00     0.049 A 
ATOM     60  H   UNL A   1      39.542  31.022  33.379  1.00  0.00     0.167 HD
ATOM     61  C   UNL A   1      40.446  33.001  37.183  1.00  0.00     0.037 A 
ATOM     62  C   UNL A   1      40.098  29.335  31.223  1.00  0.00     0.037 A 
ATOM     63  C   UNL A   1      41.491  32.026  37.005  1.00  0.00     0.049 A 
ATOM     64  C   UNL A   1      41.222  29.151  32.208  1.00  0.00     0.074 A 
ATOM     65  C   UNL A   1      42.531  31.711  37.862  1.00  0.00     0.029 A 
ATOM     66  N   UNL A   1      41.630  31.212  35.890  1.00  0.00    -0.354 N 
ATOM     67  N   UNL A   1      41.408  29.725  33.372  1.00  0.00    -0.248 NA
ATOM     68  C   UNL A   1      42.274  28.191  31.842  1.00  0.00     0.031 C 
ATOM     69  C   UNL A   1      43.331  30.748  37.242  1.00  0.00     0.029 A 
ATOM     70  C   UNL A   1      42.755  30.416  36.027  1.00  0.00     0.049 A 
ATOM     71  H   UNL A   1      41.020  31.203  35.118  1.00  0.00     0.167 HD
ATOM     72  C   UNL A   1      42.573  29.173  33.889  1.00  0.00     0.074 A 
ATOM     73  C   UNL A   1      43.042  28.205  32.921  1.00  0.00     0.031 C 
ATOM     74  C   UNL A   1      43.199  29.444  35.061  1.00  0.00     0.037 A 
BRANCH  61  75
ATOM     75  C   UNL A   1      40.488  33.854  38.419  1.00  0.00     0.064 A 
ATOM     76  C   UNL A   1      41.206  35.060  38.458  1.00  0.00     0.173 A 
ATOM     77  C   UNL A   1      39.744  33.497  39.554  1.00  0.00     0.173 A 
ATOM     78  F   UNL A   1      41.941  35.443  37.405  1.00  0.00    -0.203 F 
ATOM     79  C   UNL A   1      41.189  35.866  39.594  1.00  0.00     0.198 A 
ATOM     80  C   UNL A   1      39.705  34.321  40.676  1.00  0.00     0.198 A 
ATOM     81  F   UNL A   1      39.035  32.359  39.568  1.00  0.00    -0.203 F 
ATOM     82  F   UNL A   1      41.912  36.995  39.622  1.00  0.00    -0.200 F 
ATOM     83  C   UNL A   1      40.431  35.503  40.697  1.00  0.00     0.200 A 
ATOM     84  F   UNL A   1      38.960  33.976  41.734  1.00  0.00    -0.200 F 
ATOM     85  F   UNL A   1      40.404  36.289  41.782  1.00  0.00    -0.200 F 
ENDBRANCH  61  75
BRANCH  62  86
ATOM     86  C   UNL A   1      40.076  28.572  29.945  1.00  0.00     0.064 A 
ATOM     87  C   UNL A   1      39.457  27.316  29.864  1.00  0.00     0.173 A 
ATOM     88  C   UNL A   1      40.703  29.063  28.790  1.00  0.00     0.173 A 
ATOM     89  F   UNL A   1      38.860  26.793  30.946  1.00  0.00    -0.203 F 
ATOM     90  C   UNL A   1      39.500  26.565  28.691  1.00  0.00     0.198 A 
ATOM     91  C   UNL A   1      40.716  28.326  27.608  1.00  0.00     0.198 A 
ATOM     92  F   UNL A   1      41.304  30.262  28.808  1.00  0.00    -0.203 F 
ATOM     93  F   UNL A   1      38.960  25.339  28.664  1.00  0.00    -0.200 F 
ATOM     94  C   UNL A   1      40.127  27.071  27.562  1.00  0.00     0.200 A 
ATOM     95  F   UNL A   1      41.311  28.826  26.516  1.00  0.00    -0.200 F 
ATOM     96  F   UNL A   1      40.176  26.345  26.438  1.00  0.00    -0.200 F 
ENDBRANCH  62  86
BRANCH  74  97
ATOM     97  C   UNL A   1      44.434  28.651  35.384  1.00  0.00     0.064 A 
ATOM     98  C   UNL A   1      44.370  27.421  36.054  1.00  0.00     0.173 A 
ATOM     99  C   UNL A   1      45.696  29.112  34.977  1.00  0.00     0.173 A 
ATOM    100  F   UNL A   1      43.189  26.942  36.475  1.00  0.00    -0.203 F 
ATOM    101  C   UNL A   1      45.526  26.696  36.332  1.00  0.00     0.198 A 
ATOM    102  C   UNL A   1      46.846  28.367  35.226  1.00  0.00     0.198 A 
ATOM    103  F   UNL A   1      45.814  30.278  34.324  1.00  0.00    -0.203 F 
ATOM    104  F   UNL A   1      45.445  25.550  37.021  1.00  0.00    -0.200 F 
ATOM    105  C   UNL A   1      46.761  27.165  35.911  1.00  0.00     0.200 A 
ATOM    106  F   UNL A   1      48.037  28.814  34.802  1.00  0.00    -0.200 F 
ATOM    107  F   UNL A   1      47.870  26.461  36.172  1.00  0.00    -0.200 F 
ENDBRANCH  74  97
ENDBRANCH  48  49
ENDBRANCH  40  43
ENDBRANCH  38  39
ENDBRANCH  37  38
ENDBRANCH  36  37
ENDBRANCH  35  36
ENDBRANCH   1  35
TORSDOF 18
ENDMDL
MODEL 2
REMARK VINA RESULT:     -12.9      0.619      6.969
REMARK SMILES CCN1C(=O)[C@H](CC(=O)Nc2ccc(C(=O)NCCCCCCNC(=O)c3ccc(-c4c5nc(c(-c6c(F)c(F)c(F)c(F)c6F)c6ccc([nH]6)c(-c6c(F)c(F)c(F)c(F)c6F)c6nc(c(-c7c(F)c(F)c(F)c(F)c7F)c7ccc4[nH]7)C=C6)C=C5)cc3)cc2)S/C1=[NH+]\c1ccc(Cl)cc1
REMARK SMILES IDX 19 1 18 2 17 3 15 4 16 5 14 7 11 8 12 9 91 10 13 11 90 12
REMARK SMILES IDX 10 13 8 14 9 15 7 17 6 18 3 19 4 20 93 21 5 22 92 23 94 24
REMARK SMILES IDX 2 26 1 27 95 28 96 29 101 30 97 31 100 32 98 33 99 34 20 35
REMARK SMILES IDX 21 36 22 37 23 38 24 39 25 40 26 42 27 43 28 44 89 45 29 46
REMARK SMILES IDX 88 47 30 48 31 49 32 50 82 51 33 52 87 53 81 54 83 55 34 56
REMARK SMILES IDX 86 57 80 58 79 59 35 61 67 62 47 63 66 64 48 65 51 66 65 67
REMARK SMILES IDX 84 68 49 69 50 70 64 72 85 73 52 74 36 75 37 76 45 77 38 78
REMARK SMILES IDX 39 79 43 80 46 81 40 82 41 83 44 84 42 85 68 86 69 87 77 88
REMARK SMILES IDX 70 89 71 90 75 91 78 92 72 93 73 94 76 95 74 96 53 97 54 98
REMARK SMILES IDX 62 99 55 100 56 101 60 102 63 103 57 104 58 105 61 106
REMARK SMILES IDX 59 107
REMARK H PARENT 17 6 10 16 94 25 24 41 83 60 51 71
REMARK Flexibility Score: inf
ROOT
ATOM      1  C   UNL A   1      34.740  32.717  29.326  1.00  0.00     0.021 C 
ENDROOT
BRANCH   1   2
ATOM      2  C   UNL A   1      34.923  31.806  28.108  1.00  0.00     0.116 C 
BRANCH   2   3
ATOM      3  N   UNL A   1      34.379  30.466  28.329  1.00  0.00    -0.352 N 
ATOM      4  C   UNL A   1      34.722  29.430  27.474  1.00  0.00     0.251 C 
ATOM      5  O   UNL A   1      35.887  29.092  27.306  1.00  0.00    -0.269 OA
ATOM      6  H   UNL A   1      33.769  30.301  29.083  1.00  0.00     0.163 HD
BRANCH   4   7
ATOM      7  C   UNL A   1      33.610  28.797  26.691  1.00  0.00     0.039 A 
ATOM      8  C   UNL A   1      31.818  27.104  25.335  1.00  0.00     0.041 A 
ATOM      9  C   UNL A   1      31.631  27.363  26.691  1.00  0.00     0.027 A 
ATOM     10  C   UNL A   1      32.760  27.849  24.633  1.00  0.00     0.027 A 
ATOM     11  C   UNL A   1      32.545  28.186  27.373  1.00  0.00     0.016 A 
ATOM     12  C   UNL A   1      33.652  28.699  25.301  1.00  0.00     0.016 A 
BRANCH   8  13
ATOM     13  N   UNL A   1      31.015  26.160  24.671  1.00  0.00    -0.326 N 
ATOM     14  C   UNL A   1      31.456  25.204  23.773  1.00  0.00     0.226 C 
ATOM     15  O   UNL A   1      30.805  24.953  22.761  1.00  0.00    -0.275 OA
ATOM     16  H   UNL A   1      30.049  26.180  24.862  1.00  0.00     0.169 HD
BRANCH  14  17
ATOM     17  C   UNL A   1      32.621  24.309  24.206  1.00  0.00     0.128 C 
BRANCH  17  18
ATOM     18  C   UNL A   1      33.149  23.368  23.118  1.00  0.00     0.183 C 
ATOM     19  N   UNL A   1      34.781  22.223  24.361  1.00  0.00    -0.190 N 
ATOM     20  C   UNL A   1      34.620  23.157  23.373  1.00  0.00     0.324 C 
ATOM     21  C   UNL A   1      33.932  21.166  24.255  1.00  0.00     0.319 C 
ATOM     22  O   UNL A   1      35.518  23.705  22.751  1.00  0.00    -0.245 OA
ATOM     23  S   UNL A   1      32.531  21.611  23.334  1.00  0.00    -0.022 SA
ATOM     24  N   UNL A   1      34.310  20.067  24.797  1.00  0.00    -0.235 N 
ATOM     25  H   UNL A   1      35.099  20.140  25.383  1.00  0.00     0.313 HD
BRANCH  19  26
ATOM     26  C   UNL A   1      35.948  22.138  25.213  1.00  0.00     0.243 C 
ATOM     27  C   UNL A   1      36.041  23.374  26.116  1.00  0.00     0.054 C 
ENDBRANCH  19  26
BRANCH  24  28
ATOM     28  C   UNL A   1      33.781  18.798  24.685  1.00  0.00     0.125 A 
ATOM     29  C   UNL A   1      32.842  18.423  25.653  1.00  0.00     0.053 A 
ATOM     30  C   UNL A   1      34.405  17.813  23.918  1.00  0.00     0.053 A 
ATOM     31  C   UNL A   1      32.526  17.081  25.857  1.00  0.00     0.025 A 
ATOM     32  C   UNL A   1      34.087  16.467  24.115  1.00  0.00     0.025 A 
ATOM     33  C   UNL A   1      33.155  16.107  25.088  1.00  0.00     0.041 A 
ATOM     34  Cl  UNL A   1      32.826  14.443  25.377  1.00  0.00    -0.084 Cl
ENDBRANCH  24  28
ENDBRANCH  17  18
ENDBRANCH  14  17
ENDBRANCH   8  13
ENDBRANCH   4   7
ENDBRANCH   2   3
ENDBRANCH   1   2
BRANCH   1  35
ATOM     35  C   UNL A   1      34.649  34.205  28.960  1.00  0.00     0.002 C 
BRANCH  35  36
ATOM     36  C   UNL A   1      33.256  34.732  28.598  1.00  0.00     0.002 C 
BRANCH  36  37
ATOM     37  C   UNL A   1      33.039  36.241  28.753  1.00  0.00     0.021 C 
BRANCH  37  38
ATOM     38  C   UNL A   1      33.293  36.829  30.141  1.00  0.00     0.116 C 
BRANCH  38  39
ATOM     39  N   UNL A   1      32.305  36.432  31.133  1.00  0.00    -0.352 N 
ATOM     40  C   UNL A   1      32.396  35.528  32.163  1.00  0.00     0.251 C 
ATOM     41  H   UNL A   1      31.433  36.882  31.053  1.00  0.00     0.163 HD
ATOM     42  O   UNL A   1      31.403  35.263  32.834  1.00  0.00    -0.269 OA
BRANCH  40  43
ATOM     43  C   UNL A   1      33.676  34.843  32.458  1.00  0.00     0.039 A 
ATOM     44  C   UNL A   1      34.868  35.561  32.314  1.00  0.00     0.014 A 
ATOM     45  C   UNL A   1      33.714  33.503  32.849  1.00  0.00     0.014 A 
ATOM     46  C   UNL A   1      36.088  34.956  32.628  1.00  0.00     0.010 A 
ATOM     47  C   UNL A   1      34.923  32.924  33.231  1.00  0.00     0.010 A 
ATOM     48  C   UNL A   1      36.122  33.644  33.128  1.00  0.00    -0.014 A 
BRANCH  48  49
ATOM     49  C   UNL A   1      37.400  33.019  33.559  1.00  0.00     0.031 A 
ATOM     50  C   UNL A   1      38.086  32.008  32.679  1.00  0.00     0.074 A 
ATOM     51  C   UNL A   1      37.908  33.315  34.771  1.00  0.00     0.049 A 
ATOM     52  N   UNL A   1      39.164  31.304  32.913  1.00  0.00    -0.248 NA
ATOM     53  C   UNL A   1      37.464  31.734  31.374  1.00  0.00     0.031 C 
ATOM     54  C   UNL A   1      37.313  34.246  35.733  1.00  0.00     0.029 A 
ATOM     55  N   UNL A   1      39.035  32.857  35.409  1.00  0.00    -0.354 N 
ATOM     56  C   UNL A   1      39.339  30.496  31.796  1.00  0.00     0.074 A 
ATOM     57  C   UNL A   1      38.232  30.761  30.904  1.00  0.00     0.031 C 
ATOM     58  C   UNL A   1      38.090  34.306  36.826  1.00  0.00     0.029 A 
ATOM     59  C   UNL A   1      39.212  33.386  36.665  1.00  0.00     0.049 A 
ATOM     60  H   UNL A   1      39.657  32.210  35.004  1.00  0.00     0.167 HD
ATOM     61  C   UNL A   1      40.345  29.628  31.530  1.00  0.00     0.037 A 
ATOM     62  C   UNL A   1      40.166  33.147  37.586  1.00  0.00     0.037 A 
ATOM     63  C   UNL A   1      41.462  29.390  32.408  1.00  0.00     0.049 A 
ATOM     64  C   UNL A   1      41.266  32.169  37.264  1.00  0.00     0.074 A 
ATOM     65  C   UNL A   1      42.564  28.580  32.199  1.00  0.00     0.029 A 
ATOM     66  N   UNL A   1      41.616  29.959  33.663  1.00  0.00    -0.354 N 
ATOM     67  N   UNL A   1      41.461  31.470  36.172  1.00  0.00    -0.248 NA
ATOM     68  C   UNL A   1      42.285  31.953  38.301  1.00  0.00     0.031 C 
ATOM     69  C   UNL A   1      43.356  28.613  33.350  1.00  0.00     0.029 A 
ATOM     70  C   UNL A   1      42.781  29.494  34.251  1.00  0.00     0.049 A 
ATOM     71  H   UNL A   1      40.990  30.597  34.074  1.00  0.00     0.167 HD
ATOM     72  C   UNL A   1      42.637  30.761  36.378  1.00  0.00     0.074 A 
ATOM     73  C   UNL A   1      43.122  31.127  37.691  1.00  0.00     0.031 C 
ATOM     74  C   UNL A   1      43.260  29.883  35.552  1.00  0.00     0.037 A 
BRANCH  61  75
ATOM     75  C   UNL A   1      40.298  28.869  30.235  1.00  0.00     0.064 A 
ATOM     76  C   UNL A   1      39.620  27.645  30.121  1.00  0.00     0.173 A 
ATOM     77  C   UNL A   1      40.877  29.408  29.075  1.00  0.00     0.173 A 
ATOM     78  F   UNL A   1      39.058  27.082  31.201  1.00  0.00    -0.203 F 
ATOM     79  C   UNL A   1      39.540  26.982  28.899  1.00  0.00     0.198 A 
ATOM     80  C   UNL A   1      40.768  28.756  27.849  1.00  0.00     0.198 A 
ATOM     81  F   UNL A   1      41.531  30.577  29.125  1.00  0.00    -0.203 F 
ATOM     82  F   UNL A   1      38.919  25.796  28.823  1.00  0.00    -0.200 F 
ATOM     83  C   UNL A   1      40.104  27.542  27.763  1.00  0.00     0.200 A 
ATOM     84  F   UNL A   1      41.299  29.307  26.749  1.00  0.00    -0.200 F 
ATOM     85  F   UNL A   1      40.009  26.910  26.585  1.00  0.00    -0.200 F 
ENDBRANCH  61  75
BRANCH  62  86
ATOM     86  C   UNL A   1      40.133  33.846  38.900  1.00  0.00     0.064 A 
ATOM     87  C   UNL A   1      39.369  33.346  39.964  1.00  0.00     0.173 A 
ATOM     88  C   UNL A   1      40.832  35.044  39.108  1.00  0.00     0.173 A 
ATOM     89  F   UNL A   1      38.666  32.214  39.810  1.00  0.00    -0.203 F 
ATOM     90  C   UNL A   1      39.275  34.037  41.171  1.00  0.00     0.198 A 
ATOM     91  C   UNL A   1      40.765  35.716  40.326  1.00  0.00     0.198 A 
ATOM     92  F   UNL A   1      41.585  35.563  38.127  1.00  0.00    -0.203 F 
ATOM     93  F   UNL A   1      38.482  33.571  42.146  1.00  0.00    -0.200 F 
ATOM     94  C   UNL A   1      39.975  35.220  41.353  1.00  0.00     0.200 A 
ATOM     95  F   UNL A   1      41.454  36.851  40.502  1.00  0.00    -0.200 F 
ATOM     96  F   UNL A   1      39.877  35.888  42.510  1.00  0.00    -0.200 F 
ENDBRANCH  62  86
BRANCH  74  97
ATOM     97  C   UNL A   1      44.558  29.293  36.025  1.00  0.00     0.064 A 
ATOM     98  C   UNL A   1      45.788  29.921  35.782  1.00  0.00     0.173 A 
ATOM     99  C   UNL A   1      44.565  28.102  36.769  1.00  0.00     0.173 A 
ATOM    100  F   UNL A   1      45.838  31.054  35.065  1.00  0.00    -0.203 F 
ATOM    101  C   UNL A   1      46.979  29.364  36.240  1.00  0.00     0.198 A 
ATOM    102  C   UNL A   1      45.754  27.567  37.255  1.00  0.00     0.198 A 
ATOM    103  F   UNL A   1      43.415  27.465  37.038  1.00  0.00    -0.203 F 
ATOM    104  F   UNL A   1      48.147  29.953  35.949  1.00  0.00    -0.200 F 
ATOM    105  C   UNL A   1      46.961  28.193  36.982  1.00  0.00     0.200 A 
ATOM    106  F   UNL A   1      45.732  26.444  37.988  1.00  0.00    -0.200 F 
ATOM    107  F   UNL A   1      48.108  27.663  37.430  1.00  0.00    -0.200 F 
ENDBRANCH  74  97
ENDBRANCH  48  49
ENDBRANCH  40  43
ENDBRANCH  38  39
ENDBRANCH  37  38
ENDBRANCH  36  37
ENDBRANCH  35  36
ENDBRANCH   1  35
TORSDOF 18
ENDMDL
MODEL 3
REMARK VINA RESULT:     -12.0      4.745      7.532
REMARK SMILES CCN1C(=O)[C@H](CC(=O)Nc2ccc(C(=O)NCCCCCCNC(=O)c3ccc(-c4c5nc(c(-c6c(F)c(F)c(F)c(F)c6F)c6ccc([nH]6)c(-c6c(F)c(F)c(F)c(F)c6F)c6nc(c(-c7c(F)c(F)c(F)c(F)c7F)c7ccc4[nH]7)C=C6)C=C5)cc3)cc2)S/C1=[NH+]\c1ccc(Cl)cc1
REMARK SMILES IDX 19 1 18 2 17 3 15 4 16 5 14 7 11 8 12 9 91 10 13 11 90 12
REMARK SMILES IDX 10 13 8 14 9 15 7 17 6 18 3 19 4 20 93 21 5 22 92 23 94 24
REMARK SMILES IDX 2 26 1 27 95 28 96 29 101 30 97 31 100 32 98 33 99 34 20 35
REMARK SMILES IDX 21 36 22 37 23 38 24 39 25 40 26 42 27 43 28 44 89 45 29 46
REMARK SMILES IDX 88 47 30 48 31 49 32 50 82 51 33 52 87 53 81 54 83 55 34 56
REMARK SMILES IDX 86 57 80 58 79 59 35 61 67 62 47 63 66 64 48 65 51 66 65 67
REMARK SMILES IDX 84 68 49 69 50 70 64 72 85 73 52 74 36 75 37 76 45 77 38 78
REMARK SMILES IDX 39 79 43 80 46 81 40 82 41 83 44 84 42 85 68 86 69 87 77 88
REMARK SMILES IDX 70 89 71 90 75 91 78 92 72 93 73 94 76 95 74 96 53 97 54 98
REMARK SMILES IDX 62 99 55 100 56 101 60 102 63 103 57 104 58 105 61 106
REMARK SMILES IDX 59 107
REMARK H PARENT 17 6 10 16 94 25 24 41 83 60 51 71
REMARK Flexibility Score: inf
ROOT
ATOM      1  C   UNL A   1      35.603  33.587  28.036  1.00  0.00     0.021 C 
ENDROOT
BRANCH   1   2
ATOM      2  C   UNL A   1      34.232  32.947  27.798  1.00  0.00     0.116 C 
BRANCH   2   3
ATOM      3  N   UNL A   1      34.159  31.579  28.313  1.00  0.00    -0.352 N 
ATOM      4  C   UNL A   1      34.793  30.549  27.635  1.00  0.00     0.251 C 
ATOM      5  O   UNL A   1      35.999  30.565  27.420  1.00  0.00    -0.269 OA
ATOM      6  H   UNL A   1      33.660  31.391  29.139  1.00  0.00     0.163 HD
BRANCH   4   7
ATOM      7  C   UNL A   1      33.923  29.455  27.092  1.00  0.00     0.039 A 
ATOM      8  C   UNL A   1      32.296  27.206  26.635  1.00  0.00     0.041 A 
ATOM      9  C   UNL A   1      31.714  28.415  27.006  1.00  0.00     0.027 A 
ATOM     10  C   UNL A   1      33.646  27.187  26.295  1.00  0.00     0.027 A 
ATOM     11  C   UNL A   1      32.532  29.530  27.262  1.00  0.00     0.016 A 
ATOM     12  C   UNL A   1      34.461  28.305  26.514  1.00  0.00     0.016 A 
BRANCH   8  13
ATOM     13  N   UNL A   1      31.518  26.039  26.531  1.00  0.00    -0.326 N 
ATOM     14  C   UNL A   1      30.265  25.946  25.954  1.00  0.00     0.226 C 
ATOM     15  O   UNL A   1      29.390  25.254  26.472  1.00  0.00    -0.275 OA
ATOM     16  H   UNL A   1      31.901  25.212  26.904  1.00  0.00     0.169 HD
BRANCH  14  17
ATOM     17  C   UNL A   1      30.091  26.511  24.541  1.00  0.00     0.128 C 
BRANCH  17  18
ATOM     18  C   UNL A   1      30.083  25.461  23.424  1.00  0.00     0.183 C 
ATOM     19  N   UNL A   1      32.391  25.333  23.001  1.00  0.00    -0.190 N 
ATOM     20  C   UNL A   1      31.211  25.792  22.480  1.00  0.00     0.324 C 
ATOM     21  C   UNL A   1      32.294  24.102  23.568  1.00  0.00     0.319 C 
ATOM     22  O   UNL A   1      31.070  26.340  21.397  1.00  0.00    -0.245 OA
ATOM     23  S   UNL A   1      30.651  23.777  24.025  1.00  0.00    -0.022 SA
ATOM     24  N   UNL A   1      33.372  23.410  23.633  1.00  0.00    -0.235 N 
ATOM     25  H   UNL A   1      34.197  23.904  23.421  1.00  0.00     0.313 HD
BRANCH  19  26
ATOM     26  C   UNL A   1      33.688  25.886  22.679  1.00  0.00     0.243 C 
ATOM     27  C   UNL A   1      33.653  27.417  22.764  1.00  0.00     0.054 C 
ENDBRANCH  19  26
BRANCH  24  28
ATOM     28  C   UNL A   1      33.552  22.080  23.953  1.00  0.00     0.125 A 
ATOM     29  C   UNL A   1      32.698  21.164  23.331  1.00  0.00     0.053 A 
ATOM     30  C   UNL A   1      34.254  21.695  25.097  1.00  0.00     0.053 A 
ATOM     31  C   UNL A   1      32.541  19.876  23.840  1.00  0.00     0.025 A 
ATOM     32  C   UNL A   1      34.104  20.404  25.608  1.00  0.00     0.025 A 
ATOM     33  C   UNL A   1      33.243  19.503  24.982  1.00  0.00     0.041 A 
ATOM     34  Cl  UNL A   1      33.006  17.940  25.661  1.00  0.00    -0.084 Cl
ENDBRANCH  24  28
ENDBRANCH  17  18
ENDBRANCH  14  17
ENDBRANCH   8  13
ENDBRANCH   4   7
ENDBRANCH   2   3
ENDBRANCH   1   2
BRANCH   1  35
ATOM     35  C   UNL A   1      35.883  33.886  29.516  1.00  0.00     0.002 C 
BRANCH  35  36
ATOM     36  C   UNL A   1      34.751  34.558  30.300  1.00  0.00     0.002 C 
BRANCH  36  37
ATOM     37  C   UNL A   1      34.280  33.837  31.567  1.00  0.00     0.021 C 
BRANCH  37  38
ATOM     38  C   UNL A   1      35.070  32.594  31.979  1.00  0.00     0.116 C 
BRANCH  38  39
ATOM     39  N   UNL A   1      35.602  32.663  33.333  1.00  0.00    -0.352 N 
ATOM     40  C   UNL A   1      36.803  32.226  33.837  1.00  0.00     0.251 C 
ATOM     41  H   UNL A   1      35.007  33.090  33.990  1.00  0.00     0.163 HD
ATOM     42  O   UNL A   1      37.019  32.292  35.043  1.00  0.00    -0.269 OA
BRANCH  40  43
ATOM     43  C   UNL A   1      37.832  31.646  32.944  1.00  0.00     0.039 A 
ATOM     44  C   UNL A   1      37.871  32.061  31.609  1.00  0.00     0.014 A 
ATOM     45  C   UNL A   1      38.738  30.686  33.401  1.00  0.00     0.014 A 
ATOM     46  C   UNL A   1      38.860  31.566  30.753  1.00  0.00     0.010 A 
ATOM     47  C   UNL A   1      39.766  30.248  32.569  1.00  0.00     0.010 A 
ATOM     48  C   UNL A   1      39.841  30.685  31.237  1.00  0.00    -0.014 A 
BRANCH  48  49
ATOM     49  C   UNL A   1      40.955  30.224  30.368  1.00  0.00     0.031 A 
ATOM     50  C   UNL A   1      42.085  31.156  30.022  1.00  0.00     0.074 A 
ATOM     51  C   UNL A   1      40.915  28.985  29.840  1.00  0.00     0.049 A 
ATOM     52  N   UNL A   1      43.105  30.961  29.225  1.00  0.00    -0.248 NA
ATOM     53  C   UNL A   1      42.052  32.495  30.633  1.00  0.00     0.031 C 
ATOM     54  C   UNL A   1      39.852  28.003  30.066  1.00  0.00     0.029 A 
ATOM     55  N   UNL A   1      41.785  28.340  28.995  1.00  0.00    -0.354 N 
ATOM     56  C   UNL A   1      43.822  32.151  29.227  1.00  0.00     0.074 A 
ATOM     57  C   UNL A   1      43.097  33.079  30.066  1.00  0.00     0.031 C 
ATOM     58  C   UNL A   1      40.142  26.877  29.396  1.00  0.00     0.029 A 
ATOM     59  C   UNL A   1      41.387  27.069  28.658  1.00  0.00     0.049 A 
ATOM     60  H   UNL A   1      42.616  28.751  28.664  1.00  0.00     0.167 HD
ATOM     61  C   UNL A   1      44.989  32.435  28.602  1.00  0.00     0.037 A 
ATOM     62  C   UNL A   1      41.955  26.166  27.835  1.00  0.00     0.037 A 
ATOM     63  C   UNL A   1      45.723  31.497  27.792  1.00  0.00     0.049 A 
ATOM     64  C   UNL A   1      43.249  26.515  27.147  1.00  0.00     0.074 A 
ATOM     65  C   UNL A   1      46.947  31.668  27.170  1.00  0.00     0.029 A 
ATOM     66  N   UNL A   1      45.296  30.212  27.487  1.00  0.00    -0.354 N 
ATOM     67  N   UNL A   1      43.956  27.617  27.219  1.00  0.00    -0.248 NA
ATOM     68  C   UNL A   1      43.830  25.490  26.268  1.00  0.00     0.031 C 
ATOM     69  C   UNL A   1      47.235  30.510  26.443  1.00  0.00     0.029 A 
ATOM     70  C   UNL A   1      46.221  29.592  26.663  1.00  0.00     0.049 A 
ATOM     71  H   UNL A   1      44.460  29.804  27.809  1.00  0.00     0.167 HD
ATOM     72  C   UNL A   1      45.076  27.406  26.426  1.00  0.00     0.074 A 
ATOM     73  C   UNL A   1      44.966  26.063  25.896  1.00  0.00     0.031 C 
ATOM     74  C   UNL A   1      46.105  28.248  26.159  1.00  0.00     0.037 A 
BRANCH  61  75
ATOM     75  C   UNL A   1      45.562  33.813  28.768  1.00  0.00     0.064 A 
ATOM     76  C   UNL A   1      46.454  34.121  29.807  1.00  0.00     0.173 A 
ATOM     77  C   UNL A   1      45.270  34.821  27.836  1.00  0.00     0.173 A 
ATOM     78  F   UNL A   1      46.760  33.197  30.731  1.00  0.00    -0.203 F 
ATOM     79  C   UNL A   1      47.019  35.390  29.914  1.00  0.00     0.198 A 
ATOM     80  C   UNL A   1      45.860  36.079  27.929  1.00  0.00     0.198 A 
ATOM     81  F   UNL A   1      44.428  34.579  26.820  1.00  0.00    -0.203 F 
ATOM     82  F   UNL A   1      47.839  35.671  30.937  1.00  0.00    -0.200 F 
ATOM     83  C   UNL A   1      46.730  36.364  28.971  1.00  0.00     0.200 A 
ATOM     84  F   UNL A   1      45.592  37.013  27.007  1.00  0.00    -0.200 F 
ATOM     85  F   UNL A   1      47.288  37.578  29.067  1.00  0.00    -0.200 F 
ENDBRANCH  61  75
BRANCH  62  86
ATOM     86  C   UNL A   1      41.314  24.841  27.616  1.00  0.00     0.064 A 
ATOM     87  C   UNL A   1      41.835  23.681  28.207  1.00  0.00     0.173 A 
ATOM     88  C   UNL A   1      40.192  24.700  26.786  1.00  0.00     0.173 A 
ATOM     89  F   UNL A   1      42.918  23.758  28.994  1.00  0.00    -0.203 F 
ATOM     90  C   UNL A   1      41.283  22.428  27.944  1.00  0.00     0.198 A 
ATOM     91  C   UNL A   1      39.620  23.451  26.551  1.00  0.00     0.198 A 
ATOM     92  F   UNL A   1      39.647  25.778  26.201  1.00  0.00    -0.203 F 
ATOM     93  F   UNL A   1      41.844  21.329  28.468  1.00  0.00    -0.200 F 
ATOM     94  C   UNL A   1      40.174  22.314  27.120  1.00  0.00     0.200 A 
ATOM     95  F   UNL A   1      38.541  23.348  25.765  1.00  0.00    -0.200 F 
ATOM     96  F   UNL A   1      39.650  21.108  26.860  1.00  0.00    -0.200 F 
ENDBRANCH  62  86
BRANCH  74  97
ATOM     97  C   UNL A   1      47.216  27.728  25.292  1.00  0.00     0.064 A 
ATOM     98  C   UNL A   1      47.228  27.929  23.904  1.00  0.00     0.173 A 
ATOM     99  C   UNL A   1      48.305  27.054  25.867  1.00  0.00     0.173 A 
ATOM    100  F   UNL A   1      46.206  28.556  23.303  1.00  0.00    -0.203 F 
ATOM    101  C   UNL A   1      48.275  27.449  23.121  1.00  0.00     0.198 A 
ATOM    102  C   UNL A   1      49.367  26.606  25.085  1.00  0.00     0.198 A 
ATOM    103  F   UNL A   1      48.348  26.843  27.191  1.00  0.00    -0.203 F 
ATOM    104  F   UNL A   1      48.239  27.606  21.790  1.00  0.00    -0.200 F 
ATOM    105  C   UNL A   1      49.346  26.796  23.712  1.00  0.00     0.200 A 
ATOM    106  F   UNL A   1      50.409  25.991  25.661  1.00  0.00    -0.200 F 
ATOM    107  F   UNL A   1      50.356  26.343  22.957  1.00  0.00    -0.200 F 
ENDBRANCH  74  97
ENDBRANCH  48  49
ENDBRANCH  40  43
ENDBRANCH  38  39
ENDBRANCH  37  38
ENDBRANCH  36  37
ENDBRANCH  35  36
ENDBRANCH   1  35
TORSDOF 18
ENDMDL
