MODEL 1
REMARK VINA RESULT:     -11.9      0.000      0.000
REMARK SMILES Cn1cc2cc(C(=O)NCCCCCCNC(=O)c3ccc(-c4c5nc(c(-c6c(F)c(F)c(F)c(F)c6F)c6ccc([nH]6)c(-c6c(F)c(F)c(F)c(F)c6F)c6nc(c(-c7c(F)c(F)c(F)c(F)c7F)c7ccc4[nH]7)C=C6)C=C5)cc3)ccc2n1
REMARK SMILES IDX 13 1 12 2 11 3 10 4 9 5 7 6 8 7 6 9 1 10 2 11 3 12 85 13
REMARK SMILES IDX 4 14 84 15 5 16 83 17 82 18 14 19 15 20 16 21 17 22 18 24
REMARK SMILES IDX 19 25 20 26 81 27 21 28 80 29 22 30 23 31 24 32 74 33 25 34
REMARK SMILES IDX 79 35 73 36 75 37 26 38 78 39 72 40 71 41 27 43 59 44 39 45
REMARK SMILES IDX 58 46 40 47 43 48 57 49 76 50 41 51 42 52 56 54 77 55 44 56
REMARK SMILES IDX 28 57 29 58 37 59 30 60 31 61 35 62 38 63 32 64 33 65 36 66
REMARK SMILES IDX 34 67 60 68 61 69 69 70 62 71 63 72 67 73 70 74 64 75 65 76
REMARK SMILES IDX 68 77 66 78 45 79 46 80 54 81 47 82 48 83 52 84 55 85 49 86
REMARK SMILES IDX 50 87 53 88 51 89
REMARK H PARENT 9 8 16 23 75 42 43 53
REMARK Flexibility Score: inf
ROOT
ATOM      1  C   UNL A   1      31.582  30.660  26.427  1.00  0.00     0.002 C 
ENDROOT
BRANCH   1   2
ATOM      2  C   UNL A   1      32.976  30.086  26.719  1.00  0.00     0.002 C 
BRANCH   2   3
ATOM      3  C   UNL A   1      32.976  28.675  27.328  1.00  0.00     0.021 C 
BRANCH   3   4
ATOM      4  C   UNL A   1      31.571  28.155  27.640  1.00  0.00     0.116 C 
BRANCH   4   5
ATOM      5  N   UNL A   1      31.363  26.879  26.990  1.00  0.00    -0.352 N 
ATOM      6  C   UNL A   1      31.048  26.504  25.712  1.00  0.00     0.251 C 
ATOM      7  O   UNL A   1      30.909  25.294  25.518  1.00  0.00    -0.269 OA
ATOM      8  H   UNL A   1      31.471  26.113  27.599  1.00  0.00     0.163 HD
BRANCH   6   9
ATOM      9  C   UNL A   1      30.915  27.439  24.550  1.00  0.00     0.040 A 
ATOM     10  C   UNL A   1      27.950  30.905  20.850  1.00  0.00     0.173 C 
ATOM     11  N   UNL A   1      28.774  30.036  21.655  1.00  0.00    -0.275 N 
ATOM     12  C   UNL A   1      28.352  29.236  22.678  1.00  0.00     0.117 A 
ATOM     13  N   UNL A   1      30.105  30.002  21.433  1.00  0.00    -0.173 NA
ATOM     14  C   UNL A   1      29.498  28.672  23.164  1.00  0.00     0.021 A 
ATOM     15  C   UNL A   1      30.588  29.187  22.385  1.00  0.00     0.092 A 
ATOM     16  C   UNL A   1      29.575  27.796  24.239  1.00  0.00     0.025 A 
ATOM     17  C   UNL A   1      31.910  28.834  22.691  1.00  0.00     0.032 A 
ATOM     18  C   UNL A   1      32.027  27.982  23.823  1.00  0.00     0.016 A 
ENDBRANCH   6   9
ENDBRANCH   4   5
ENDBRANCH   3   4
ENDBRANCH   2   3
ENDBRANCH   1   2
BRANCH   1  19
ATOM     19  C   UNL A   1      31.423  32.150  26.734  1.00  0.00     0.021 C 
BRANCH  19  20
ATOM     20  C   UNL A   1      32.711  32.837  27.174  1.00  0.00     0.116 C 
BRANCH  20  21
ATOM     21  N   UNL A   1      32.473  34.215  27.576  1.00  0.00    -0.352 N 
ATOM     22  C   UNL A   1      33.010  34.918  28.623  1.00  0.00     0.251 C 
ATOM     23  H   UNL A   1      31.834  34.713  27.016  1.00  0.00     0.163 HD
ATOM     24  O   UNL A   1      32.527  35.992  28.964  1.00  0.00    -0.269 OA
BRANCH  22  25
ATOM     25  C   UNL A   1      34.175  34.371  29.350  1.00  0.00     0.039 A 
ATOM     26  C   UNL A   1      33.964  33.666  30.537  1.00  0.00     0.014 A 
ATOM     27  C   UNL A   1      35.471  34.566  28.866  1.00  0.00     0.014 A 
ATOM     28  C   UNL A   1      35.051  33.111  31.212  1.00  0.00     0.010 A 
ATOM     29  C   UNL A   1      36.545  33.951  29.500  1.00  0.00     0.010 A 
ATOM     30  C   UNL A   1      36.347  33.224  30.683  1.00  0.00    -0.014 A 
BRANCH  30  31
ATOM     31  C   UNL A   1      37.511  32.595  31.356  1.00  0.00     0.031 A 
ATOM     32  C   UNL A   1      38.235  31.454  30.698  1.00  0.00     0.074 A 
ATOM     33  C   UNL A   1      37.871  33.008  32.586  1.00  0.00     0.049 A 
ATOM     34  N   UNL A   1      39.224  30.727  31.154  1.00  0.00    -0.248 NA
ATOM     35  C   UNL A   1      37.768  31.058  29.361  1.00  0.00     0.031 C 
ATOM     36  C   UNL A   1      37.215  34.073  33.345  1.00  0.00     0.029 A 
ATOM     37  N   UNL A   1      38.869  32.571  33.421  1.00  0.00    -0.354 N 
ATOM     38  C   UNL A   1      39.484  29.783  30.169  1.00  0.00     0.074 A 
ATOM     39  C   UNL A   1      38.514  29.992  29.115  1.00  0.00     0.031 C 
ATOM     40  C   UNL A   1      37.840  34.222  34.524  1.00  0.00     0.029 A 
ATOM     41  C   UNL A   1      38.915  33.237  34.621  1.00  0.00     0.049 A 
ATOM     42  H   UNL A   1      39.493  31.847  33.182  1.00  0.00     0.167 HD
ATOM     43  C   UNL A   1      40.458  28.844  30.136  1.00  0.00     0.037 A 
ATOM     44  C   UNL A   1      39.726  33.068  35.682  1.00  0.00     0.037 A 
ATOM     45  C   UNL A   1      41.434  28.656  31.178  1.00  0.00     0.049 A 
ATOM     46  C   UNL A   1      40.796  32.011  35.623  1.00  0.00     0.074 A 
ATOM     47  C   UNL A   1      42.498  27.773  31.215  1.00  0.00     0.029 A 
ATOM     48  N   UNL A   1      41.461  29.365  32.371  1.00  0.00    -0.354 N 
ATOM     49  N   UNL A   1      41.078  31.171  34.657  1.00  0.00    -0.248 NA
ATOM     50  C   UNL A   1      41.666  31.884  36.801  1.00  0.00     0.031 C 
ATOM     51  C   UNL A   1      43.138  27.910  32.452  1.00  0.00     0.029 A 
ATOM     52  C   UNL A   1      42.509  28.921  33.161  1.00  0.00     0.049 A 
ATOM     53  H   UNL A   1      40.829  30.077  32.619  1.00  0.00     0.167 HD
ATOM     54  C   UNL A   1      42.174  30.440  35.094  1.00  0.00     0.074 A 
ATOM     55  C   UNL A   1      42.514  30.945  36.409  1.00  0.00     0.031 C 
ATOM     56  C   UNL A   1      42.840  29.443  34.463  1.00  0.00     0.037 A 
BRANCH  43  57
ATOM     57  C   UNL A   1      40.518  27.945  28.934  1.00  0.00     0.064 A 
ATOM     58  C   UNL A   1      41.327  28.247  27.828  1.00  0.00     0.173 A 
ATOM     59  C   UNL A   1      39.783  26.751  28.899  1.00  0.00     0.173 A 
ATOM     60  F   UNL A   1      42.042  29.382  27.803  1.00  0.00    -0.203 F 
ATOM     61  C   UNL A   1      41.372  27.405  26.720  1.00  0.00     0.198 A 
ATOM     62  C   UNL A   1      39.857  25.893  27.804  1.00  0.00     0.198 A 
ATOM     63  F   UNL A   1      38.998  26.409  29.933  1.00  0.00    -0.203 F 
ATOM     64  F   UNL A   1      42.110  27.742  25.653  1.00  0.00    -0.200 F 
ATOM     65  C   UNL A   1      40.643  26.226  26.712  1.00  0.00     0.200 A 
ATOM     66  F   UNL A   1      39.162  24.747  27.805  1.00  0.00    -0.200 F 
ATOM     67  F   UNL A   1      40.692  25.412  25.648  1.00  0.00    -0.200 F 
ENDBRANCH  43  57
BRANCH  44  68
ATOM     68  C   UNL A   1      39.574  33.936  36.877  1.00  0.00     0.064 A 
ATOM     69  C   UNL A   1      40.201  35.189  36.941  1.00  0.00     0.173 A 
ATOM     70  C   UNL A   1      38.803  33.537  37.979  1.00  0.00     0.173 A 
ATOM     71  F   UNL A   1      40.965  35.607  35.921  1.00  0.00    -0.203 F 
ATOM     72  C   UNL A   1      40.080  35.999  38.068  1.00  0.00     0.198 A 
ATOM     73  C   UNL A   1      38.657  34.361  39.093  1.00  0.00     0.198 A 
ATOM     74  F   UNL A   1      38.176  32.352  37.966  1.00  0.00    -0.203 F 
ATOM     75  F   UNL A   1      40.728  37.171  38.120  1.00  0.00    -0.200 F 
ATOM     76  C   UNL A   1      39.303  35.588  39.140  1.00  0.00     0.200 A 
ATOM     77  F   UNL A   1      37.893  33.967  40.120  1.00  0.00    -0.200 F 
ATOM     78  F   UNL A   1      39.183  36.369  40.222  1.00  0.00    -0.200 F 
ENDBRANCH  44  68
BRANCH  56  79
ATOM     79  C   UNL A   1      44.033  28.857  35.164  1.00  0.00     0.064 A 
ATOM     80  C   UNL A   1      43.914  27.765  36.036  1.00  0.00     0.173 A 
ATOM     81  C   UNL A   1      45.316  29.370  34.923  1.00  0.00     0.173 A 
ATOM     82  F   UNL A   1      42.708  27.248  36.312  1.00  0.00    -0.203 F 
ATOM     83  C   UNL A   1      45.036  27.224  36.660  1.00  0.00     0.198 A 
ATOM     84  C   UNL A   1      46.439  28.805  35.523  1.00  0.00     0.198 A 
ATOM     85  F   UNL A   1      45.485  30.409  34.091  1.00  0.00    -0.203 F 
ATOM     86  F   UNL A   1      44.894  26.211  37.526  1.00  0.00    -0.200 F 
ATOM     87  C   UNL A   1      46.296  27.738  36.396  1.00  0.00     0.200 A 
ATOM     88  F   UNL A   1      47.657  29.294  35.255  1.00  0.00    -0.200 F 
ATOM     89  F   UNL A   1      47.375  27.209  36.990  1.00  0.00    -0.200 F 
ENDBRANCH  56  79
ENDBRANCH  30  31
ENDBRANCH  22  25
ENDBRANCH  20  21
ENDBRANCH  19  20
ENDBRANCH   1  19
TORSDOF 13
ENDMDL
MODEL 2
REMARK VINA RESULT:     -11.9      0.694      1.887
REMARK SMILES Cn1cc2cc(C(=O)NCCCCCCNC(=O)c3ccc(-c4c5nc(c(-c6c(F)c(F)c(F)c(F)c6F)c6ccc([nH]6)c(-c6c(F)c(F)c(F)c(F)c6F)c6nc(c(-c7c(F)c(F)c(F)c(F)c7F)c7ccc4[nH]7)C=C6)C=C5)cc3)ccc2n1
REMARK SMILES IDX 13 1 12 2 11 3 10 4 9 5 7 6 8 7 6 9 1 10 2 11 3 12 85 13
REMARK SMILES IDX 4 14 84 15 5 16 83 17 82 18 14 19 15 20 16 21 17 22 18 24
REMARK SMILES IDX 19 25 20 26 81 27 21 28 80 29 22 30 23 31 24 32 74 33 25 34
REMARK SMILES IDX 79 35 73 36 75 37 26 38 78 39 72 40 71 41 27 43 59 44 39 45
REMARK SMILES IDX 58 46 40 47 43 48 57 49 76 50 41 51 42 52 56 54 77 55 44 56
REMARK SMILES IDX 28 57 29 58 37 59 30 60 31 61 35 62 38 63 32 64 33 65 36 66
REMARK SMILES IDX 34 67 60 68 61 69 69 70 62 71 63 72 67 73 70 74 64 75 65 76
REMARK SMILES IDX 68 77 66 78 45 79 46 80 54 81 47 82 48 83 52 84 55 85 49 86
REMARK SMILES IDX 50 87 53 88 51 89
REMARK H PARENT 9 8 16 23 75 42 43 53
REMARK Flexibility Score: inf
ROOT
ATOM      1  C   UNL A   1      31.486  30.828  25.970  1.00  0.00     0.002 C 
ENDROOT
BRANCH   1   2
ATOM      2  C   UNL A   1      32.194  29.846  26.915  1.00  0.00     0.002 C 
BRANCH   2   3
ATOM      3  C   UNL A   1      33.416  29.138  26.308  1.00  0.00     0.021 C 
BRANCH   3   4
ATOM      4  C   UNL A   1      33.420  27.627  26.559  1.00  0.00     0.116 C 
BRANCH   4   5
ATOM      5  N   UNL A   1      33.785  26.929  25.346  1.00  0.00    -0.352 N 
ATOM      6  C   UNL A   1      33.134  26.660  24.172  1.00  0.00     0.251 C 
ATOM      7  O   UNL A   1      33.756  25.987  23.346  1.00  0.00    -0.269 OA
ATOM      8  H   UNL A   1      34.700  26.567  25.369  1.00  0.00     0.163 HD
BRANCH   6   9
ATOM      9  C   UNL A   1      31.770  27.160  23.812  1.00  0.00     0.040 A 
ATOM     10  C   UNL A   1      27.981  30.799  21.185  1.00  0.00     0.173 C 
ATOM     11  N   UNL A   1      28.811  29.880  21.926  1.00  0.00    -0.275 N 
ATOM     12  C   UNL A   1      30.174  29.890  21.994  1.00  0.00     0.117 A 
ATOM     13  N   UNL A   1      28.226  28.873  22.610  1.00  0.00    -0.173 NA
ATOM     14  C   UNL A   1      30.486  28.795  22.750  1.00  0.00     0.021 A 
ATOM     15  C   UNL A   1      29.249  28.157  23.104  1.00  0.00     0.092 A 
ATOM     16  C   UNL A   1      31.769  28.373  23.072  1.00  0.00     0.025 A 
ATOM     17  C   UNL A   1      29.250  26.961  23.834  1.00  0.00     0.032 A 
ATOM     18  C   UNL A   1      30.550  26.473  24.132  1.00  0.00     0.016 A 
ENDBRANCH   6   9
ENDBRANCH   4   5
ENDBRANCH   3   4
ENDBRANCH   2   3
ENDBRANCH   1   2
BRANCH   1  19
ATOM     19  C   UNL A   1      31.290  32.236  26.534  1.00  0.00     0.021 C 
BRANCH  19  20
ATOM     20  C   UNL A   1      32.507  32.787  27.270  1.00  0.00     0.116 C 
BRANCH  20  21
ATOM     21  N   UNL A   1      32.349  34.199  27.585  1.00  0.00    -0.352 N 
ATOM     22  C   UNL A   1      32.962  34.945  28.558  1.00  0.00     0.251 C 
ATOM     23  H   UNL A   1      31.709  34.688  27.017  1.00  0.00     0.163 HD
ATOM     24  O   UNL A   1      32.543  36.061  28.843  1.00  0.00    -0.269 OA
BRANCH  22  25
ATOM     25  C   UNL A   1      34.132  34.393  29.273  1.00  0.00     0.039 A 
ATOM     26  C   UNL A   1      33.930  33.690  30.463  1.00  0.00     0.014 A 
ATOM     27  C   UNL A   1      35.424  34.582  28.776  1.00  0.00     0.014 A 
ATOM     28  C   UNL A   1      35.022  33.131  31.128  1.00  0.00     0.010 A 
ATOM     29  C   UNL A   1      36.502  33.964  29.400  1.00  0.00     0.010 A 
ATOM     30  C   UNL A   1      36.313  33.238  30.585  1.00  0.00    -0.014 A 
BRANCH  30  31
ATOM     31  C   UNL A   1      37.481  32.604  31.247  1.00  0.00     0.031 A 
ATOM     32  C   UNL A   1      38.208  31.476  30.570  1.00  0.00     0.074 A 
ATOM     33  C   UNL A   1      37.841  33.000  32.483  1.00  0.00     0.049 A 
ATOM     34  N   UNL A   1      39.201  30.747  31.015  1.00  0.00    -0.248 NA
ATOM     35  C   UNL A   1      37.740  31.098  29.229  1.00  0.00     0.031 C 
ATOM     36  C   UNL A   1      37.181  34.052  33.258  1.00  0.00     0.029 A 
ATOM     37  N   UNL A   1      38.842  32.556  33.309  1.00  0.00    -0.354 N 
ATOM     38  C   UNL A   1      39.464  29.819  30.015  1.00  0.00     0.074 A 
ATOM     39  C   UNL A   1      38.491  30.039  28.967  1.00  0.00     0.031 C 
ATOM     40  C   UNL A   1      37.808  34.186  34.438  1.00  0.00     0.029 A 
ATOM     41  C   UNL A   1      38.887  33.204  34.518  1.00  0.00     0.049 A 
ATOM     42  H   UNL A   1      39.469  31.839  33.058  1.00  0.00     0.167 HD
ATOM     43  C   UNL A   1      40.442  28.884  29.967  1.00  0.00     0.037 A 
ATOM     44  C   UNL A   1      39.701  33.023  35.575  1.00  0.00     0.037 A 
ATOM     45  C   UNL A   1      41.420  28.686  31.004  1.00  0.00     0.049 A 
ATOM     46  C   UNL A   1      40.775  31.972  35.499  1.00  0.00     0.074 A 
ATOM     47  C   UNL A   1      42.489  27.807  31.027  1.00  0.00     0.029 A 
ATOM     48  N   UNL A   1      41.447  29.377  32.208  1.00  0.00    -0.354 N 
ATOM     49  N   UNL A   1      41.060  31.147  34.521  1.00  0.00    -0.248 NA
ATOM     50  C   UNL A   1      41.648  31.832  36.673  1.00  0.00     0.031 C 
ATOM     51  C   UNL A   1      43.130  27.929  32.264  1.00  0.00     0.029 A 
ATOM     52  C   UNL A   1      42.498  28.926  32.989  1.00  0.00     0.049 A 
ATOM     53  H   UNL A   1      40.812  30.083  32.467  1.00  0.00     0.167 HD
ATOM     54  C   UNL A   1      42.160  30.415  34.945  1.00  0.00     0.074 A 
ATOM     55  C   UNL A   1      42.500  30.902  36.266  1.00  0.00     0.031 C 
ATOM     56  C   UNL A   1      42.829  29.430  34.298  1.00  0.00     0.037 A 
BRANCH  43  57
ATOM     57  C   UNL A   1      40.504  28.004  28.751  1.00  0.00     0.064 A 
ATOM     58  C   UNL A   1      41.253  28.362  27.619  1.00  0.00     0.173 A 
ATOM     59  C   UNL A   1      39.833  26.772  28.728  1.00  0.00     0.173 A 
ATOM     60  F   UNL A   1      41.904  29.534  27.583  1.00  0.00    -0.203 F 
ATOM     61  C   UNL A   1      41.300  27.535  26.499  1.00  0.00     0.198 A 
ATOM     62  C   UNL A   1      39.911  25.932  27.621  1.00  0.00     0.198 A 
ATOM     63  F   UNL A   1      39.108  26.377  29.787  1.00  0.00    -0.203 F 
ATOM     64  F   UNL A   1      41.977  27.924  25.410  1.00  0.00    -0.200 F 
ATOM     65  C   UNL A   1      40.635  26.319  26.503  1.00  0.00     0.200 A 
ATOM     66  F   UNL A   1      39.279  24.750  27.632  1.00  0.00    -0.200 F 
ATOM     67  F   UNL A   1      40.688  25.521  25.428  1.00  0.00    -0.200 F 
ENDBRANCH  43  57
BRANCH  44  68
ATOM     68  C   UNL A   1      39.547  33.873  36.784  1.00  0.00     0.064 A 
ATOM     69  C   UNL A   1      38.782  33.439  37.876  1.00  0.00     0.173 A 
ATOM     70  C   UNL A   1      40.156  35.134  36.875  1.00  0.00     0.173 A 
ATOM     71  F   UNL A   1      38.164  32.250  37.829  1.00  0.00    -0.203 F 
ATOM     72  C   UNL A   1      38.616  34.240  39.003  1.00  0.00     0.198 A 
ATOM     73  C   UNL A   1      40.014  35.921  38.015  1.00  0.00     0.198 A 
ATOM     74  F   UNL A   1      40.904  35.593  35.861  1.00  0.00    -0.203 F 
ATOM     75  F   UNL A   1      37.842  33.820  40.013  1.00  0.00    -0.200 F 
ATOM     76  C   UNL A   1      39.237  35.478  39.075  1.00  0.00     0.200 A 
ATOM     77  F   UNL A   1      40.629  37.109  38.087  1.00  0.00    -0.200 F 
ATOM     78  F   UNL A   1      39.081  36.247  40.161  1.00  0.00    -0.200 F 
ENDBRANCH  44  68
BRANCH  56  79
ATOM     79  C   UNL A   1      44.025  28.840  34.988  1.00  0.00     0.064 A 
ATOM     80  C   UNL A   1      45.308  29.388  34.843  1.00  0.00     0.173 A 
ATOM     81  C   UNL A   1      43.875  27.736  35.842  1.00  0.00     0.173 A 
ATOM     82  F   UNL A   1      45.508  30.434  34.027  1.00  0.00    -0.203 F 
ATOM     83  C   UNL A   1      46.401  28.837  35.509  1.00  0.00     0.198 A 
ATOM     84  C   UNL A   1      44.963  27.209  36.531  1.00  0.00     0.198 A 
ATOM     85  F   UNL A   1      42.668  27.179  36.022  1.00  0.00    -0.203 F 
ATOM     86  F   UNL A   1      47.625  29.347  35.319  1.00  0.00    -0.200 F 
ATOM     87  C   UNL A   1      46.226  27.755  36.358  1.00  0.00     0.200 A 
ATOM     88  F   UNL A   1      44.790  26.172  37.363  1.00  0.00    -0.200 F 
ATOM     89  F   UNL A   1      47.276  27.233  37.006  1.00  0.00    -0.200 F 
ENDBRANCH  56  79
ENDBRANCH  30  31
ENDBRANCH  22  25
ENDBRANCH  20  21
ENDBRANCH  19  20
ENDBRANCH   1  19
TORSDOF 13
ENDMDL
MODEL 3
REMARK VINA RESULT:     -11.7      0.919      7.565
REMARK SMILES Cn1cc2cc(C(=O)NCCCCCCNC(=O)c3ccc(-c4c5nc(c(-c6c(F)c(F)c(F)c(F)c6F)c6ccc([nH]6)c(-c6c(F)c(F)c(F)c(F)c6F)c6nc(c(-c7c(F)c(F)c(F)c(F)c7F)c7ccc4[nH]7)C=C6)C=C5)cc3)ccc2n1
REMARK SMILES IDX 13 1 12 2 11 3 10 4 9 5 7 6 8 7 6 9 1 10 2 11 3 12 85 13
REMARK SMILES IDX 4 14 84 15 5 16 83 17 82 18 14 19 15 20 16 21 17 22 18 24
REMARK SMILES IDX 19 25 20 26 81 27 21 28 80 29 22 30 23 31 24 32 74 33 25 34
REMARK SMILES IDX 79 35 73 36 75 37 26 38 78 39 72 40 71 41 27 43 59 44 39 45
REMARK SMILES IDX 58 46 40 47 43 48 57 49 76 50 41 51 42 52 56 54 77 55 44 56
REMARK SMILES IDX 28 57 29 58 37 59 30 60 31 61 35 62 38 63 32 64 33 65 36 66
REMARK SMILES IDX 34 67 60 68 61 69 69 70 62 71 63 72 67 73 70 74 64 75 65 76
REMARK SMILES IDX 68 77 66 78 45 79 46 80 54 81 47 82 48 83 52 84 55 85 49 86
REMARK SMILES IDX 50 87 53 88 51 89
REMARK H PARENT 9 8 16 23 75 42 43 53
REMARK Flexibility Score: inf
ROOT
ATOM      1  C   UNL A   1      31.411  30.896  25.939  1.00  0.00     0.002 C 
ENDROOT
BRANCH   1   2
ATOM      2  C   UNL A   1      31.850  29.815  26.936  1.00  0.00     0.002 C 
BRANCH   2   3
ATOM      3  C   UNL A   1      33.226  29.194  26.647  1.00  0.00     0.021 C 
BRANCH   3   4
ATOM      4  C   UNL A   1      33.235  27.668  26.771  1.00  0.00     0.116 C 
BRANCH   4   5
ATOM      5  N   UNL A   1      33.713  27.077  25.539  1.00  0.00    -0.352 N 
ATOM      6  C   UNL A   1      33.151  26.853  24.312  1.00  0.00     0.251 C 
ATOM      7  O   UNL A   1      33.860  26.276  23.484  1.00  0.00    -0.269 OA
ATOM      8  H   UNL A   1      34.646  26.769  25.596  1.00  0.00     0.163 HD
BRANCH   6   9
ATOM      9  C   UNL A   1      31.781  27.297  23.901  1.00  0.00     0.040 A 
ATOM     10  C   UNL A   1      27.950  30.749  21.089  1.00  0.00     0.173 C 
ATOM     11  N   UNL A   1      28.788  29.874  21.873  1.00  0.00    -0.275 N 
ATOM     12  C   UNL A   1      30.147  29.935  21.983  1.00  0.00     0.117 A 
ATOM     13  N   UNL A   1      28.218  28.859  22.557  1.00  0.00    -0.173 NA
ATOM     14  C   UNL A   1      30.474  28.866  22.769  1.00  0.00     0.021 A 
ATOM     15  C   UNL A   1      29.250  28.190  23.097  1.00  0.00     0.092 A 
ATOM     16  C   UNL A   1      31.761  28.496  23.138  1.00  0.00     0.025 A 
ATOM     17  C   UNL A   1      29.270  27.008  23.849  1.00  0.00     0.032 A 
ATOM     18  C   UNL A   1      30.578  26.572  24.196  1.00  0.00     0.016 A 
ENDBRANCH   6   9
ENDBRANCH   4   5
ENDBRANCH   3   4
ENDBRANCH   2   3
ENDBRANCH   1   2
BRANCH   1  19
ATOM     19  C   UNL A   1      31.311  32.307  26.523  1.00  0.00     0.021 C 
BRANCH  19  20
ATOM     20  C   UNL A   1      32.594  32.799  27.184  1.00  0.00     0.116 C 
BRANCH  20  21
ATOM     21  N   UNL A   1      32.472  34.180  27.628  1.00  0.00    -0.352 N 
ATOM     22  C   UNL A   1      33.101  34.816  28.667  1.00  0.00     0.251 C 
ATOM     23  H   UNL A   1      31.848  34.736  27.107  1.00  0.00     0.163 HD
ATOM     24  O   UNL A   1      32.711  35.912  29.053  1.00  0.00    -0.269 OA
BRANCH  22  25
ATOM     25  C   UNL A   1      34.253  34.169  29.330  1.00  0.00     0.039 A 
ATOM     26  C   UNL A   1      34.016  33.235  30.342  1.00  0.00     0.014 A 
ATOM     27  C   UNL A   1      35.561  34.495  28.962  1.00  0.00     0.014 A 
ATOM     28  C   UNL A   1      35.093  32.589  30.949  1.00  0.00     0.010 A 
ATOM     29  C   UNL A   1      36.629  33.798  29.517  1.00  0.00     0.010 A 
ATOM     30  C   UNL A   1      36.407  32.844  30.520  1.00  0.00    -0.014 A 
BRANCH  30  31
ATOM     31  C   UNL A   1      37.563  32.127  31.114  1.00  0.00     0.031 A 
ATOM     32  C   UNL A   1      38.060  32.503  32.482  1.00  0.00     0.074 A 
ATOM     33  C   UNL A   1      38.204  31.187  30.394  1.00  0.00     0.049 A 
ATOM     34  N   UNL A   1      39.096  32.049  33.140  1.00  0.00    -0.248 NA
ATOM     35  C   UNL A   1      37.310  33.550  33.193  1.00  0.00     0.031 C 
ATOM     36  C   UNL A   1      37.843  30.770  29.038  1.00  0.00     0.029 A 
ATOM     37  N   UNL A   1      39.301  30.421  30.697  1.00  0.00    -0.354 N 
ATOM     38  C   UNL A   1      39.129  32.762  34.331  1.00  0.00     0.074 A 
ATOM     39  C   UNL A   1      38.045  33.719  34.282  1.00  0.00     0.031 C 
ATOM     40  C   UNL A   1      38.689  29.809  28.634  1.00  0.00     0.029 A 
ATOM     41  C   UNL A   1      39.676  29.571  29.685  1.00  0.00     0.049 A 
ATOM     42  H   UNL A   1      39.775  30.476  31.558  1.00  0.00     0.167 HD
ATOM     43  C   UNL A   1      39.973  32.616  35.380  1.00  0.00     0.037 A 
ATOM     44  C   UNL A   1      40.703  28.704  29.611  1.00  0.00     0.037 A 
ATOM     45  C   UNL A   1      41.035  31.647  35.432  1.00  0.00     0.049 A 
ATOM     46  C   UNL A   1      41.630  28.566  30.787  1.00  0.00     0.074 A 
ATOM     47  C   UNL A   1      41.908  31.377  36.471  1.00  0.00     0.029 A 
ATOM     48  N   UNL A   1      41.372  30.788  34.395  1.00  0.00    -0.354 N 
ATOM     49  N   UNL A   1      41.610  29.196  31.936  1.00  0.00    -0.248 NA
ATOM     50  C   UNL A   1      42.722  27.589  30.659  1.00  0.00     0.031 C 
ATOM     51  C   UNL A   1      42.806  30.392  36.045  1.00  0.00     0.029 A 
ATOM     52  C   UNL A   1      42.455  30.005  34.761  1.00  0.00     0.049 A 
ATOM     53  H   UNL A   1      40.909  30.742  33.527  1.00  0.00     0.167 HD
ATOM     54  C   UNL A   1      42.659  28.672  32.679  1.00  0.00     0.074 A 
ATOM     55  C   UNL A   1      43.290  27.662  31.853  1.00  0.00     0.031 C 
ATOM     56  C   UNL A   1      43.063  28.996  33.931  1.00  0.00     0.037 A 
BRANCH  43  57
ATOM     57  C   UNL A   1      39.780  33.526  36.560  1.00  0.00     0.064 A 
ATOM     58  C   UNL A   1      40.445  34.758  36.656  1.00  0.00     0.173 A 
ATOM     59  C   UNL A   1      38.895  33.179  37.592  1.00  0.00     0.173 A 
ATOM     60  F   UNL A   1      41.311  35.135  35.703  1.00  0.00    -0.203 F 
ATOM     61  C   UNL A   1      40.257  35.592  37.755  1.00  0.00     0.198 A 
ATOM     62  C   UNL A   1      38.683  34.030  38.673  1.00  0.00     0.198 A 
ATOM     63  F   UNL A   1      38.227  32.016  37.547  1.00  0.00    -0.203 F 
ATOM     64  F   UNL A   1      40.945  36.738  37.851  1.00  0.00    -0.200 F 
ATOM     65  C   UNL A   1      39.371  35.231  38.759  1.00  0.00     0.200 A 
ATOM     66  F   UNL A   1      37.815  33.686  39.635  1.00  0.00    -0.200 F 
ATOM     67  F   UNL A   1      39.185  36.038  39.813  1.00  0.00    -0.200 F 
ENDBRANCH  43  57
BRANCH  44  68
ATOM     68  C   UNL A   1      40.890  27.881  28.388  1.00  0.00     0.064 A 
ATOM     69  C   UNL A   1      40.270  26.629  28.261  1.00  0.00     0.173 A 
ATOM     70  C   UNL A   1      41.690  28.323  27.323  1.00  0.00     0.173 A 
ATOM     71  F   UNL A   1      39.512  26.154  29.259  1.00  0.00    -0.203 F 
ATOM     72  C   UNL A   1      40.460  25.844  27.126  1.00  0.00     0.198 A 
ATOM     73  C   UNL A   1      41.854  27.549  26.176  1.00  0.00     0.198 A 
ATOM     74  F   UNL A   1      42.299  29.516  27.391  1.00  0.00    -0.203 F 
ATOM     75  F   UNL A   1      39.893  24.632  27.051  1.00  0.00    -0.200 F 
ATOM     76  C   UNL A   1      41.246  26.307  26.082  1.00  0.00     0.200 A 
ATOM     77  F   UNL A   1      42.601  28.008  25.163  1.00  0.00    -0.200 F 
ATOM     78  F   UNL A   1      41.424  25.553  24.989  1.00  0.00    -0.200 F 
ENDBRANCH  44  68
BRANCH  56  79
ATOM     79  C   UNL A   1      44.215  28.224  34.507  1.00  0.00     0.064 A 
ATOM     80  C   UNL A   1      44.026  27.011  35.186  1.00  0.00     0.173 A 
ATOM     81  C   UNL A   1      45.530  28.684  34.337  1.00  0.00     0.173 A 
ATOM     82  F   UNL A   1      42.788  26.536  35.388  1.00  0.00    -0.203 F 
ATOM     83  C   UNL A   1      45.110  26.299  35.694  1.00  0.00     0.198 A 
ATOM     84  C   UNL A   1      46.613  27.954  34.818  1.00  0.00     0.198 A 
ATOM     85  F   UNL A   1      45.766  29.834  33.689  1.00  0.00    -0.203 F 
ATOM     86  F   UNL A   1      44.903  25.168  36.380  1.00  0.00    -0.200 F 
ATOM     87  C   UNL A   1      46.402  26.766  35.502  1.00  0.00     0.200 A 
ATOM     88  F   UNL A   1      47.861  28.399  34.618  1.00  0.00    -0.200 F 
ATOM     89  F   UNL A   1      47.444  26.075  35.983  1.00  0.00    -0.200 F 
ENDBRANCH  56  79
ENDBRANCH  30  31
ENDBRANCH  22  25
ENDBRANCH  20  21
ENDBRANCH  19  20
ENDBRANCH   1  19
TORSDOF 13
ENDMDL
