MODEL 1
REMARK VINA RESULT:     -12.9      0.000      0.000
REMARK SMILES Cc1ccn2c([C@@H]3CCCC[C@@H]3C(=O)NCCCCCCNC(=O)c3ccc(-c4c5nc(c(-c6c(F)c(F)c(F)c(F)c6F)c6ccc([nH]6)c(-c6c(F)c(F)c(F)c(F)c6F)c6nc(c(-c7c(F)c(F)c(F)c(F)c7F)c7ccc4[nH]7)C=C6)C=C5)cc3)nnc2c1
REMARK SMILES IDX 19 1 18 2 17 3 16 4 15 5 13 6 14 7 12 9 7 10 8 11 9 12 11 13
REMARK SMILES IDX 10 14 6 15 1 16 2 17 3 18 91 19 4 20 90 21 5 22 89 23 88 24
REMARK SMILES IDX 20 25 21 26 22 27 23 28 24 30 25 31 26 32 87 33 27 34 86 35
REMARK SMILES IDX 28 36 29 37 30 38 80 39 31 40 85 41 79 42 81 43 32 44 84 45
REMARK SMILES IDX 78 46 77 47 33 49 65 50 45 51 64 52 46 53 49 54 63 55 82 56
REMARK SMILES IDX 47 57 48 58 62 60 83 61 50 62 34 63 35 64 43 65 36 66 37 67
REMARK SMILES IDX 41 68 44 69 38 70 39 71 42 72 40 73 66 74 67 75 75 76 68 77
REMARK SMILES IDX 69 78 73 79 76 80 70 81 71 82 74 83 72 84 51 85 52 86 60 87
REMARK SMILES IDX 53 88 54 89 58 90 61 91 55 92 56 93 59 94 57 95
REMARK H PARENT 15 8 22 29 81 48 49 59
REMARK Flexibility Score: inf
ROOT
ATOM      1  C   UNL A   1      37.611  22.990  26.112  1.00  0.00     0.002 C 
ENDROOT
BRANCH   1   2
ATOM      2  C   UNL A   1      37.000  23.861  25.006  1.00  0.00     0.002 C 
BRANCH   2   3
ATOM      3  C   UNL A   1      36.171  23.091  23.975  1.00  0.00     0.021 C 
BRANCH   3   4
ATOM      4  C   UNL A   1      34.812  23.732  23.765  1.00  0.00     0.116 C 
BRANCH   4   5
ATOM      5  N   UNL A   1      33.886  22.819  23.144  1.00  0.00    -0.356 N 
ATOM      6  C   UNL A   1      32.698  22.314  23.518  1.00  0.00     0.223 C 
ATOM      7  O   UNL A   1      31.996  21.911  22.577  1.00  0.00    -0.275 OA
ATOM      8  H   UNL A   1      34.186  22.498  22.263  1.00  0.00     0.163 HD
BRANCH   6   9
ATOM      9  C   UNL A   1      32.165  22.132  24.945  1.00  0.00     0.089 C 
ATOM     10  C   UNL A   1      32.375  23.063  26.144  1.00  0.00     0.071 C 
ATOM     11  C   UNL A   1      33.805  23.021  26.752  1.00  0.00     0.012 C 
ATOM     12  C   UNL A   1      34.363  21.611  26.939  1.00  0.00     0.001 C 
ATOM     13  C   UNL A   1      32.629  20.711  25.362  1.00  0.00     0.014 C 
ATOM     14  C   UNL A   1      34.106  20.701  25.748  1.00  0.00     0.001 C 
BRANCH  10  15
ATOM     15  C   UNL A   1      31.775  24.457  26.181  1.00  0.00     0.141 A 
ATOM     16  C   UNL A   1      33.341  29.760  27.065  1.00  0.00     0.044 C 
ATOM     17  C   UNL A   1      32.924  28.374  26.671  1.00  0.00    -0.046 A 
ATOM     18  C   UNL A   1      33.954  27.476  26.160  1.00  0.00     0.022 A 
ATOM     19  C   UNL A   1      31.646  27.950  26.766  1.00  0.00     0.053 A 
ATOM     20  C   UNL A   1      33.643  26.196  25.886  1.00  0.00     0.095 A 
ATOM     21  C   UNL A   1      31.326  26.591  26.497  1.00  0.00     0.161 A 
ATOM     22  N   UNL A   1      32.355  25.722  26.136  1.00  0.00    -0.286 N 
ATOM     23  N   UNL A   1      30.192  25.937  26.559  1.00  0.00    -0.130 NA
ATOM     24  N   UNL A   1      30.468  24.617  26.349  1.00  0.00    -0.134 NA
ENDBRANCH  10  15
ENDBRANCH   6   9
ENDBRANCH   4   5
ENDBRANCH   3   4
ENDBRANCH   2   3
ENDBRANCH   1   2
BRANCH   1  25
ATOM     25  C   UNL A   1      38.474  21.819  25.624  1.00  0.00     0.021 C 
BRANCH  25  26
ATOM     26  C   UNL A   1      39.703  21.537  26.490  1.00  0.00     0.116 C 
BRANCH  26  27
ATOM     27  N   UNL A   1      40.962  21.754  25.808  1.00  0.00    -0.352 N 
ATOM     28  C   UNL A   1      41.840  22.794  25.728  1.00  0.00     0.251 C 
ATOM     29  H   UNL A   1      41.248  20.973  25.281  1.00  0.00     0.163 HD
ATOM     30  O   UNL A   1      42.809  22.643  24.980  1.00  0.00    -0.269 OA
BRANCH  28  31
ATOM     31  C   UNL A   1      41.674  24.088  26.435  1.00  0.00     0.039 A 
ATOM     32  C   UNL A   1      40.823  25.121  26.035  1.00  0.00     0.014 A 
ATOM     33  C   UNL A   1      42.437  24.257  27.601  1.00  0.00     0.014 A 
ATOM     34  C   UNL A   1      40.815  26.336  26.710  1.00  0.00     0.010 A 
ATOM     35  C   UNL A   1      42.393  25.449  28.312  1.00  0.00     0.010 A 
ATOM     36  C   UNL A   1      41.620  26.508  27.832  1.00  0.00    -0.014 A 
BRANCH  36  37
ATOM     37  C   UNL A   1      41.588  27.805  28.505  1.00  0.00     0.031 A 
ATOM     38  C   UNL A   1      42.647  28.798  28.131  1.00  0.00     0.074 A 
ATOM     39  C   UNL A   1      40.558  28.145  29.304  1.00  0.00     0.049 A 
ATOM     40  N   UNL A   1      43.363  29.564  28.899  1.00  0.00    -0.248 NA
ATOM     41  C   UNL A   1      42.962  28.936  26.699  1.00  0.00     0.031 C 
ATOM     42  C   UNL A   1      39.315  27.401  29.535  1.00  0.00     0.029 A 
ATOM     43  N   UNL A   1      40.353  29.311  29.974  1.00  0.00    -0.354 N 
ATOM     44  C   UNL A   1      44.133  30.360  28.049  1.00  0.00     0.074 A 
ATOM     45  C   UNL A   1      43.890  29.891  26.708  1.00  0.00     0.031 C 
ATOM     46  C   UNL A   1      38.400  28.233  30.078  1.00  0.00     0.029 A 
ATOM     47  C   UNL A   1      39.034  29.511  30.346  1.00  0.00     0.049 A 
ATOM     48  H   UNL A   1      41.073  29.951  30.176  1.00  0.00     0.167 HD
ATOM     49  C   UNL A   1      44.848  31.442  28.465  1.00  0.00     0.037 A 
ATOM     50  C   UNL A   1      38.483  30.682  30.740  1.00  0.00     0.037 A 
ATOM     51  C   UNL A   1      45.103  31.432  29.874  1.00  0.00     0.049 A 
ATOM     52  C   UNL A   1      39.580  31.588  31.157  1.00  0.00     0.074 A 
ATOM     53  C   UNL A   1      45.858  30.639  30.714  1.00  0.00     0.029 A 
ATOM     54  N   UNL A   1      44.319  32.194  30.698  1.00  0.00    -0.354 N 
ATOM     55  N   UNL A   1      40.324  31.412  32.213  1.00  0.00    -0.248 NA
ATOM     56  C   UNL A   1      40.106  32.516  30.168  1.00  0.00     0.031 C 
ATOM     57  C   UNL A   1      45.145  30.617  31.948  1.00  0.00     0.029 A 
ATOM     58  C   UNL A   1      44.009  31.410  31.781  1.00  0.00     0.049 A 
ATOM     59  H   UNL A   1      44.033  33.123  30.544  1.00  0.00     0.167 HD
ATOM     60  C   UNL A   1      41.575  31.885  31.847  1.00  0.00     0.074 A 
ATOM     61  C   UNL A   1      41.352  32.652  30.627  1.00  0.00     0.031 C 
ATOM     62  C   UNL A   1      42.712  31.388  32.413  1.00  0.00     0.037 A 
BRANCH  49  63
ATOM     63  C   UNL A   1      45.156  32.630  27.598  1.00  0.00     0.064 A 
ATOM     64  C   UNL A   1      46.405  32.761  26.964  1.00  0.00     0.173 A 
ATOM     65  C   UNL A   1      44.330  33.774  27.573  1.00  0.00     0.173 A 
ATOM     66  F   UNL A   1      47.284  31.747  26.972  1.00  0.00    -0.203 F 
ATOM     67  C   UNL A   1      46.804  33.958  26.362  1.00  0.00     0.198 A 
ATOM     68  C   UNL A   1      44.711  34.951  26.931  1.00  0.00     0.198 A 
ATOM     69  F   UNL A   1      43.173  33.811  28.248  1.00  0.00    -0.203 F 
ATOM     70  F   UNL A   1      48.035  34.067  25.842  1.00  0.00    -0.200 F 
ATOM     71  C   UNL A   1      45.955  35.051  26.342  1.00  0.00     0.200 A 
ATOM     72  F   UNL A   1      43.884  36.008  26.943  1.00  0.00    -0.200 F 
ATOM     73  F   UNL A   1      46.349  36.210  25.797  1.00  0.00    -0.200 F 
ENDBRANCH  49  63
BRANCH  50  74
ATOM     74  C   UNL A   1      37.118  31.170  30.434  1.00  0.00     0.064 A 
ATOM     75  C   UNL A   1      36.245  31.551  31.463  1.00  0.00     0.173 A 
ATOM     76  C   UNL A   1      36.740  31.523  29.124  1.00  0.00     0.173 A 
ATOM     77  F   UNL A   1      36.559  31.295  32.742  1.00  0.00    -0.203 F 
ATOM     78  C   UNL A   1      35.071  32.261  31.197  1.00  0.00     0.198 A 
ATOM     79  C   UNL A   1      35.560  32.217  28.858  1.00  0.00     0.198 A 
ATOM     80  F   UNL A   1      37.550  31.286  28.081  1.00  0.00    -0.203 F 
ATOM     81  F   UNL A   1      34.291  32.664  32.210  1.00  0.00    -0.200 F 
ATOM     82  C   UNL A   1      34.732  32.599  29.897  1.00  0.00     0.200 A 
ATOM     83  F   UNL A   1      35.265  32.567  27.598  1.00  0.00    -0.200 F 
ATOM     84  F   UNL A   1      33.636  33.327  29.648  1.00  0.00    -0.200 F 
ENDBRANCH  50  74
BRANCH  62  85
ATOM     85  C   UNL A   1      42.560  30.506  33.621  1.00  0.00     0.064 A 
ATOM     86  C   UNL A   1      42.524  30.998  34.936  1.00  0.00     0.173 A 
ATOM     87  C   UNL A   1      42.295  29.143  33.436  1.00  0.00     0.173 A 
ATOM     88  F   UNL A   1      42.652  32.307  35.186  1.00  0.00    -0.203 F 
ATOM     89  C   UNL A   1      42.288  30.155  36.021  1.00  0.00     0.198 A 
ATOM     90  C   UNL A   1      42.022  28.308  34.518  1.00  0.00     0.198 A 
ATOM     91  F   UNL A   1      42.249  28.629  32.197  1.00  0.00    -0.203 F 
ATOM     92  F   UNL A   1      42.271  30.650  37.268  1.00  0.00    -0.200 F 
ATOM     93  C   UNL A   1      42.031  28.811  35.809  1.00  0.00     0.200 A 
ATOM     94  F   UNL A   1      41.718  27.020  34.305  1.00  0.00    -0.200 F 
ATOM     95  F   UNL A   1      41.761  28.007  36.847  1.00  0.00    -0.200 F 
ENDBRANCH  62  85
ENDBRANCH  36  37
ENDBRANCH  28  31
ENDBRANCH  26  27
ENDBRANCH  25  26
ENDBRANCH   1  25
TORSDOF 14
ENDMDL
MODEL 2
REMARK VINA RESULT:     -12.8      1.265      2.972
REMARK SMILES Cc1ccn2c([C@@H]3CCCC[C@@H]3C(=O)NCCCCCCNC(=O)c3ccc(-c4c5nc(c(-c6c(F)c(F)c(F)c(F)c6F)c6ccc([nH]6)c(-c6c(F)c(F)c(F)c(F)c6F)c6nc(c(-c7c(F)c(F)c(F)c(F)c7F)c7ccc4[nH]7)C=C6)C=C5)cc3)nnc2c1
REMARK SMILES IDX 19 1 18 2 17 3 16 4 15 5 13 6 14 7 12 9 7 10 8 11 9 12 11 13
REMARK SMILES IDX 10 14 6 15 1 16 2 17 3 18 91 19 4 20 90 21 5 22 89 23 88 24
REMARK SMILES IDX 20 25 21 26 22 27 23 28 24 30 25 31 26 32 87 33 27 34 86 35
REMARK SMILES IDX 28 36 29 37 30 38 80 39 31 40 85 41 79 42 81 43 32 44 84 45
REMARK SMILES IDX 78 46 77 47 33 49 65 50 45 51 64 52 46 53 49 54 63 55 82 56
REMARK SMILES IDX 47 57 48 58 62 60 83 61 50 62 34 63 35 64 43 65 36 66 37 67
REMARK SMILES IDX 41 68 44 69 38 70 39 71 42 72 40 73 66 74 67 75 75 76 68 77
REMARK SMILES IDX 69 78 73 79 76 80 70 81 71 82 74 83 72 84 51 85 52 86 60 87
REMARK SMILES IDX 53 88 54 89 58 90 61 91 55 92 56 93 59 94 57 95
REMARK H PARENT 15 8 22 29 81 48 49 59
REMARK Flexibility Score: inf
ROOT
ATOM      1  C   UNL A   1      37.037  23.644  25.368  1.00  0.00     0.002 C 
ENDROOT
BRANCH   1   2
ATOM      2  C   UNL A   1      35.614  23.742  24.801  1.00  0.00     0.002 C 
BRANCH   2   3
ATOM      3  C   UNL A   1      34.596  24.386  25.746  1.00  0.00     0.021 C 
BRANCH   3   4
ATOM      4  C   UNL A   1      34.374  25.849  25.410  1.00  0.00     0.116 C 
BRANCH   4   5
ATOM      5  N   UNL A   1      33.254  26.395  26.134  1.00  0.00    -0.356 N 
ATOM      6  C   UNL A   1      31.954  26.559  25.834  1.00  0.00     0.223 C 
ATOM      7  O   UNL A   1      31.212  26.657  26.823  1.00  0.00    -0.275 OA
ATOM      8  H   UNL A   1      33.490  26.713  27.035  1.00  0.00     0.163 HD
BRANCH   6   9
ATOM      9  C   UNL A   1      31.325  26.696  24.442  1.00  0.00     0.089 C 
ATOM     10  C   UNL A   1      31.970  26.371  23.091  1.00  0.00     0.071 C 
ATOM     11  C   UNL A   1      33.043  27.394  22.624  1.00  0.00     0.012 C 
ATOM     12  C   UNL A   1      32.630  28.855  22.794  1.00  0.00     0.001 C 
ATOM     13  C   UNL A   1      30.814  28.161  24.383  1.00  0.00     0.014 C 
ATOM     14  C   UNL A   1      31.959  29.138  24.129  1.00  0.00     0.001 C 
BRANCH  10  15
ATOM     15  C   UNL A   1      32.325  24.947  22.703  1.00  0.00     0.141 A 
ATOM     16  C   UNL A   1      32.632  19.846  24.992  1.00  0.00     0.044 C 
ATOM     17  C   UNL A   1      32.410  21.166  24.315  1.00  0.00    -0.046 A 
ATOM     18  C   UNL A   1      31.459  22.089  24.927  1.00  0.00     0.022 A 
ATOM     19  C   UNL A   1      33.045  21.509  23.174  1.00  0.00     0.053 A 
ATOM     20  C   UNL A   1      31.301  23.320  24.407  1.00  0.00     0.095 A 
ATOM     21  C   UNL A   1      32.891  22.818  22.642  1.00  0.00     0.161 A 
ATOM     22  N   UNL A   1      32.077  23.724  23.321  1.00  0.00    -0.286 N 
ATOM     23  N   UNL A   1      33.424  23.398  21.595  1.00  0.00    -0.130 NA
ATOM     24  N   UNL A   1      33.061  24.713  21.624  1.00  0.00    -0.134 NA
ENDBRANCH  10  15
ENDBRANCH   6   9
ENDBRANCH   4   5
ENDBRANCH   3   4
ENDBRANCH   2   3
ENDBRANCH   1   2
BRANCH   1  25
ATOM     25  C   UNL A   1      37.793  22.355  25.023  1.00  0.00     0.021 C 
BRANCH  25  26
ATOM     26  C   UNL A   1      38.711  21.846  26.136  1.00  0.00     0.116 C 
BRANCH  26  27
ATOM     27  N   UNL A   1      40.110  21.799  25.764  1.00  0.00    -0.352 N 
ATOM     28  C   UNL A   1      41.170  22.643  25.920  1.00  0.00     0.251 C 
ATOM     29  H   UNL A   1      40.351  20.970  25.292  1.00  0.00     0.163 HD
ATOM     30  O   UNL A   1      42.236  22.292  25.407  1.00  0.00    -0.269 OA
BRANCH  28  31
ATOM     31  C   UNL A   1      41.104  23.954  26.612  1.00  0.00     0.039 A 
ATOM     32  C   UNL A   1      40.362  25.055  26.182  1.00  0.00     0.014 A 
ATOM     33  C   UNL A   1      41.847  24.064  27.798  1.00  0.00     0.014 A 
ATOM     34  C   UNL A   1      40.447  26.273  26.847  1.00  0.00     0.010 A 
ATOM     35  C   UNL A   1      41.893  25.263  28.498  1.00  0.00     0.010 A 
ATOM     36  C   UNL A   1      41.233  26.382  27.989  1.00  0.00    -0.014 A 
BRANCH  36  37
ATOM     37  C   UNL A   1      41.301  27.683  28.652  1.00  0.00     0.031 A 
ATOM     38  C   UNL A   1      42.403  28.610  28.232  1.00  0.00     0.074 A 
ATOM     39  C   UNL A   1      40.322  28.089  29.483  1.00  0.00     0.049 A 
ATOM     40  N   UNL A   1      43.189  29.337  28.967  1.00  0.00    -0.248 NA
ATOM     41  C   UNL A   1      42.674  28.719  26.788  1.00  0.00     0.031 C 
ATOM     42  C   UNL A   1      39.046  27.422  29.764  1.00  0.00     0.029 A 
ATOM     43  N   UNL A   1      40.210  29.270  30.150  1.00  0.00    -0.354 N 
ATOM     44  C   UNL A   1      43.974  30.080  28.084  1.00  0.00     0.074 A 
ATOM     45  C   UNL A   1      43.657  29.618  26.757  1.00  0.00     0.031 C 
ATOM     46  C   UNL A   1      38.202  28.310  30.331  1.00  0.00     0.029 A 
ATOM     47  C   UNL A   1      38.919  29.550  30.566  1.00  0.00     0.049 A 
ATOM     48  H   UNL A   1      40.973  29.868  30.320  1.00  0.00     0.167 HD
ATOM     49  C   UNL A   1      44.766  31.121  28.465  1.00  0.00     0.037 A 
ATOM     50  C   UNL A   1      38.452  30.754  30.968  1.00  0.00     0.037 A 
ATOM     51  C   UNL A   1      45.070  31.105  29.864  1.00  0.00     0.049 A 
ATOM     52  C   UNL A   1      39.614  31.596  31.339  1.00  0.00     0.074 A 
ATOM     53  C   UNL A   1      45.806  30.275  30.685  1.00  0.00     0.029 A 
ATOM     54  N   UNL A   1      44.362  31.918  30.709  1.00  0.00    -0.354 N 
ATOM     55  N   UNL A   1      40.384  31.384  32.369  1.00  0.00    -0.248 NA
ATOM     56  C   UNL A   1      40.159  32.485  30.324  1.00  0.00     0.031 C 
ATOM     57  C   UNL A   1      45.138  30.304  31.943  1.00  0.00     0.029 A 
ATOM     58  C   UNL A   1      44.045  31.161  31.808  1.00  0.00     0.049 A 
ATOM     59  H   UNL A   1      44.125  32.862  30.557  1.00  0.00     0.167 HD
ATOM     60  C   UNL A   1      41.647  31.780  31.956  1.00  0.00     0.074 A 
ATOM     61  C   UNL A   1      41.426  32.550  30.737  1.00  0.00     0.031 C 
ATOM     62  C   UNL A   1      42.772  31.221  32.486  1.00  0.00     0.037 A 
BRANCH  49  63
ATOM     63  C   UNL A   1      45.113  32.283  27.577  1.00  0.00     0.064 A 
ATOM     64  C   UNL A   1      46.387  32.392  26.990  1.00  0.00     0.173 A 
ATOM     65  C   UNL A   1      44.293  33.428  27.487  1.00  0.00     0.173 A 
ATOM     66  F   UNL A   1      47.261  31.376  27.062  1.00  0.00    -0.203 F 
ATOM     67  C   UNL A   1      46.813  33.570  26.371  1.00  0.00     0.198 A 
ATOM     68  C   UNL A   1      44.703  34.585  26.828  1.00  0.00     0.198 A 
ATOM     69  F   UNL A   1      43.110  33.488  28.115  1.00  0.00    -0.203 F 
ATOM     70  F   UNL A   1      48.064  33.661  25.897  1.00  0.00    -0.200 F 
ATOM     71  C   UNL A   1      45.970  34.664  26.286  1.00  0.00     0.200 A 
ATOM     72  F   UNL A   1      43.881  35.643  26.776  1.00  0.00    -0.200 F 
ATOM     73  F   UNL A   1      46.390  35.806  25.723  1.00  0.00    -0.200 F 
ENDBRANCH  49  63
BRANCH  50  74
ATOM     74  C   UNL A   1      37.109  31.320  30.706  1.00  0.00     0.064 A 
ATOM     75  C   UNL A   1      36.250  31.649  31.764  1.00  0.00     0.173 A 
ATOM     76  C   UNL A   1      36.747  31.795  29.429  1.00  0.00     0.173 A 
ATOM     77  F   UNL A   1      36.550  31.276  33.016  1.00  0.00    -0.203 F 
ATOM     78  C   UNL A   1      35.104  32.425  31.559  1.00  0.00     0.198 A 
ATOM     79  C   UNL A   1      35.596  32.556  29.224  1.00  0.00     0.198 A 
ATOM     80  F   UNL A   1      37.549  31.614  28.370  1.00  0.00    -0.203 F 
ATOM     81  F   UNL A   1      34.340  32.774  32.603  1.00  0.00    -0.200 F 
ATOM     82  C   UNL A   1      34.782  32.882  30.292  1.00  0.00     0.200 A 
ATOM     83  F   UNL A   1      35.318  33.020  27.998  1.00  0.00    -0.200 F 
ATOM     84  F   UNL A   1      33.717  33.672  30.106  1.00  0.00    -0.200 F 
ENDBRANCH  50  74
BRANCH  62  85
ATOM     85  C   UNL A   1      42.611  30.357  33.706  1.00  0.00     0.064 A 
ATOM     86  C   UNL A   1      42.629  30.862  35.017  1.00  0.00     0.173 A 
ATOM     87  C   UNL A   1      42.282  29.005  33.541  1.00  0.00     0.173 A 
ATOM     88  F   UNL A   1      42.819  32.167  35.250  1.00  0.00    -0.203 F 
ATOM     89  C   UNL A   1      42.382  30.040  36.115  1.00  0.00     0.198 A 
ATOM     90  C   UNL A   1      42.000  28.193  34.638  1.00  0.00     0.198 A 
ATOM     91  F   UNL A   1      42.184  28.482  32.309  1.00  0.00    -0.203 F 
ATOM     92  F   UNL A   1      42.417  30.547  37.357  1.00  0.00    -0.200 F 
ATOM     93  C   UNL A   1      42.062  28.707  35.924  1.00  0.00     0.200 A 
ATOM     94  F   UNL A   1      41.636  26.917  34.447  1.00  0.00    -0.200 F 
ATOM     95  F   UNL A   1      41.783  27.926  36.976  1.00  0.00    -0.200 F 
ENDBRANCH  62  85
ENDBRANCH  36  37
ENDBRANCH  28  31
ENDBRANCH  26  27
ENDBRANCH  25  26
ENDBRANCH   1  25
TORSDOF 14
ENDMDL
MODEL 3
REMARK VINA RESULT:     -12.8      3.441      8.765
REMARK SMILES Cc1ccn2c([C@@H]3CCCC[C@@H]3C(=O)NCCCCCCNC(=O)c3ccc(-c4c5nc(c(-c6c(F)c(F)c(F)c(F)c6F)c6ccc([nH]6)c(-c6c(F)c(F)c(F)c(F)c6F)c6nc(c(-c7c(F)c(F)c(F)c(F)c7F)c7ccc4[nH]7)C=C6)C=C5)cc3)nnc2c1
REMARK SMILES IDX 19 1 18 2 17 3 16 4 15 5 13 6 14 7 12 9 7 10 8 11 9 12 11 13
REMARK SMILES IDX 10 14 6 15 1 16 2 17 3 18 91 19 4 20 90 21 5 22 89 23 88 24
REMARK SMILES IDX 20 25 21 26 22 27 23 28 24 30 25 31 26 32 87 33 27 34 86 35
REMARK SMILES IDX 28 36 29 37 30 38 80 39 31 40 85 41 79 42 81 43 32 44 84 45
REMARK SMILES IDX 78 46 77 47 33 49 65 50 45 51 64 52 46 53 49 54 63 55 82 56
REMARK SMILES IDX 47 57 48 58 62 60 83 61 50 62 34 63 35 64 43 65 36 66 37 67
REMARK SMILES IDX 41 68 44 69 38 70 39 71 42 72 40 73 66 74 67 75 75 76 68 77
REMARK SMILES IDX 69 78 73 79 76 80 70 81 71 82 74 83 72 84 51 85 52 86 60 87
REMARK SMILES IDX 53 88 54 89 58 90 61 91 55 92 56 93 59 94 57 95
REMARK H PARENT 15 8 22 29 81 48 49 59
REMARK Flexibility Score: inf
ROOT
ATOM      1  C   UNL A   1      33.166  29.672  27.184  1.00  0.00     0.002 C 
ENDROOT
BRANCH   1   2
ATOM      2  C   UNL A   1      32.902  28.169  27.355  1.00  0.00     0.002 C 
BRANCH   2   3
ATOM      3  C   UNL A   1      31.479  27.729  27.001  1.00  0.00     0.021 C 
BRANCH   3   4
ATOM      4  C   UNL A   1      31.484  26.488  26.127  1.00  0.00     0.116 C 
BRANCH   4   5
ATOM      5  N   UNL A   1      30.309  26.421  25.295  1.00  0.00    -0.356 N 
ATOM      6  C   UNL A   1      30.124  26.292  23.970  1.00  0.00     0.223 C 
ATOM      7  O   UNL A   1      29.011  25.845  23.653  1.00  0.00    -0.275 OA
ATOM      8  H   UNL A   1      29.468  26.482  25.803  1.00  0.00     0.163 HD
BRANCH   6   9
ATOM      9  C   UNL A   1      31.090  26.688  22.847  1.00  0.00     0.089 C 
ATOM     10  C   UNL A   1      32.616  26.560  22.842  1.00  0.00     0.071 C 
ATOM     11  C   UNL A   1      33.355  27.593  23.738  1.00  0.00     0.012 C 
ATOM     12  C   UNL A   1      32.838  29.024  23.598  1.00  0.00     0.001 C 
ATOM     13  C   UNL A   1      30.737  28.165  22.525  1.00  0.00     0.014 C 
ATOM     14  C   UNL A   1      31.320  29.114  23.568  1.00  0.00     0.001 C 
BRANCH  10  15
ATOM     15  C   UNL A   1      33.300  25.204  22.845  1.00  0.00     0.141 A 
ATOM     16  C   UNL A   1      37.496  22.541  25.424  1.00  0.00     0.044 C 
ATOM     17  C   UNL A   1      36.272  23.174  24.831  1.00  0.00    -0.046 A 
ATOM     18  C   UNL A   1      35.631  24.246  25.585  1.00  0.00     0.022 A 
ATOM     19  C   UNL A   1      35.755  22.778  23.648  1.00  0.00     0.053 A 
ATOM     20  C   UNL A   1      34.589  24.906  25.046  1.00  0.00     0.095 A 
ATOM     21  C   UNL A   1      34.669  23.493  23.073  1.00  0.00     0.161 A 
ATOM     22  N   UNL A   1      34.160  24.597  23.756  1.00  0.00    -0.286 N 
ATOM     23  N   UNL A   1      34.031  23.338  21.939  1.00  0.00    -0.130 NA
ATOM     24  N   UNL A   1      33.173  24.390  21.804  1.00  0.00    -0.134 NA
ENDBRANCH  10  15
ENDBRANCH   6   9
ENDBRANCH   4   5
ENDBRANCH   3   4
ENDBRANCH   2   3
ENDBRANCH   1   2
BRANCH   1  25
ATOM     25  C   UNL A   1      34.617  30.113  27.413  1.00  0.00     0.021 C 
BRANCH  25  26
ATOM     26  C   UNL A   1      34.784  31.609  27.686  1.00  0.00     0.116 C 
BRANCH  26  27
ATOM     27  N   UNL A   1      34.559  31.980  29.068  1.00  0.00    -0.352 N 
ATOM     28  C   UNL A   1      35.251  31.807  30.230  1.00  0.00     0.251 C 
ATOM     29  H   UNL A   1      33.714  32.467  29.198  1.00  0.00     0.163 HD
ATOM     30  O   UNL A   1      34.711  32.214  31.262  1.00  0.00    -0.269 OA
BRANCH  28  31
ATOM     31  C   UNL A   1      36.567  31.126  30.329  1.00  0.00     0.039 A 
ATOM     32  C   UNL A   1      37.808  31.765  30.307  1.00  0.00     0.014 A 
ATOM     33  C   UNL A   1      36.530  29.729  30.467  1.00  0.00     0.014 A 
ATOM     34  C   UNL A   1      38.986  31.027  30.304  1.00  0.00     0.010 A 
ATOM     35  C   UNL A   1      37.705  28.990  30.519  1.00  0.00     0.010 A 
ATOM     36  C   UNL A   1      38.932  29.640  30.383  1.00  0.00    -0.014 A 
BRANCH  36  37
ATOM     37  C   UNL A   1      40.195  28.904  30.367  1.00  0.00     0.031 A 
ATOM     38  C   UNL A   1      40.859  28.653  31.688  1.00  0.00     0.074 A 
ATOM     39  C   UNL A   1      40.654  28.340  29.234  1.00  0.00     0.049 A 
ATOM     40  N   UNL A   1      42.111  28.774  32.015  1.00  0.00    -0.248 NA
ATOM     41  C   UNL A   1      39.996  28.228  32.803  1.00  0.00     0.031 C 
ATOM     42  C   UNL A   1      39.978  28.251  27.935  1.00  0.00     0.029 A 
ATOM     43  N   UNL A   1      41.781  27.600  29.049  1.00  0.00    -0.354 N 
ATOM     44  C   UNL A   1      42.215  28.333  33.335  1.00  0.00     0.074 A 
ATOM     45  C   UNL A   1      40.875  28.064  33.790  1.00  0.00     0.031 C 
ATOM     46  C   UNL A   1      40.582  27.302  27.189  1.00  0.00     0.029 A 
ATOM     47  C   UNL A   1      41.751  26.823  27.904  1.00  0.00     0.049 A 
ATOM     48  H   UNL A   1      42.545  27.616  29.670  1.00  0.00     0.167 HD
ATOM     49  C   UNL A   1      43.400  28.096  33.964  1.00  0.00     0.037 A 
ATOM     50  C   UNL A   1      42.567  25.781  27.623  1.00  0.00     0.037 A 
ATOM     51  C   UNL A   1      44.506  28.749  33.330  1.00  0.00     0.049 A 
ATOM     52  C   UNL A   1      43.770  25.896  28.483  1.00  0.00     0.074 A 
ATOM     53  C   UNL A   1      44.885  30.065  33.161  1.00  0.00     0.029 A 
ATOM     54  N   UNL A   1      45.317  28.026  32.496  1.00  0.00    -0.354 N 
ATOM     55  N   UNL A   1      44.674  26.827  28.371  1.00  0.00    -0.248 NA
ATOM     56  C   UNL A   1      43.774  25.167  29.742  1.00  0.00     0.031 C 
ATOM     57  C   UNL A   1      45.547  30.105  31.899  1.00  0.00     0.029 A 
ATOM     58  C   UNL A   1      45.537  28.805  31.389  1.00  0.00     0.049 A 
ATOM     59  H   UNL A   1      45.672  27.122  32.659  1.00  0.00     0.167 HD
ATOM     60  C   UNL A   1      45.092  27.073  29.671  1.00  0.00     0.074 A 
ATOM     61  C   UNL A   1      44.590  25.949  30.453  1.00  0.00     0.031 C 
ATOM     62  C   UNL A   1      45.572  28.295  30.040  1.00  0.00     0.037 A 
BRANCH  49  63
ATOM     63  C   UNL A   1      43.580  27.094  35.070  1.00  0.00     0.064 A 
ATOM     64  C   UNL A   1      43.826  27.509  36.391  1.00  0.00     0.173 A 
ATOM     65  C   UNL A   1      43.761  25.719  34.812  1.00  0.00     0.173 A 
ATOM     66  F   UNL A   1      43.728  28.804  36.730  1.00  0.00    -0.203 F 
ATOM     67  C   UNL A   1      44.239  26.611  37.380  1.00  0.00     0.198 A 
ATOM     68  C   UNL A   1      44.127  24.818  35.810  1.00  0.00     0.198 A 
ATOM     69  F   UNL A   1      43.678  25.228  33.567  1.00  0.00    -0.203 F 
ATOM     70  F   UNL A   1      44.542  27.060  38.606  1.00  0.00    -0.200 F 
ATOM     71  C   UNL A   1      44.385  25.265  37.090  1.00  0.00     0.200 A 
ATOM     72  F   UNL A   1      44.286  23.522  35.504  1.00  0.00    -0.200 F 
ATOM     73  F   UNL A   1      44.814  24.409  38.027  1.00  0.00    -0.200 F 
ENDBRANCH  49  63
BRANCH  50  74
ATOM     74  C   UNL A   1      42.201  24.525  26.928  1.00  0.00     0.064 A 
ATOM     75  C   UNL A   1      43.024  23.994  25.926  1.00  0.00     0.173 A 
ATOM     76  C   UNL A   1      41.179  23.687  27.415  1.00  0.00     0.173 A 
ATOM     77  F   UNL A   1      44.050  24.711  25.445  1.00  0.00    -0.203 F 
ATOM     78  C   UNL A   1      42.846  22.690  25.451  1.00  0.00     0.198 A 
ATOM     79  C   UNL A   1      40.993  22.392  26.930  1.00  0.00     0.198 A 
ATOM     80  F   UNL A   1      40.398  24.068  28.437  1.00  0.00    -0.203 F 
ATOM     81  F   UNL A   1      43.691  22.192  24.538  1.00  0.00    -0.200 F 
ATOM     82  C   UNL A   1      41.836  21.889  25.958  1.00  0.00     0.200 A 
ATOM     83  F   UNL A   1      40.033  21.619  27.456  1.00  0.00    -0.200 F 
ATOM     84  F   UNL A   1      41.702  20.622  25.544  1.00  0.00    -0.200 F 
ENDBRANCH  50  74
BRANCH  62  85
ATOM     85  C   UNL A   1      45.874  29.284  28.948  1.00  0.00     0.064 A 
ATOM     86  C   UNL A   1      44.909  30.143  28.396  1.00  0.00     0.173 A 
ATOM     87  C   UNL A   1      47.205  29.471  28.553  1.00  0.00     0.173 A 
ATOM     88  F   UNL A   1      43.636  30.104  28.809  1.00  0.00    -0.203 F 
ATOM     89  C   UNL A   1      45.252  31.108  27.451  1.00  0.00     0.198 A 
ATOM     90  C   UNL A   1      47.552  30.462  27.636  1.00  0.00     0.198 A 
ATOM     91  F   UNL A   1      48.180  28.726  29.096  1.00  0.00    -0.203 F 
ATOM     92  F   UNL A   1      44.308  31.907  26.931  1.00  0.00    -0.200 F 
ATOM     93  C   UNL A   1      46.575  31.270  27.077  1.00  0.00     0.200 A 
ATOM     94  F   UNL A   1      48.840  30.654  27.318  1.00  0.00    -0.200 F 
ATOM     95  F   UNL A   1      46.913  32.227  26.201  1.00  0.00    -0.200 F 
ENDBRANCH  62  85
ENDBRANCH  36  37
ENDBRANCH  28  31
ENDBRANCH  26  27
ENDBRANCH  25  26
ENDBRANCH   1  25
TORSDOF 14
ENDMDL
