MODEL 1
REMARK VINA RESULT:     -12.6      0.000      0.000
REMARK SMILES Cc1c(C#N)c2ccccc2n1CC(=O)N1CC[C@H](O)C[C@@H]1C(=O)NCCCCCCNC(=O)c1ccc(-c2c3nc(c(-c4c(F)c(F)c(F)c(F)c4F)c4ccc([nH]4)c(-c4c(F)c(F)c(F)c(F)c4F)c4nc(c(-c5c(F)c(F)c(F)c(F)c5F)c5ccc2[nH]5)C=C4)C=C3)cc1
REMARK SMILES IDX 27 1 26 2 25 3 23 4 24 5 22 7 16 8 17 9 18 10 21 11 19 12
REMARK SMILES IDX 14 13 15 14 13 15 12 16 1 17 2 18 3 19 6 20 11 21 7 22 10 23
REMARK SMILES IDX 8 24 9 25 4 26 5 27 20 28 28 30 29 31 30 32 31 33 32 34
REMARK SMILES IDX 33 35 34 37 35 38 36 39 97 40 37 41 96 42 38 43 39 44 40 45
REMARK SMILES IDX 90 46 41 47 95 48 89 49 91 50 42 51 94 52 88 53 87 54 43 56
REMARK SMILES IDX 75 57 55 58 74 59 56 60 59 61 73 62 92 63 57 64 58 65 72 67
REMARK SMILES IDX 93 68 60 69 44 70 45 71 53 72 46 73 47 74 51 75 54 76 48 77
REMARK SMILES IDX 49 78 52 79 50 80 76 81 77 82 85 83 78 84 79 85 83 86 86 87
REMARK SMILES IDX 80 88 81 89 84 90 82 91 61 92 62 93 70 94 63 95 64 96 68 97
REMARK SMILES IDX 71 98 65 99 66 100 69 101 67 102
REMARK H PARENT 25 6 20 29 32 36 91 55 59 66
REMARK Flexibility Score: inf
ROOT
ATOM      1  C   UNL A   1      36.824  23.658  25.070  1.00  0.00     0.021 C 
ENDROOT
BRANCH   1   2
ATOM      2  C   UNL A   1      35.438  24.273  25.207  1.00  0.00     0.116 C 
BRANCH   2   3
ATOM      3  N   UNL A   1      34.775  24.506  23.946  1.00  0.00    -0.354 N 
ATOM      4  C   UNL A   1      34.014  25.523  23.466  1.00  0.00     0.242 C 
ATOM      5  O   UNL A   1      33.655  25.373  22.288  1.00  0.00    -0.273 OA
ATOM      6  H   UNL A   1      34.900  23.775  23.299  1.00  0.00     0.163 HD
BRANCH   4   7
ATOM      7  C   UNL A   1      33.419  26.714  24.285  1.00  0.00     0.177 C 
ATOM      8  N   UNL A   1      31.964  26.855  24.441  1.00  0.00    -0.329 N 
ATOM      9  C   UNL A   1      31.223  27.621  23.453  1.00  0.00     0.123 C 
ATOM     10  C   UNL A   1      31.970  28.724  22.690  1.00  0.00     0.053 C 
ATOM     11  C   UNL A   1      34.073  28.060  23.989  1.00  0.00     0.067 C 
ATOM     12  C   UNL A   1      33.493  28.745  22.769  1.00  0.00     0.118 C 
BRANCH   8  13
ATOM     13  C   UNL A   1      31.416  26.560  25.692  1.00  0.00     0.243 C 
ATOM     14  O   UNL A   1      31.659  27.280  26.669  1.00  0.00    -0.273 OA
BRANCH  13  15
ATOM     15  C   UNL A   1      30.680  25.251  25.945  1.00  0.00     0.222 C 
BRANCH  15  16
ATOM     16  N   UNL A   1      31.244  24.018  25.413  1.00  0.00    -0.334 N 
ATOM     17  C   UNL A   1      30.168  24.203  23.122  1.00  0.00     0.066 C 
ATOM     18  C   UNL A   1      31.018  23.515  24.142  1.00  0.00     0.034 A 
ATOM     19  C   UNL A   1      31.792  22.373  24.021  1.00  0.00     0.080 A 
ATOM     20  C   UNL A   1      32.457  22.142  25.258  1.00  0.00     0.018 A 
ATOM     21  C   UNL A   1      32.081  23.172  26.125  1.00  0.00     0.050 A 
ATOM     22  C   UNL A   1      33.359  21.159  25.718  1.00  0.00     0.012 A 
ATOM     23  C   UNL A   1      32.565  23.236  27.445  1.00  0.00     0.027 A 
ATOM     24  C   UNL A   1      33.845  21.220  27.027  1.00  0.00     0.001 A 
ATOM     25  C   UNL A   1      33.447  22.244  27.878  1.00  0.00     0.002 A 
BRANCH  19  26
ATOM     26  C   UNL A   1      31.939  21.588  22.828  1.00  0.00     0.102 C 
ATOM     27  N   UNL A   1      32.049  20.985  21.849  1.00  0.00    -0.192 NA
ENDBRANCH  19  26
ENDBRANCH  15  16
ENDBRANCH  13  15
ENDBRANCH   8  13
BRANCH  12  28
ATOM     28  O   UNL A   1      34.040  28.224  21.566  1.00  0.00    -0.393 OA
ATOM     29  H   UNL A   1      33.366  28.239  20.870  1.00  0.00     0.210 HD
ENDBRANCH  12  28
ENDBRANCH   4   7
ENDBRANCH   2   3
ENDBRANCH   1   2
BRANCH   1  30
ATOM     30  C   UNL A   1      37.033  22.361  25.840  1.00  0.00     0.002 C 
BRANCH  30  31
ATOM     31  C   UNL A   1      37.473  21.178  24.978  1.00  0.00     0.002 C 
BRANCH  31  32
ATOM     32  C   UNL A   1      38.837  20.575  25.345  1.00  0.00     0.021 C 
BRANCH  32  33
ATOM     33  C   UNL A   1      39.656  21.418  26.324  1.00  0.00     0.116 C 
BRANCH  33  34
ATOM     34  N   UNL A   1      40.924  21.859  25.787  1.00  0.00    -0.352 N 
ATOM     35  C   UNL A   1      41.735  22.930  26.000  1.00  0.00     0.251 C 
ATOM     36  H   UNL A   1      41.282  21.240  25.108  1.00  0.00     0.163 HD
ATOM     37  O   UNL A   1      42.804  22.941  25.386  1.00  0.00    -0.269 OA
BRANCH  35  38
ATOM     38  C   UNL A   1      41.363  24.110  26.813  1.00  0.00     0.039 A 
ATOM     39  C   UNL A   1      40.380  25.048  26.495  1.00  0.00     0.014 A 
ATOM     40  C   UNL A   1      42.156  24.314  27.954  1.00  0.00     0.014 A 
ATOM     41  C   UNL A   1      40.364  26.273  27.139  1.00  0.00     0.010 A 
ATOM     42  C   UNL A   1      42.087  25.499  28.655  1.00  0.00     0.010 A 
ATOM     43  C   UNL A   1      41.280  26.514  28.163  1.00  0.00    -0.014 A 
BRANCH  43  44
ATOM     44  C   UNL A   1      41.262  27.796  28.842  1.00  0.00     0.031 A 
ATOM     45  C   UNL A   1      42.406  28.657  28.443  1.00  0.00     0.074 A 
ATOM     46  C   UNL A   1      40.245  28.163  29.652  1.00  0.00     0.049 A 
ATOM     47  N   UNL A   1      43.362  29.082  29.200  1.00  0.00    -0.248 NA
ATOM     48  C   UNL A   1      42.637  28.895  27.006  1.00  0.00     0.031 C 
ATOM     49  C   UNL A   1      39.007  27.443  29.963  1.00  0.00     0.029 A 
ATOM     50  N   UNL A   1      40.079  29.343  30.321  1.00  0.00    -0.354 N 
ATOM     51  C   UNL A   1      44.199  29.825  28.374  1.00  0.00     0.074 A 
ATOM     52  C   UNL A   1      43.813  29.523  27.022  1.00  0.00     0.031 C 
ATOM     53  C   UNL A   1      38.120  28.288  30.537  1.00  0.00     0.029 A 
ATOM     54  C   UNL A   1      38.765  29.566  30.756  1.00  0.00     0.049 A 
ATOM     55  H   UNL A   1      40.813  29.977  30.482  1.00  0.00     0.167 HD
ATOM     56  C   UNL A   1      44.966  30.823  28.890  1.00  0.00     0.037 A 
ATOM     57  C   UNL A   1      38.278  30.767  31.175  1.00  0.00     0.037 A 
ATOM     58  C   UNL A   1      45.137  30.650  30.310  1.00  0.00     0.049 A 
ATOM     59  C   UNL A   1      39.464  31.559  31.619  1.00  0.00     0.074 A 
ATOM     60  C   UNL A   1      45.715  29.667  31.090  1.00  0.00     0.029 A 
ATOM     61  N   UNL A   1      44.300  31.351  31.143  1.00  0.00    -0.354 N 
ATOM     62  N   UNL A   1      40.199  31.205  32.644  1.00  0.00    -0.248 NA
ATOM     63  C   UNL A   1      40.137  32.355  30.599  1.00  0.00     0.031 C 
ATOM     64  C   UNL A   1      44.824  29.505  32.190  1.00  0.00     0.029 A 
ATOM     65  C   UNL A   1      43.822  30.470  32.082  1.00  0.00     0.049 A 
ATOM     66  H   UNL A   1      44.083  32.309  31.080  1.00  0.00     0.167 HD
ATOM     67  C   UNL A   1      41.506  31.355  32.201  1.00  0.00     0.074 A 
ATOM     68  C   UNL A   1      41.401  32.074  30.928  1.00  0.00     0.031 C 
ATOM     69  C   UNL A   1      42.532  30.613  32.713  1.00  0.00     0.037 A 
BRANCH  56  70
ATOM     70  C   UNL A   1      45.208  32.140  28.200  1.00  0.00     0.064 A 
ATOM     71  C   UNL A   1      44.117  32.999  27.967  1.00  0.00     0.173 A 
ATOM     72  C   UNL A   1      46.389  32.450  27.490  1.00  0.00     0.173 A 
ATOM     73  F   UNL A   1      42.938  32.786  28.572  1.00  0.00    -0.203 F 
ATOM     74  C   UNL A   1      44.182  34.039  27.037  1.00  0.00     0.198 A 
ATOM     75  C   UNL A   1      46.465  33.518  26.600  1.00  0.00     0.198 A 
ATOM     76  F   UNL A   1      47.477  31.674  27.536  1.00  0.00    -0.203 F 
ATOM     77  F   UNL A   1      43.082  34.751  26.757  1.00  0.00    -0.200 F 
ATOM     78  C   UNL A   1      45.354  34.294  26.350  1.00  0.00     0.200 A 
ATOM     79  F   UNL A   1      47.605  33.731  25.926  1.00  0.00    -0.200 F 
ATOM     80  F   UNL A   1      45.403  35.250  25.413  1.00  0.00    -0.200 F 
ENDBRANCH  56  70
BRANCH  57  81
ATOM     81  C   UNL A   1      36.981  31.396  30.787  1.00  0.00     0.064 A 
ATOM     82  C   UNL A   1      36.029  31.797  31.745  1.00  0.00     0.173 A 
ATOM     83  C   UNL A   1      36.761  31.865  29.476  1.00  0.00     0.173 A 
ATOM     84  F   UNL A   1      36.177  31.444  33.030  1.00  0.00    -0.203 F 
ATOM     85  C   UNL A   1      34.945  32.626  31.412  1.00  0.00     0.198 A 
ATOM     86  C   UNL A   1      35.682  32.689  29.146  1.00  0.00     0.198 A 
ATOM     87  F   UNL A   1      37.641  31.612  28.498  1.00  0.00    -0.203 F 
ATOM     88  F   UNL A   1      34.089  33.028  32.363  1.00  0.00    -0.200 F 
ATOM     89  C   UNL A   1      34.780  33.079  30.115  1.00  0.00     0.200 A 
ATOM     90  F   UNL A   1      35.560  33.149  27.891  1.00  0.00    -0.200 F 
ATOM     91  F   UNL A   1      33.782  33.919  29.806  1.00  0.00    -0.200 F 
ENDBRANCH  57  81
BRANCH  69  92
ATOM     92  C   UNL A   1      42.270  29.709  33.888  1.00  0.00     0.064 A 
ATOM     93  C   UNL A   1      41.831  28.379  33.772  1.00  0.00     0.173 A 
ATOM     94  C   UNL A   1      42.727  30.125  35.145  1.00  0.00     0.173 A 
ATOM     95  F   UNL A   1      41.471  27.873  32.587  1.00  0.00    -0.203 F 
ATOM     96  C   UNL A   1      41.842  27.511  34.867  1.00  0.00     0.198 A 
ATOM     97  C   UNL A   1      42.769  29.250  36.227  1.00  0.00     0.198 A 
ATOM     98  F   UNL A   1      43.218  31.364  35.302  1.00  0.00    -0.203 F 
ATOM     99  F   UNL A   1      41.443  26.238  34.723  1.00  0.00    -0.200 F 
ATOM    100  C   UNL A   1      42.325  27.945  36.089  1.00  0.00     0.200 A 
ATOM    101  F   UNL A   1      43.295  29.658  37.390  1.00  0.00    -0.200 F 
ATOM    102  F   UNL A   1      42.401  27.096  37.124  1.00  0.00    -0.200 F 
ENDBRANCH  69  92
ENDBRANCH  43  44
ENDBRANCH  35  38
ENDBRANCH  33  34
ENDBRANCH  32  33
ENDBRANCH  31  32
ENDBRANCH  30  31
ENDBRANCH   1  30
TORSDOF 18
ENDMDL
MODEL 2
REMARK VINA RESULT:     -12.5      2.562      4.401
REMARK SMILES Cc1c(C#N)c2ccccc2n1CC(=O)N1CC[C@H](O)C[C@@H]1C(=O)NCCCCCCNC(=O)c1ccc(-c2c3nc(c(-c4c(F)c(F)c(F)c(F)c4F)c4ccc([nH]4)c(-c4c(F)c(F)c(F)c(F)c4F)c4nc(c(-c5c(F)c(F)c(F)c(F)c5F)c5ccc2[nH]5)C=C4)C=C3)cc1
REMARK SMILES IDX 27 1 26 2 25 3 23 4 24 5 22 7 16 8 17 9 18 10 21 11 19 12
REMARK SMILES IDX 14 13 15 14 13 15 12 16 1 17 2 18 3 19 6 20 11 21 7 22 10 23
REMARK SMILES IDX 8 24 9 25 4 26 5 27 20 28 28 30 29 31 30 32 31 33 32 34
REMARK SMILES IDX 33 35 34 37 35 38 36 39 97 40 37 41 96 42 38 43 39 44 40 45
REMARK SMILES IDX 90 46 41 47 95 48 89 49 91 50 42 51 94 52 88 53 87 54 43 56
REMARK SMILES IDX 75 57 55 58 74 59 56 60 59 61 73 62 92 63 57 64 58 65 72 67
REMARK SMILES IDX 93 68 60 69 44 70 45 71 53 72 46 73 47 74 51 75 54 76 48 77
REMARK SMILES IDX 49 78 52 79 50 80 76 81 77 82 85 83 78 84 79 85 83 86 86 87
REMARK SMILES IDX 80 88 81 89 84 90 82 91 61 92 62 93 70 94 63 95 64 96 68 97
REMARK SMILES IDX 71 98 65 99 66 100 69 101 67 102
REMARK H PARENT 25 6 20 29 32 36 91 55 59 66
REMARK Flexibility Score: inf
ROOT
ATOM      1  C   UNL A   1      38.931  22.935  26.433  1.00  0.00     0.021 C 
ENDROOT
BRANCH   1   2
ATOM      2  C   UNL A   1      37.692  23.439  25.706  1.00  0.00     0.116 C 
BRANCH   2   3
ATOM      3  N   UNL A   1      36.488  23.392  26.501  1.00  0.00    -0.354 N 
ATOM      4  C   UNL A   1      35.248  22.881  26.288  1.00  0.00     0.242 C 
ATOM      5  O   UNL A   1      34.479  23.002  27.254  1.00  0.00    -0.273 OA
ATOM      6  H   UNL A   1      36.586  23.821  27.382  1.00  0.00     0.163 HD
BRANCH   4   7
ATOM      7  C   UNL A   1      34.674  22.354  24.934  1.00  0.00     0.177 C 
ATOM      8  N   UNL A   1      33.519  23.016  24.309  1.00  0.00    -0.329 N 
ATOM      9  C   UNL A   1      32.181  22.562  24.652  1.00  0.00     0.123 C 
ATOM     10  C   UNL A   1      32.009  21.108  25.110  1.00  0.00     0.053 C 
ATOM     11  C   UNL A   1      34.542  20.836  24.864  1.00  0.00     0.067 C 
ATOM     12  C   UNL A   1      33.261  20.322  25.488  1.00  0.00     0.118 C 
BRANCH   8  13
ATOM     13  C   UNL A   1      33.754  23.789  23.170  1.00  0.00     0.243 C 
ATOM     14  O   UNL A   1      33.751  23.269  22.047  1.00  0.00    -0.273 OA
BRANCH  13  15
ATOM     15  C   UNL A   1      34.221  25.234  23.277  1.00  0.00     0.222 C 
BRANCH  15  16
ATOM     16  N   UNL A   1      33.225  26.279  23.470  1.00  0.00    -0.334 N 
ATOM     17  C   UNL A   1      32.156  26.049  21.179  1.00  0.00     0.066 C 
ATOM     18  C   UNL A   1      32.286  26.675  22.531  1.00  0.00     0.034 A 
ATOM     19  C   UNL A   1      31.496  27.637  23.139  1.00  0.00     0.080 A 
ATOM     20  C   UNL A   1      31.995  27.873  24.450  1.00  0.00     0.018 A 
ATOM     21  C   UNL A   1      33.095  27.029  24.630  1.00  0.00     0.050 A 
ATOM     22  C   UNL A   1      31.605  28.718  25.511  1.00  0.00     0.012 A 
ATOM     23  C   UNL A   1      33.827  27.019  25.831  1.00  0.00     0.027 A 
ATOM     24  C   UNL A   1      32.327  28.709  26.708  1.00  0.00     0.001 A 
ATOM     25  C   UNL A   1      33.426  27.873  26.861  1.00  0.00     0.002 A 
BRANCH  19  26
ATOM     26  C   UNL A   1      30.334  28.249  22.559  1.00  0.00     0.102 C 
ATOM     27  N   UNL A   1      29.401  28.718  22.065  1.00  0.00    -0.192 NA
ENDBRANCH  19  26
ENDBRANCH  15  16
ENDBRANCH  13  15
ENDBRANCH   8  13
BRANCH  12  28
ATOM     28  O   UNL A   1      33.364  20.239  26.902  1.00  0.00    -0.393 OA
ATOM     29  H   UNL A   1      33.886  19.459  27.144  1.00  0.00     0.210 HD
ENDBRANCH  12  28
ENDBRANCH   4   7
ENDBRANCH   2   3
ENDBRANCH   1   2
BRANCH   1  30
ATOM     30  C   UNL A   1      39.373  21.528  26.054  1.00  0.00     0.002 C 
BRANCH  30  31
ATOM     31  C   UNL A   1      40.804  21.182  26.467  1.00  0.00     0.002 C 
BRANCH  31  32
ATOM     32  C   UNL A   1      41.262  19.762  26.105  1.00  0.00     0.021 C 
BRANCH  32  33
ATOM     33  C   UNL A   1      42.768  19.531  26.242  1.00  0.00     0.116 C 
BRANCH  33  34
ATOM     34  N   UNL A   1      43.497  19.727  25.009  1.00  0.00    -0.352 N 
ATOM     35  C   UNL A   1      44.251  20.734  24.491  1.00  0.00     0.251 C 
ATOM     36  H   UNL A   1      43.431  18.952  24.404  1.00  0.00     0.163 HD
ATOM     37  O   UNL A   1      44.787  20.515  23.402  1.00  0.00    -0.269 OA
BRANCH  35  38
ATOM     38  C   UNL A   1      44.363  22.085  25.086  1.00  0.00     0.039 A 
ATOM     39  C   UNL A   1      45.323  22.495  26.012  1.00  0.00     0.014 A 
ATOM     40  C   UNL A   1      43.338  22.975  24.727  1.00  0.00     0.014 A 
ATOM     41  C   UNL A   1      45.119  23.650  26.748  1.00  0.00     0.010 A 
ATOM     42  C   UNL A   1      43.177  24.169  25.397  1.00  0.00     0.010 A 
ATOM     43  C   UNL A   1      43.997  24.435  26.484  1.00  0.00    -0.014 A 
BRANCH  43  44
ATOM     44  C   UNL A   1      43.784  25.647  27.251  1.00  0.00     0.031 A 
ATOM     45  C   UNL A   1      44.794  26.693  26.938  1.00  0.00     0.074 A 
ATOM     46  C   UNL A   1      42.716  25.803  28.063  1.00  0.00     0.049 A 
ATOM     47  N   UNL A   1      45.669  27.196  27.744  1.00  0.00    -0.248 NA
ATOM     48  C   UNL A   1      45.001  27.066  25.528  1.00  0.00     0.031 C 
ATOM     49  C   UNL A   1      41.594  24.888  28.297  1.00  0.00     0.029 A 
ATOM     50  N   UNL A   1      42.371  26.893  28.811  1.00  0.00    -0.354 N 
ATOM     51  C   UNL A   1      46.396  28.112  26.990  1.00  0.00     0.074 A 
ATOM     52  C   UNL A   1      46.073  27.856  25.613  1.00  0.00     0.031 C 
ATOM     53  C   UNL A   1      40.586  25.552  28.910  1.00  0.00     0.029 A 
ATOM     54  C   UNL A   1      41.034  26.891  29.233  1.00  0.00     0.049 A 
ATOM     55  H   UNL A   1      43.002  27.614  29.032  1.00  0.00     0.167 HD
ATOM     56  C   UNL A   1      47.003  29.170  27.592  1.00  0.00     0.037 A 
ATOM     57  C   UNL A   1      40.372  27.974  29.726  1.00  0.00     0.037 A 
ATOM     58  C   UNL A   1      47.182  28.920  28.999  1.00  0.00     0.049 A 
ATOM     59  C   UNL A   1      41.424  28.895  30.249  1.00  0.00     0.074 A 
ATOM     60  C   UNL A   1      47.890  27.978  29.719  1.00  0.00     0.029 A 
ATOM     61  N   UNL A   1      46.242  29.429  29.862  1.00  0.00    -0.354 N 
ATOM     62  N   UNL A   1      42.192  28.578  31.262  1.00  0.00    -0.248 NA
ATOM     63  C   UNL A   1      41.983  29.853  29.302  1.00  0.00     0.031 C 
ATOM     64  C   UNL A   1      47.021  27.608  30.787  1.00  0.00     0.029 A 
ATOM     65  C   UNL A   1      45.890  28.422  30.726  1.00  0.00     0.049 A 
ATOM     66  H   UNL A   1      45.888  30.347  29.862  1.00  0.00     0.167 HD
ATOM     67  C   UNL A   1      43.467  28.948  30.858  1.00  0.00     0.074 A 
ATOM     68  C   UNL A   1      43.272  29.736  29.638  1.00  0.00     0.031 C 
ATOM     69  C   UNL A   1      44.585  28.328  31.338  1.00  0.00     0.037 A 
BRANCH  56  70
ATOM     70  C   UNL A   1      47.056  30.555  27.003  1.00  0.00     0.064 A 
ATOM     71  C   UNL A   1      48.277  31.256  27.016  1.00  0.00     0.173 A 
ATOM     72  C   UNL A   1      45.911  31.332  26.717  1.00  0.00     0.173 A 
ATOM     73  F   UNL A   1      49.426  30.623  27.297  1.00  0.00    -0.203 F 
ATOM     74  C   UNL A   1      48.335  32.640  26.834  1.00  0.00     0.198 A 
ATOM     75  C   UNL A   1      45.979  32.703  26.488  1.00  0.00     0.198 A 
ATOM     76  F   UNL A   1      44.674  30.827  26.761  1.00  0.00    -0.203 F 
ATOM     77  F   UNL A   1      49.503  33.281  26.979  1.00  0.00    -0.200 F 
ATOM     78  C   UNL A   1      47.186  33.364  26.576  1.00  0.00     0.200 A 
ATOM     79  F   UNL A   1      44.849  33.389  26.264  1.00  0.00    -0.200 F 
ATOM     80  F   UNL A   1      47.229  34.697  26.462  1.00  0.00    -0.200 F 
ENDBRANCH  56  70
BRANCH  57  81
ATOM     81  C   UNL A   1      39.000  28.434  29.355  1.00  0.00     0.064 A 
ATOM     82  C   UNL A   1      38.004  28.666  30.324  1.00  0.00     0.173 A 
ATOM     83  C   UNL A   1      38.717  28.916  28.061  1.00  0.00     0.173 A 
ATOM     84  F   UNL A   1      38.200  28.288  31.596  1.00  0.00    -0.203 F 
ATOM     85  C   UNL A   1      36.817  29.350  30.017  1.00  0.00     0.198 A 
ATOM     86  C   UNL A   1      37.536  29.597  27.758  1.00  0.00     0.198 A 
ATOM     87  F   UNL A   1      39.622  28.822  27.078  1.00  0.00    -0.203 F 
ATOM     88  F   UNL A   1      35.915  29.596  30.978  1.00  0.00    -0.200 F 
ATOM     89  C   UNL A   1      36.590  29.824  28.737  1.00  0.00     0.200 A 
ATOM     90  F   UNL A   1      37.351  30.081  26.520  1.00  0.00    -0.200 F 
ATOM     91  F   UNL A   1      35.486  30.531  28.455  1.00  0.00    -0.200 F 
ENDBRANCH  57  81
BRANCH  69  92
ATOM     92  C   UNL A   1      44.447  27.313  32.440  1.00  0.00     0.064 A 
ATOM     93  C   UNL A   1      44.330  25.929  32.222  1.00  0.00     0.173 A 
ATOM     94  C   UNL A   1      44.701  27.735  33.752  1.00  0.00     0.173 A 
ATOM     95  F   UNL A   1      44.186  25.436  30.986  1.00  0.00    -0.203 F 
ATOM     96  C   UNL A   1      44.455  25.014  33.270  1.00  0.00     0.198 A 
ATOM     97  C   UNL A   1      44.859  26.820  34.790  1.00  0.00     0.198 A 
ATOM     98  F   UNL A   1      44.885  29.038  34.010  1.00  0.00    -0.203 F 
ATOM     99  F   UNL A   1      44.367  23.697  33.031  1.00  0.00    -0.200 F 
ATOM    100  C   UNL A   1      44.733  25.462  34.550  1.00  0.00     0.200 A 
ATOM    101  F   UNL A   1      45.188  27.256  36.013  1.00  0.00    -0.200 F 
ATOM    102  F   UNL A   1      44.920  24.583  35.546  1.00  0.00    -0.200 F 
ENDBRANCH  69  92
ENDBRANCH  43  44
ENDBRANCH  35  38
ENDBRANCH  33  34
ENDBRANCH  32  33
ENDBRANCH  31  32
ENDBRANCH  30  31
ENDBRANCH   1  30
TORSDOF 18
ENDMDL
MODEL 3
REMARK VINA RESULT:     -12.4      2.977      8.156
REMARK SMILES Cc1c(C#N)c2ccccc2n1CC(=O)N1CC[C@H](O)C[C@@H]1C(=O)NCCCCCCNC(=O)c1ccc(-c2c3nc(c(-c4c(F)c(F)c(F)c(F)c4F)c4ccc([nH]4)c(-c4c(F)c(F)c(F)c(F)c4F)c4nc(c(-c5c(F)c(F)c(F)c(F)c5F)c5ccc2[nH]5)C=C4)C=C3)cc1
REMARK SMILES IDX 27 1 26 2 25 3 23 4 24 5 22 7 16 8 17 9 18 10 21 11 19 12
REMARK SMILES IDX 14 13 15 14 13 15 12 16 1 17 2 18 3 19 6 20 11 21 7 22 10 23
REMARK SMILES IDX 8 24 9 25 4 26 5 27 20 28 28 30 29 31 30 32 31 33 32 34
REMARK SMILES IDX 33 35 34 37 35 38 36 39 97 40 37 41 96 42 38 43 39 44 40 45
REMARK SMILES IDX 90 46 41 47 95 48 89 49 91 50 42 51 94 52 88 53 87 54 43 56
REMARK SMILES IDX 75 57 55 58 74 59 56 60 59 61 73 62 92 63 57 64 58 65 72 67
REMARK SMILES IDX 93 68 60 69 44 70 45 71 53 72 46 73 47 74 51 75 54 76 48 77
REMARK SMILES IDX 49 78 52 79 50 80 76 81 77 82 85 83 78 84 79 85 83 86 86 87
REMARK SMILES IDX 80 88 81 89 84 90 82 91 61 92 62 93 70 94 63 95 64 96 68 97
REMARK SMILES IDX 71 98 65 99 66 100 69 101 67 102
REMARK H PARENT 25 6 20 29 32 36 91 55 59 66
REMARK Flexibility Score: inf
ROOT
ATOM      1  C   UNL A   1      32.824  29.672  25.289  1.00  0.00     0.021 C 
ENDROOT
BRANCH   1   2
ATOM      2  C   UNL A   1      31.446  29.028  25.212  1.00  0.00     0.116 C 
BRANCH   2   3
ATOM      3  N   UNL A   1      30.999  28.765  23.864  1.00  0.00    -0.354 N 
ATOM      4  C   UNL A   1      30.811  27.626  23.149  1.00  0.00     0.242 C 
ATOM      5  O   UNL A   1      30.361  27.815  22.008  1.00  0.00    -0.273 OA
ATOM      6  H   UNL A   1      30.784  29.582  23.359  1.00  0.00     0.163 HD
BRANCH   4   7
ATOM      7  C   UNL A   1      31.272  26.186  23.544  1.00  0.00     0.177 C 
ATOM      8  N   UNL A   1      32.296  25.992  24.581  1.00  0.00    -0.329 N 
ATOM      9  C   UNL A   1      33.695  25.953  24.186  1.00  0.00     0.123 C 
ATOM     10  C   UNL A   1      34.027  25.498  22.759  1.00  0.00     0.053 C 
ATOM     11  C   UNL A   1      31.510  25.261  22.355  1.00  0.00     0.067 C 
ATOM     12  C   UNL A   1      32.888  25.422  21.746  1.00  0.00     0.118 C 
BRANCH   8  13
ATOM     13  C   UNL A   1      31.878  25.505  25.822  1.00  0.00     0.243 C 
ATOM     14  O   UNL A   1      30.811  25.887  26.319  1.00  0.00    -0.273 OA
BRANCH  13  15
ATOM     15  C   UNL A   1      32.799  24.660  26.691  1.00  0.00     0.222 C 
BRANCH  15  16
ATOM     16  N   UNL A   1      33.178  23.333  26.225  1.00  0.00    -0.334 N 
ATOM     17  C   UNL A   1      30.818  22.405  26.124  1.00  0.00     0.066 C 
ATOM     18  C   UNL A   1      32.301  22.291  25.972  1.00  0.00     0.034 A 
ATOM     19  C   UNL A   1      33.060  21.240  25.483  1.00  0.00     0.080 A 
ATOM     20  C   UNL A   1      34.429  21.627  25.491  1.00  0.00     0.018 A 
ATOM     21  C   UNL A   1      34.484  22.935  25.982  1.00  0.00     0.050 A 
ATOM     22  C   UNL A   1      35.630  20.991  25.110  1.00  0.00     0.012 A 
ATOM     23  C   UNL A   1      35.707  23.617  26.123  1.00  0.00     0.027 A 
ATOM     24  C   UNL A   1      36.847  21.666  25.245  1.00  0.00     0.001 A 
ATOM     25  C   UNL A   1      36.882  22.960  25.750  1.00  0.00     0.002 A 
BRANCH  19  26
ATOM     26  C   UNL A   1      32.542  19.993  24.998  1.00  0.00     0.102 C 
ATOM     27  N   UNL A   1      32.153  18.985  24.587  1.00  0.00    -0.192 NA
ENDBRANCH  19  26
ENDBRANCH  15  16
ENDBRANCH  13  15
ENDBRANCH   8  13
BRANCH  12  28
ATOM     28  O   UNL A   1      32.949  26.543  20.876  1.00  0.00    -0.393 OA
ATOM     29  H   UNL A   1      32.071  26.948  20.808  1.00  0.00     0.210 HD
ENDBRANCH  12  28
ENDBRANCH   4   7
ENDBRANCH   2   3
ENDBRANCH   1   2
BRANCH   1  30
ATOM     30  C   UNL A   1      33.817  28.961  26.197  1.00  0.00     0.002 C 
BRANCH  30  31
ATOM     31  C   UNL A   1      34.392  29.835  27.312  1.00  0.00     0.002 C 
BRANCH  31  32
ATOM     32  C   UNL A   1      33.588  31.105  27.626  1.00  0.00     0.021 C 
BRANCH  32  33
ATOM     33  C   UNL A   1      34.430  32.272  28.144  1.00  0.00     0.116 C 
BRANCH  33  34
ATOM     34  N   UNL A   1      34.571  32.289  29.583  1.00  0.00    -0.352 N 
ATOM     35  C   UNL A   1      35.498  31.821  30.461  1.00  0.00     0.251 C 
ATOM     36  H   UNL A   1      33.820  32.745  30.030  1.00  0.00     0.163 HD
ATOM     37  O   UNL A   1      35.313  32.085  31.651  1.00  0.00    -0.269 OA
BRANCH  35  38
ATOM     38  C   UNL A   1      36.624  30.933  30.091  1.00  0.00     0.039 A 
ATOM     39  C   UNL A   1      36.592  29.538  30.059  1.00  0.00     0.014 A 
ATOM     40  C   UNL A   1      37.839  31.593  29.844  1.00  0.00     0.014 A 
ATOM     41  C   UNL A   1      37.777  28.823  30.041  1.00  0.00     0.010 A 
ATOM     42  C   UNL A   1      39.016  30.882  29.740  1.00  0.00     0.010 A 
ATOM     43  C   UNL A   1      38.987  29.514  29.965  1.00  0.00    -0.014 A 
BRANCH  43  44
ATOM     44  C   UNL A   1      40.229  28.766  29.943  1.00  0.00     0.031 A 
ATOM     45  C   UNL A   1      40.815  28.613  31.300  1.00  0.00     0.074 A 
ATOM     46  C   UNL A   1      40.704  28.200  28.812  1.00  0.00     0.049 A 
ATOM     47  N   UNL A   1      41.943  29.081  31.719  1.00  0.00    -0.248 NA
ATOM     48  C   UNL A   1      39.963  28.067  32.374  1.00  0.00     0.031 C 
ATOM     49  C   UNL A   1      40.103  28.165  27.475  1.00  0.00     0.029 A 
ATOM     50  N   UNL A   1      41.830  27.444  28.652  1.00  0.00    -0.354 N 
ATOM     51  C   UNL A   1      42.040  28.700  33.054  1.00  0.00     0.074 A 
ATOM     52  C   UNL A   1      40.733  28.251  33.447  1.00  0.00     0.031 C 
ATOM     53  C   UNL A   1      40.724  27.228  26.721  1.00  0.00     0.029 A 
ATOM     54  C   UNL A   1      41.845  26.694  27.467  1.00  0.00     0.049 A 
ATOM     55  H   UNL A   1      42.564  27.426  29.307  1.00  0.00     0.167 HD
ATOM     56  C   UNL A   1      43.259  28.548  33.638  1.00  0.00     0.037 A 
ATOM     57  C   UNL A   1      42.691  25.658  27.213  1.00  0.00     0.037 A 
ATOM     58  C   UNL A   1      44.270  29.260  32.899  1.00  0.00     0.049 A 
ATOM     59  C   UNL A   1      43.876  25.869  28.096  1.00  0.00     0.074 A 
ATOM     60  C   UNL A   1      44.471  30.593  32.598  1.00  0.00     0.029 A 
ATOM     61  N   UNL A   1      45.016  28.550  31.991  1.00  0.00    -0.354 N 
ATOM     62  N   UNL A   1      44.677  26.896  27.961  1.00  0.00    -0.248 NA
ATOM     63  C   UNL A   1      43.806  25.290  29.434  1.00  0.00     0.031 C 
ATOM     64  C   UNL A   1      44.896  30.598  31.237  1.00  0.00     0.029 A 
ATOM     65  C   UNL A   1      45.042  29.274  30.824  1.00  0.00     0.049 A 
ATOM     66  H   UNL A   1      45.453  27.682  32.148  1.00  0.00     0.167 HD
ATOM     67  C   UNL A   1      44.871  27.357  29.255  1.00  0.00     0.074 A 
ATOM     68  C   UNL A   1      44.309  26.318  30.123  1.00  0.00     0.031 C 
ATOM     69  C   UNL A   1      45.162  28.665  29.521  1.00  0.00     0.037 A 
BRANCH  56  70
ATOM     70  C   UNL A   1      43.593  27.448  34.611  1.00  0.00     0.064 A 
ATOM     71  C   UNL A   1      44.066  27.790  35.893  1.00  0.00     0.173 A 
ATOM     72  C   UNL A   1      43.766  26.096  34.240  1.00  0.00     0.173 A 
ATOM     73  F   UNL A   1      43.974  29.052  36.341  1.00  0.00    -0.203 F 
ATOM     74  C   UNL A   1      44.730  26.868  36.705  1.00  0.00     0.198 A 
ATOM     75  C   UNL A   1      44.385  25.167  35.073  1.00  0.00     0.198 A 
ATOM     76  F   UNL A   1      43.453  25.641  33.022  1.00  0.00    -0.203 F 
ATOM     77  F   UNL A   1      45.273  27.271  37.862  1.00  0.00    -0.200 F 
ATOM     78  C   UNL A   1      44.894  25.559  36.293  1.00  0.00     0.200 A 
ATOM     79  F   UNL A   1      44.555  23.909  34.642  1.00  0.00    -0.200 F 
ATOM     80  F   UNL A   1      45.582  24.687  37.041  1.00  0.00    -0.200 F 
ENDBRANCH  56  70
BRANCH  57  81
ATOM     81  C   UNL A   1      42.335  24.327  26.636  1.00  0.00     0.064 A 
ATOM     82  C   UNL A   1      43.237  23.592  25.842  1.00  0.00     0.173 A 
ATOM     83  C   UNL A   1      41.196  23.623  27.075  1.00  0.00     0.173 A 
ATOM     84  F   UNL A   1      44.376  24.159  25.415  1.00  0.00    -0.203 F 
ATOM     85  C   UNL A   1      43.019  22.241  25.528  1.00  0.00     0.198 A 
ATOM     86  C   UNL A   1      40.979  22.279  26.762  1.00  0.00     0.198 A 
ATOM     87  F   UNL A   1      40.308  24.195  27.899  1.00  0.00    -0.203 F 
ATOM     88  F   UNL A   1      43.926  21.561  24.811  1.00  0.00    -0.200 F 
ATOM     89  C   UNL A   1      41.895  21.583  25.998  1.00  0.00     0.200 A 
ATOM     90  F   UNL A   1      39.904  21.649  27.258  1.00  0.00    -0.200 F 
ATOM     91  F   UNL A   1      41.713  20.278  25.751  1.00  0.00    -0.200 F 
ENDBRANCH  57  81
BRANCH  69  92
ATOM     92  C   UNL A   1      45.423  29.607  28.377  1.00  0.00     0.064 A 
ATOM     93  C   UNL A   1      44.427  30.384  27.758  1.00  0.00     0.173 A 
ATOM     94  C   UNL A   1      46.755  29.918  28.077  1.00  0.00     0.173 A 
ATOM     95  F   UNL A   1      43.135  30.218  28.063  1.00  0.00    -0.203 F 
ATOM     96  C   UNL A   1      44.754  31.417  26.877  1.00  0.00     0.198 A 
ATOM     97  C   UNL A   1      47.081  30.970  27.225  1.00  0.00     0.198 A 
ATOM     98  F   UNL A   1      47.750  29.253  28.685  1.00  0.00    -0.203 F 
ATOM     99  F   UNL A   1      43.786  32.162  26.321  1.00  0.00    -0.200 F 
ATOM    100  C   UNL A   1      46.082  31.717  26.623  1.00  0.00     0.200 A 
ATOM    101  F   UNL A   1      48.367  31.294  27.032  1.00  0.00    -0.200 F 
ATOM    102  F   UNL A   1      46.400  32.751  25.831  1.00  0.00    -0.200 F 
ENDBRANCH  69  92
ENDBRANCH  43  44
ENDBRANCH  35  38
ENDBRANCH  33  34
ENDBRANCH  32  33
ENDBRANCH  31  32
ENDBRANCH  30  31
ENDBRANCH   1  30
TORSDOF 18
ENDMDL
