MODEL 1
REMARK VINA RESULT:     -12.0      0.000      0.000
REMARK SMILES O=C(NCCCCCCNC(=O)[C@@H]1CCCCN1c1ccccc1[N+](=O)[O-])c1ccc(-c2c3nc(c(-c4c(F)c(F)c(F)c(F)c4F)c4ccc([nH]4)c(-c4c(F)c(F)c(F)c(F)c4F)c4nc(c(-c5c(F)c(F)c(F)c(F)c5F)c5ccc2[nH]5)C=C4)C=C3)cc1
REMARK SMILES IDX 6 1 5 2 4 3 3 4 1 5 2 6 28 8 29 9 90 10 30 11 89 12 31 13
REMARK SMILES IDX 32 14 33 15 83 16 34 17 88 18 82 19 84 20 35 21 87 22 81 23
REMARK SMILES IDX 80 24 36 26 68 27 48 28 67 29 49 30 52 31 66 32 85 33 50 34
REMARK SMILES IDX 51 35 65 37 86 38 53 39 37 40 38 41 46 42 39 43 40 44 44 45
REMARK SMILES IDX 47 46 41 47 42 48 45 49 43 50 69 51 70 52 78 53 71 54 72 55
REMARK SMILES IDX 76 56 79 57 73 58 74 59 77 60 75 61 54 62 55 63 63 64 56 65
REMARK SMILES IDX 57 66 61 67 64 68 58 69 59 70 62 71 60 72 7 73 8 74 9 75
REMARK SMILES IDX 10 76 11 77 12 79 13 80 14 81 18 82 15 83 17 84 16 85 19 86
REMARK SMILES IDX 20 87 24 88 21 89 23 90 22 91 25 92 26 93 27 94
REMARK H PARENT 3 7 84 25 52 36 10 78
REMARK Flexibility Score: inf
ROOT
ATOM      1  C   UNL A   1      31.572  30.830  26.126  1.00  0.00     0.002 C 
ENDROOT
BRANCH   1   2
ATOM      2  C   UNL A   1      31.402  32.290  26.541  1.00  0.00     0.021 C 
BRANCH   2   3
ATOM      3  C   UNL A   1      32.599  32.866  27.281  1.00  0.00     0.116 C 
BRANCH   3   4
ATOM      4  N   UNL A   1      32.394  34.257  27.650  1.00  0.00    -0.352 N 
ATOM      5  O   UNL A   1      32.587  36.075  28.980  1.00  0.00    -0.269 OA
ATOM      6  C   UNL A   1      33.003  34.968  28.652  1.00  0.00     0.251 C 
ATOM      7  H   UNL A   1      31.733  34.750  27.111  1.00  0.00     0.163 HD
BRANCH   6   8
ATOM      8  C   UNL A   1      34.168  34.379  29.342  1.00  0.00     0.039 A 
ATOM      9  C   UNL A   1      33.984  33.633  30.509  1.00  0.00     0.014 A 
ATOM     10  C   UNL A   1      35.448  34.570  28.817  1.00  0.00     0.014 A 
ATOM     11  C   UNL A   1      35.087  33.172  31.213  1.00  0.00     0.010 A 
ATOM     12  C   UNL A   1      36.551  34.024  29.478  1.00  0.00     0.010 A 
ATOM     13  C   UNL A   1      36.378  33.326  30.683  1.00  0.00    -0.014 A 
BRANCH  13  14
ATOM     14  C   UNL A   1      37.508  32.627  31.339  1.00  0.00     0.031 A 
ATOM     15  C   UNL A   1      38.218  31.484  30.677  1.00  0.00     0.074 A 
ATOM     16  C   UNL A   1      37.886  33.056  32.560  1.00  0.00     0.049 A 
ATOM     17  N   UNL A   1      39.219  30.769  31.129  1.00  0.00    -0.248 NA
ATOM     18  C   UNL A   1      37.751  31.084  29.342  1.00  0.00     0.031 C 
ATOM     19  C   UNL A   1      37.245  34.147  33.302  1.00  0.00     0.029 A 
ATOM     20  N   UNL A   1      38.893  32.642  33.390  1.00  0.00    -0.354 N 
ATOM     21  C   UNL A   1      39.487  29.825  30.147  1.00  0.00     0.074 A 
ATOM     22  C   UNL A   1      38.536  30.046  29.078  1.00  0.00     0.031 C 
ATOM     23  C   UNL A   1      37.896  34.339  34.456  1.00  0.00     0.029 A 
ATOM     24  C   UNL A   1      38.950  33.340  34.572  1.00  0.00     0.049 A 
ATOM     25  H   UNL A   1      39.518  31.915  33.162  1.00  0.00     0.167 HD
ATOM     26  C   UNL A   1      40.445  28.867  30.147  1.00  0.00     0.037 A 
ATOM     27  C   UNL A   1      39.739  33.172  35.648  1.00  0.00     0.037 A 
ATOM     28  C   UNL A   1      41.396  28.671  31.214  1.00  0.00     0.049 A 
ATOM     29  C   UNL A   1      40.768  32.080  35.623  1.00  0.00     0.074 A 
ATOM     30  C   UNL A   1      42.443  27.769  31.277  1.00  0.00     0.029 A 
ATOM     31  N   UNL A   1      41.406  29.379  32.406  1.00  0.00    -0.354 N 
ATOM     32  N   UNL A   1      41.054  31.235  34.661  1.00  0.00    -0.248 NA
ATOM     33  C   UNL A   1      41.581  31.912  36.833  1.00  0.00     0.031 C 
ATOM     34  C   UNL A   1      43.050  27.889  32.532  1.00  0.00     0.029 A 
ATOM     35  C   UNL A   1      42.419  28.907  33.227  1.00  0.00     0.049 A 
ATOM     36  H   UNL A   1      40.787  30.110  32.636  1.00  0.00     0.167 HD
ATOM     37  C   UNL A   1      42.086  30.446  35.144  1.00  0.00     0.074 A 
ATOM     38  C   UNL A   1      42.399  30.935  36.471  1.00  0.00     0.031 C 
ATOM     39  C   UNL A   1      42.713  29.405  34.546  1.00  0.00     0.037 A 
BRANCH  26  40
ATOM     40  C   UNL A   1      40.519  27.935  28.973  1.00  0.00     0.064 A 
ATOM     41  C   UNL A   1      39.759  26.758  28.915  1.00  0.00     0.173 A 
ATOM     42  C   UNL A   1      41.281  28.280  27.845  1.00  0.00     0.173 A 
ATOM     43  F   UNL A   1      39.020  26.379  29.969  1.00  0.00    -0.203 F 
ATOM     44  C   UNL A   1      39.763  25.958  27.775  1.00  0.00     0.198 A 
ATOM     45  C   UNL A   1      41.263  27.492  26.697  1.00  0.00     0.198 A 
ATOM     46  F   UNL A   1      42.020  29.399  27.846  1.00  0.00    -0.203 F 
ATOM     47  F   UNL A   1      39.044  24.827  27.748  1.00  0.00    -0.200 F 
ATOM     48  C   UNL A   1      40.505  26.331  26.663  1.00  0.00     0.200 A 
ATOM     49  F   UNL A   1      41.968  27.862  25.620  1.00  0.00    -0.200 F 
ATOM     50  F   UNL A   1      40.488  25.573  25.558  1.00  0.00    -0.200 F 
ENDBRANCH  26  40
BRANCH  27  51
ATOM     51  C   UNL A   1      39.559  34.033  36.847  1.00  0.00     0.064 A 
ATOM     52  C   UNL A   1      40.174  35.288  36.937  1.00  0.00     0.173 A 
ATOM     53  C   UNL A   1      38.783  33.606  37.936  1.00  0.00     0.173 A 
ATOM     54  F   UNL A   1      40.938  35.734  35.929  1.00  0.00    -0.203 F 
ATOM     55  C   UNL A   1      40.046  36.070  38.083  1.00  0.00     0.198 A 
ATOM     56  C   UNL A   1      38.626  34.404  39.065  1.00  0.00     0.198 A 
ATOM     57  F   UNL A   1      38.167  32.415  37.898  1.00  0.00    -0.203 F 
ATOM     58  F   UNL A   1      40.694  37.239  38.169  1.00  0.00    -0.200 F 
ATOM     59  C   UNL A   1      39.269  35.630  39.144  1.00  0.00     0.200 A 
ATOM     60  F   UNL A   1      37.856  33.984  40.078  1.00  0.00    -0.200 F 
ATOM     61  F   UNL A   1      39.147  36.382  40.246  1.00  0.00    -0.200 F 
ENDBRANCH  27  51
BRANCH  39  62
ATOM     62  C   UNL A   1      43.813  28.739  35.322  1.00  0.00     0.064 A 
ATOM     63  C   UNL A   1      43.547  27.704  36.230  1.00  0.00     0.173 A 
ATOM     64  C   UNL A   1      45.148  29.130  35.141  1.00  0.00     0.173 A 
ATOM     65  F   UNL A   1      42.284  27.309  36.453  1.00  0.00    -0.203 F 
ATOM     66  C   UNL A   1      44.575  27.106  36.953  1.00  0.00     0.198 A 
ATOM     67  C   UNL A   1      46.177  28.506  35.840  1.00  0.00     0.198 A 
ATOM     68  F   UNL A   1      45.455  30.113  34.281  1.00  0.00    -0.203 F 
ATOM     69  F   UNL A   1      44.291  26.158  37.858  1.00  0.00    -0.200 F 
ATOM     70  C   UNL A   1      45.889  27.501  36.751  1.00  0.00     0.200 A 
ATOM     71  F   UNL A   1      47.447  28.880  35.635  1.00  0.00    -0.200 F 
ATOM     72  F   UNL A   1      46.878  26.920  37.444  1.00  0.00    -0.200 F 
ENDBRANCH  39  62
ENDBRANCH  13  14
ENDBRANCH   6   8
ENDBRANCH   3   4
ENDBRANCH   2   3
ENDBRANCH   1   2
BRANCH   1  73
ATOM     73  C   UNL A   1      32.304  29.957  27.150  1.00  0.00     0.002 C 
BRANCH  73  74
ATOM     74  C   UNL A   1      33.771  29.648  26.815  1.00  0.00     0.021 C 
BRANCH  74  75
ATOM     75  C   UNL A   1      34.040  28.181  26.475  1.00  0.00     0.116 C 
BRANCH  75  76
ATOM     76  N   UNL A   1      32.902  27.362  26.817  1.00  0.00    -0.354 N 
ATOM     77  C   UNL A   1      32.050  26.632  26.045  1.00  0.00     0.242 C 
ATOM     78  H   UNL A   1      32.708  27.325  27.781  1.00  0.00     0.163 HD
ATOM     79  O   UNL A   1      31.230  25.976  26.694  1.00  0.00    -0.273 OA
BRANCH  77  80
ATOM     80  C   UNL A   1      32.218  26.577  24.492  1.00  0.00     0.171 C 
ATOM     81  C   UNL A   1      30.937  26.346  23.674  1.00  0.00     0.035 C 
ATOM     82  N   UNL A   1      33.221  25.606  23.970  1.00  0.00    -0.354 N 
ATOM     83  C   UNL A   1      31.225  26.592  22.187  1.00  0.00     0.004 C 
ATOM     84  C   UNL A   1      33.597  25.761  22.565  1.00  0.00     0.117 C 
ATOM     85  C   UNL A   1      32.346  25.681  21.685  1.00  0.00     0.022 C 
BRANCH  82  86
ATOM     86  C   UNL A   1      33.697  24.540  24.707  1.00  0.00     0.116 A 
ATOM     87  C   UNL A   1      34.957  24.645  25.331  1.00  0.00     0.033 A 
ATOM     88  C   UNL A   1      33.043  23.297  24.837  1.00  0.00     0.292 A 
ATOM     89  C   UNL A   1      35.560  23.566  25.988  1.00  0.00     0.003 A 
ATOM     90  C   UNL A   1      33.637  22.210  25.509  1.00  0.00     0.088 A 
ATOM     91  C   UNL A   1      34.905  22.344  26.068  1.00  0.00     0.007 A 
BRANCH  88  92
ATOM     92  N   UNL A   1      31.726  23.053  24.250  1.00  0.00     0.064 N 
ATOM     93  O   UNL A   1      30.749  23.159  25.010  1.00  0.00    -0.258 OA
ATOM     94  O   UNL A   1      31.644  22.742  23.053  1.00  0.00    -0.258 OA
ENDBRANCH  88  92
ENDBRANCH  82  86
ENDBRANCH  77  80
ENDBRANCH  75  76
ENDBRANCH  74  75
ENDBRANCH  73  74
ENDBRANCH   1  73
TORSDOF 15
ENDMDL
MODEL 2
REMARK VINA RESULT:     -11.9      4.344     10.997
REMARK SMILES O=C(NCCCCCCNC(=O)[C@@H]1CCCCN1c1ccccc1[N+](=O)[O-])c1ccc(-c2c3nc(c(-c4c(F)c(F)c(F)c(F)c4F)c4ccc([nH]4)c(-c4c(F)c(F)c(F)c(F)c4F)c4nc(c(-c5c(F)c(F)c(F)c(F)c5F)c5ccc2[nH]5)C=C4)C=C3)cc1
REMARK SMILES IDX 6 1 5 2 4 3 3 4 1 5 2 6 28 8 29 9 90 10 30 11 89 12 31 13
REMARK SMILES IDX 32 14 33 15 83 16 34 17 88 18 82 19 84 20 35 21 87 22 81 23
REMARK SMILES IDX 80 24 36 26 68 27 48 28 67 29 49 30 52 31 66 32 85 33 50 34
REMARK SMILES IDX 51 35 65 37 86 38 53 39 37 40 38 41 46 42 39 43 40 44 44 45
REMARK SMILES IDX 47 46 41 47 42 48 45 49 43 50 69 51 70 52 78 53 71 54 72 55
REMARK SMILES IDX 76 56 79 57 73 58 74 59 77 60 75 61 54 62 55 63 63 64 56 65
REMARK SMILES IDX 57 66 61 67 64 68 58 69 59 70 62 71 60 72 7 73 8 74 9 75
REMARK SMILES IDX 10 76 11 77 12 79 13 80 14 81 18 82 15 83 17 84 16 85 19 86
REMARK SMILES IDX 20 87 24 88 21 89 23 90 22 91 25 92 26 93 27 94
REMARK H PARENT 3 7 84 25 52 36 10 78
REMARK Flexibility Score: inf
ROOT
ATOM      1  C   UNL A   1      36.441  33.663  28.278  1.00  0.00     0.002 C 
ENDROOT
BRANCH   1   2
ATOM      2  C   UNL A   1      35.141  33.657  29.079  1.00  0.00     0.021 C 
BRANCH   2   3
ATOM      3  C   UNL A   1      34.804  32.312  29.701  1.00  0.00     0.116 C 
BRANCH   3   4
ATOM      4  N   UNL A   1      34.165  31.417  28.750  1.00  0.00    -0.352 N 
ATOM      5  O   UNL A   1      34.122  29.868  27.103  1.00  0.00    -0.269 OA
ATOM      6  C   UNL A   1      34.738  30.410  28.016  1.00  0.00     0.251 C 
ATOM      7  H   UNL A   1      33.199  31.552  28.616  1.00  0.00     0.163 HD
BRANCH   6   8
ATOM      8  C   UNL A   1      36.116  29.987  28.334  1.00  0.00     0.039 A 
ATOM      9  C   UNL A   1      37.131  30.144  27.386  1.00  0.00     0.014 A 
ATOM     10  C   UNL A   1      36.396  29.435  29.585  1.00  0.00     0.014 A 
ATOM     11  C   UNL A   1      38.400  29.649  27.646  1.00  0.00     0.010 A 
ATOM     12  C   UNL A   1      37.698  29.021  29.881  1.00  0.00     0.010 A 
ATOM     13  C   UNL A   1      38.706  29.121  28.910  1.00  0.00    -0.014 A 
BRANCH  13  14
ATOM     14  C   UNL A   1      40.120  28.813  29.232  1.00  0.00     0.031 A 
ATOM     15  C   UNL A   1      40.971  29.759  30.027  1.00  0.00     0.074 A 
ATOM     16  C   UNL A   1      40.623  27.643  28.790  1.00  0.00     0.049 A 
ATOM     17  N   UNL A   1      42.226  29.631  30.381  1.00  0.00    -0.248 NA
ATOM     18  C   UNL A   1      40.344  31.009  30.479  1.00  0.00     0.031 C 
ATOM     19  C   UNL A   1      39.884  26.661  27.990  1.00  0.00     0.029 A 
ATOM     20  N   UNL A   1      41.858  27.073  28.950  1.00  0.00    -0.354 N 
ATOM     21  C   UNL A   1      42.545  30.788  31.079  1.00  0.00     0.074 A 
ATOM     22  C   UNL A   1      41.357  31.616  31.088  1.00  0.00     0.031 C 
ATOM     23  C   UNL A   1      40.665  25.599  27.760  1.00  0.00     0.029 A 
ATOM     24  C   UNL A   1      41.981  25.853  28.330  1.00  0.00     0.049 A 
ATOM     25  H   UNL A   1      42.587  27.496  29.460  1.00  0.00     0.167 HD
ATOM     26  C   UNL A   1      43.724  31.117  31.658  1.00  0.00     0.037 A 
ATOM     27  C   UNL A   1      43.047  25.043  28.204  1.00  0.00     0.037 A 
ATOM     28  C   UNL A   1      44.893  30.273  31.654  1.00  0.00     0.049 A 
ATOM     29  C   UNL A   1      44.346  25.457  28.832  1.00  0.00     0.074 A 
ATOM     30  C   UNL A   1      46.114  30.492  32.267  1.00  0.00     0.029 A 
ATOM     31  N   UNL A   1      44.990  29.057  30.995  1.00  0.00    -0.354 N 
ATOM     32  N   UNL A   1      44.615  26.525  29.545  1.00  0.00    -0.248 NA
ATOM     33  C   UNL A   1      45.489  24.559  28.636  1.00  0.00     0.031 C 
ATOM     34  C   UNL A   1      46.970  29.438  31.930  1.00  0.00     0.029 A 
ATOM     35  C   UNL A   1      46.264  28.533  31.155  1.00  0.00     0.049 A 
ATOM     36  H   UNL A   1      44.262  28.628  30.488  1.00  0.00     0.167 HD
ATOM     37  C   UNL A   1      45.953  26.420  29.892  1.00  0.00     0.074 A 
ATOM     38  C   UNL A   1      46.431  25.169  29.342  1.00  0.00     0.031 C 
ATOM     39  C   UNL A   1      46.721  27.286  30.597  1.00  0.00     0.037 A 
BRANCH  26  40
ATOM     40  C   UNL A   1      43.836  32.452  32.336  1.00  0.00     0.064 A 
ATOM     41  C   UNL A   1      43.587  32.608  33.707  1.00  0.00     0.173 A 
ATOM     42  C   UNL A   1      44.304  33.568  31.623  1.00  0.00     0.173 A 
ATOM     43  F   UNL A   1      43.133  31.574  34.432  1.00  0.00    -0.203 F 
ATOM     44  C   UNL A   1      43.797  33.832  34.338  1.00  0.00     0.198 A 
ATOM     45  C   UNL A   1      44.535  34.784  32.262  1.00  0.00     0.198 A 
ATOM     46  F   UNL A   1      44.564  33.471  30.311  1.00  0.00    -0.203 F 
ATOM     47  F   UNL A   1      43.534  33.963  35.646  1.00  0.00    -0.200 F 
ATOM     48  C   UNL A   1      44.281  34.915  33.619  1.00  0.00     0.200 A 
ATOM     49  F   UNL A   1      45.018  35.823  31.569  1.00  0.00    -0.200 F 
ATOM     50  F   UNL A   1      44.505  36.085  34.234  1.00  0.00    -0.200 F 
ENDBRANCH  26  40
BRANCH  27  51
ATOM     51  C   UNL A   1      42.939  23.785  27.420  1.00  0.00     0.064 A 
ATOM     52  C   UNL A   1      42.507  22.594  28.017  1.00  0.00     0.173 A 
ATOM     53  C   UNL A   1      43.285  23.745  26.060  1.00  0.00     0.173 A 
ATOM     54  F   UNL A   1      42.181  22.576  29.318  1.00  0.00    -0.203 F 
ATOM     55  C   UNL A   1      42.456  21.404  27.293  1.00  0.00     0.198 A 
ATOM     56  C   UNL A   1      43.198  22.564  25.328  1.00  0.00     0.198 A 
ATOM     57  F   UNL A   1      43.697  24.859  25.437  1.00  0.00    -0.203 F 
ATOM     58  F   UNL A   1      42.099  20.266  27.904  1.00  0.00    -0.200 F 
ATOM     59  C   UNL A   1      42.797  21.391  25.949  1.00  0.00     0.200 A 
ATOM     60  F   UNL A   1      43.507  22.562  24.025  1.00  0.00    -0.200 F 
ATOM     61  F   UNL A   1      42.748  20.247  25.254  1.00  0.00    -0.200 F 
ENDBRANCH  27  51
BRANCH  39  62
ATOM     62  C   UNL A   1      48.152  26.894  30.824  1.00  0.00     0.064 A 
ATOM     63  C   UNL A   1      48.527  26.079  31.902  1.00  0.00     0.173 A 
ATOM     64  C   UNL A   1      49.155  27.324  29.943  1.00  0.00     0.173 A 
ATOM     65  F   UNL A   1      47.608  25.660  32.784  1.00  0.00    -0.203 F 
ATOM     66  C   UNL A   1      49.860  25.735  32.108  1.00  0.00     0.198 A 
ATOM     67  C   UNL A   1      50.482  26.949  30.131  1.00  0.00     0.198 A 
ATOM     68  F   UNL A   1      48.848  28.101  28.894  1.00  0.00    -0.203 F 
ATOM     69  F   UNL A   1      50.203  25.004  33.177  1.00  0.00    -0.200 F 
ATOM     70  C   UNL A   1      50.835  26.163  31.218  1.00  0.00     0.200 A 
ATOM     71  F   UNL A   1      51.420  27.352  29.265  1.00  0.00    -0.200 F 
ATOM     72  F   UNL A   1      52.117  25.827  31.415  1.00  0.00    -0.200 F 
ENDBRANCH  39  62
ENDBRANCH  13  14
ENDBRANCH   6   8
ENDBRANCH   3   4
ENDBRANCH   2   3
ENDBRANCH   1   2
BRANCH   1  73
ATOM     73  C   UNL A   1      37.686  33.271  29.078  1.00  0.00     0.002 C 
BRANCH  73  74
ATOM     74  C   UNL A   1      38.777  34.349  29.161  1.00  0.00     0.021 C 
BRANCH  74  75
ATOM     75  C   UNL A   1      39.251  34.653  30.583  1.00  0.00     0.116 C 
BRANCH  75  76
ATOM     76  N   UNL A   1      38.139  35.027  31.422  1.00  0.00    -0.354 N 
ATOM     77  C   UNL A   1      37.476  34.350  32.401  1.00  0.00     0.242 C 
ATOM     78  H   UNL A   1      37.798  35.935  31.257  1.00  0.00     0.163 HD
ATOM     79  O   UNL A   1      36.617  35.022  32.976  1.00  0.00    -0.273 OA
BRANCH  77  80
ATOM     80  C   UNL A   1      37.892  32.894  32.792  1.00  0.00     0.171 C 
ATOM     81  C   UNL A   1      36.747  31.929  33.144  1.00  0.00     0.035 C 
ATOM     82  N   UNL A   1      38.892  32.766  33.891  1.00  0.00    -0.354 N 
ATOM     83  C   UNL A   1      37.293  30.497  33.234  1.00  0.00     0.004 C 
ATOM     84  C   UNL A   1      39.502  31.447  34.055  1.00  0.00     0.117 C 
ATOM     85  C   UNL A   1      38.409  30.397  34.273  1.00  0.00     0.022 C 
BRANCH  82  86
ATOM     86  C   UNL A   1      39.160  33.777  34.793  1.00  0.00     0.116 A 
ATOM     87  C   UNL A   1      40.250  34.638  34.553  1.00  0.00     0.033 A 
ATOM     88  C   UNL A   1      38.458  33.986  35.998  1.00  0.00     0.292 A 
ATOM     89  C   UNL A   1      40.659  35.603  35.480  1.00  0.00     0.003 A 
ATOM     90  C   UNL A   1      38.856  34.965  36.931  1.00  0.00     0.088 A 
ATOM     91  C   UNL A   1      39.969  35.760  36.675  1.00  0.00     0.007 A 
BRANCH  88  92
ATOM     92  N   UNL A   1      37.300  33.172  36.367  1.00  0.00     0.064 N 
ATOM     93  O   UNL A   1      37.531  32.128  37.000  1.00  0.00    -0.258 OA
ATOM     94  O   UNL A   1      36.166  33.541  36.026  1.00  0.00    -0.258 OA
ENDBRANCH  88  92
ENDBRANCH  82  86
ENDBRANCH  77  80
ENDBRANCH  75  76
ENDBRANCH  74  75
ENDBRANCH  73  74
ENDBRANCH   1  73
TORSDOF 15
ENDMDL
MODEL 3
REMARK VINA RESULT:     -11.9      1.031      7.456
REMARK SMILES O=C(NCCCCCCNC(=O)[C@@H]1CCCCN1c1ccccc1[N+](=O)[O-])c1ccc(-c2c3nc(c(-c4c(F)c(F)c(F)c(F)c4F)c4ccc([nH]4)c(-c4c(F)c(F)c(F)c(F)c4F)c4nc(c(-c5c(F)c(F)c(F)c(F)c5F)c5ccc2[nH]5)C=C4)C=C3)cc1
REMARK SMILES IDX 6 1 5 2 4 3 3 4 1 5 2 6 28 8 29 9 90 10 30 11 89 12 31 13
REMARK SMILES IDX 32 14 33 15 83 16 34 17 88 18 82 19 84 20 35 21 87 22 81 23
REMARK SMILES IDX 80 24 36 26 68 27 48 28 67 29 49 30 52 31 66 32 85 33 50 34
REMARK SMILES IDX 51 35 65 37 86 38 53 39 37 40 38 41 46 42 39 43 40 44 44 45
REMARK SMILES IDX 47 46 41 47 42 48 45 49 43 50 69 51 70 52 78 53 71 54 72 55
REMARK SMILES IDX 76 56 79 57 73 58 74 59 77 60 75 61 54 62 55 63 63 64 56 65
REMARK SMILES IDX 57 66 61 67 64 68 58 69 59 70 62 71 60 72 7 73 8 74 9 75
REMARK SMILES IDX 10 76 11 77 12 79 13 80 14 81 18 82 15 83 17 84 16 85 19 86
REMARK SMILES IDX 20 87 24 88 21 89 23 90 22 91 25 92 26 93 27 94
REMARK H PARENT 3 7 84 25 52 36 10 78
REMARK Flexibility Score: inf
ROOT
ATOM      1  C   UNL A   1      31.601  30.825  26.081  1.00  0.00     0.002 C 
ENDROOT
BRANCH   1   2
ATOM      2  C   UNL A   1      31.389  32.218  26.671  1.00  0.00     0.021 C 
BRANCH   2   3
ATOM      3  C   UNL A   1      32.641  32.830  27.277  1.00  0.00     0.116 C 
BRANCH   3   4
ATOM      4  N   UNL A   1      32.433  34.210  27.680  1.00  0.00    -0.352 N 
ATOM      5  O   UNL A   1      32.620  35.995  29.056  1.00  0.00    -0.269 OA
ATOM      6  C   UNL A   1      33.038  34.897  28.701  1.00  0.00     0.251 C 
ATOM      7  H   UNL A   1      31.773  34.716  27.152  1.00  0.00     0.163 HD
BRANCH   6   8
ATOM      8  C   UNL A   1      34.203  34.293  29.379  1.00  0.00     0.039 A 
ATOM      9  C   UNL A   1      34.016  33.498  30.513  1.00  0.00     0.014 A 
ATOM     10  C   UNL A   1      35.485  34.518  28.875  1.00  0.00     0.014 A 
ATOM     11  C   UNL A   1      35.117  33.021  31.209  1.00  0.00     0.010 A 
ATOM     12  C   UNL A   1      36.589  33.957  29.525  1.00  0.00     0.010 A 
ATOM     13  C   UNL A   1      36.411  33.210  30.699  1.00  0.00    -0.014 A 
BRANCH  13  14
ATOM     14  C   UNL A   1      37.542  32.496  31.338  1.00  0.00     0.031 A 
ATOM     15  C   UNL A   1      38.034  32.865  32.706  1.00  0.00     0.074 A 
ATOM     16  C   UNL A   1      38.118  31.491  30.648  1.00  0.00     0.049 A 
ATOM     17  N   UNL A   1      39.017  32.338  33.393  1.00  0.00    -0.248 NA
ATOM     18  C   UNL A   1      37.345  33.967  33.394  1.00  0.00     0.031 C 
ATOM     19  C   UNL A   1      37.728  31.067  29.300  1.00  0.00     0.029 A 
ATOM     20  N   UNL A   1      39.140  30.641  30.977  1.00  0.00    -0.354 N 
ATOM     21  C   UNL A   1      39.079  33.053  34.581  1.00  0.00     0.074 A 
ATOM     22  C   UNL A   1      38.043  34.062  34.520  1.00  0.00     0.031 C 
ATOM     23  C   UNL A   1      38.474  30.018  28.933  1.00  0.00     0.029 A 
ATOM     24  C   UNL A   1      39.444  29.742  29.984  1.00  0.00     0.049 A 
ATOM     25  H   UNL A   1      39.612  30.671  31.841  1.00  0.00     0.167 HD
ATOM     26  C   UNL A   1      39.925  32.871  35.623  1.00  0.00     0.037 A 
ATOM     27  C   UNL A   1      40.420  28.819  29.912  1.00  0.00     0.037 A 
ATOM     28  C   UNL A   1      40.941  31.849  35.674  1.00  0.00     0.049 A 
ATOM     29  C   UNL A   1      41.358  28.670  31.073  1.00  0.00     0.074 A 
ATOM     30  C   UNL A   1      41.805  31.546  36.712  1.00  0.00     0.029 A 
ATOM     31  N   UNL A   1      41.237  30.973  34.641  1.00  0.00    -0.354 N 
ATOM     32  N   UNL A   1      41.364  29.309  32.219  1.00  0.00    -0.248 NA
ATOM     33  C   UNL A   1      42.427  27.675  30.933  1.00  0.00     0.031 C 
ATOM     34  C   UNL A   1      42.663  30.528  36.286  1.00  0.00     0.029 A 
ATOM     35  C   UNL A   1      42.297  30.156  35.003  1.00  0.00     0.049 A 
ATOM     36  H   UNL A   1      40.765  30.937  33.777  1.00  0.00     0.167 HD
ATOM     37  C   UNL A   1      42.426  28.786  32.939  1.00  0.00     0.074 A 
ATOM     38  C   UNL A   1      43.021  27.753  32.116  1.00  0.00     0.031 C 
ATOM     39  C   UNL A   1      42.876  29.135  34.168  1.00  0.00     0.037 A 
BRANCH  26  40
ATOM     40  C   UNL A   1      39.817  33.800  36.798  1.00  0.00     0.064 A 
ATOM     41  C   UNL A   1      40.434  35.059  36.804  1.00  0.00     0.173 A 
ATOM     42  C   UNL A   1      38.995  33.467  37.887  1.00  0.00     0.173 A 
ATOM     43  F   UNL A   1      41.235  35.422  35.791  1.00  0.00    -0.203 F 
ATOM     44  C   UNL A   1      40.238  35.947  37.858  1.00  0.00     0.198 A 
ATOM     45  C   UNL A   1      38.781  34.367  38.927  1.00  0.00     0.198 A 
ATOM     46  F   UNL A   1      38.376  32.279  37.927  1.00  0.00    -0.203 F 
ATOM     47  F   UNL A   1      40.853  37.138  37.853  1.00  0.00    -0.200 F 
ATOM     48  C   UNL A   1      39.403  35.607  38.913  1.00  0.00     0.200 A 
ATOM     49  F   UNL A   1      37.962  34.042  39.936  1.00  0.00    -0.200 F 
ATOM     50  F   UNL A   1      39.196  36.473  39.914  1.00  0.00    -0.200 F 
ENDBRANCH  26  40
BRANCH  27  51
ATOM     51  C   UNL A   1      40.579  27.998  28.683  1.00  0.00     0.064 A 
ATOM     52  C   UNL A   1      41.359  28.445  27.609  1.00  0.00     0.173 A 
ATOM     53  C   UNL A   1      39.936  26.757  28.551  1.00  0.00     0.173 A 
ATOM     54  F   UNL A   1      41.981  29.631  27.680  1.00  0.00    -0.203 F 
ATOM     55  C   UNL A   1      41.465  27.696  26.438  1.00  0.00     0.198 A 
ATOM     56  C   UNL A   1      40.072  25.994  27.395  1.00  0.00     0.198 A 
ATOM     57  F   UNL A   1      39.183  26.279  29.553  1.00  0.00    -0.203 F 
ATOM     58  F   UNL A   1      42.167  28.175  25.402  1.00  0.00    -0.200 F 
ATOM     59  C   UNL A   1      40.825  26.470  26.333  1.00  0.00     0.200 A 
ATOM     60  F   UNL A   1      39.470  24.800  27.308  1.00  0.00    -0.200 F 
ATOM     61  F   UNL A   1      40.927  25.753  25.207  1.00  0.00    -0.200 F 
ENDBRANCH  27  51
BRANCH  39  62
ATOM     62  C   UNL A   1      44.058  28.376  34.699  1.00  0.00     0.064 A 
ATOM     63  C   UNL A   1      45.369  28.835  34.506  1.00  0.00     0.173 A 
ATOM     64  C   UNL A   1      43.874  27.189  35.423  1.00  0.00     0.173 A 
ATOM     65  F   UNL A   1      45.597  29.954  33.803  1.00  0.00    -0.203 F 
ATOM     66  C   UNL A   1      46.456  28.114  34.992  1.00  0.00     0.198 A 
ATOM     67  C   UNL A   1      44.962  26.489  35.937  1.00  0.00     0.198 A 
ATOM     68  F   UNL A   1      42.640  26.710  35.638  1.00  0.00    -0.203 F 
ATOM     69  F   UNL A   1      47.704  28.540  34.746  1.00  0.00    -0.200 F 
ATOM     70  C   UNL A   1      46.252  26.947  35.714  1.00  0.00     0.200 A 
ATOM     71  F   UNL A   1      44.762  25.369  36.645  1.00  0.00    -0.200 F 
ATOM     72  F   UNL A   1      47.300  26.257  36.185  1.00  0.00    -0.200 F 
ENDBRANCH  39  62
ENDBRANCH  13  14
ENDBRANCH   6   8
ENDBRANCH   3   4
ENDBRANCH   2   3
ENDBRANCH   1   2
BRANCH   1  73
ATOM     73  C   UNL A   1      32.322  29.842  27.008  1.00  0.00     0.002 C 
BRANCH  73  74
ATOM     74  C   UNL A   1      31.423  28.785  27.667  1.00  0.00     0.021 C 
BRANCH  74  75
ATOM     75  C   UNL A   1      32.002  27.370  27.648  1.00  0.00     0.116 C 
BRANCH  75  76
ATOM     76  N   UNL A   1      31.208  26.506  26.810  1.00  0.00    -0.354 N 
ATOM     77  C   UNL A   1      31.022  26.475  25.461  1.00  0.00     0.242 C 
ATOM     78  H   UNL A   1      30.712  25.813  27.303  1.00  0.00     0.163 HD
ATOM     79  O   UNL A   1      30.330  25.528  25.076  1.00  0.00    -0.273 OA
BRANCH  77  80
ATOM     80  C   UNL A   1      31.739  27.504  24.528  1.00  0.00     0.171 C 
ATOM     81  C   UNL A   1      31.011  27.865  23.222  1.00  0.00     0.035 C 
ATOM     82  N   UNL A   1      33.142  27.179  24.141  1.00  0.00    -0.354 N 
ATOM     83  C   UNL A   1      31.699  29.069  22.567  1.00  0.00     0.004 C 
ATOM     84  C   UNL A   1      33.908  28.264  23.529  1.00  0.00     0.117 C 
ATOM     85  C   UNL A   1      33.174  28.778  22.288  1.00  0.00     0.022 C 
BRANCH  82  86
ATOM     86  C   UNL A   1      33.677  25.909  24.232  1.00  0.00     0.116 A 
ATOM     87  C   UNL A   1      34.435  25.564  25.369  1.00  0.00     0.033 A 
ATOM     88  C   UNL A   1      33.583  24.924  23.227  1.00  0.00     0.292 A 
ATOM     89  C   UNL A   1      35.112  24.343  25.475  1.00  0.00     0.003 A 
ATOM     90  C   UNL A   1      34.250  23.687  23.332  1.00  0.00     0.088 A 
ATOM     91  C   UNL A   1      35.029  23.408  24.451  1.00  0.00     0.007 A 
BRANCH  88  92
ATOM     92  N   UNL A   1      32.818  25.145  22.000  1.00  0.00     0.064 N 
ATOM     93  O   UNL A   1      31.604  24.884  22.046  1.00  0.00    -0.258 OA
ATOM     94  O   UNL A   1      33.402  25.554  20.986  1.00  0.00    -0.258 OA
ENDBRANCH  88  92
ENDBRANCH  82  86
ENDBRANCH  77  80
ENDBRANCH  75  76
ENDBRANCH  74  75
ENDBRANCH  73  74
ENDBRANCH   1  73
TORSDOF 15
ENDMDL
