MODEL 1
REMARK VINA RESULT:     -12.5      0.000      0.000
REMARK SMILES Cc1nc(C)c(C(=O)N2CCC([C@H](C)C(=O)NCCCCCCNC(=O)c3ccc(-c4c5nc(c(-c6c(F)c(F)c(F)c(F)c6F)c6ccc([nH]6)c(-c6c(F)c(F)c(F)c(F)c6F)c6nc(c(-c7c(F)c(F)c(F)c(F)c7F)c7ccc4[nH]7)C=C6)C=C5)cc3)CC2)s1
REMARK SMILES IDX 20 1 19 2 18 3 17 4 15 5 16 6 13 8 14 9 12 10 7 11 8 12 9 13
REMARK SMILES IDX 10 14 91 15 11 16 90 17 6 18 1 19 2 20 3 21 92 22 4 23 5 24
REMARK SMILES IDX 21 25 22 26 23 27 24 28 25 29 26 31 27 32 28 33 89 34 29 35
REMARK SMILES IDX 88 36 30 37 31 38 32 39 82 40 33 41 87 42 81 43 83 44 34 45
REMARK SMILES IDX 86 46 80 47 79 48 35 50 67 51 47 52 66 53 48 54 51 55 65 56
REMARK SMILES IDX 84 57 49 58 50 59 64 61 85 62 52 63 36 64 37 65 45 66 38 67
REMARK SMILES IDX 39 68 43 69 46 70 40 71 41 72 44 73 42 74 68 75 69 76 77 77
REMARK SMILES IDX 70 78 71 79 75 80 78 81 72 82 73 83 76 84 74 85 53 86 54 87
REMARK SMILES IDX 62 88 55 89 56 90 60 91 63 92 57 93 58 94 61 95 59 96
REMARK H PARENT 17 7 24 30 83 49 51 60
REMARK Flexibility Score: inf
ROOT
ATOM      1  C   UNL A   1      32.859  30.218  27.031  1.00  0.00     0.002 C 
ENDROOT
BRANCH   1   2
ATOM      2  C   UNL A   1      32.889  28.693  26.971  1.00  0.00     0.021 C 
BRANCH   2   3
ATOM      3  C   UNL A   1      34.009  28.119  26.119  1.00  0.00     0.116 C 
BRANCH   3   4
ATOM      4  N   UNL A   1      34.030  28.665  24.782  1.00  0.00    -0.356 N 
ATOM      5  C   UNL A   1      33.046  28.690  23.846  1.00  0.00     0.223 C 
ATOM      6  O   UNL A   1      33.263  29.317  22.805  1.00  0.00    -0.275 OA
ATOM      7  H   UNL A   1      34.880  29.080  24.511  1.00  0.00     0.163 HD
BRANCH   5   8
ATOM      8  C   UNL A   1      31.703  27.983  24.058  1.00  0.00     0.078 C 
ATOM      9  C   UNL A   1      30.541  28.852  23.559  1.00  0.00     0.018 C 
BRANCH   8  10
ATOM     10  C   UNL A   1      31.657  26.457  23.704  1.00  0.00     0.005 C 
ATOM     11  C   UNL A   1      33.906  22.938  23.424  1.00  0.00     0.265 C 
ATOM     12  O   UNL A   1      34.953  23.289  22.878  1.00  0.00    -0.268 OA
ATOM     13  N   UNL A   1      32.813  23.807  23.432  1.00  0.00    -0.338 N 
ATOM     14  C   UNL A   1      32.497  24.546  22.229  1.00  0.00     0.120 C 
ATOM     15  C   UNL A   1      31.944  24.047  24.577  1.00  0.00     0.120 C 
ATOM     16  C   UNL A   1      32.494  26.045  22.475  1.00  0.00     0.026 C 
ATOM     17  C   UNL A   1      31.911  25.536  24.922  1.00  0.00     0.026 C 
BRANCH  11  18
ATOM     18  C   UNL A   1      33.727  21.598  23.970  1.00  0.00     0.115 A 
ATOM     19  C   UNL A   1      32.355  17.978  24.367  1.00  0.00     0.079 C 
ATOM     20  C   UNL A   1      33.050  19.293  24.371  1.00  0.00     0.091 A 
ATOM     21  N   UNL A   1      34.136  19.560  25.058  1.00  0.00    -0.246 NA
ATOM     22  S   UNL A   1      32.463  20.570  23.408  1.00  0.00    -0.113 S 
ATOM     23  C   UNL A   1      34.558  20.865  24.809  1.00  0.00     0.061 A 
ATOM     24  C   UNL A   1      35.843  21.277  25.439  1.00  0.00     0.068 C 
ENDBRANCH  11  18
ENDBRANCH   8  10
ENDBRANCH   5   8
ENDBRANCH   3   4
ENDBRANCH   2   3
ENDBRANCH   1   2
BRANCH   1  25
ATOM     25  C   UNL A   1      31.557  30.867  26.551  1.00  0.00     0.002 C 
BRANCH  25  26
ATOM     26  C   UNL A   1      31.494  32.390  26.682  1.00  0.00     0.021 C 
BRANCH  26  27
ATOM     27  C   UNL A   1      32.676  33.018  27.410  1.00  0.00     0.116 C 
BRANCH  27  28
ATOM     28  N   UNL A   1      32.432  34.406  27.765  1.00  0.00    -0.352 N 
ATOM     29  C   UNL A   1      33.020  35.166  28.742  1.00  0.00     0.251 C 
ATOM     30  H   UNL A   1      31.747  34.867  27.227  1.00  0.00     0.163 HD
ATOM     31  O   UNL A   1      32.571  36.274  29.024  1.00  0.00    -0.269 OA
BRANCH  29  32
ATOM     32  C   UNL A   1      34.188  34.635  29.472  1.00  0.00     0.039 A 
ATOM     33  C   UNL A   1      33.999  34.102  30.749  1.00  0.00     0.014 A 
ATOM     34  C   UNL A   1      35.461  34.657  28.896  1.00  0.00     0.014 A 
ATOM     35  C   UNL A   1      35.079  33.535  31.425  1.00  0.00     0.010 A 
ATOM     36  C   UNL A   1      36.519  34.022  29.538  1.00  0.00     0.010 A 
ATOM     37  C   UNL A   1      36.340  33.459  30.811  1.00  0.00    -0.014 A 
BRANCH  37  38
ATOM     38  C   UNL A   1      37.483  32.793  31.483  1.00  0.00     0.031 A 
ATOM     39  C   UNL A   1      38.163  31.622  30.831  1.00  0.00     0.074 A 
ATOM     40  C   UNL A   1      37.863  33.200  32.709  1.00  0.00     0.049 A 
ATOM     41  N   UNL A   1      39.128  30.863  31.288  1.00  0.00    -0.248 NA
ATOM     42  C   UNL A   1      37.675  31.233  29.498  1.00  0.00     0.031 C 
ATOM     43  C   UNL A   1      37.249  34.294  33.464  1.00  0.00     0.029 A 
ATOM     44  N   UNL A   1      38.850  32.735  33.543  1.00  0.00    -0.354 N 
ATOM     45  C   UNL A   1      39.349  29.905  30.309  1.00  0.00     0.074 A 
ATOM     46  C   UNL A   1      38.383  30.139  29.259  1.00  0.00     0.031 C 
ATOM     47  C   UNL A   1      37.883  34.428  34.639  1.00  0.00     0.029 A 
ATOM     48  C   UNL A   1      38.918  33.403  34.740  1.00  0.00     0.049 A 
ATOM     49  H   UNL A   1      39.451  31.992  33.304  1.00  0.00     0.167 HD
ATOM     50  C   UNL A   1      40.290  28.930  30.280  1.00  0.00     0.037 A 
ATOM     51  C   UNL A   1      39.714  33.201  35.807  1.00  0.00     0.037 A 
ATOM     52  C   UNL A   1      41.260  28.713  31.323  1.00  0.00     0.049 A 
ATOM     53  C   UNL A   1      40.741  32.100  35.757  1.00  0.00     0.074 A 
ATOM     54  C   UNL A   1      42.294  27.796  31.360  1.00  0.00     0.029 A 
ATOM     55  N   UNL A   1      41.307  29.421  32.516  1.00  0.00    -0.354 N 
ATOM     56  N   UNL A   1      40.994  31.248  34.794  1.00  0.00    -0.248 NA
ATOM     57  C   UNL A   1      41.595  31.937  36.940  1.00  0.00     0.031 C 
ATOM     58  C   UNL A   1      42.928  27.904  32.602  1.00  0.00     0.029 A 
ATOM     59  C   UNL A   1      42.334  28.935  33.311  1.00  0.00     0.049 A 
ATOM     60  H   UNL A   1      40.702  30.157  32.762  1.00  0.00     0.167 HD
ATOM     61  C   UNL A   1      42.053  30.469  35.241  1.00  0.00     0.074 A 
ATOM     62  C   UNL A   1      42.405  30.961  36.557  1.00  0.00     0.031 C 
ATOM     63  C   UNL A   1      42.678  29.440  34.617  1.00  0.00     0.037 A 
BRANCH  50  64
ATOM     64  C   UNL A   1      40.312  28.017  29.087  1.00  0.00     0.064 A 
ATOM     65  C   UNL A   1      41.078  28.308  27.948  1.00  0.00     0.173 A 
ATOM     66  C   UNL A   1      39.584  26.818  29.096  1.00  0.00     0.173 A 
ATOM     67  F   UNL A   1      41.785  29.446  27.882  1.00  0.00    -0.203 F 
ATOM     68  C   UNL A   1      41.086  27.451  26.850  1.00  0.00     0.198 A 
ATOM     69  C   UNL A   1      39.623  25.945  28.011  1.00  0.00     0.198 A 
ATOM     70  F   UNL A   1      38.840  26.485  30.162  1.00  0.00    -0.203 F 
ATOM     71  F   UNL A   1      41.782  27.778  25.752  1.00  0.00    -0.200 F 
ATOM     72  C   UNL A   1      40.367  26.267  26.886  1.00  0.00     0.200 A 
ATOM     73  F   UNL A   1      38.940  24.794  28.055  1.00  0.00    -0.200 F 
ATOM     74  F   UNL A   1      40.383  25.438  25.833  1.00  0.00    -0.200 F 
ENDBRANCH  50  64
BRANCH  51  75
ATOM     75  C   UNL A   1      39.582  34.069  37.008  1.00  0.00     0.064 A 
ATOM     76  C   UNL A   1      40.231  35.309  37.078  1.00  0.00     0.173 A 
ATOM     77  C   UNL A   1      38.809  33.675  38.110  1.00  0.00     0.173 A 
ATOM     78  F   UNL A   1      40.998  35.722  36.058  1.00  0.00    -0.203 F 
ATOM     79  C   UNL A   1      40.132  36.110  38.214  1.00  0.00     0.198 A 
ATOM     80  C   UNL A   1      38.684  34.492  39.232  1.00  0.00     0.198 A 
ATOM     81  F   UNL A   1      38.163  32.499  38.093  1.00  0.00    -0.203 F 
ATOM     82  F   UNL A   1      40.806  37.267  38.275  1.00  0.00    -0.200 F 
ATOM     83  C   UNL A   1      39.354  35.704  39.287  1.00  0.00     0.200 A 
ATOM     84  F   UNL A   1      37.919  34.102  40.260  1.00  0.00    -0.200 F 
ATOM     85  F   UNL A   1      39.256  36.477  40.377  1.00  0.00    -0.200 F 
ENDBRANCH  51  75
BRANCH  63  86
ATOM     86  C   UNL A   1      43.834  28.799  35.330  1.00  0.00     0.064 A 
ATOM     87  C   UNL A   1      45.154  29.229  35.136  1.00  0.00     0.173 A 
ATOM     88  C   UNL A   1      43.610  27.771  36.260  1.00  0.00     0.173 A 
ATOM     89  F   UNL A   1      45.425  30.198  34.248  1.00  0.00    -0.203 F 
ATOM     90  C   UNL A   1      46.209  28.637  35.825  1.00  0.00     0.198 A 
ATOM     91  C   UNL A   1      44.663  27.206  36.973  1.00  0.00     0.198 A 
ATOM     92  F   UNL A   1      42.366  27.327  36.491  1.00  0.00    -0.203 F 
ATOM     93  F   UNL A   1      47.468  29.031  35.584  1.00  0.00    -0.200 F 
ATOM     94  C   UNL A   1      45.963  27.634  36.749  1.00  0.00     0.200 A 
ATOM     95  F   UNL A   1      44.420  26.249  37.880  1.00  0.00    -0.200 F 
ATOM     96  F   UNL A   1      46.978  27.074  37.420  1.00  0.00    -0.200 F 
ENDBRANCH  63  86
ENDBRANCH  37  38
ENDBRANCH  29  32
ENDBRANCH  27  28
ENDBRANCH  26  27
ENDBRANCH  25  26
ENDBRANCH   1  25
TORSDOF 15
ENDMDL
MODEL 2
REMARK VINA RESULT:     -12.4      5.623     11.342
REMARK SMILES Cc1nc(C)c(C(=O)N2CCC([C@H](C)C(=O)NCCCCCCNC(=O)c3ccc(-c4c5nc(c(-c6c(F)c(F)c(F)c(F)c6F)c6ccc([nH]6)c(-c6c(F)c(F)c(F)c(F)c6F)c6nc(c(-c7c(F)c(F)c(F)c(F)c7F)c7ccc4[nH]7)C=C6)C=C5)cc3)CC2)s1
REMARK SMILES IDX 20 1 19 2 18 3 17 4 15 5 16 6 13 8 14 9 12 10 7 11 8 12 9 13
REMARK SMILES IDX 10 14 91 15 11 16 90 17 6 18 1 19 2 20 3 21 92 22 4 23 5 24
REMARK SMILES IDX 21 25 22 26 23 27 24 28 25 29 26 31 27 32 28 33 89 34 29 35
REMARK SMILES IDX 88 36 30 37 31 38 32 39 82 40 33 41 87 42 81 43 83 44 34 45
REMARK SMILES IDX 86 46 80 47 79 48 35 50 67 51 47 52 66 53 48 54 51 55 65 56
REMARK SMILES IDX 84 57 49 58 50 59 64 61 85 62 52 63 36 64 37 65 45 66 38 67
REMARK SMILES IDX 39 68 43 69 46 70 40 71 41 72 44 73 42 74 68 75 69 76 77 77
REMARK SMILES IDX 70 78 71 79 75 80 78 81 72 82 73 83 76 84 74 85 53 86 54 87
REMARK SMILES IDX 62 88 55 89 56 90 60 91 63 92 57 93 58 94 61 95 59 96
REMARK H PARENT 17 7 24 30 83 49 51 60
REMARK Flexibility Score: inf
ROOT
ATOM      1  C   UNL A   1      37.401  22.375  25.135  1.00  0.00     0.002 C 
ENDROOT
BRANCH   1   2
ATOM      2  C   UNL A   1      36.182  21.692  25.753  1.00  0.00     0.021 C 
BRANCH   2   3
ATOM      3  C   UNL A   1      35.703  20.461  25.001  1.00  0.00     0.116 C 
BRANCH   3   4
ATOM      4  N   UNL A   1      34.352  20.087  25.347  1.00  0.00    -0.356 N 
ATOM      5  C   UNL A   1      33.180  20.459  24.772  1.00  0.00     0.223 C 
ATOM      6  O   UNL A   1      32.147  19.916  25.174  1.00  0.00    -0.275 OA
ATOM      7  H   UNL A   1      34.269  19.470  26.110  1.00  0.00     0.163 HD
BRANCH   5   8
ATOM      8  C   UNL A   1      33.119  21.506  23.654  1.00  0.00     0.078 C 
ATOM      9  C   UNL A   1      32.153  21.068  22.544  1.00  0.00     0.018 C 
BRANCH   8  10
ATOM     10  C   UNL A   1      33.053  23.005  24.106  1.00  0.00     0.005 C 
ATOM     11  C   UNL A   1      32.712  26.966  22.796  1.00  0.00     0.265 C 
ATOM     12  O   UNL A   1      33.469  27.031  21.825  1.00  0.00    -0.268 OA
ATOM     13  N   UNL A   1      32.782  25.860  23.644  1.00  0.00    -0.338 N 
ATOM     14  C   UNL A   1      34.081  25.344  24.019  1.00  0.00     0.120 C 
ATOM     15  C   UNL A   1      31.631  25.155  24.195  1.00  0.00     0.120 C 
ATOM     16  C   UNL A   1      34.235  23.881  23.640  1.00  0.00     0.026 C 
ATOM     17  C   UNL A   1      31.684  23.672  23.828  1.00  0.00     0.026 C 
BRANCH  11  18
ATOM     18  C   UNL A   1      31.817  28.058  23.157  1.00  0.00     0.115 A 
ATOM     19  C   UNL A   1      28.596  30.237  23.292  1.00  0.00     0.079 C 
ATOM     20  C   UNL A   1      29.901  29.537  23.427  1.00  0.00     0.091 A 
ATOM     21  N   UNL A   1      30.804  29.813  24.339  1.00  0.00    -0.246 NA
ATOM     22  S   UNL A   1      30.294  28.255  22.376  1.00  0.00    -0.113 S 
ATOM     23  C   UNL A   1      31.891  28.949  24.222  1.00  0.00     0.061 A 
ATOM     24  C   UNL A   1      32.952  29.073  25.260  1.00  0.00     0.068 C 
ENDBRANCH  11  18
ENDBRANCH   8  10
ENDBRANCH   5   8
ENDBRANCH   3   4
ENDBRANCH   2   3
ENDBRANCH   1   2
BRANCH   1  25
ATOM     25  C   UNL A   1      38.607  22.529  26.068  1.00  0.00     0.002 C 
BRANCH  25  26
ATOM     26  C   UNL A   1      39.274  21.223  26.500  1.00  0.00     0.021 C 
BRANCH  26  27
ATOM     27  C   UNL A   1      39.463  20.202  25.385  1.00  0.00     0.116 C 
BRANCH  27  28
ATOM     28  N   UNL A   1      40.396  19.149  25.751  1.00  0.00    -0.352 N 
ATOM     29  C   UNL A   1      41.707  19.250  26.137  1.00  0.00     0.251 C 
ATOM     30  H   UNL A   1      40.035  18.233  25.717  1.00  0.00     0.163 HD
ATOM     31  O   UNL A   1      42.405  18.244  26.241  1.00  0.00    -0.269 OA
BRANCH  29  32
ATOM     32  C   UNL A   1      42.286  20.581  26.406  1.00  0.00     0.039 A 
ATOM     33  C   UNL A   1      42.699  21.368  25.328  1.00  0.00     0.014 A 
ATOM     34  C   UNL A   1      42.413  21.052  27.715  1.00  0.00     0.014 A 
ATOM     35  C   UNL A   1      43.185  22.654  25.561  1.00  0.00     0.010 A 
ATOM     36  C   UNL A   1      42.825  22.362  27.940  1.00  0.00     0.010 A 
ATOM     37  C   UNL A   1      43.219  23.174  26.865  1.00  0.00    -0.014 A 
BRANCH  37  38
ATOM     38  C   UNL A   1      43.662  24.567  27.126  1.00  0.00     0.031 A 
ATOM     39  C   UNL A   1      42.677  25.593  27.608  1.00  0.00     0.074 A 
ATOM     40  C   UNL A   1      44.934  24.920  26.863  1.00  0.00     0.049 A 
ATOM     41  N   UNL A   1      42.852  26.874  27.823  1.00  0.00    -0.248 NA
ATOM     42  C   UNL A   1      41.303  25.127  27.856  1.00  0.00     0.031 C 
ATOM     43  C   UNL A   1      45.970  24.023  26.345  1.00  0.00     0.029 A 
ATOM     44  N   UNL A   1      45.572  26.130  26.982  1.00  0.00    -0.354 N 
ATOM     45  C   UNL A   1      41.613  27.363  28.215  1.00  0.00     0.074 A 
ATOM     46  C   UNL A   1      40.682  26.258  28.154  1.00  0.00     0.031 C 
ATOM     47  C   UNL A   1      47.117  24.708  26.210  1.00  0.00     0.029 A 
ATOM     48  C   UNL A   1      46.887  26.099  26.587  1.00  0.00     0.049 A 
ATOM     49  H   UNL A   1      45.129  26.942  27.317  1.00  0.00     0.167 HD
ATOM     50  C   UNL A   1      41.288  28.617  28.610  1.00  0.00     0.037 A 
ATOM     51  C   UNL A   1      47.800  27.086  26.521  1.00  0.00     0.037 A 
ATOM     52  C   UNL A   1      42.225  29.708  28.685  1.00  0.00     0.049 A 
ATOM     53  C   UNL A   1      47.410  28.476  26.951  1.00  0.00     0.074 A 
ATOM     54  C   UNL A   1      42.011  30.999  29.134  1.00  0.00     0.029 A 
ATOM     55  N   UNL A   1      43.554  29.636  28.290  1.00  0.00    -0.354 N 
ATOM     56  N   UNL A   1      46.255  28.911  27.394  1.00  0.00    -0.248 NA
ATOM     57  C   UNL A   1      48.451  29.509  26.877  1.00  0.00     0.031 C 
ATOM     58  C   UNL A   1      43.192  31.725  28.952  1.00  0.00     0.029 A 
ATOM     59  C   UNL A   1      44.162  30.870  28.455  1.00  0.00     0.049 A 
ATOM     60  H   UNL A   1      43.998  28.828  27.945  1.00  0.00     0.167 HD
ATOM     61  C   UNL A   1      46.438  30.258  27.679  1.00  0.00     0.074 A 
ATOM     62  C   UNL A   1      47.820  30.564  27.373  1.00  0.00     0.031 C 
ATOM     63  C   UNL A   1      45.542  31.159  28.152  1.00  0.00     0.037 A 
BRANCH  50  64
ATOM     64  C   UNL A   1      39.858  28.880  28.988  1.00  0.00     0.064 A 
ATOM     65  C   UNL A   1      38.913  29.315  28.046  1.00  0.00     0.173 A 
ATOM     66  C   UNL A   1      39.418  28.663  30.302  1.00  0.00     0.173 A 
ATOM     67  F   UNL A   1      39.281  29.548  26.777  1.00  0.00    -0.203 F 
ATOM     68  C   UNL A   1      37.591  29.555  28.413  1.00  0.00     0.198 A 
ATOM     69  C   UNL A   1      38.087  28.869  30.658  1.00  0.00     0.198 A 
ATOM     70  F   UNL A   1      40.277  28.241  31.242  1.00  0.00    -0.203 F 
ATOM     71  F   UNL A   1      36.719  30.022  27.508  1.00  0.00    -0.200 F 
ATOM     72  C   UNL A   1      37.177  29.323  29.716  1.00  0.00     0.200 A 
ATOM     73  F   UNL A   1      37.686  28.629  31.914  1.00  0.00    -0.200 F 
ATOM     74  F   UNL A   1      35.903  29.545  30.066  1.00  0.00    -0.200 F 
ENDBRANCH  50  64
BRANCH  51  75
ATOM     75  C   UNL A   1      49.177  26.793  26.041  1.00  0.00     0.064 A 
ATOM     76  C   UNL A   1      49.534  27.000  24.702  1.00  0.00     0.173 A 
ATOM     77  C   UNL A   1      50.162  26.297  26.908  1.00  0.00     0.173 A 
ATOM     78  F   UNL A   1      48.623  27.455  23.828  1.00  0.00    -0.203 F 
ATOM     79  C   UNL A   1      50.815  26.699  24.242  1.00  0.00     0.198 A 
ATOM     80  C   UNL A   1      51.452  26.027  26.455  1.00  0.00     0.198 A 
ATOM     81  F   UNL A   1      49.874  26.085  28.201  1.00  0.00    -0.203 F 
ATOM     82  F   UNL A   1      51.113  26.857  22.946  1.00  0.00    -0.200 F 
ATOM     83  C   UNL A   1      51.774  26.218  25.121  1.00  0.00     0.200 A 
ATOM     84  F   UNL A   1      52.379  25.577  27.311  1.00  0.00    -0.200 F 
ATOM     85  F   UNL A   1      53.006  25.932  24.679  1.00  0.00    -0.200 F 
ENDBRANCH  51  75
BRANCH  63  86
ATOM     86  C   UNL A   1      46.035  32.554  28.408  1.00  0.00     0.064 A 
ATOM     87  C   UNL A   1      45.956  33.558  27.432  1.00  0.00     0.173 A 
ATOM     88  C   UNL A   1      46.550  32.903  29.666  1.00  0.00     0.173 A 
ATOM     89  F   UNL A   1      45.485  33.274  26.208  1.00  0.00    -0.203 F 
ATOM     90  C   UNL A   1      46.397  34.852  27.697  1.00  0.00     0.198 A 
ATOM     91  C   UNL A   1      46.958  34.206  29.939  1.00  0.00     0.198 A 
ATOM     92  F   UNL A   1      46.641  31.984  30.639  1.00  0.00    -0.203 F 
ATOM     93  F   UNL A   1      46.358  35.782  26.732  1.00  0.00    -0.200 F 
ATOM     94  C   UNL A   1      46.888  35.177  28.952  1.00  0.00     0.200 A 
ATOM     95  F   UNL A   1      47.415  34.522  31.159  1.00  0.00    -0.200 F 
ATOM     96  F   UNL A   1      47.301  36.426  29.209  1.00  0.00    -0.200 F 
ENDBRANCH  63  86
ENDBRANCH  37  38
ENDBRANCH  29  32
ENDBRANCH  27  28
ENDBRANCH  26  27
ENDBRANCH  25  26
ENDBRANCH   1  25
TORSDOF 15
ENDMDL
MODEL 3
REMARK VINA RESULT:     -12.3      1.456      7.436
REMARK SMILES Cc1nc(C)c(C(=O)N2CCC([C@H](C)C(=O)NCCCCCCNC(=O)c3ccc(-c4c5nc(c(-c6c(F)c(F)c(F)c(F)c6F)c6ccc([nH]6)c(-c6c(F)c(F)c(F)c(F)c6F)c6nc(c(-c7c(F)c(F)c(F)c(F)c7F)c7ccc4[nH]7)C=C6)C=C5)cc3)CC2)s1
REMARK SMILES IDX 20 1 19 2 18 3 17 4 15 5 16 6 13 8 14 9 12 10 7 11 8 12 9 13
REMARK SMILES IDX 10 14 91 15 11 16 90 17 6 18 1 19 2 20 3 21 92 22 4 23 5 24
REMARK SMILES IDX 21 25 22 26 23 27 24 28 25 29 26 31 27 32 28 33 89 34 29 35
REMARK SMILES IDX 88 36 30 37 31 38 32 39 82 40 33 41 87 42 81 43 83 44 34 45
REMARK SMILES IDX 86 46 80 47 79 48 35 50 67 51 47 52 66 53 48 54 51 55 65 56
REMARK SMILES IDX 84 57 49 58 50 59 64 61 85 62 52 63 36 64 37 65 45 66 38 67
REMARK SMILES IDX 39 68 43 69 46 70 40 71 41 72 44 73 42 74 68 75 69 76 77 77
REMARK SMILES IDX 70 78 71 79 75 80 78 81 72 82 73 83 76 84 74 85 53 86 54 87
REMARK SMILES IDX 62 88 55 89 56 90 60 91 63 92 57 93 58 94 61 95 59 96
REMARK H PARENT 17 7 24 30 83 49 51 60
REMARK Flexibility Score: inf
ROOT
ATOM      1  C   UNL A   1      34.438  31.956  28.550  1.00  0.00     0.002 C 
ENDROOT
BRANCH   1   2
ATOM      2  C   UNL A   1      33.326  31.658  27.546  1.00  0.00     0.021 C 
BRANCH   2   3
ATOM      3  C   UNL A   1      33.231  30.201  27.127  1.00  0.00     0.116 C 
BRANCH   3   4
ATOM      4  N   UNL A   1      33.653  29.983  25.764  1.00  0.00    -0.356 N 
ATOM      5  C   UNL A   1      33.042  29.281  24.774  1.00  0.00     0.223 C 
ATOM      6  O   UNL A   1      33.542  29.329  23.647  1.00  0.00    -0.275 OA
ATOM      7  H   UNL A   1      34.507  30.405  25.515  1.00  0.00     0.163 HD
BRANCH   5   8
ATOM      8  C   UNL A   1      31.770  28.462  25.023  1.00  0.00     0.078 C 
ATOM      9  C   UNL A   1      30.599  29.002  24.192  1.00  0.00     0.018 C 
BRANCH   8  10
ATOM     10  C   UNL A   1      31.945  26.906  25.083  1.00  0.00     0.005 C 
ATOM     11  C   UNL A   1      33.791  23.597  23.303  1.00  0.00     0.265 C 
ATOM     12  O   UNL A   1      33.653  23.787  22.093  1.00  0.00    -0.268 OA
ATOM     13  N   UNL A   1      33.058  24.371  24.205  1.00  0.00    -0.338 N 
ATOM     14  C   UNL A   1      31.666  24.646  23.922  1.00  0.00     0.120 C 
ATOM     15  C   UNL A   1      33.587  24.948  25.434  1.00  0.00     0.120 C 
ATOM     16  C   UNL A   1      31.388  26.138  23.866  1.00  0.00     0.026 C 
ATOM     17  C   UNL A   1      33.383  26.463  25.446  1.00  0.00     0.026 C 
BRANCH  11  18
ATOM     18  C   UNL A   1      34.613  22.515  23.831  1.00  0.00     0.115 A 
ATOM     19  C   UNL A   1      37.775  20.601  25.046  1.00  0.00     0.079 C 
ATOM     20  C   UNL A   1      36.443  21.153  24.685  1.00  0.00     0.091 A 
ATOM     21  N   UNL A   1      35.295  20.600  25.002  1.00  0.00    -0.246 NA
ATOM     22  S   UNL A   1      36.333  22.623  23.830  1.00  0.00    -0.113 S 
ATOM     23  C   UNL A   1      34.237  21.388  24.553  1.00  0.00     0.061 A 
ATOM     24  C   UNL A   1      32.869  20.940  24.933  1.00  0.00     0.068 C 
ENDBRANCH  11  18
ENDBRANCH   8  10
ENDBRANCH   5   8
ENDBRANCH   3   4
ENDBRANCH   2   3
ENDBRANCH   1   2
BRANCH   1  25
ATOM     25  C   UNL A   1      34.563  33.424  28.971  1.00  0.00     0.002 C 
BRANCH  25  26
ATOM     26  C   UNL A   1      33.278  34.247  28.873  1.00  0.00     0.021 C 
BRANCH  26  27
ATOM     27  C   UNL A   1      33.426  35.713  29.262  1.00  0.00     0.116 C 
BRANCH  27  28
ATOM     28  N   UNL A   1      32.530  36.093  30.341  1.00  0.00    -0.352 N 
ATOM     29  C   UNL A   1      32.584  35.759  31.669  1.00  0.00     0.251 C 
ATOM     30  H   UNL A   1      31.778  36.673  30.082  1.00  0.00     0.163 HD
ATOM     31  O   UNL A   1      31.645  36.021  32.416  1.00  0.00    -0.269 OA
BRANCH  29  32
ATOM     32  C   UNL A   1      33.772  35.058  32.195  1.00  0.00     0.039 A 
ATOM     33  C   UNL A   1      33.615  33.781  32.739  1.00  0.00     0.014 A 
ATOM     34  C   UNL A   1      35.034  35.655  32.145  1.00  0.00     0.014 A 
ATOM     35  C   UNL A   1      34.737  33.078  33.179  1.00  0.00     0.010 A 
ATOM     36  C   UNL A   1      36.159  34.923  32.511  1.00  0.00     0.010 A 
ATOM     37  C   UNL A   1      36.021  33.629  33.036  1.00  0.00    -0.014 A 
BRANCH  37  38
ATOM     38  C   UNL A   1      37.232  32.866  33.428  1.00  0.00     0.031 A 
ATOM     39  C   UNL A   1      37.931  33.174  34.722  1.00  0.00     0.074 A 
ATOM     40  C   UNL A   1      37.739  31.945  32.587  1.00  0.00     0.049 A 
ATOM     41  N   UNL A   1      39.039  32.671  35.207  1.00  0.00    -0.248 NA
ATOM     42  C   UNL A   1      37.318  34.204  35.576  1.00  0.00     0.031 C 
ATOM     43  C   UNL A   1      37.178  31.594  31.281  1.00  0.00     0.029 A 
ATOM     44  N   UNL A   1      38.849  31.145  32.697  1.00  0.00    -0.354 N 
ATOM     45  C   UNL A   1      39.261  33.332  36.406  1.00  0.00     0.074 A 
ATOM     46  C   UNL A   1      38.207  34.311  36.552  1.00  0.00     0.031 C 
ATOM     47  C   UNL A   1      37.934  30.637  30.720  1.00  0.00     0.029 A 
ATOM     48  C   UNL A   1      39.056  30.339  31.604  1.00  0.00     0.049 A 
ATOM     49  H   UNL A   1      39.441  31.149  33.484  1.00  0.00     0.167 HD
ATOM     50  C   UNL A   1      40.244  33.125  37.315  1.00  0.00     0.037 A 
ATOM     51  C   UNL A   1      40.050  29.469  31.338  1.00  0.00     0.037 A 
ATOM     52  C   UNL A   1      41.281  32.135  37.171  1.00  0.00     0.049 A 
ATOM     53  C   UNL A   1      41.140  29.269  32.358  1.00  0.00     0.074 A 
ATOM     54  C   UNL A   1      42.284  31.802  38.062  1.00  0.00     0.029 A 
ATOM     55  N   UNL A   1      41.450  31.326  36.055  1.00  0.00    -0.354 N 
ATOM     56  N   UNL A   1      41.298  29.844  33.525  1.00  0.00    -0.248 NA
ATOM     57  C   UNL A   1      42.187  28.295  32.024  1.00  0.00     0.031 C 
ATOM     58  C   UNL A   1      43.099  30.837  37.462  1.00  0.00     0.029 A 
ATOM     59  C   UNL A   1      42.563  30.518  36.224  1.00  0.00     0.049 A 
ATOM     60  H   UNL A   1      40.867  31.326  35.263  1.00  0.00     0.167 HD
ATOM     61  C   UNL A   1      42.441  29.282  34.077  1.00  0.00     0.074 A 
ATOM     62  C   UNL A   1      42.929  28.308  33.122  1.00  0.00     0.031 C 
ATOM     63  C   UNL A   1      43.033  29.547  35.268  1.00  0.00     0.037 A 
BRANCH  50  64
ATOM     64  C   UNL A   1      40.251  33.988  38.544  1.00  0.00     0.064 A 
ATOM     65  C   UNL A   1      40.977  35.188  38.601  1.00  0.00     0.173 A 
ATOM     66  C   UNL A   1      39.494  33.629  39.669  1.00  0.00     0.173 A 
ATOM     67  F   UNL A   1      41.726  35.575  37.557  1.00  0.00    -0.203 F 
ATOM     68  C   UNL A   1      40.973  35.976  39.749  1.00  0.00     0.198 A 
ATOM     69  C   UNL A   1      39.462  34.438  40.803  1.00  0.00     0.198 A 
ATOM     70  F   UNL A   1      38.775  32.497  39.668  1.00  0.00    -0.203 F 
ATOM     71  F   UNL A   1      41.718  37.090  39.799  1.00  0.00    -0.200 F 
ATOM     72  C   UNL A   1      40.209  35.606  40.845  1.00  0.00     0.200 A 
ATOM     73  F   UNL A   1      38.711  34.086  41.855  1.00  0.00    -0.200 F 
ATOM     74  F   UNL A   1      40.198  36.370  41.946  1.00  0.00    -0.200 F 
ENDBRANCH  50  64
BRANCH  51  75
ATOM     75  C   UNL A   1      40.051  28.713  30.058  1.00  0.00     0.064 A 
ATOM     76  C   UNL A   1      40.649  29.244  28.907  1.00  0.00     0.173 A 
ATOM     77  C   UNL A   1      39.453  27.449  29.956  1.00  0.00     0.173 A 
ATOM     78  F   UNL A   1      41.218  30.459  28.946  1.00  0.00    -0.203 F 
ATOM     79  C   UNL A   1      40.627  28.551  27.698  1.00  0.00     0.198 A 
ATOM     80  C   UNL A   1      39.459  26.742  28.755  1.00  0.00     0.198 A 
ATOM     81  F   UNL A   1      38.870  26.894  31.029  1.00  0.00    -0.203 F 
ATOM     82  F   UNL A   1      41.160  29.105  26.601  1.00  0.00    -0.200 F 
ATOM     83  C   UNL A   1      40.037  27.298  27.625  1.00  0.00     0.200 A 
ATOM     84  F   UNL A   1      38.902  25.526  28.694  1.00  0.00    -0.200 F 
ATOM     85  F   UNL A   1      40.019  26.630  26.463  1.00  0.00    -0.200 F 
ENDBRANCH  51  75
BRANCH  63  86
ATOM     86  C   UNL A   1      44.252  28.747  35.627  1.00  0.00     0.064 A 
ATOM     87  C   UNL A   1      44.163  27.532  36.322  1.00  0.00     0.173 A 
ATOM     88  C   UNL A   1      45.526  29.180  35.225  1.00  0.00     0.173 A 
ATOM     89  F   UNL A   1      42.971  27.081  36.741  1.00  0.00    -0.203 F 
ATOM     90  C   UNL A   1      45.304  26.794  36.624  1.00  0.00     0.198 A 
ATOM     91  C   UNL A   1      46.661  28.422  35.498  1.00  0.00     0.198 A 
ATOM     92  F   UNL A   1      45.668  30.331  34.551  1.00  0.00    -0.203 F 
ATOM     93  F   UNL A   1      45.198  25.662  37.334  1.00  0.00    -0.200 F 
ATOM     94  C   UNL A   1      46.550  27.234  36.205  1.00  0.00     0.200 A 
ATOM     95  F   UNL A   1      47.863  28.841  35.076  1.00  0.00    -0.200 F 
ATOM     96  F   UNL A   1      47.646  26.517  36.486  1.00  0.00    -0.200 F 
ENDBRANCH  63  86
ENDBRANCH  37  38
ENDBRANCH  29  32
ENDBRANCH  27  28
ENDBRANCH  26  27
ENDBRANCH  25  26
ENDBRANCH   1  25
TORSDOF 15
ENDMDL
