MODEL 1
REMARK VINA RESULT:     -12.6      0.000      0.000
REMARK SMILES Cc1cc(C(=O)N[C@@H](Cc2ccccc2)C(=O)NCCCCCCNC(=O)c2ccc(-c3c4nc(c(-c5c(F)c(F)c(F)c(F)c5F)c5ccc([nH]5)c(-c5c(F)c(F)c(F)c(F)c5F)c5nc(c(-c6c(F)c(F)c(F)c(F)c6F)c6ccc3[nH]6)C=C5)C=C4)cc2)c(C)o1
REMARK SMILES IDX 21 1 20 2 19 3 18 4 16 5 17 6 8 8 7 9 5 10 6 11 4 13 1 14
REMARK SMILES IDX 2 15 3 16 93 17 91 18 92 19 9 20 10 21 11 22 15 23 12 24
REMARK SMILES IDX 14 25 13 26 22 27 23 28 24 29 25 30 26 31 27 33 28 34 29 35
REMARK SMILES IDX 90 36 30 37 89 38 31 39 32 40 33 41 83 42 34 43 88 44 82 45
REMARK SMILES IDX 84 46 35 47 87 48 81 49 80 50 36 52 68 53 48 54 67 55 49 56
REMARK SMILES IDX 52 57 66 58 85 59 50 60 51 61 65 63 86 64 53 65 37 66 38 67
REMARK SMILES IDX 46 68 39 69 40 70 44 71 47 72 41 73 42 74 45 75 43 76 69 77
REMARK SMILES IDX 70 78 78 79 71 80 72 81 76 82 79 83 73 84 74 85 77 86 75 87
REMARK SMILES IDX 54 88 55 89 63 90 56 91 57 92 61 93 64 94 58 95 59 96 62 97
REMARK SMILES IDX 60 98
REMARK H PARENT 18 7 7 12 25 32 84 51 52 62
REMARK Flexibility Score: inf
ROOT
ATOM      1  C   UNL A   1      32.380  29.907  26.756  1.00  0.00     0.002 C 
ENDROOT
BRANCH   1   2
ATOM      2  C   UNL A   1      31.741  28.641  27.329  1.00  0.00     0.021 C 
BRANCH   2   3
ATOM      3  C   UNL A   1      31.862  27.400  26.457  1.00  0.00     0.116 C 
BRANCH   3   4
ATOM      4  N   UNL A   1      31.020  26.293  26.849  1.00  0.00    -0.354 N 
ATOM      5  C   UNL A   1      30.396  25.368  26.061  1.00  0.00     0.242 C 
ATOM      6  O   UNL A   1      30.007  24.332  26.613  1.00  0.00    -0.273 OA
ATOM      7  H   UNL A   1      30.876  26.192  27.818  1.00  0.00     0.163 HD
BRANCH   5   8
ATOM      8  C   UNL A   1      30.197  25.546  24.533  1.00  0.00     0.176 C 
BRANCH   8   9
ATOM      9  N   UNL A   1      30.407  24.303  23.795  1.00  0.00    -0.340 N 
ATOM     10  C   UNL A   1      31.496  23.496  23.596  1.00  0.00     0.255 C 
ATOM     11  O   UNL A   1      31.256  22.461  22.969  1.00  0.00    -0.269 OA
ATOM     12  H   UNL A   1      29.596  23.977  23.345  1.00  0.00     0.164 HD
BRANCH  10  13
ATOM     13  C   UNL A   1      32.852  23.832  24.034  1.00  0.00     0.081 A 
ATOM     14  C   UNL A   1      36.118  23.943  25.831  1.00  0.00     0.087 C 
ATOM     15  C   UNL A   1      34.880  24.013  25.031  1.00  0.00     0.101 A 
ATOM     16  C   UNL A   1      33.744  23.242  24.984  1.00  0.00     0.059 A 
ATOM     17  O   UNL A   1      34.799  25.009  24.118  1.00  0.00    -0.466 OA
ATOM     18  C   UNL A   1      33.593  24.886  23.496  1.00  0.00     0.113 A 
ATOM     19  C   UNL A   1      33.375  25.878  22.416  1.00  0.00     0.088 C 
ENDBRANCH  10  13
ENDBRANCH   8   9
BRANCH   8  20
ATOM     20  C   UNL A   1      28.980  26.378  24.078  1.00  0.00     0.070 C 
BRANCH  20  21
ATOM     21  C   UNL A   1      29.198  27.692  23.376  1.00  0.00    -0.045 A 
ATOM     22  C   UNL A   1      28.096  28.486  23.022  1.00  0.00     0.004 A 
ATOM     23  C   UNL A   1      30.488  28.153  23.072  1.00  0.00     0.004 A 
ATOM     24  C   UNL A   1      28.276  29.682  22.327  1.00  0.00     0.000 A 
ATOM     25  C   UNL A   1      30.663  29.338  22.354  1.00  0.00     0.000 A 
ATOM     26  C   UNL A   1      29.558  30.100  21.979  1.00  0.00     0.000 A 
ENDBRANCH  20  21
ENDBRANCH   8  20
ENDBRANCH   5   8
ENDBRANCH   3   4
ENDBRANCH   2   3
ENDBRANCH   1   2
BRANCH   1  27
ATOM     27  C   UNL A   1      31.454  30.827  25.951  1.00  0.00     0.002 C 
BRANCH  27  28
ATOM     28  C   UNL A   1      31.285  32.250  26.490  1.00  0.00     0.021 C 
BRANCH  28  29
ATOM     29  C   UNL A   1      32.477  32.810  27.255  1.00  0.00     0.116 C 
BRANCH  29  30
ATOM     30  N   UNL A   1      32.303  34.209  27.609  1.00  0.00    -0.352 N 
ATOM     31  C   UNL A   1      32.946  34.969  28.554  1.00  0.00     0.251 C 
ATOM     32  H   UNL A   1      31.616  34.686  27.090  1.00  0.00     0.163 HD
ATOM     33  O   UNL A   1      32.529  36.090  28.824  1.00  0.00    -0.269 OA
BRANCH  31  34
ATOM     34  C   UNL A   1      34.126  34.436  29.269  1.00  0.00     0.039 A 
ATOM     35  C   UNL A   1      33.936  33.814  30.506  1.00  0.00     0.014 A 
ATOM     36  C   UNL A   1      35.415  34.565  28.744  1.00  0.00     0.014 A 
ATOM     37  C   UNL A   1      35.027  33.265  31.183  1.00  0.00     0.010 A 
ATOM     38  C   UNL A   1      36.490  33.947  29.379  1.00  0.00     0.010 A 
ATOM     39  C   UNL A   1      36.308  33.292  30.607  1.00  0.00    -0.014 A 
BRANCH  39  40
ATOM     40  C   UNL A   1      37.464  32.636  31.270  1.00  0.00     0.031 A 
ATOM     41  C   UNL A   1      38.175  31.494  30.601  1.00  0.00     0.074 A 
ATOM     42  C   UNL A   1      37.835  33.032  32.504  1.00  0.00     0.049 A 
ATOM     43  N   UNL A   1      39.157  30.751  31.050  1.00  0.00    -0.248 NA
ATOM     44  C   UNL A   1      37.706  31.119  29.258  1.00  0.00     0.031 C 
ATOM     45  C   UNL A   1      37.199  34.101  33.275  1.00  0.00     0.029 A 
ATOM     46  N   UNL A   1      38.829  32.572  33.332  1.00  0.00    -0.354 N 
ATOM     47  C   UNL A   1      39.411  29.818  30.054  1.00  0.00     0.074 A 
ATOM     48  C   UNL A   1      38.447  30.050  29.001  1.00  0.00     0.031 C 
ATOM     49  C   UNL A   1      37.831  34.231  34.452  1.00  0.00     0.029 A 
ATOM     50  C   UNL A   1      38.885  33.226  34.540  1.00  0.00     0.049 A 
ATOM     51  H   UNL A   1      39.443  31.844  33.085  1.00  0.00     0.167 HD
ATOM     52  C   UNL A   1      40.378  28.869  30.011  1.00  0.00     0.037 A 
ATOM     53  C   UNL A   1      39.687  33.027  35.604  1.00  0.00     0.037 A 
ATOM     54  C   UNL A   1      41.346  28.653  31.056  1.00  0.00     0.049 A 
ATOM     55  C   UNL A   1      40.733  31.947  35.542  1.00  0.00     0.074 A 
ATOM     56  C   UNL A   1      42.400  27.757  31.082  1.00  0.00     0.029 A 
ATOM     57  N   UNL A   1      41.373  29.336  32.263  1.00  0.00    -0.354 N 
ATOM     58  N   UNL A   1      41.010  31.118  34.567  1.00  0.00    -0.248 NA
ATOM     59  C   UNL A   1      41.579  31.777  36.731  1.00  0.00     0.031 C 
ATOM     60  C   UNL A   1      43.027  27.855  32.328  1.00  0.00     0.029 A 
ATOM     61  C   UNL A   1      42.404  28.859  33.055  1.00  0.00     0.049 A 
ATOM     62  H   UNL A   1      40.750  30.056  32.519  1.00  0.00     0.167 HD
ATOM     63  C   UNL A   1      42.079  30.350  35.009  1.00  0.00     0.074 A 
ATOM     64  C   UNL A   1      42.411  30.823  36.337  1.00  0.00     0.031 C 
ATOM     65  C   UNL A   1      42.727  29.342  34.373  1.00  0.00     0.037 A 
BRANCH  52  66
ATOM     66  C   UNL A   1      40.434  27.986  28.797  1.00  0.00     0.064 A 
ATOM     67  C   UNL A   1      41.195  28.328  27.668  1.00  0.00     0.173 A 
ATOM     68  C   UNL A   1      39.749  26.761  28.776  1.00  0.00     0.173 A 
ATOM     69  F   UNL A   1      41.862  29.491  27.632  1.00  0.00    -0.203 F 
ATOM     70  C   UNL A   1      41.242  27.495  26.554  1.00  0.00     0.198 A 
ATOM     71  C   UNL A   1      39.826  25.913  27.674  1.00  0.00     0.198 A 
ATOM     72  F   UNL A   1      39.012  26.379  29.830  1.00  0.00    -0.203 F 
ATOM     73  F   UNL A   1      41.932  27.869  25.468  1.00  0.00    -0.200 F 
ATOM     74  C   UNL A   1      40.564  26.285  26.560  1.00  0.00     0.200 A 
ATOM     75  F   UNL A   1      39.184  24.737  27.688  1.00  0.00    -0.200 F 
ATOM     76  F   UNL A   1      40.617  25.479  25.490  1.00  0.00    -0.200 F 
ENDBRANCH  52  66
BRANCH  53  77
ATOM     77  C   UNL A   1      39.539  33.879  36.814  1.00  0.00     0.064 A 
ATOM     78  C   UNL A   1      38.763  33.458  37.902  1.00  0.00     0.173 A 
ATOM     79  C   UNL A   1      40.164  35.132  36.907  1.00  0.00     0.173 A 
ATOM     80  F   UNL A   1      38.128  32.277  37.856  1.00  0.00    -0.203 F 
ATOM     81  C   UNL A   1      38.598  34.266  39.026  1.00  0.00     0.198 A 
ATOM     82  C   UNL A   1      40.026  35.924  38.043  1.00  0.00     0.198 A 
ATOM     83  F   UNL A   1      40.924  35.580  35.895  1.00  0.00    -0.203 F 
ATOM     84  F   UNL A   1      37.810  33.860  40.031  1.00  0.00    -0.200 F 
ATOM     85  C   UNL A   1      39.235  35.495  39.099  1.00  0.00     0.200 A 
ATOM     86  F   UNL A   1      40.657  37.104  38.117  1.00  0.00    -0.200 F 
ATOM     87  F   UNL A   1      39.081  36.270  40.181  1.00  0.00    -0.200 F 
ENDBRANCH  53  77
BRANCH  65  88
ATOM     88  C   UNL A   1      43.885  28.704  35.088  1.00  0.00     0.064 A 
ATOM     89  C   UNL A   1      43.705  27.635  35.976  1.00  0.00     0.173 A 
ATOM     90  C   UNL A   1      45.196  29.141  34.843  1.00  0.00     0.173 A 
ATOM     91  F   UNL A   1      42.471  27.189  36.256  1.00  0.00    -0.203 F 
ATOM     92  C   UNL A   1      44.793  27.041  36.612  1.00  0.00     0.198 A 
ATOM     93  C   UNL A   1      46.284  28.523  35.453  1.00  0.00     0.198 A 
ATOM     94  F   UNL A   1      45.425  30.156  33.996  1.00  0.00    -0.203 F 
ATOM     95  F   UNL A   1      44.593  26.053  37.494  1.00  0.00    -0.200 F 
ATOM     96  C   UNL A   1      46.081  27.479  36.343  1.00  0.00     0.200 A 
ATOM     97  F   UNL A   1      47.528  28.937  35.178  1.00  0.00    -0.200 F 
ATOM     98  F   UNL A   1      47.127  26.899  36.946  1.00  0.00    -0.200 F 
ENDBRANCH  65  88
ENDBRANCH  39  40
ENDBRANCH  31  34
ENDBRANCH  29  30
ENDBRANCH  28  29
ENDBRANCH  27  28
ENDBRANCH   1  27
TORSDOF 17
ENDMDL
MODEL 2
REMARK VINA RESULT:     -12.4      5.465     10.939
REMARK SMILES Cc1cc(C(=O)N[C@@H](Cc2ccccc2)C(=O)NCCCCCCNC(=O)c2ccc(-c3c4nc(c(-c5c(F)c(F)c(F)c(F)c5F)c5ccc([nH]5)c(-c5c(F)c(F)c(F)c(F)c5F)c5nc(c(-c6c(F)c(F)c(F)c(F)c6F)c6ccc3[nH]6)C=C5)C=C4)cc2)c(C)o1
REMARK SMILES IDX 21 1 20 2 19 3 18 4 16 5 17 6 8 8 7 9 5 10 6 11 4 13 1 14
REMARK SMILES IDX 2 15 3 16 93 17 91 18 92 19 9 20 10 21 11 22 15 23 12 24
REMARK SMILES IDX 14 25 13 26 22 27 23 28 24 29 25 30 26 31 27 33 28 34 29 35
REMARK SMILES IDX 90 36 30 37 89 38 31 39 32 40 33 41 83 42 34 43 88 44 82 45
REMARK SMILES IDX 84 46 35 47 87 48 81 49 80 50 36 52 68 53 48 54 67 55 49 56
REMARK SMILES IDX 52 57 66 58 85 59 50 60 51 61 65 63 86 64 53 65 37 66 38 67
REMARK SMILES IDX 46 68 39 69 40 70 44 71 47 72 41 73 42 74 45 75 43 76 69 77
REMARK SMILES IDX 70 78 78 79 71 80 72 81 76 82 79 83 73 84 74 85 77 86 75 87
REMARK SMILES IDX 54 88 55 89 63 90 56 91 57 92 61 93 64 94 58 95 59 96 62 97
REMARK SMILES IDX 60 98
REMARK H PARENT 18 7 7 12 25 32 84 51 52 62
REMARK Flexibility Score: inf
ROOT
ATOM      1  C   UNL A   1      37.783  22.294  25.325  1.00  0.00     0.002 C 
ENDROOT
BRANCH   1   2
ATOM      2  C   UNL A   1      36.755  23.427  25.267  1.00  0.00     0.021 C 
BRANCH   2   3
ATOM      3  C   UNL A   1      35.306  22.983  25.134  1.00  0.00     0.116 C 
BRANCH   3   4
ATOM      4  N   UNL A   1      34.631  22.720  26.385  1.00  0.00    -0.354 N 
ATOM      5  C   UNL A   1      33.442  23.216  26.838  1.00  0.00     0.242 C 
ATOM      6  O   UNL A   1      32.901  22.611  27.772  1.00  0.00    -0.273 OA
ATOM      7  H   UNL A   1      35.091  22.098  26.993  1.00  0.00     0.163 HD
BRANCH   5   8
ATOM      8  C   UNL A   1      32.742  24.455  26.219  1.00  0.00     0.176 C 
BRANCH   8   9
ATOM      9  N   UNL A   1      31.376  24.626  26.707  1.00  0.00    -0.340 N 
ATOM     10  C   UNL A   1      30.250  25.201  26.181  1.00  0.00     0.255 C 
ATOM     11  O   UNL A   1      29.238  25.070  26.875  1.00  0.00    -0.269 OA
ATOM     12  H   UNL A   1      31.235  24.249  27.605  1.00  0.00     0.164 HD
BRANCH  10  13
ATOM     13  C   UNL A   1      30.230  25.958  24.928  1.00  0.00     0.081 A 
ATOM     14  C   UNL A   1      29.975  28.665  22.376  1.00  0.00     0.087 C 
ATOM     15  C   UNL A   1      30.104  27.497  23.268  1.00  0.00     0.101 A 
ATOM     16  C   UNL A   1      30.132  27.354  24.634  1.00  0.00     0.059 A 
ATOM     17  O   UNL A   1      30.255  26.290  22.676  1.00  0.00    -0.466 OA
ATOM     18  C   UNL A   1      30.359  25.364  23.671  1.00  0.00     0.113 A 
ATOM     19  C   UNL A   1      30.590  23.985  23.180  1.00  0.00     0.088 C 
ENDBRANCH  10  13
ENDBRANCH   8   9
BRANCH   8  20
ATOM     20  C   UNL A   1      33.570  25.752  26.126  1.00  0.00     0.070 C 
BRANCH  20  21
ATOM     21  C   UNL A   1      33.644  26.496  24.818  1.00  0.00    -0.045 A 
ATOM     22  C   UNL A   1      33.653  27.900  24.812  1.00  0.00     0.004 A 
ATOM     23  C   UNL A   1      33.713  25.814  23.593  1.00  0.00     0.004 A 
ATOM     24  C   UNL A   1      33.670  28.605  23.608  1.00  0.00     0.000 A 
ATOM     25  C   UNL A   1      33.705  26.523  22.390  1.00  0.00     0.000 A 
ATOM     26  C   UNL A   1      33.680  27.916  22.397  1.00  0.00     0.000 A 
ENDBRANCH  20  21
ENDBRANCH   8  20
ENDBRANCH   5   8
ENDBRANCH   3   4
ENDBRANCH   2   3
ENDBRANCH   1   2
BRANCH   1  27
ATOM     27  C   UNL A   1      37.365  20.968  24.678  1.00  0.00     0.002 C 
BRANCH  27  28
ATOM     28  C   UNL A   1      38.241  19.756  25.002  1.00  0.00     0.021 C 
BRANCH  28  29
ATOM     29  C   UNL A   1      39.273  19.966  26.103  1.00  0.00     0.116 C 
BRANCH  29  30
ATOM     30  N   UNL A   1      40.361  19.004  26.036  1.00  0.00    -0.352 N 
ATOM     31  C   UNL A   1      41.719  19.202  26.058  1.00  0.00     0.251 C 
ATOM     32  H   UNL A   1      40.079  18.064  25.964  1.00  0.00     0.163 HD
ATOM     33  O   UNL A   1      42.476  18.271  25.809  1.00  0.00    -0.269 OA
BRANCH  31  34
ATOM     34  C   UNL A   1      42.277  20.539  26.357  1.00  0.00     0.039 A 
ATOM     35  C   UNL A   1      42.634  21.370  25.291  1.00  0.00     0.014 A 
ATOM     36  C   UNL A   1      42.473  20.970  27.672  1.00  0.00     0.014 A 
ATOM     37  C   UNL A   1      43.124  22.653  25.543  1.00  0.00     0.010 A 
ATOM     38  C   UNL A   1      42.885  22.277  27.922  1.00  0.00     0.010 A 
ATOM     39  C   UNL A   1      43.217  23.131  26.860  1.00  0.00    -0.014 A 
BRANCH  39  40
ATOM     40  C   UNL A   1      43.652  24.523  27.144  1.00  0.00     0.031 A 
ATOM     41  C   UNL A   1      42.665  25.541  27.643  1.00  0.00     0.074 A 
ATOM     42  C   UNL A   1      44.926  24.885  26.892  1.00  0.00     0.049 A 
ATOM     43  N   UNL A   1      42.839  26.818  27.880  1.00  0.00    -0.248 NA
ATOM     44  C   UNL A   1      41.294  25.068  27.886  1.00  0.00     0.031 C 
ATOM     45  C   UNL A   1      45.968  24.002  26.369  1.00  0.00     0.029 A 
ATOM     46  N   UNL A   1      45.559  26.097  27.033  1.00  0.00    -0.354 N 
ATOM     47  C   UNL A   1      41.601  27.299  28.285  1.00  0.00     0.074 A 
ATOM     48  C   UNL A   1      40.672  26.192  28.209  1.00  0.00     0.031 C 
ATOM     49  C   UNL A   1      47.114  24.691  26.253  1.00  0.00     0.029 A 
ATOM     50  C   UNL A   1      46.878  26.076  26.649  1.00  0.00     0.049 A 
ATOM     51  H   UNL A   1      45.110  26.902  27.375  1.00  0.00     0.167 HD
ATOM     52  C   UNL A   1      41.275  28.545  28.705  1.00  0.00     0.037 A 
ATOM     53  C   UNL A   1      47.791  27.066  26.607  1.00  0.00     0.037 A 
ATOM     54  C   UNL A   1      42.208  29.638  28.795  1.00  0.00     0.049 A 
ATOM     55  C   UNL A   1      47.395  28.448  27.052  1.00  0.00     0.074 A 
ATOM     56  C   UNL A   1      41.989  30.922  29.263  1.00  0.00     0.029 A 
ATOM     57  N   UNL A   1      43.536  29.579  28.400  1.00  0.00    -0.354 N 
ATOM     58  N   UNL A   1      46.239  28.874  27.500  1.00  0.00    -0.248 NA
ATOM     59  C   UNL A   1      48.432  29.487  26.986  1.00  0.00     0.031 C 
ATOM     60  C   UNL A   1      43.167  31.657  29.094  1.00  0.00     0.029 A 
ATOM     61  C   UNL A   1      44.140  30.813  28.582  1.00  0.00     0.049 A 
ATOM     62  H   UNL A   1      43.984  28.778  28.042  1.00  0.00     0.167 HD
ATOM     63  C   UNL A   1      46.417  30.219  27.798  1.00  0.00     0.074 A 
ATOM     64  C   UNL A   1      47.797  30.534  27.494  1.00  0.00     0.031 C 
ATOM     65  C   UNL A   1      45.517  31.112  28.280  1.00  0.00     0.037 A 
BRANCH  52  66
ATOM     66  C   UNL A   1      39.846  28.796  29.097  1.00  0.00     0.064 A 
ATOM     67  C   UNL A   1      39.401  28.630  30.418  1.00  0.00     0.173 A 
ATOM     68  C   UNL A   1      38.917  29.247  28.146  1.00  0.00     0.173 A 
ATOM     69  F   UNL A   1      40.245  28.193  31.364  1.00  0.00    -0.203 F 
ATOM     70  C   UNL A   1      38.075  28.875  30.765  1.00  0.00     0.198 A 
ATOM     71  C   UNL A   1      37.600  29.524  28.504  1.00  0.00     0.198 A 
ATOM     72  F   UNL A   1      39.288  29.431  26.870  1.00  0.00    -0.203 F 
ATOM     73  F   UNL A   1      37.662  28.657  32.021  1.00  0.00    -0.200 F 
ATOM     74  C   UNL A   1      37.177  29.328  29.810  1.00  0.00     0.200 A 
ATOM     75  F   UNL A   1      36.738  29.979  27.584  1.00  0.00    -0.200 F 
ATOM     76  F   UNL A   1      35.903  29.572  30.148  1.00  0.00    -0.200 F 
ENDBRANCH  52  66
BRANCH  53  77
ATOM     77  C   UNL A   1      49.173  26.782  26.137  1.00  0.00     0.064 A 
ATOM     78  C   UNL A   1      49.539  26.996  24.802  1.00  0.00     0.173 A 
ATOM     79  C   UNL A   1      50.154  26.286  27.010  1.00  0.00     0.173 A 
ATOM     80  F   UNL A   1      48.633  27.450  23.923  1.00  0.00    -0.203 F 
ATOM     81  C   UNL A   1      50.825  26.703  24.351  1.00  0.00     0.198 A 
ATOM     82  C   UNL A   1      51.448  26.025  26.566  1.00  0.00     0.198 A 
ATOM     83  F   UNL A   1      49.858  26.069  28.300  1.00  0.00    -0.203 F 
ATOM     84  F   UNL A   1      51.134  26.871  23.058  1.00  0.00    -0.200 F 
ATOM     85  C   UNL A   1      51.780  26.225  25.235  1.00  0.00     0.200 A 
ATOM     86  F   UNL A   1      52.372  25.579  27.427  1.00  0.00    -0.200 F 
ATOM     87  F   UNL A   1      53.018  25.948  24.803  1.00  0.00    -0.200 F 
ENDBRANCH  53  77
BRANCH  65  88
ATOM     88  C   UNL A   1      46.003  32.509  28.543  1.00  0.00     0.064 A 
ATOM     89  C   UNL A   1      45.914  33.517  27.572  1.00  0.00     0.173 A 
ATOM     90  C   UNL A   1      46.521  32.855  29.800  1.00  0.00     0.173 A 
ATOM     91  F   UNL A   1      45.440  33.236  26.348  1.00  0.00    -0.203 F 
ATOM     92  C   UNL A   1      46.348  34.813  27.842  1.00  0.00     0.198 A 
ATOM     93  C   UNL A   1      46.922  34.158  30.079  1.00  0.00     0.198 A 
ATOM     94  F   UNL A   1      46.621  31.930  30.768  1.00  0.00    -0.203 F 
ATOM     95  F   UNL A   1      46.299  35.747  26.883  1.00  0.00    -0.200 F 
ATOM     96  C   UNL A   1      46.843  35.134  29.097  1.00  0.00     0.200 A 
ATOM     97  F   UNL A   1      47.383  34.469  31.298  1.00  0.00    -0.200 F 
ATOM     98  F   UNL A   1      47.249  36.383  29.359  1.00  0.00    -0.200 F 
ENDBRANCH  65  88
ENDBRANCH  39  40
ENDBRANCH  31  34
ENDBRANCH  29  30
ENDBRANCH  28  29
ENDBRANCH  27  28
ENDBRANCH   1  27
TORSDOF 17
ENDMDL
MODEL 3
REMARK VINA RESULT:     -12.4      0.673      2.036
REMARK SMILES Cc1cc(C(=O)N[C@@H](Cc2ccccc2)C(=O)NCCCCCCNC(=O)c2ccc(-c3c4nc(c(-c5c(F)c(F)c(F)c(F)c5F)c5ccc([nH]5)c(-c5c(F)c(F)c(F)c(F)c5F)c5nc(c(-c6c(F)c(F)c(F)c(F)c6F)c6ccc3[nH]6)C=C5)C=C4)cc2)c(C)o1
REMARK SMILES IDX 21 1 20 2 19 3 18 4 16 5 17 6 8 8 7 9 5 10 6 11 4 13 1 14
REMARK SMILES IDX 2 15 3 16 93 17 91 18 92 19 9 20 10 21 11 22 15 23 12 24
REMARK SMILES IDX 14 25 13 26 22 27 23 28 24 29 25 30 26 31 27 33 28 34 29 35
REMARK SMILES IDX 90 36 30 37 89 38 31 39 32 40 33 41 83 42 34 43 88 44 82 45
REMARK SMILES IDX 84 46 35 47 87 48 81 49 80 50 36 52 68 53 48 54 67 55 49 56
REMARK SMILES IDX 52 57 66 58 85 59 50 60 51 61 65 63 86 64 53 65 37 66 38 67
REMARK SMILES IDX 46 68 39 69 40 70 44 71 47 72 41 73 42 74 45 75 43 76 69 77
REMARK SMILES IDX 70 78 78 79 71 80 72 81 76 82 79 83 73 84 74 85 77 86 75 87
REMARK SMILES IDX 54 88 55 89 63 90 56 91 57 92 61 93 64 94 58 95 59 96 62 97
REMARK SMILES IDX 60 98
REMARK H PARENT 18 7 7 12 25 32 84 51 52 62
REMARK Flexibility Score: inf
ROOT
ATOM      1  C   UNL A   1      31.778  29.400  26.635  1.00  0.00     0.002 C 
ENDROOT
BRANCH   1   2
ATOM      2  C   UNL A   1      32.792  28.377  26.116  1.00  0.00     0.021 C 
BRANCH   2   3
ATOM      3  C   UNL A   1      32.511  26.932  26.501  1.00  0.00     0.116 C 
BRANCH   3   4
ATOM      4  N   UNL A   1      31.120  26.623  26.741  1.00  0.00    -0.354 N 
ATOM      5  C   UNL A   1      30.344  25.659  26.163  1.00  0.00     0.242 C 
ATOM      6  O   UNL A   1      29.295  25.359  26.747  1.00  0.00    -0.273 OA
ATOM      7  H   UNL A   1      30.671  27.183  27.414  1.00  0.00     0.163 HD
BRANCH   5   8
ATOM      8  C   UNL A   1      30.734  24.919  24.856  1.00  0.00     0.176 C 
BRANCH   8   9
ATOM      9  N   UNL A   1      30.768  23.469  25.026  1.00  0.00    -0.340 N 
ATOM     10  C   UNL A   1      31.781  22.557  25.162  1.00  0.00     0.255 C 
ATOM     11  O   UNL A   1      31.403  21.402  25.376  1.00  0.00    -0.269 OA
ATOM     12  H   UNL A   1      29.873  23.060  25.046  1.00  0.00     0.164 HD
BRANCH  10  13
ATOM     13  C   UNL A   1      33.200  22.887  25.020  1.00  0.00     0.081 A 
ATOM     14  C   UNL A   1      36.778  23.703  25.685  1.00  0.00     0.087 C 
ATOM     15  C   UNL A   1      35.396  23.390  25.271  1.00  0.00     0.101 A 
ATOM     16  C   UNL A   1      34.275  22.990  25.957  1.00  0.00     0.059 A 
ATOM     17  O   UNL A   1      35.121  23.475  23.949  1.00  0.00    -0.466 OA
ATOM     18  C   UNL A   1      33.808  23.144  23.790  1.00  0.00     0.113 A 
ATOM     19  C   UNL A   1      33.363  23.132  22.376  1.00  0.00     0.088 C 
ENDBRANCH  10  13
ENDBRANCH   8   9
BRANCH   8  20
ATOM     20  C   UNL A   1      30.075  25.409  23.551  1.00  0.00     0.070 C 
BRANCH  20  21
ATOM     21  C   UNL A   1      30.006  26.886  23.261  1.00  0.00    -0.045 A 
ATOM     22  C   UNL A   1      28.796  27.576  23.437  1.00  0.00     0.004 A 
ATOM     23  C   UNL A   1      31.133  27.598  22.825  1.00  0.00     0.004 A 
ATOM     24  C   UNL A   1      28.700  28.932  23.126  1.00  0.00     0.000 A 
ATOM     25  C   UNL A   1      31.027  28.950  22.490  1.00  0.00     0.000 A 
ATOM     26  C   UNL A   1      29.812  29.615  22.637  1.00  0.00     0.000 A 
ENDBRANCH  20  21
ENDBRANCH   8  20
ENDBRANCH   5   8
ENDBRANCH   3   4
ENDBRANCH   2   3
ENDBRANCH   1   2
BRANCH   1  27
ATOM     27  C   UNL A   1      31.574  30.648  25.769  1.00  0.00     0.002 C 
BRANCH  27  28
ATOM     28  C   UNL A   1      31.313  31.955  26.523  1.00  0.00     0.021 C 
BRANCH  28  29
ATOM     29  C   UNL A   1      32.518  32.555  27.236  1.00  0.00     0.116 C 
BRANCH  29  30
ATOM     30  N   UNL A   1      32.327  33.957  27.567  1.00  0.00    -0.352 N 
ATOM     31  C   UNL A   1      32.959  34.740  28.501  1.00  0.00     0.251 C 
ATOM     32  H   UNL A   1      31.637  34.418  27.037  1.00  0.00     0.163 HD
ATOM     33  O   UNL A   1      32.528  35.860  28.751  1.00  0.00    -0.269 OA
BRANCH  31  34
ATOM     34  C   UNL A   1      34.142  34.232  29.228  1.00  0.00     0.039 A 
ATOM     35  C   UNL A   1      33.947  33.546  30.430  1.00  0.00     0.014 A 
ATOM     36  C   UNL A   1      35.438  34.446  28.751  1.00  0.00     0.014 A 
ATOM     37  C   UNL A   1      35.043  33.019  31.116  1.00  0.00     0.010 A 
ATOM     38  C   UNL A   1      36.523  33.852  29.392  1.00  0.00     0.010 A 
ATOM     39  C   UNL A   1      36.337  33.134  30.583  1.00  0.00    -0.014 A 
BRANCH  39  40
ATOM     40  C   UNL A   1      37.504  32.505  31.253  1.00  0.00     0.031 A 
ATOM     41  C   UNL A   1      38.248  31.382  30.586  1.00  0.00     0.074 A 
ATOM     42  C   UNL A   1      37.855  32.905  32.491  1.00  0.00     0.049 A 
ATOM     43  N   UNL A   1      39.245  30.662  31.040  1.00  0.00    -0.248 NA
ATOM     44  C   UNL A   1      37.799  31.000  29.239  1.00  0.00     0.031 C 
ATOM     45  C   UNL A   1      37.188  33.956  33.260  1.00  0.00     0.029 A 
ATOM     46  N   UNL A   1      38.855  32.467  33.325  1.00  0.00    -0.354 N 
ATOM     47  C   UNL A   1      39.529  29.739  30.043  1.00  0.00     0.074 A 
ATOM     48  C   UNL A   1      38.567  29.950  28.984  1.00  0.00     0.031 C 
ATOM     49  C   UNL A   1      37.807  34.098  34.442  1.00  0.00     0.029 A 
ATOM     50  C   UNL A   1      38.885  33.118  34.535  1.00  0.00     0.049 A 
ATOM     51  H   UNL A   1      39.488  31.755  33.081  1.00  0.00     0.167 HD
ATOM     52  C   UNL A   1      40.519  28.814  30.005  1.00  0.00     0.037 A 
ATOM     53  C   UNL A   1      39.684  32.936  35.605  1.00  0.00     0.037 A 
ATOM     54  C   UNL A   1      41.484  28.619  31.056  1.00  0.00     0.049 A 
ATOM     55  C   UNL A   1      40.757  31.882  35.548  1.00  0.00     0.074 A 
ATOM     56  C   UNL A   1      42.560  27.749  31.087  1.00  0.00     0.029 A 
ATOM     57  N   UNL A   1      41.485  29.299  32.265  1.00  0.00    -0.354 N 
ATOM     58  N   UNL A   1      41.062  31.063  34.572  1.00  0.00    -0.248 NA
ATOM     59  C   UNL A   1      41.598  31.729  36.743  1.00  0.00     0.031 C 
ATOM     60  C   UNL A   1      43.175  27.858  32.338  1.00  0.00     0.029 A 
ATOM     61  C   UNL A   1      42.522  28.844  33.063  1.00  0.00     0.049 A 
ATOM     62  H   UNL A   1      40.843  30.001  32.519  1.00  0.00     0.167 HD
ATOM     63  C   UNL A   1      42.146  30.320  35.020  1.00  0.00     0.074 A 
ATOM     64  C   UNL A   1      42.456  30.797  36.351  1.00  0.00     0.031 C 
ATOM     65  C   UNL A   1      42.823  29.331  34.385  1.00  0.00     0.037 A 
BRANCH  52  66
ATOM     66  C   UNL A   1      40.606  27.936  28.788  1.00  0.00     0.064 A 
ATOM     67  C   UNL A   1      39.914  26.718  28.704  1.00  0.00     0.173 A 
ATOM     68  C   UNL A   1      41.361  28.338  27.675  1.00  0.00     0.173 A 
ATOM     69  F   UNL A   1      39.186  26.283  29.743  1.00  0.00    -0.203 F 
ATOM     70  C   UNL A   1      40.001  25.920  27.566  1.00  0.00     0.198 A 
ATOM     71  C   UNL A   1      41.417  27.555  26.525  1.00  0.00     0.198 A 
ATOM     72  F   UNL A   1      42.036  29.497  27.696  1.00  0.00    -0.203 F 
ATOM     73  F   UNL A   1      39.374  24.736  27.531  1.00  0.00    -0.200 F 
ATOM     74  C   UNL A   1      40.745  26.342  26.475  1.00  0.00     0.200 A 
ATOM     75  F   UNL A   1      42.123  27.972  25.465  1.00  0.00    -0.200 F 
ATOM     76  F   UNL A   1      40.820  25.578  25.376  1.00  0.00    -0.200 F 
ENDBRANCH  52  66
BRANCH  53  77
ATOM     77  C   UNL A   1      39.507  33.780  36.817  1.00  0.00     0.064 A 
ATOM     78  C   UNL A   1      40.126  35.033  36.920  1.00  0.00     0.173 A 
ATOM     79  C   UNL A   1      38.722  33.350  37.898  1.00  0.00     0.173 A 
ATOM     80  F   UNL A   1      40.902  35.481  35.922  1.00  0.00    -0.203 F 
ATOM     81  C   UNL A   1      39.987  35.813  38.066  1.00  0.00     0.198 A 
ATOM     82  C   UNL A   1      38.557  34.145  39.029  1.00  0.00     0.198 A 
ATOM     83  F   UNL A   1      38.103  32.161  37.848  1.00  0.00    -0.203 F 
ATOM     84  F   UNL A   1      40.630  36.985  38.158  1.00  0.00    -0.200 F 
ATOM     85  C   UNL A   1      39.197  35.372  39.117  1.00  0.00     0.200 A 
ATOM     86  F   UNL A   1      37.779  33.723  40.035  1.00  0.00    -0.200 F 
ATOM     87  F   UNL A   1      39.059  36.125  40.217  1.00  0.00    -0.200 F 
ENDBRANCH  53  77
BRANCH  65  88
ATOM     88  C   UNL A   1      43.991  28.719  35.107  1.00  0.00     0.064 A 
ATOM     89  C   UNL A   1      45.282  29.258  35.012  1.00  0.00     0.173 A 
ATOM     90  C   UNL A   1      43.804  27.607  35.942  1.00  0.00     0.173 A 
ATOM     91  F   UNL A   1      45.517  30.312  34.216  1.00  0.00    -0.203 F 
ATOM     92  C   UNL A   1      46.348  28.691  35.707  1.00  0.00     0.198 A 
ATOM     93  C   UNL A   1      44.864  27.064  36.663  1.00  0.00     0.198 A 
ATOM     94  F   UNL A   1      42.588  27.056  36.075  1.00  0.00    -0.203 F 
ATOM     95  F   UNL A   1      47.581  29.193  35.562  1.00  0.00    -0.200 F 
ATOM     96  C   UNL A   1      46.136  27.601  36.538  1.00  0.00     0.200 A 
ATOM     97  F   UNL A   1      44.653  26.021  37.477  1.00  0.00    -0.200 F 
ATOM     98  F   UNL A   1      47.160  27.065  37.215  1.00  0.00    -0.200 F 
ENDBRANCH  65  88
ENDBRANCH  39  40
ENDBRANCH  31  34
ENDBRANCH  29  30
ENDBRANCH  28  29
ENDBRANCH  27  28
ENDBRANCH   1  27
TORSDOF 17
ENDMDL
