MODEL 1
REMARK VINA RESULT:     -12.9      0.000      0.000
REMARK SMILES O=C(NCCCCCCNC(=O)[C@H]1CC=CC[C@@H]1C(=O)Nc1ccccc1C(=O)NCc1ccco1)c1ccc(-c2c3nc(c(-c4c(F)c(F)c(F)c(F)c4F)c4ccc([nH]4)c(-c4c(F)c(F)c(F)c(F)c4F)c4nc(c(-c5c(F)c(F)c(F)c(F)c5F)c5ccc2[nH]5)C=C4)C=C3)cc1
REMARK SMILES IDX 8 1 7 2 6 3 5 4 4 5 3 6 1 7 2 8 37 10 38 11 99 12 39 13
REMARK SMILES IDX 98 14 40 15 41 16 42 17 92 18 43 19 97 20 91 21 93 22 44 23
REMARK SMILES IDX 96 24 90 25 89 26 45 28 77 29 57 30 76 31 58 32 61 33 75 34
REMARK SMILES IDX 94 35 59 36 60 37 74 39 95 40 62 41 46 42 47 43 55 44 48 45
REMARK SMILES IDX 49 46 53 47 56 48 50 49 51 50 54 51 52 52 78 53 79 54 87 55
REMARK SMILES IDX 80 56 81 57 85 58 88 59 82 60 83 61 86 62 84 63 63 64 64 65
REMARK SMILES IDX 72 66 65 67 66 68 70 69 73 70 67 71 68 72 71 73 69 74 9 75
REMARK SMILES IDX 10 76 11 77 12 79 13 80 14 81 18 82 15 83 17 84 16 85 19 86
REMARK SMILES IDX 20 87 21 88 22 90 23 91 27 92 24 93 26 94 25 95 28 96 29 97
REMARK SMILES IDX 30 98 31 100 32 101 33 102 36 103 34 104 35 105
REMARK H PARENT 3 9 93 27 61 38 10 78 21 89 30 99
REMARK Flexibility Score: inf
ROOT
ATOM      1  C   UNL A   1      34.541  24.414  23.455  1.00  0.00     0.021 C 
ENDROOT
BRANCH   1   2
ATOM      2  C   UNL A   1      35.676  23.690  24.186  1.00  0.00     0.002 C 
BRANCH   2   3
ATOM      3  C   UNL A   1      36.636  22.919  23.277  1.00  0.00     0.002 C 
BRANCH   3   4
ATOM      4  C   UNL A   1      37.291  21.700  23.926  1.00  0.00     0.021 C 
BRANCH   4   5
ATOM      5  C   UNL A   1      37.719  21.911  25.372  1.00  0.00     0.116 C 
BRANCH   5   6
ATOM      6  N   UNL A   1      38.555  20.833  25.872  1.00  0.00    -0.352 N 
ATOM      7  O   UNL A   1      40.416  19.920  26.775  1.00  0.00    -0.269 OA
ATOM      8  C   UNL A   1      39.756  20.917  26.532  1.00  0.00     0.251 C 
ATOM      9  H   UNL A   1      38.215  19.922  25.717  1.00  0.00     0.163 HD
BRANCH   8  10
ATOM     10  C   UNL A   1      40.251  22.253  26.915  1.00  0.00     0.039 A 
ATOM     11  C   UNL A   1      39.712  23.396  26.320  1.00  0.00     0.014 A 
ATOM     12  C   UNL A   1      41.290  22.352  27.842  1.00  0.00     0.014 A 
ATOM     13  C   UNL A   1      40.302  24.630  26.553  1.00  0.00     0.010 A 
ATOM     14  C   UNL A   1      41.828  23.604  28.137  1.00  0.00     0.010 A 
ATOM     15  C   UNL A   1      41.359  24.747  27.471  1.00  0.00    -0.014 A 
BRANCH  15  16
ATOM     16  C   UNL A   1      41.927  26.087  27.749  1.00  0.00     0.031 A 
ATOM     17  C   UNL A   1      43.274  26.483  27.217  1.00  0.00     0.074 A 
ATOM     18  C   UNL A   1      41.192  26.957  28.467  1.00  0.00     0.049 A 
ATOM     19  N   UNL A   1      43.908  27.622  27.345  1.00  0.00    -0.248 NA
ATOM     20  C   UNL A   1      44.012  25.469  26.449  1.00  0.00     0.031 C 
ATOM     21  C   UNL A   1      39.875  26.671  29.039  1.00  0.00     0.029 A 
ATOM     22  N   UNL A   1      41.432  28.259  28.817  1.00  0.00    -0.354 N 
ATOM     23  C   UNL A   1      45.129  27.453  26.705  1.00  0.00     0.074 A 
ATOM     24  C   UNL A   1      45.154  26.096  26.199  1.00  0.00     0.031 C 
ATOM     25  C   UNL A   1      39.399  27.780  29.621  1.00  0.00     0.029 A 
ATOM     26  C   UNL A   1      40.399  28.835  29.515  1.00  0.00     0.049 A 
ATOM     27  H   UNL A   1      42.263  28.736  28.592  1.00  0.00     0.167 HD
ATOM     28  C   UNL A   1      46.131  28.351  26.554  1.00  0.00     0.037 A 
ATOM     29  C   UNL A   1      40.276  30.075  30.019  1.00  0.00     0.037 A 
ATOM     30  C   UNL A   1      46.081  29.707  27.036  1.00  0.00     0.049 A 
ATOM     31  C   UNL A   1      41.400  31.050  29.827  1.00  0.00     0.074 A 
ATOM     32  C   UNL A   1      47.026  30.710  26.897  1.00  0.00     0.029 A 
ATOM     33  N   UNL A   1      45.026  30.251  27.754  1.00  0.00    -0.354 N 
ATOM     34  N   UNL A   1      42.534  30.890  29.191  1.00  0.00    -0.248 NA
ATOM     35  C   UNL A   1      41.226  32.380  30.425  1.00  0.00     0.031 C 
ATOM     36  C   UNL A   1      46.559  31.848  27.564  1.00  0.00     0.029 A 
ATOM     37  C   UNL A   1      45.303  31.570  28.079  1.00  0.00     0.049 A 
ATOM     38  H   UNL A   1      44.201  29.772  27.997  1.00  0.00     0.167 HD
ATOM     39  C   UNL A   1      43.201  32.101  29.292  1.00  0.00     0.074 A 
ATOM     40  C   UNL A   1      42.336  32.993  30.037  1.00  0.00     0.031 C 
ATOM     41  C   UNL A   1      44.423  32.443  28.813  1.00  0.00     0.037 A 
BRANCH  28  42
ATOM     42  C   UNL A   1      47.378  27.892  25.855  1.00  0.00     0.064 A 
ATOM     43  C   UNL A   1      48.519  27.488  26.564  1.00  0.00     0.173 A 
ATOM     44  C   UNL A   1      47.419  27.824  24.454  1.00  0.00     0.173 A 
ATOM     45  F   UNL A   1      48.536  27.547  27.905  1.00  0.00    -0.203 F 
ATOM     46  C   UNL A   1      49.662  27.054  25.896  1.00  0.00     0.198 A 
ATOM     47  C   UNL A   1      48.554  27.365  23.790  1.00  0.00     0.198 A 
ATOM     48  F   UNL A   1      46.354  28.194  23.727  1.00  0.00    -0.203 F 
ATOM     49  F   UNL A   1      50.755  26.713  26.593  1.00  0.00    -0.200 F 
ATOM     50  C   UNL A   1      49.677  26.986  24.510  1.00  0.00     0.200 A 
ATOM     51  F   UNL A   1      48.562  27.290  22.452  1.00  0.00    -0.200 F 
ATOM     52  F   UNL A   1      50.775  26.564  23.870  1.00  0.00    -0.200 F 
ENDBRANCH  28  42
BRANCH  29  53
ATOM     53  C   UNL A   1      39.031  30.460  30.729  1.00  0.00     0.064 A 
ATOM     54  C   UNL A   1      38.951  30.389  32.125  1.00  0.00     0.173 A 
ATOM     55  C   UNL A   1      37.909  30.931  30.031  1.00  0.00     0.173 A 
ATOM     56  F   UNL A   1      39.994  29.931  32.834  1.00  0.00    -0.203 F 
ATOM     57  C   UNL A   1      37.791  30.764  32.798  1.00  0.00     0.198 A 
ATOM     58  C   UNL A   1      36.759  31.331  30.707  1.00  0.00     0.198 A 
ATOM     59  F   UNL A   1      37.940  31.025  28.694  1.00  0.00    -0.203 F 
ATOM     60  F   UNL A   1      37.728  30.655  34.132  1.00  0.00    -0.200 F 
ATOM     61  C   UNL A   1      36.698  31.241  32.089  1.00  0.00     0.200 A 
ATOM     62  F   UNL A   1      35.713  31.808  30.020  1.00  0.00    -0.200 F 
ATOM     63  F   UNL A   1      35.586  31.612  32.738  1.00  0.00    -0.200 F 
ENDBRANCH  29  53
BRANCH  41  64
ATOM     64  C   UNL A   1      44.869  33.855  29.046  1.00  0.00     0.064 A 
ATOM     65  C   UNL A   1      45.629  34.211  30.170  1.00  0.00     0.173 A 
ATOM     66  C   UNL A   1      44.544  34.861  28.123  1.00  0.00     0.173 A 
ATOM     67  F   UNL A   1      45.949  33.287  31.088  1.00  0.00    -0.203 F 
ATOM     68  C   UNL A   1      46.022  35.530  30.377  1.00  0.00     0.198 A 
ATOM     69  C   UNL A   1      44.962  36.173  28.320  1.00  0.00     0.198 A 
ATOM     70  F   UNL A   1      43.822  34.569  27.032  1.00  0.00    -0.203 F 
ATOM     71  F   UNL A   1      46.703  35.858  31.483  1.00  0.00    -0.200 F 
ATOM     72  C   UNL A   1      45.693  36.508  29.449  1.00  0.00     0.200 A 
ATOM     73  F   UNL A   1      44.651  37.115  27.419  1.00  0.00    -0.200 F 
ATOM     74  F   UNL A   1      46.073  37.778  29.650  1.00  0.00    -0.200 F 
ENDBRANCH  41  64
ENDBRANCH  15  16
ENDBRANCH   8  10
ENDBRANCH   5   6
ENDBRANCH   4   5
ENDBRANCH   3   4
ENDBRANCH   2   3
ENDBRANCH   1   2
BRANCH   1  75
ATOM     75  C   UNL A   1      33.816  25.447  24.309  1.00  0.00     0.116 C 
BRANCH  75  76
ATOM     76  N   UNL A   1      34.034  26.783  23.790  1.00  0.00    -0.356 N 
ATOM     77  C   UNL A   1      33.921  27.989  24.415  1.00  0.00     0.224 C 
ATOM     78  H   UNL A   1      34.304  26.827  22.844  1.00  0.00     0.163 HD
ATOM     79  O   UNL A   1      34.133  29.007  23.760  1.00  0.00    -0.275 OA
BRANCH  77  80
ATOM     80  C   UNL A   1      33.617  28.004  25.908  1.00  0.00     0.095 C 
ATOM     81  C   UNL A   1      34.677  28.929  26.534  1.00  0.00     0.041 C 
ATOM     82  C   UNL A   1      32.142  28.344  26.154  1.00  0.00     0.095 C 
ATOM     83  C   UNL A   1      34.183  30.221  27.091  1.00  0.00    -0.030 C 
ATOM     84  C   UNL A   1      31.825  29.831  26.384  1.00  0.00     0.041 C 
ATOM     85  C   UNL A   1      32.914  30.631  27.015  1.00  0.00    -0.030 C 
BRANCH  82  86
ATOM     86  C   UNL A   1      31.252  27.461  27.036  1.00  0.00     0.228 C 
ATOM     87  O   UNL A   1      31.045  27.828  28.206  1.00  0.00    -0.274 OA
ATOM     88  N   UNL A   1      30.512  26.388  26.673  1.00  0.00    -0.325 N 
ATOM     89  H   UNL A   1      29.807  26.193  27.332  1.00  0.00     0.169 HD
BRANCH  88  90
ATOM     90  C   UNL A   1      30.487  25.484  25.606  1.00  0.00     0.054 A 
ATOM     91  C   UNL A   1      30.199  26.102  24.367  1.00  0.00     0.027 A 
ATOM     92  C   UNL A   1      30.673  24.095  25.641  1.00  0.00     0.063 A 
ATOM     93  C   UNL A   1      30.245  25.398  23.165  1.00  0.00     0.002 A 
ATOM     94  C   UNL A   1      30.742  23.406  24.403  1.00  0.00     0.016 A 
ATOM     95  C   UNL A   1      30.551  24.048  23.179  1.00  0.00     0.001 A 
BRANCH  92  96
ATOM     96  C   UNL A   1      30.784  23.192  26.822  1.00  0.00     0.253 C 
ATOM     97  O   UNL A   1      29.871  23.206  27.653  1.00  0.00    -0.269 OA
ATOM     98  N   UNL A   1      31.836  22.376  27.098  1.00  0.00    -0.345 N 
ATOM     99  H   UNL A   1      31.646  21.714  27.801  1.00  0.00     0.164 HD
BRANCH  98 100
ATOM    100  C   UNL A   1      33.177  22.284  26.566  1.00  0.00     0.191 C 
BRANCH 100 101
ATOM    101  C   UNL A   1      33.265  21.042  25.757  1.00  0.00     0.122 A 
ATOM    102  C   UNL A   1      34.327  20.360  25.196  1.00  0.00     0.047 A 
ATOM    103  O   UNL A   1      32.095  20.409  25.467  1.00  0.00    -0.467 OA
ATOM    104  C   UNL A   1      33.769  19.254  24.512  1.00  0.00     0.042 A 
ATOM    105  C   UNL A   1      32.412  19.326  24.712  1.00  0.00     0.195 A 
ENDBRANCH 100 101
ENDBRANCH  98 100
ENDBRANCH  92  96
ENDBRANCH  88  90
ENDBRANCH  82  86
ENDBRANCH  77  80
ENDBRANCH  75  76
ENDBRANCH   1  75
TORSDOF 18
ENDMDL
MODEL 2
REMARK VINA RESULT:     -12.7      1.856      2.700
REMARK SMILES O=C(NCCCCCCNC(=O)[C@H]1CC=CC[C@@H]1C(=O)Nc1ccccc1C(=O)NCc1ccco1)c1ccc(-c2c3nc(c(-c4c(F)c(F)c(F)c(F)c4F)c4ccc([nH]4)c(-c4c(F)c(F)c(F)c(F)c4F)c4nc(c(-c5c(F)c(F)c(F)c(F)c5F)c5ccc2[nH]5)C=C4)C=C3)cc1
REMARK SMILES IDX 8 1 7 2 6 3 5 4 4 5 3 6 1 7 2 8 37 10 38 11 99 12 39 13
REMARK SMILES IDX 98 14 40 15 41 16 42 17 92 18 43 19 97 20 91 21 93 22 44 23
REMARK SMILES IDX 96 24 90 25 89 26 45 28 77 29 57 30 76 31 58 32 61 33 75 34
REMARK SMILES IDX 94 35 59 36 60 37 74 39 95 40 62 41 46 42 47 43 55 44 48 45
REMARK SMILES IDX 49 46 53 47 56 48 50 49 51 50 54 51 52 52 78 53 79 54 87 55
REMARK SMILES IDX 80 56 81 57 85 58 88 59 82 60 83 61 86 62 84 63 63 64 64 65
REMARK SMILES IDX 72 66 65 67 66 68 70 69 73 70 67 71 68 72 71 73 69 74 9 75
REMARK SMILES IDX 10 76 11 77 12 79 13 80 14 81 18 82 15 83 17 84 16 85 19 86
REMARK SMILES IDX 20 87 21 88 22 90 23 91 27 92 24 93 26 94 25 95 28 96 29 97
REMARK SMILES IDX 30 98 31 100 32 101 33 102 36 103 34 104 35 105
REMARK H PARENT 3 9 93 27 61 38 10 78 21 89 30 99
REMARK Flexibility Score: inf
ROOT
ATOM      1  C   UNL A   1      36.405  22.724  23.674  1.00  0.00     0.021 C 
ENDROOT
BRANCH   1   2
ATOM      2  C   UNL A   1      37.101  22.079  24.876  1.00  0.00     0.002 C 
BRANCH   2   3
ATOM      3  C   UNL A   1      36.770  20.599  25.091  1.00  0.00     0.002 C 
BRANCH   3   4
ATOM      4  C   UNL A   1      37.968  19.656  24.987  1.00  0.00     0.021 C 
BRANCH   4   5
ATOM      5  C   UNL A   1      39.212  20.134  25.722  1.00  0.00     0.116 C 
BRANCH   5   6
ATOM      6  N   UNL A   1      40.218  19.094  25.857  1.00  0.00    -0.352 N 
ATOM      7  O   UNL A   1      42.313  18.271  26.062  1.00  0.00    -0.269 OA
ATOM      8  C   UNL A   1      41.561  19.230  26.108  1.00  0.00     0.251 C 
ATOM      9  H   UNL A   1      39.893  18.170  25.755  1.00  0.00     0.163 HD
BRANCH   8  10
ATOM     10  C   UNL A   1      42.084  20.577  26.407  1.00  0.00     0.039 A 
ATOM     11  C   UNL A   1      42.308  20.963  27.731  1.00  0.00     0.014 A 
ATOM     12  C   UNL A   1      42.307  21.467  25.355  1.00  0.00     0.014 A 
ATOM     13  C   UNL A   1      42.628  22.283  28.012  1.00  0.00     0.010 A 
ATOM     14  C   UNL A   1      42.709  22.773  25.636  1.00  0.00     0.010 A 
ATOM     15  C   UNL A   1      42.840  23.198  26.967  1.00  0.00    -0.014 A 
BRANCH  15  16
ATOM     16  C   UNL A   1      43.245  24.585  27.295  1.00  0.00     0.031 A 
ATOM     17  C   UNL A   1      44.627  25.083  26.985  1.00  0.00     0.074 A 
ATOM     18  C   UNL A   1      42.332  25.403  27.853  1.00  0.00     0.049 A 
ATOM     19  N   UNL A   1      45.138  26.272  27.184  1.00  0.00    -0.248 NA
ATOM     20  C   UNL A   1      45.562  24.121  26.383  1.00  0.00     0.031 C 
ATOM     21  C   UNL A   1      40.964  25.018  28.204  1.00  0.00     0.029 A 
ATOM     22  N   UNL A   1      42.406  26.727  28.198  1.00  0.00    -0.354 N 
ATOM     23  C   UNL A   1      46.459  26.194  26.763  1.00  0.00     0.074 A 
ATOM     24  C   UNL A   1      46.677  24.836  26.310  1.00  0.00     0.031 C 
ATOM     25  C   UNL A   1      40.309  26.093  28.664  1.00  0.00     0.029 A 
ATOM     26  C   UNL A   1      41.227  27.226  28.695  1.00  0.00     0.049 A 
ATOM     27  H   UNL A   1      43.223  27.266  28.101  1.00  0.00     0.167 HD
ATOM     28  C   UNL A   1      47.398  27.170  26.754  1.00  0.00     0.037 A 
ATOM     29  C   UNL A   1      40.922  28.460  29.133  1.00  0.00     0.037 A 
ATOM     30  C   UNL A   1      47.161  28.525  27.180  1.00  0.00     0.049 A 
ATOM     31  C   UNL A   1      41.982  29.522  29.104  1.00  0.00     0.074 A 
ATOM     32  C   UNL A   1      48.033  29.600  27.171  1.00  0.00     0.029 A 
ATOM     33  N   UNL A   1      45.959  28.991  27.694  1.00  0.00    -0.354 N 
ATOM     34  N   UNL A   1      43.217  29.445  28.672  1.00  0.00    -0.248 NA
ATOM     35  C   UNL A   1      41.605  30.842  29.623  1.00  0.00     0.031 C 
ATOM     36  C   UNL A   1      47.372  30.706  27.715  1.00  0.00     0.029 A 
ATOM     37  C   UNL A   1      46.072  30.334  28.020  1.00  0.00     0.049 A 
ATOM     38  H   UNL A   1      45.145  28.449  27.809  1.00  0.00     0.167 HD
ATOM     39  C   UNL A   1      43.760  30.709  28.847  1.00  0.00     0.074 A 
ATOM     40  C   UNL A   1      42.712  31.538  29.409  1.00  0.00     0.031 C 
ATOM     41  C   UNL A   1      45.014  31.144  28.570  1.00  0.00     0.037 A 
BRANCH  28  42
ATOM     42  C   UNL A   1      48.778  26.805  26.290  1.00  0.00     0.064 A 
ATOM     43  C   UNL A   1      49.723  26.227  27.151  1.00  0.00     0.173 A 
ATOM     44  C   UNL A   1      49.149  27.005  24.951  1.00  0.00     0.173 A 
ATOM     45  F   UNL A   1      49.423  26.027  28.444  1.00  0.00    -0.203 F 
ATOM     46  C   UNL A   1      50.994  25.885  26.696  1.00  0.00     0.198 A 
ATOM     47  C   UNL A   1      50.413  26.637  24.492  1.00  0.00     0.198 A 
ATOM     48  F   UNL A   1      48.283  27.550  24.083  1.00  0.00    -0.203 F 
ATOM     49  F   UNL A   1      51.894  25.373  27.547  1.00  0.00    -0.200 F 
ATOM     50  C   UNL A   1      51.336  26.084  25.366  1.00  0.00     0.200 A 
ATOM     51  F   UNL A   1      50.736  26.820  23.205  1.00  0.00    -0.200 F 
ATOM     52  F   UNL A   1      52.557  25.749  24.929  1.00  0.00    -0.200 F 
ENDBRANCH  28  42
BRANCH  29  53
ATOM     53  C   UNL A   1      39.548  28.752  29.612  1.00  0.00     0.064 A 
ATOM     54  C   UNL A   1      39.192  28.527  30.948  1.00  0.00     0.173 A 
ATOM     55  C   UNL A   1      38.575  29.284  28.755  1.00  0.00     0.173 A 
ATOM     56  F   UNL A   1      40.086  28.006  31.801  1.00  0.00    -0.203 F 
ATOM     57  C   UNL A   1      37.909  28.814  31.407  1.00  0.00     0.198 A 
ATOM     58  C   UNL A   1      37.300  29.596  29.222  1.00  0.00     0.198 A 
ATOM     59  F   UNL A   1      38.871  29.524  27.469  1.00  0.00    -0.203 F 
ATOM     60  F   UNL A   1      37.583  28.560  32.682  1.00  0.00    -0.200 F 
ATOM     61  C   UNL A   1      36.966  29.355  30.545  1.00  0.00     0.200 A 
ATOM     62  F   UNL A   1      36.398  30.135  28.390  1.00  0.00    -0.200 F 
ATOM     63  F   UNL A   1      35.735  29.641  30.990  1.00  0.00    -0.200 F 
ENDBRANCH  29  53
BRANCH  41  64
ATOM     64  C   UNL A   1      45.301  32.591  28.831  1.00  0.00     0.064 A 
ATOM     65  C   UNL A   1      45.844  33.026  30.049  1.00  0.00     0.173 A 
ATOM     66  C   UNL A   1      45.043  33.553  27.843  1.00  0.00     0.173 A 
ATOM     67  F   UNL A   1      46.091  32.145  31.030  1.00  0.00    -0.203 F 
ATOM     68  C   UNL A   1      46.091  34.376  30.279  1.00  0.00     0.198 A 
ATOM     69  C   UNL A   1      45.317  34.898  28.067  1.00  0.00     0.198 A 
ATOM     70  F   UNL A   1      44.528  33.186  26.661  1.00  0.00    -0.203 F 
ATOM     71  F   UNL A   1      46.561  34.776  31.468  1.00  0.00    -0.200 F 
ATOM     72  C   UNL A   1      45.832  35.310  29.286  1.00  0.00     0.200 A 
ATOM     73  F   UNL A   1      45.075  35.798  27.104  1.00  0.00    -0.200 F 
ATOM     74  F   UNL A   1      46.070  36.609  29.510  1.00  0.00    -0.200 F 
ENDBRANCH  41  64
ENDBRANCH  15  16
ENDBRANCH   8  10
ENDBRANCH   5   6
ENDBRANCH   4   5
ENDBRANCH   3   4
ENDBRANCH   2   3
ENDBRANCH   1   2
BRANCH   1  75
ATOM     75  C   UNL A   1      35.353  23.761  24.052  1.00  0.00     0.116 C 
BRANCH  75  76
ATOM     76  N   UNL A   1      34.961  24.538  22.892  1.00  0.00    -0.356 N 
ATOM     77  C   UNL A   1      33.921  25.405  22.737  1.00  0.00     0.224 C 
ATOM     78  H   UNL A   1      35.530  24.421  22.097  1.00  0.00     0.163 HD
ATOM     79  O   UNL A   1      33.766  25.937  21.640  1.00  0.00    -0.275 OA
BRANCH  77  80
ATOM     80  C   UNL A   1      33.061  25.728  23.951  1.00  0.00     0.095 C 
ATOM     81  C   UNL A   1      33.717  26.958  24.605  1.00  0.00     0.041 C 
ATOM     82  C   UNL A   1      31.584  25.838  23.551  1.00  0.00     0.095 C 
ATOM     83  C   UNL A   1      32.944  28.232  24.544  1.00  0.00    -0.030 C 
ATOM     84  C   UNL A   1      31.086  27.251  23.203  1.00  0.00     0.041 C 
ATOM     85  C   UNL A   1      31.777  28.368  23.909  1.00  0.00    -0.030 C 
BRANCH  82  86
ATOM     86  C   UNL A   1      30.494  25.047  24.284  1.00  0.00     0.228 C 
ATOM     87  O   UNL A   1      29.319  25.441  24.179  1.00  0.00    -0.274 OA
ATOM     88  N   UNL A   1      30.605  23.859  24.922  1.00  0.00    -0.325 N 
ATOM     89  H   UNL A   1      29.729  23.424  25.033  1.00  0.00     0.169 HD
BRANCH  88  90
ATOM     90  C   UNL A   1      31.639  23.088  25.464  1.00  0.00     0.054 A 
ATOM     91  C   UNL A   1      31.962  23.455  26.790  1.00  0.00     0.027 A 
ATOM     92  C   UNL A   1      32.375  22.066  24.847  1.00  0.00     0.063 A 
ATOM     93  C   UNL A   1      32.880  22.733  27.551  1.00  0.00     0.002 A 
ATOM     94  C   UNL A   1      33.284  21.330  25.649  1.00  0.00     0.016 A 
ATOM     95  C   UNL A   1      33.522  21.643  26.988  1.00  0.00     0.001 A 
BRANCH  92  96
ATOM     96  C   UNL A   1      32.370  21.637  23.420  1.00  0.00     0.253 C 
ATOM     97  O   UNL A   1      32.452  22.509  22.550  1.00  0.00    -0.269 OA
ATOM     98  N   UNL A   1      32.236  20.358  22.978  1.00  0.00    -0.345 N 
ATOM     99  H   UNL A   1      32.457  20.246  22.026  1.00  0.00     0.164 HD
BRANCH  98 100
ATOM    100  C   UNL A   1      31.832  19.130  23.626  1.00  0.00     0.191 C 
BRANCH 100 101
ATOM    101  C   UNL A   1      33.008  18.224  23.664  1.00  0.00     0.122 A 
ATOM    102  C   UNL A   1      34.032  18.050  24.575  1.00  0.00     0.047 A 
ATOM    103  O   UNL A   1      33.171  17.378  22.609  1.00  0.00    -0.467 OA
ATOM    104  C   UNL A   1      34.875  17.050  24.036  1.00  0.00     0.042 A 
ATOM    105  C   UNL A   1      34.305  16.671  22.845  1.00  0.00     0.195 A 
ENDBRANCH 100 101
ENDBRANCH  98 100
ENDBRANCH  92  96
ENDBRANCH  88  90
ENDBRANCH  82  86
ENDBRANCH  77  80
ENDBRANCH  75  76
ENDBRANCH   1  75
TORSDOF 18
ENDMDL
MODEL 3
REMARK VINA RESULT:     -12.7      4.862     10.193
REMARK SMILES O=C(NCCCCCCNC(=O)[C@H]1CC=CC[C@@H]1C(=O)Nc1ccccc1C(=O)NCc1ccco1)c1ccc(-c2c3nc(c(-c4c(F)c(F)c(F)c(F)c4F)c4ccc([nH]4)c(-c4c(F)c(F)c(F)c(F)c4F)c4nc(c(-c5c(F)c(F)c(F)c(F)c5F)c5ccc2[nH]5)C=C4)C=C3)cc1
REMARK SMILES IDX 8 1 7 2 6 3 5 4 4 5 3 6 1 7 2 8 37 10 38 11 99 12 39 13
REMARK SMILES IDX 98 14 40 15 41 16 42 17 92 18 43 19 97 20 91 21 93 22 44 23
REMARK SMILES IDX 96 24 90 25 89 26 45 28 77 29 57 30 76 31 58 32 61 33 75 34
REMARK SMILES IDX 94 35 59 36 60 37 74 39 95 40 62 41 46 42 47 43 55 44 48 45
REMARK SMILES IDX 49 46 53 47 56 48 50 49 51 50 54 51 52 52 78 53 79 54 87 55
REMARK SMILES IDX 80 56 81 57 85 58 88 59 82 60 83 61 86 62 84 63 63 64 64 65
REMARK SMILES IDX 72 66 65 67 66 68 70 69 73 70 67 71 68 72 71 73 69 74 9 75
REMARK SMILES IDX 10 76 11 77 12 79 13 80 14 81 18 82 15 83 17 84 16 85 19 86
REMARK SMILES IDX 20 87 21 88 22 90 23 91 27 92 24 93 26 94 25 95 28 96 29 97
REMARK SMILES IDX 30 98 31 100 32 101 33 102 36 103 34 104 35 105
REMARK H PARENT 3 9 93 27 61 38 10 78 21 89 30 99
REMARK Flexibility Score: inf
ROOT
ATOM      1  C   UNL A   1      33.478  31.242  27.551  1.00  0.00     0.021 C 
ENDROOT
BRANCH   1   2
ATOM      2  C   UNL A   1      34.609  31.956  28.297  1.00  0.00     0.002 C 
BRANCH   2   3
ATOM      3  C   UNL A   1      34.633  33.477  28.121  1.00  0.00     0.002 C 
BRANCH   3   4
ATOM      4  C   UNL A   1      33.286  34.166  28.333  1.00  0.00     0.021 C 
BRANCH   4   5
ATOM      5  C   UNL A   1      33.383  35.586  28.873  1.00  0.00     0.116 C 
BRANCH   5   6
ATOM      6  N   UNL A   1      32.567  35.791  30.058  1.00  0.00    -0.352 N 
ATOM      7  O   UNL A   1      31.932  35.465  32.203  1.00  0.00    -0.269 OA
ATOM      8  C   UNL A   1      32.776  35.326  31.333  1.00  0.00     0.251 C 
ATOM      9  H   UNL A   1      31.757  36.337  29.929  1.00  0.00     0.163 HD
BRANCH   8  10
ATOM     10  C   UNL A   1      34.039  34.620  31.621  1.00  0.00     0.039 A 
ATOM     11  C   UNL A   1      34.037  33.240  31.835  1.00  0.00     0.014 A 
ATOM     12  C   UNL A   1      35.221  35.356  31.718  1.00  0.00     0.014 A 
ATOM     13  C   UNL A   1      35.193  32.616  32.279  1.00  0.00     0.010 A 
ATOM     14  C   UNL A   1      36.402  34.711  32.084  1.00  0.00     0.010 A 
ATOM     15  C   UNL A   1      36.389  33.344  32.398  1.00  0.00    -0.014 A 
BRANCH  15  16
ATOM     16  C   UNL A   1      37.624  32.637  32.811  1.00  0.00     0.031 A 
ATOM     17  C   UNL A   1      38.271  32.919  34.137  1.00  0.00     0.074 A 
ATOM     18  C   UNL A   1      38.140  31.711  31.982  1.00  0.00     0.049 A 
ATOM     19  N   UNL A   1      39.339  32.375  34.664  1.00  0.00    -0.248 NA
ATOM     20  C   UNL A   1      37.647  33.950  34.978  1.00  0.00     0.031 C 
ATOM     21  C   UNL A   1      37.596  31.368  30.666  1.00  0.00     0.029 A 
ATOM     22  N   UNL A   1      39.215  30.875  32.127  1.00  0.00    -0.354 N 
ATOM     23  C   UNL A   1      39.533  33.017  35.880  1.00  0.00     0.074 A 
ATOM     24  C   UNL A   1      38.480  34.002  36.008  1.00  0.00     0.031 C 
ATOM     25  C   UNL A   1      38.306  30.356  30.148  1.00  0.00     0.029 A 
ATOM     26  C   UNL A   1      39.388  30.021  31.066  1.00  0.00     0.049 A 
ATOM     27  H   UNL A   1      39.807  30.887  32.913  1.00  0.00     0.167 HD
ATOM     28  C   UNL A   1      40.501  32.798  36.802  1.00  0.00     0.037 A 
ATOM     29  C   UNL A   1      40.320  29.076  30.855  1.00  0.00     0.037 A 
ATOM     30  C   UNL A   1      41.526  31.795  36.676  1.00  0.00     0.049 A 
ATOM     31  C   UNL A   1      41.375  28.851  31.898  1.00  0.00     0.074 A 
ATOM     32  C   UNL A   1      42.528  31.464  37.573  1.00  0.00     0.029 A 
ATOM     33  N   UNL A   1      41.681  30.958  35.580  1.00  0.00    -0.354 N 
ATOM     34  N   UNL A   1      41.528  29.442  33.058  1.00  0.00    -0.248 NA
ATOM     35  C   UNL A   1      42.386  27.829  31.603  1.00  0.00     0.031 C 
ATOM     36  C   UNL A   1      43.311  30.454  37.003  1.00  0.00     0.029 A 
ATOM     37  C   UNL A   1      42.771  30.123  35.771  1.00  0.00     0.049 A 
ATOM     38  H   UNL A   1      41.102  30.957  34.784  1.00  0.00     0.167 HD
ATOM     39  C   UNL A   1      42.638  28.850  33.642  1.00  0.00     0.074 A 
ATOM     40  C   UNL A   1      43.110  27.842  32.713  1.00  0.00     0.031 C 
ATOM     41  C   UNL A   1      43.218  29.119  34.838  1.00  0.00     0.037 A 
BRANCH  28  42
ATOM     42  C   UNL A   1      40.513  33.675  38.021  1.00  0.00     0.064 A 
ATOM     43  C   UNL A   1      41.337  34.807  38.113  1.00  0.00     0.173 A 
ATOM     44  C   UNL A   1      39.661  33.396  39.100  1.00  0.00     0.173 A 
ATOM     45  F   UNL A   1      42.180  35.110  37.114  1.00  0.00    -0.203 F 
ATOM     46  C   UNL A   1      41.323  35.613  39.249  1.00  0.00     0.198 A 
ATOM     47  C   UNL A   1      39.630  34.219  40.224  1.00  0.00     0.198 A 
ATOM     48  F   UNL A   1      38.849  32.328  39.063  1.00  0.00    -0.203 F 
ATOM     49  F   UNL A   1      42.150  36.665  39.331  1.00  0.00    -0.200 F 
ATOM     50  C   UNL A   1      40.466  35.323  40.300  1.00  0.00     0.200 A 
ATOM     51  F   UNL A   1      38.793  33.943  41.233  1.00  0.00    -0.200 F 
ATOM     52  F   UNL A   1      40.450  36.102  41.389  1.00  0.00    -0.200 F 
ENDBRANCH  28  42
BRANCH  29  53
ATOM     53  C   UNL A   1      40.276  28.263  29.614  1.00  0.00     0.064 A 
ATOM     54  C   UNL A   1      39.542  27.071  29.564  1.00  0.00     0.173 A 
ATOM     55  C   UNL A   1      40.939  28.672  28.449  1.00  0.00     0.173 A 
ATOM     56  F   UNL A   1      38.902  26.632  30.658  1.00  0.00    -0.203 F 
ATOM     57  C   UNL A   1      39.482  26.312  28.398  1.00  0.00     0.198 A 
ATOM     58  C   UNL A   1      40.857  27.927  27.276  1.00  0.00     0.198 A 
ATOM     59  F   UNL A   1      41.648  29.811  28.445  1.00  0.00    -0.203 F 
ATOM     60  F   UNL A   1      38.801  25.158  28.386  1.00  0.00    -0.200 F 
ATOM     61  C   UNL A   1      40.135  26.744  27.253  1.00  0.00     0.200 A 
ATOM     62  F   UNL A   1      41.474  28.357  26.166  1.00  0.00    -0.200 F 
ATOM     63  F   UNL A   1      40.068  26.019  26.128  1.00  0.00    -0.200 F 
ENDBRANCH  29  53
BRANCH  41  64
ATOM     64  C   UNL A   1      44.397  28.279  35.223  1.00  0.00     0.064 A 
ATOM     65  C   UNL A   1      45.709  28.662  34.907  1.00  0.00     0.173 A 
ATOM     66  C   UNL A   1      44.212  27.081  35.930  1.00  0.00     0.173 A 
ATOM     67  F   UNL A   1      45.934  29.790  34.216  1.00  0.00    -0.203 F 
ATOM     68  C   UNL A   1      46.791  27.862  35.260  1.00  0.00     0.198 A 
ATOM     69  C   UNL A   1      45.298  26.298  36.305  1.00  0.00     0.198 A 
ATOM     70  F   UNL A   1      42.977  26.674  36.257  1.00  0.00    -0.203 F 
ATOM     71  F   UNL A   1      48.032  28.220  34.903  1.00  0.00    -0.200 F 
ATOM     72  C   UNL A   1      46.585  26.683  35.963  1.00  0.00     0.200 A 
ATOM     73  F   UNL A   1      45.099  25.164  36.991  1.00  0.00    -0.200 F 
ATOM     74  F   UNL A   1      47.628  25.914  36.301  1.00  0.00    -0.200 F 
ENDBRANCH  41  64
ENDBRANCH  15  16
ENDBRANCH   8  10
ENDBRANCH   5   6
ENDBRANCH   4   5
ENDBRANCH   3   4
ENDBRANCH   2   3
ENDBRANCH   1   2
BRANCH   1  75
ATOM     75  C   UNL A   1      33.795  29.797  27.184  1.00  0.00     0.116 C 
BRANCH  75  76
ATOM     76  N   UNL A   1      34.019  29.670  25.756  1.00  0.00    -0.356 N 
ATOM     77  C   UNL A   1      33.445  28.821  24.858  1.00  0.00     0.224 C 
ATOM     78  H   UNL A   1      34.685  30.288  25.379  1.00  0.00     0.163 HD
ATOM     79  O   UNL A   1      33.814  28.876  23.687  1.00  0.00    -0.275 OA
BRANCH  77  80
ATOM     80  C   UNL A   1      32.323  27.910  25.339  1.00  0.00     0.095 C 
ATOM     81  C   UNL A   1      31.022  28.551  24.822  1.00  0.00     0.041 C 
ATOM     82  C   UNL A   1      32.605  26.455  24.943  1.00  0.00     0.095 C 
ATOM     83  C   UNL A   1      30.287  27.799  23.764  1.00  0.00    -0.030 C 
ATOM     84  C   UNL A   1      31.997  25.993  23.608  1.00  0.00     0.041 C 
ATOM     85  C   UNL A   1      30.726  26.665  23.213  1.00  0.00    -0.030 C 
BRANCH  82  86
ATOM     86  C   UNL A   1      32.565  25.322  25.975  1.00  0.00     0.228 C 
ATOM     87  O   UNL A   1      31.711  25.386  26.877  1.00  0.00    -0.274 OA
ATOM     88  N   UNL A   1      33.240  24.149  25.959  1.00  0.00    -0.325 N 
ATOM     89  H   UNL A   1      32.819  23.480  26.546  1.00  0.00     0.169 HD
BRANCH  88  90
ATOM     90  C   UNL A   1      34.379  23.639  25.327  1.00  0.00     0.054 A 
ATOM     91  C   UNL A   1      35.582  24.157  25.860  1.00  0.00     0.027 A 
ATOM     92  C   UNL A   1      34.447  22.742  24.252  1.00  0.00     0.063 A 
ATOM     93  C   UNL A   1      36.829  23.689  25.451  1.00  0.00     0.002 A 
ATOM     94  C   UNL A   1      35.726  22.261  23.873  1.00  0.00     0.016 A 
ATOM     95  C   UNL A   1      36.902  22.710  24.475  1.00  0.00     0.001 A 
BRANCH  92  96
ATOM     96  C   UNL A   1      33.345  22.219  23.395  1.00  0.00     0.253 C 
ATOM     97  O   UNL A   1      33.129  22.782  22.318  1.00  0.00    -0.269 OA
ATOM     98  N   UNL A   1      32.513  21.193  23.716  1.00  0.00    -0.345 N 
ATOM     99  H   UNL A   1      31.987  20.861  22.953  1.00  0.00     0.164 HD
BRANCH  98 100
ATOM    100  C   UNL A   1      32.244  20.491  24.951  1.00  0.00     0.191 C 
BRANCH 100 101
ATOM    101  C   UNL A   1      32.907  19.165  24.878  1.00  0.00     0.122 A 
ATOM    102  C   UNL A   1      34.183  18.770  24.528  1.00  0.00     0.047 A 
ATOM    103  O   UNL A   1      32.152  18.078  25.199  1.00  0.00    -0.467 OA
ATOM    104  C   UNL A   1      34.202  17.359  24.627  1.00  0.00     0.042 A 
ATOM    105  C   UNL A   1      32.946  16.988  25.043  1.00  0.00     0.195 A 
ENDBRANCH 100 101
ENDBRANCH  98 100
ENDBRANCH  92  96
ENDBRANCH  88  90
ENDBRANCH  82  86
ENDBRANCH  77  80
ENDBRANCH  75  76
ENDBRANCH   1  75
TORSDOF 18
ENDMDL
