MODEL 1
REMARK VINA RESULT:      -9.1      0.000      0.000
REMARK SMILES COc1ccc(NS(=O)(=O)c2cc(C(=O)NCCCCCCNC(=O)c3ccc(-c4c5nc(c(-c6c(F)c(F)c(F)c(F)c6F)c6ccc([nH]6)c(-c6c(F)c(F)c(F)c(F)c6F)c6nc(c(-c7c(F)c(F)c(F)c(F)c7F)c7ccc4[nH]7)C=C6)C=C5)cc3)cc(C)c2C)c(OC)c1
REMARK SMILES IDX 18 1 17 2 16 3 14 4 15 5 13 7 11 8 12 9 92 10 90 11 93 12
REMARK SMILES IDX 89 13 91 14 8 15 9 16 10 17 7 18 6 20 3 21 4 22 97 23 5 24
REMARK SMILES IDX 94 25 2 26 1 27 95 28 96 29 19 30 20 31 21 32 22 33 23 34
REMARK SMILES IDX 24 35 25 37 26 38 27 39 88 40 28 41 87 42 29 43 30 44 31 45
REMARK SMILES IDX 81 46 32 47 86 48 80 49 82 50 33 51 85 52 79 53 78 54 34 56
REMARK SMILES IDX 66 57 46 58 65 59 47 60 50 61 64 62 83 63 48 64 49 65 63 67
REMARK SMILES IDX 84 68 51 69 35 70 36 71 44 72 37 73 38 74 42 75 45 76 39 77
REMARK SMILES IDX 40 78 43 79 41 80 67 81 68 82 76 83 69 84 70 85 74 86 77 87
REMARK SMILES IDX 71 88 72 89 75 90 73 91 52 92 53 93 61 94 54 95 55 96 59 97
REMARK SMILES IDX 62 98 56 99 57 100 60 101 58 102
REMARK H PARENT 16 6 7 19 23 36 82 55 50 66
REMARK Flexibility Score: inf
ROOT
ATOM      1  C   UNL A   1      37.911  31.699  32.003  1.00  0.00     0.021 C 
ENDROOT
BRANCH   1   2
ATOM      2  C   UNL A   1      37.338  30.887  33.161  1.00  0.00     0.116 C 
BRANCH   2   3
ATOM      3  N   UNL A   1      37.338  29.441  32.995  1.00  0.00    -0.352 N 
ATOM      4  C   UNL A   1      38.359  28.512  33.099  1.00  0.00     0.251 C 
ATOM      5  O   UNL A   1      38.085  27.318  33.015  1.00  0.00    -0.269 OA
ATOM      6  H   UNL A   1      36.460  29.058  32.770  1.00  0.00     0.163 HD
BRANCH   4   7
ATOM      7  C   UNL A   1      39.789  28.927  33.193  1.00  0.00     0.041 A 
ATOM      8  C   UNL A   1      41.524  29.869  34.621  1.00  0.00     0.091 A 
ATOM      9  C   UNL A   1      40.177  29.773  34.241  1.00  0.00     0.036 A 
ATOM     10  C   UNL A   1      42.523  29.284  33.787  1.00  0.00    -0.028 A 
ATOM     11  C   UNL A   1      42.121  28.510  32.668  1.00  0.00    -0.046 A 
ATOM     12  C   UNL A   1      44.003  29.480  34.014  1.00  0.00     0.046 C 
ATOM     13  C   UNL A   1      40.760  28.397  32.356  1.00  0.00     0.017 A 
ATOM     14  C   UNL A   1      43.052  27.652  31.843  1.00  0.00     0.044 C 
BRANCH   8  15
ATOM     15  S   UNL A   1      41.953  30.760  36.133  1.00  0.00     0.262 S 
ATOM     16  O   UNL A   1      42.988  31.703  35.751  1.00  0.00    -0.201 OA
ATOM     17  O   UNL A   1      42.223  29.775  37.160  1.00  0.00    -0.201 OA
BRANCH  15  18
ATOM     18  N   UNL A   1      40.709  31.676  36.842  1.00  0.00    -0.276 N 
ATOM     19  H   UNL A   1      40.647  31.653  37.825  1.00  0.00     0.180 HD
BRANCH  18  20
ATOM     20  C   UNL A   1      39.741  32.477  36.156  1.00  0.00     0.091 A 
ATOM     21  C   UNL A   1      37.829  34.051  34.848  1.00  0.00     0.122 A 
ATOM     22  C   UNL A   1      39.152  34.030  34.408  1.00  0.00     0.049 A 
ATOM     23  C   UNL A   1      37.426  33.164  35.845  1.00  0.00     0.095 A 
ATOM     24  C   UNL A   1      40.092  33.207  35.029  1.00  0.00     0.034 A 
ATOM     25  C   UNL A   1      38.374  32.344  36.471  1.00  0.00     0.146 A 
BRANCH  21  26
ATOM     26  O   UNL A   1      37.005  34.921  34.193  1.00  0.00    -0.497 OA
ATOM     27  C   UNL A   1      35.625  34.567  34.192  1.00  0.00     0.278 C 
ENDBRANCH  21  26
BRANCH  25  28
ATOM     28  O   UNL A   1      38.026  31.386  37.399  1.00  0.00    -0.494 OA
ATOM     29  C   UNL A   1      37.359  31.911  38.554  1.00  0.00     0.278 C 
ENDBRANCH  25  28
ENDBRANCH  18  20
ENDBRANCH  15  18
ENDBRANCH   8  15
ENDBRANCH   4   7
ENDBRANCH   2   3
ENDBRANCH   1   2
BRANCH   1  30
ATOM     30  C   UNL A   1      36.940  32.535  31.173  1.00  0.00     0.002 C 
BRANCH  30  31
ATOM     31  C   UNL A   1      35.448  32.257  31.363  1.00  0.00     0.002 C 
BRANCH  31  32
ATOM     32  C   UNL A   1      34.494  32.940  30.383  1.00  0.00     0.021 C 
BRANCH  32  33
ATOM     33  C   UNL A   1      34.751  32.668  28.907  1.00  0.00     0.116 C 
BRANCH  33  34
ATOM     34  N   UNL A   1      34.005  31.530  28.402  1.00  0.00    -0.352 N 
ATOM     35  C   UNL A   1      34.464  30.302  27.986  1.00  0.00     0.251 C 
ATOM     36  H   UNL A   1      33.030  31.655  28.348  1.00  0.00     0.163 HD
ATOM     37  O   UNL A   1      33.703  29.511  27.440  1.00  0.00    -0.269 OA
BRANCH  35  38
ATOM     38  C   UNL A   1      35.888  29.943  28.173  1.00  0.00     0.039 A 
ATOM     39  C   UNL A   1      36.790  30.203  27.138  1.00  0.00     0.014 A 
ATOM     40  C   UNL A   1      36.332  29.347  29.356  1.00  0.00     0.014 A 
ATOM     41  C   UNL A   1      38.147  29.919  27.314  1.00  0.00     0.010 A 
ATOM     42  C   UNL A   1      37.694  29.143  29.562  1.00  0.00     0.010 A 
ATOM     43  C   UNL A   1      38.615  29.417  28.540  1.00  0.00    -0.014 A 
BRANCH  43  44
ATOM     44  C   UNL A   1      40.061  29.157  28.763  1.00  0.00     0.031 A 
ATOM     45  C   UNL A   1      40.929  30.213  29.390  1.00  0.00     0.074 A 
ATOM     46  C   UNL A   1      40.604  27.993  28.354  1.00  0.00     0.049 A 
ATOM     47  N   UNL A   1      42.219  30.203  29.613  1.00  0.00    -0.248 NA
ATOM     48  C   UNL A   1      40.263  31.461  29.795  1.00  0.00     0.031 C 
ATOM     49  C   UNL A   1      39.877  26.907  27.696  1.00  0.00     0.029 A 
ATOM     50  N   UNL A   1      41.896  27.534  28.424  1.00  0.00    -0.354 N 
ATOM     51  C   UNL A   1      42.517  31.439  30.170  1.00  0.00     0.074 A 
ATOM     52  C   UNL A   1      41.287  32.199  30.193  1.00  0.00     0.031 C 
ATOM     53  C   UNL A   1      40.727  25.898  27.447  1.00  0.00     0.029 A 
ATOM     54  C   UNL A   1      42.065  26.281  27.886  1.00  0.00     0.049 A 
ATOM     55  H   UNL A   1      42.632  28.053  28.822  1.00  0.00     0.167 HD
ATOM     56  C   UNL A   1      43.704  31.891  30.643  1.00  0.00     0.037 A 
ATOM     57  C   UNL A   1      43.176  25.531  27.753  1.00  0.00     0.037 A 
ATOM     58  C   UNL A   1      44.921  31.124  30.634  1.00  0.00     0.049 A 
ATOM     59  C   UNL A   1      44.487  26.064  28.269  1.00  0.00     0.074 A 
ATOM     60  C   UNL A   1      46.163  31.470  31.136  1.00  0.00     0.029 A 
ATOM     61  N   UNL A   1      45.051  29.854  30.089  1.00  0.00    -0.354 N 
ATOM     62  N   UNL A   1      44.743  27.209  28.855  1.00  0.00    -0.248 NA
ATOM     63  C   UNL A   1      45.662  25.197  28.111  1.00  0.00     0.031 C 
ATOM     64  C   UNL A   1      47.059  30.436  30.842  1.00  0.00     0.029 A 
ATOM     65  C   UNL A   1      46.360  29.415  30.218  1.00  0.00     0.049 A 
ATOM     66  H   UNL A   1      44.322  29.342  29.671  1.00  0.00     0.167 HD
ATOM     67  C   UNL A   1      46.097  27.184  29.167  1.00  0.00     0.074 A 
ATOM     68  C   UNL A   1      46.604  25.905  28.717  1.00  0.00     0.031 C 
ATOM     69  C   UNL A   1      46.849  28.135  29.775  1.00  0.00     0.037 A 
BRANCH  56  70
ATOM     70  C   UNL A   1      43.743  33.284  31.208  1.00  0.00     0.064 A 
ATOM     71  C   UNL A   1      44.199  34.375  30.453  1.00  0.00     0.173 A 
ATOM     72  C   UNL A   1      43.287  33.536  32.511  1.00  0.00     0.173 A 
ATOM     73  F   UNL A   1      44.656  34.190  29.204  1.00  0.00    -0.203 F 
ATOM     74  C   UNL A   1      44.232  35.659  30.993  1.00  0.00     0.198 A 
ATOM     75  C   UNL A   1      43.287  34.826  33.035  1.00  0.00     0.198 A 
ATOM     76  F   UNL A   1      42.834  32.532  33.276  1.00  0.00    -0.203 F 
ATOM     77  F   UNL A   1      44.727  36.674  30.272  1.00  0.00    -0.200 F 
ATOM     78  C   UNL A   1      43.769  35.885  32.279  1.00  0.00     0.200 A 
ATOM     79  F   UNL A   1      42.824  35.045  34.273  1.00  0.00    -0.200 F 
ATOM     80  F   UNL A   1      43.794  37.121  32.795  1.00  0.00    -0.200 F 
ENDBRANCH  56  70
BRANCH  57  81
ATOM     81  C   UNL A   1      43.095  24.185  27.126  1.00  0.00     0.064 A 
ATOM     82  C   UNL A   1      42.724  23.061  27.874  1.00  0.00     0.173 A 
ATOM     83  C   UNL A   1      43.399  23.992  25.770  1.00  0.00     0.173 A 
ATOM     84  F   UNL A   1      42.442  23.189  29.180  1.00  0.00    -0.203 F 
ATOM     85  C   UNL A   1      42.681  21.792  27.299  1.00  0.00     0.198 A 
ATOM     86  C   UNL A   1      43.325  22.729  25.187  1.00  0.00     0.198 A 
ATOM     87  F   UNL A   1      43.756  25.035  25.005  1.00  0.00    -0.203 F 
ATOM     88  F   UNL A   1      42.374  20.727  28.052  1.00  0.00    -0.200 F 
ATOM     89  C   UNL A   1      42.977  21.627  25.955  1.00  0.00     0.200 A 
ATOM     90  F   UNL A   1      43.595  22.578  23.883  1.00  0.00    -0.200 F 
ATOM     91  F   UNL A   1      42.934  20.408  25.400  1.00  0.00    -0.200 F 
ENDBRANCH  57  81
BRANCH  69  92
ATOM     92  C   UNL A   1      48.293  27.810  30.036  1.00  0.00     0.064 A 
ATOM     93  C   UNL A   1      48.707  27.157  31.206  1.00  0.00     0.173 A 
ATOM     94  C   UNL A   1      49.272  28.123  29.079  1.00  0.00     0.173 A 
ATOM     95  F   UNL A   1      47.814  26.847  32.158  1.00  0.00    -0.203 F 
ATOM     96  C   UNL A   1      50.050  26.855  31.421  1.00  0.00     0.198 A 
ATOM     97  C   UNL A   1      50.607  27.789  29.282  1.00  0.00     0.198 A 
ATOM     98  F   UNL A   1      48.930  28.741  27.939  1.00  0.00    -0.203 F 
ATOM     99  F   UNL A   1      50.429  26.280  32.571  1.00  0.00    -0.200 F 
ATOM    100  C   UNL A   1      50.997  27.164  30.456  1.00  0.00     0.200 A 
ATOM    101  F   UNL A   1      51.517  28.072  28.340  1.00  0.00    -0.200 F 
ATOM    102  F   UNL A   1      52.287  26.865  30.661  1.00  0.00    -0.200 F 
ENDBRANCH  69  92
ENDBRANCH  43  44
ENDBRANCH  35  38
ENDBRANCH  33  34
ENDBRANCH  32  33
ENDBRANCH  31  32
ENDBRANCH  30  31
ENDBRANCH   1  30
TORSDOF 18
ENDMDL
MODEL 2
REMARK VINA RESULT:      -8.9      4.575     10.882
REMARK SMILES COc1ccc(NS(=O)(=O)c2cc(C(=O)NCCCCCCNC(=O)c3ccc(-c4c5nc(c(-c6c(F)c(F)c(F)c(F)c6F)c6ccc([nH]6)c(-c6c(F)c(F)c(F)c(F)c6F)c6nc(c(-c7c(F)c(F)c(F)c(F)c7F)c7ccc4[nH]7)C=C6)C=C5)cc3)cc(C)c2C)c(OC)c1
REMARK SMILES IDX 18 1 17 2 16 3 14 4 15 5 13 7 11 8 12 9 92 10 90 11 93 12
REMARK SMILES IDX 89 13 91 14 8 15 9 16 10 17 7 18 6 20 3 21 4 22 97 23 5 24
REMARK SMILES IDX 94 25 2 26 1 27 95 28 96 29 19 30 20 31 21 32 22 33 23 34
REMARK SMILES IDX 24 35 25 37 26 38 27 39 88 40 28 41 87 42 29 43 30 44 31 45
REMARK SMILES IDX 81 46 32 47 86 48 80 49 82 50 33 51 85 52 79 53 78 54 34 56
REMARK SMILES IDX 66 57 46 58 65 59 47 60 50 61 64 62 83 63 48 64 49 65 63 67
REMARK SMILES IDX 84 68 51 69 35 70 36 71 44 72 37 73 38 74 42 75 45 76 39 77
REMARK SMILES IDX 40 78 43 79 41 80 67 81 68 82 76 83 69 84 70 85 74 86 77 87
REMARK SMILES IDX 71 88 72 89 75 90 73 91 52 92 53 93 61 94 54 95 55 96 59 97
REMARK SMILES IDX 62 98 56 99 57 100 60 101 58 102
REMARK H PARENT 16 6 7 19 23 36 82 55 50 66
REMARK Flexibility Score: inf
ROOT
ATOM      1  C   UNL A   1      46.649  26.848  30.971  1.00  0.00     0.021 C 
ENDROOT
BRANCH   1   2
ATOM      2  C   UNL A   1      46.114  25.560  30.353  1.00  0.00     0.116 C 
BRANCH   2   3
ATOM      3  N   UNL A   1      45.262  24.744  31.204  1.00  0.00    -0.352 N 
ATOM      4  C   UNL A   1      44.300  23.798  30.892  1.00  0.00     0.251 C 
ATOM      5  O   UNL A   1      43.781  23.157  31.803  1.00  0.00    -0.269 OA
ATOM      6  H   UNL A   1      45.394  24.888  32.170  1.00  0.00     0.163 HD
BRANCH   4   7
ATOM      7  C   UNL A   1      43.798  23.621  29.499  1.00  0.00     0.041 A 
ATOM      8  C   UNL A   1      44.401  23.492  27.142  1.00  0.00     0.091 A 
ATOM      9  C   UNL A   1      44.629  23.992  28.432  1.00  0.00     0.036 A 
ATOM     10  C   UNL A   1      43.185  22.794  26.873  1.00  0.00    -0.028 A 
ATOM     11  C   UNL A   1      42.302  22.510  27.946  1.00  0.00    -0.046 A 
ATOM     12  C   UNL A   1      42.769  22.371  25.485  1.00  0.00     0.046 C 
ATOM     13  C   UNL A   1      42.596  22.984  29.231  1.00  0.00     0.017 A 
ATOM     14  C   UNL A   1      41.107  21.590  27.848  1.00  0.00     0.044 C 
BRANCH   8  15
ATOM     15  S   UNL A   1      45.635  23.779  25.854  1.00  0.00     0.262 S 
ATOM     16  O   UNL A   1      44.894  24.269  24.705  1.00  0.00    -0.201 OA
ATOM     17  O   UNL A   1      46.430  22.575  25.734  1.00  0.00    -0.201 OA
BRANCH  15  18
ATOM     18  N   UNL A   1      46.818  24.951  26.196  1.00  0.00    -0.276 N 
ATOM     19  H   UNL A   1      47.673  24.623  26.559  1.00  0.00     0.180 HD
BRANCH  18  20
ATOM     20  C   UNL A   1      46.698  26.365  26.012  1.00  0.00     0.091 A 
ATOM     21  C   UNL A   1      46.448  29.126  25.615  1.00  0.00     0.122 A 
ATOM     22  C   UNL A   1      46.286  28.574  26.885  1.00  0.00     0.049 A 
ATOM     23  C   UNL A   1      46.891  28.318  24.570  1.00  0.00     0.095 A 
ATOM     24  C   UNL A   1      46.460  27.206  27.091  1.00  0.00     0.034 A 
ATOM     25  C   UNL A   1      47.058  26.942  24.777  1.00  0.00     0.146 A 
BRANCH  21  26
ATOM     26  O   UNL A   1      46.215  30.469  25.524  1.00  0.00    -0.497 OA
ATOM     27  C   UNL A   1      45.594  31.057  26.663  1.00  0.00     0.278 C 
ENDBRANCH  21  26
BRANCH  25  28
ATOM     28  O   UNL A   1      47.576  26.106  23.813  1.00  0.00    -0.494 OA
ATOM     29  C   UNL A   1      48.881  26.485  23.355  1.00  0.00     0.278 C 
ENDBRANCH  25  28
ENDBRANCH  18  20
ENDBRANCH  15  18
ENDBRANCH   8  15
ENDBRANCH   4   7
ENDBRANCH   2   3
ENDBRANCH   1   2
BRANCH   1  30
ATOM     30  C   UNL A   1      47.404  26.741  32.293  1.00  0.00     0.002 C 
BRANCH  30  31
ATOM     31  C   UNL A   1      48.272  25.499  32.498  1.00  0.00     0.002 C 
BRANCH  31  32
ATOM     32  C   UNL A   1      48.770  25.239  33.920  1.00  0.00     0.021 C 
BRANCH  32  33
ATOM     33  C   UNL A   1      48.766  26.441  34.855  1.00  0.00     0.116 C 
BRANCH  33  34
ATOM     34  N   UNL A   1      48.267  26.125  36.182  1.00  0.00    -0.352 N 
ATOM     35  C   UNL A   1      47.042  26.404  36.741  1.00  0.00     0.251 C 
ATOM     36  H   UNL A   1      48.896  25.643  36.766  1.00  0.00     0.163 HD
ATOM     37  O   UNL A   1      46.846  26.199  37.934  1.00  0.00    -0.269 OA
BRANCH  35  38
ATOM     38  C   UNL A   1      45.962  26.978  35.907  1.00  0.00     0.039 A 
ATOM     39  C   UNL A   1      44.816  26.215  35.670  1.00  0.00     0.014 A 
ATOM     40  C   UNL A   1      46.078  28.257  35.356  1.00  0.00     0.014 A 
ATOM     41  C   UNL A   1      43.763  26.757  34.929  1.00  0.00     0.010 A 
ATOM     42  C   UNL A   1      44.996  28.827  34.690  1.00  0.00     0.010 A 
ATOM     43  C   UNL A   1      43.830  28.080  34.460  1.00  0.00    -0.014 A 
BRANCH  43  44
ATOM     44  C   UNL A   1      42.700  28.692  33.714  1.00  0.00     0.031 A 
ATOM     45  C   UNL A   1      41.756  29.630  34.414  1.00  0.00     0.074 A 
ATOM     46  C   UNL A   1      42.491  28.362  32.425  1.00  0.00     0.049 A 
ATOM     47  N   UNL A   1      40.678  30.217  33.957  1.00  0.00    -0.248 NA
ATOM     48  C   UNL A   1      42.044  29.927  35.826  1.00  0.00     0.031 C 
ATOM     49  C   UNL A   1      43.311  27.432  31.647  1.00  0.00     0.029 A 
ATOM     50  N   UNL A   1      41.519  28.765  31.542  1.00  0.00    -0.354 N 
ATOM     51  C   UNL A   1      40.158  30.938  35.023  1.00  0.00     0.074 A 
ATOM     52  C   UNL A   1      41.000  30.667  36.167  1.00  0.00     0.031 C 
ATOM     53  C   UNL A   1      42.824  27.356  30.398  1.00  0.00     0.029 A 
ATOM     54  C   UNL A   1      41.635  28.196  30.297  1.00  0.00     0.049 A 
ATOM     55  H   UNL A   1      40.807  29.402  31.780  1.00  0.00     0.167 HD
ATOM     56  C   UNL A   1      39.090  31.772  35.041  1.00  0.00     0.037 A 
ATOM     57  C   UNL A   1      40.862  28.330  29.202  1.00  0.00     0.037 A 
ATOM     58  C   UNL A   1      38.266  32.053  33.895  1.00  0.00     0.049 A 
ATOM     59  C   UNL A   1      39.669  29.247  29.253  1.00  0.00     0.074 A 
ATOM     60  C   UNL A   1      37.194  32.921  33.795  1.00  0.00     0.029 A 
ATOM     61  N   UNL A   1      38.420  31.464  32.648  1.00  0.00    -0.354 N 
ATOM     62  N   UNL A   1      39.226  29.977  30.249  1.00  0.00    -0.248 NA
ATOM     63  C   UNL A   1      38.872  29.365  28.025  1.00  0.00     0.031 C 
ATOM     64  C   UNL A   1      36.662  32.815  32.506  1.00  0.00     0.029 A 
ATOM     65  C   UNL A   1      37.444  31.931  31.780  1.00  0.00     0.049 A 
ATOM     66  H   UNL A   1      39.118  30.811  32.413  1.00  0.00     0.167 HD
ATOM     67  C   UNL A   1      38.125  30.666  29.758  1.00  0.00     0.074 A 
ATOM     68  C   UNL A   1      37.975  30.277  28.372  1.00  0.00     0.031 C 
ATOM     69  C   UNL A   1      37.313  31.543  30.399  1.00  0.00     0.037 A 
BRANCH  56  70
ATOM     70  C   UNL A   1      38.750  32.439  36.344  1.00  0.00     0.064 A 
ATOM     71  C   UNL A   1      39.132  33.762  36.619  1.00  0.00     0.173 A 
ATOM     72  C   UNL A   1      38.004  31.759  37.319  1.00  0.00     0.173 A 
ATOM     73  F   UNL A   1      39.856  34.455  35.727  1.00  0.00    -0.203 F 
ATOM     74  C   UNL A   1      38.812  34.364  37.834  1.00  0.00     0.198 A 
ATOM     75  C   UNL A   1      37.654  32.377  38.516  1.00  0.00     0.198 A 
ATOM     76  F   UNL A   1      37.607  30.496  37.107  1.00  0.00    -0.203 F 
ATOM     77  F   UNL A   1      39.239  35.607  38.095  1.00  0.00    -0.200 F 
ATOM     78  C   UNL A   1      38.067  33.675  38.778  1.00  0.00     0.200 A 
ATOM     79  F   UNL A   1      36.920  31.714  39.421  1.00  0.00    -0.200 F 
ATOM     80  F   UNL A   1      37.753  34.258  39.942  1.00  0.00    -0.200 F 
ENDBRANCH  56  70
BRANCH  57  81
ATOM     81  C   UNL A   1      41.205  27.595  27.955  1.00  0.00     0.064 A 
ATOM     82  C   UNL A   1      40.579  26.382  27.638  1.00  0.00     0.173 A 
ATOM     83  C   UNL A   1      42.172  28.081  27.063  1.00  0.00     0.173 A 
ATOM     84  F   UNL A   1      39.661  25.864  28.468  1.00  0.00    -0.203 F 
ATOM     85  C   UNL A   1      40.923  25.671  26.489  1.00  0.00     0.198 A 
ATOM     86  C   UNL A   1      42.492  27.387  25.898  1.00  0.00     0.198 A 
ATOM     87  F   UNL A   1      42.798  29.240  27.315  1.00  0.00    -0.203 F 
ATOM     88  F   UNL A   1      40.346  24.488  26.238  1.00  0.00    -0.200 F 
ATOM     89  C   UNL A   1      41.875  26.176  25.617  1.00  0.00     0.200 A 
ATOM     90  F   UNL A   1      43.400  27.888  25.050  1.00  0.00    -0.200 F 
ATOM     91  F   UNL A   1      42.204  25.495  24.512  1.00  0.00    -0.200 F 
ENDBRANCH  57  81
BRANCH  69  92
ATOM     92  C   UNL A   1      36.217  32.184  29.595  1.00  0.00     0.064 A 
ATOM     93  C   UNL A   1      36.231  33.551  29.280  1.00  0.00     0.173 A 
ATOM     94  C   UNL A   1      35.159  31.408  29.097  1.00  0.00     0.173 A 
ATOM     95  F   UNL A   1      37.212  34.341  29.742  1.00  0.00    -0.203 F 
ATOM     96  C   UNL A   1      35.210  34.122  28.523  1.00  0.00     0.198 A 
ATOM     97  C   UNL A   1      34.160  31.975  28.311  1.00  0.00     0.198 A 
ATOM     98  F   UNL A   1      35.101  30.094  29.361  1.00  0.00    -0.203 F 
ATOM     99  F   UNL A   1      35.216  35.440  28.281  1.00  0.00    -0.200 F 
ATOM    100  C   UNL A   1      34.181  33.332  28.033  1.00  0.00     0.200 A 
ATOM    101  F   UNL A   1      33.177  31.206  27.823  1.00  0.00    -0.200 F 
ATOM    102  F   UNL A   1      33.205  33.882  27.297  1.00  0.00    -0.200 F 
ENDBRANCH  69  92
ENDBRANCH  43  44
ENDBRANCH  35  38
ENDBRANCH  33  34
ENDBRANCH  32  33
ENDBRANCH  31  32
ENDBRANCH  30  31
ENDBRANCH   1  30
TORSDOF 18
ENDMDL
MODEL 3
REMARK VINA RESULT:      -8.6      0.619      7.192
REMARK SMILES COc1ccc(NS(=O)(=O)c2cc(C(=O)NCCCCCCNC(=O)c3ccc(-c4c5nc(c(-c6c(F)c(F)c(F)c(F)c6F)c6ccc([nH]6)c(-c6c(F)c(F)c(F)c(F)c6F)c6nc(c(-c7c(F)c(F)c(F)c(F)c7F)c7ccc4[nH]7)C=C6)C=C5)cc3)cc(C)c2C)c(OC)c1
REMARK SMILES IDX 18 1 17 2 16 3 14 4 15 5 13 7 11 8 12 9 92 10 90 11 93 12
REMARK SMILES IDX 89 13 91 14 8 15 9 16 10 17 7 18 6 20 3 21 4 22 97 23 5 24
REMARK SMILES IDX 94 25 2 26 1 27 95 28 96 29 19 30 20 31 21 32 22 33 23 34
REMARK SMILES IDX 24 35 25 37 26 38 27 39 88 40 28 41 87 42 29 43 30 44 31 45
REMARK SMILES IDX 81 46 32 47 86 48 80 49 82 50 33 51 85 52 79 53 78 54 34 56
REMARK SMILES IDX 66 57 46 58 65 59 47 60 50 61 64 62 83 63 48 64 49 65 63 67
REMARK SMILES IDX 84 68 51 69 35 70 36 71 44 72 37 73 38 74 42 75 45 76 39 77
REMARK SMILES IDX 40 78 43 79 41 80 67 81 68 82 76 83 69 84 70 85 74 86 77 87
REMARK SMILES IDX 71 88 72 89 75 90 73 91 52 92 53 93 61 94 54 95 55 96 59 97
REMARK SMILES IDX 62 98 56 99 57 100 60 101 58 102
REMARK H PARENT 16 6 7 19 23 36 82 55 50 66
REMARK Flexibility Score: inf
ROOT
ATOM      1  C   UNL A   1      37.704  32.072  31.720  1.00  0.00     0.021 C 
ENDROOT
BRANCH   1   2
ATOM      2  C   UNL A   1      37.039  31.366  32.897  1.00  0.00     0.116 C 
BRANCH   2   3
ATOM      3  N   UNL A   1      36.985  29.913  32.828  1.00  0.00    -0.352 N 
ATOM      4  C   UNL A   1      37.963  28.954  33.029  1.00  0.00     0.251 C 
ATOM      5  O   UNL A   1      37.642  27.768  33.016  1.00  0.00    -0.269 OA
ATOM      6  H   UNL A   1      36.098  29.550  32.601  1.00  0.00     0.163 HD
BRANCH   4   7
ATOM      7  C   UNL A   1      39.405  29.318  33.142  1.00  0.00     0.041 A 
ATOM      8  C   UNL A   1      41.147  30.224  34.585  1.00  0.00     0.091 A 
ATOM      9  C   UNL A   1      39.805  30.170  34.182  1.00  0.00     0.036 A 
ATOM     10  C   UNL A   1      42.139  29.586  33.782  1.00  0.00    -0.028 A 
ATOM     11  C   UNL A   1      41.729  28.805  32.671  1.00  0.00    -0.046 A 
ATOM     12  C   UNL A   1      43.620  29.732  34.034  1.00  0.00     0.046 C 
ATOM     13  C   UNL A   1      40.371  28.736  32.335  1.00  0.00     0.017 A 
ATOM     14  C   UNL A   1      42.643  27.898  31.881  1.00  0.00     0.044 C 
BRANCH   8  15
ATOM     15  S   UNL A   1      41.580  31.129  36.088  1.00  0.00     0.262 S 
ATOM     16  O   UNL A   1      42.616  32.067  35.694  1.00  0.00    -0.201 OA
ATOM     17  O   UNL A   1      41.851  30.153  37.123  1.00  0.00    -0.201 OA
BRANCH  15  18
ATOM     18  N   UNL A   1      40.339  32.053  36.791  1.00  0.00    -0.276 N 
ATOM     19  H   UNL A   1      40.304  32.072  37.775  1.00  0.00     0.180 HD
BRANCH  18  20
ATOM     20  C   UNL A   1      39.339  32.807  36.098  1.00  0.00     0.091 A 
ATOM     21  C   UNL A   1      37.360  34.285  34.776  1.00  0.00     0.122 A 
ATOM     22  C   UNL A   1      38.697  34.387  34.393  1.00  0.00     0.049 A 
ATOM     23  C   UNL A   1      36.990  33.325  35.716  1.00  0.00     0.095 A 
ATOM     24  C   UNL A   1      39.675  33.613  35.018  1.00  0.00     0.034 A 
ATOM     25  C   UNL A   1      37.975  32.554  36.348  1.00  0.00     0.146 A 
BRANCH  21  26
ATOM     26  O   UNL A   1      36.496  35.117  34.123  1.00  0.00    -0.497 OA
ATOM     27  C   UNL A   1      35.129  34.719  34.153  1.00  0.00     0.278 C 
ENDBRANCH  21  26
BRANCH  25  28
ATOM     28  O   UNL A   1      37.668  31.531  37.218  1.00  0.00    -0.494 OA
ATOM     29  C   UNL A   1      37.272  31.977  38.523  1.00  0.00     0.278 C 
ENDBRANCH  25  28
ENDBRANCH  18  20
ENDBRANCH  15  18
ENDBRANCH   8  15
ENDBRANCH   4   7
ENDBRANCH   2   3
ENDBRANCH   1   2
BRANCH   1  30
ATOM     30  C   UNL A   1      36.809  32.550  30.580  1.00  0.00     0.002 C 
BRANCH  30  31
ATOM     31  C   UNL A   1      35.298  32.460  30.801  1.00  0.00     0.002 C 
BRANCH  31  32
ATOM     32  C   UNL A   1      34.409  33.021  29.690  1.00  0.00     0.021 C 
BRANCH  32  33
ATOM     33  C   UNL A   1      34.615  32.417  28.307  1.00  0.00     0.116 C 
BRANCH  33  34
ATOM     34  N   UNL A   1      33.941  31.142  28.139  1.00  0.00    -0.352 N 
ATOM     35  C   UNL A   1      34.478  29.886  27.989  1.00  0.00     0.251 C 
ATOM     36  H   UNL A   1      32.958  31.183  28.130  1.00  0.00     0.163 HD
ATOM     37  O   UNL A   1      33.758  28.936  27.702  1.00  0.00    -0.269 OA
BRANCH  35  38
ATOM     38  C   UNL A   1      35.935  29.680  28.149  1.00  0.00     0.039 A 
ATOM     39  C   UNL A   1      36.782  29.994  27.083  1.00  0.00     0.014 A 
ATOM     40  C   UNL A   1      36.466  29.176  29.340  1.00  0.00     0.014 A 
ATOM     41  C   UNL A   1      38.164  29.857  27.232  1.00  0.00     0.010 A 
ATOM     42  C   UNL A   1      37.846  29.120  29.515  1.00  0.00     0.010 A 
ATOM     43  C   UNL A   1      38.711  29.449  28.460  1.00  0.00    -0.014 A 
BRANCH  43  44
ATOM     44  C   UNL A   1      40.181  29.347  28.653  1.00  0.00     0.031 A 
ATOM     45  C   UNL A   1      40.908  28.096  28.244  1.00  0.00     0.074 A 
ATOM     46  C   UNL A   1      40.851  30.354  29.245  1.00  0.00     0.049 A 
ATOM     47  N   UNL A   1      42.174  27.788  28.385  1.00  0.00    -0.248 NA
ATOM     48  C   UNL A   1      40.102  27.036  27.618  1.00  0.00     0.031 C 
ATOM     49  C   UNL A   1      40.252  31.600  29.725  1.00  0.00     0.029 A 
ATOM     50  N   UNL A   1      42.183  30.486  29.553  1.00  0.00    -0.354 N 
ATOM     51  C   UNL A   1      42.309  26.503  27.878  1.00  0.00     0.074 A 
ATOM     52  C   UNL A   1      40.989  26.062  27.485  1.00  0.00     0.031 C 
ATOM     53  C   UNL A   1      41.216  32.380  30.242  1.00  0.00     0.029 A 
ATOM     54  C   UNL A   1      42.491  31.674  30.171  1.00  0.00     0.049 A 
ATOM     55  H   UNL A   1      42.853  29.794  29.351  1.00  0.00     0.167 HD
ATOM     56  C   UNL A   1      43.436  25.765  27.730  1.00  0.00     0.037 A 
ATOM     57  C   UNL A   1      43.668  32.136  30.635  1.00  0.00     0.037 A 
ATOM     58  C   UNL A   1      44.751  26.215  28.106  1.00  0.00     0.049 A 
ATOM     59  C   UNL A   1      44.903  31.289  30.477  1.00  0.00     0.074 A 
ATOM     60  C   UNL A   1      45.962  25.567  27.950  1.00  0.00     0.029 A 
ATOM     61  N   UNL A   1      45.024  27.429  28.720  1.00  0.00    -0.354 N 
ATOM     62  N   UNL A   1      45.029  30.102  29.935  1.00  0.00    -0.248 NA
ATOM     63  C   UNL A   1      46.160  31.850  30.989  1.00  0.00     0.031 C 
ATOM     64  C   UNL A   1      46.962  26.361  28.523  1.00  0.00     0.029 A 
ATOM     65  C   UNL A   1      46.383  27.536  28.975  1.00  0.00     0.049 A 
ATOM     66  H   UNL A   1      44.353  28.113  28.944  1.00  0.00     0.167 HD
ATOM     67  C   UNL A   1      46.381  29.791  30.008  1.00  0.00     0.074 A 
ATOM     68  C   UNL A   1      47.035  30.920  30.634  1.00  0.00     0.031 C 
ATOM     69  C   UNL A   1      47.022  28.671  29.590  1.00  0.00     0.037 A 
BRANCH  56  70
ATOM     70  C   UNL A   1      43.296  24.391  27.138  1.00  0.00     0.064 A 
ATOM     71  C   UNL A   1      42.883  23.293  27.909  1.00  0.00     0.173 A 
ATOM     72  C   UNL A   1      43.545  24.175  25.774  1.00  0.00     0.173 A 
ATOM     73  F   UNL A   1      42.642  23.440  29.221  1.00  0.00    -0.203 F 
ATOM     74  C   UNL A   1      42.762  22.024  27.345  1.00  0.00     0.198 A 
ATOM     75  C   UNL A   1      43.387  22.913  25.206  1.00  0.00     0.198 A 
ATOM     76  F   UNL A   1      43.936  25.189  24.988  1.00  0.00    -0.203 F 
ATOM     77  F   UNL A   1      42.423  20.981  28.115  1.00  0.00    -0.200 F 
ATOM     78  C   UNL A   1      43.005  21.837  25.994  1.00  0.00     0.200 A 
ATOM     79  F   UNL A   1      43.607  22.738  23.896  1.00  0.00    -0.200 F 
ATOM     80  F   UNL A   1      42.880  20.619  25.451  1.00  0.00    -0.200 F 
ENDBRANCH  56  70
BRANCH  57  81
ATOM     81  C   UNL A   1      43.741  33.477  31.274  1.00  0.00     0.064 A 
ATOM     82  C   UNL A   1      43.775  34.645  30.500  1.00  0.00     0.173 A 
ATOM     83  C   UNL A   1      43.790  33.620  32.669  1.00  0.00     0.173 A 
ATOM     84  F   UNL A   1      43.750  34.561  29.161  1.00  0.00    -0.203 F 
ATOM     85  C   UNL A   1      43.879  35.902  31.093  1.00  0.00     0.198 A 
ATOM     86  C   UNL A   1      43.862  34.878  33.262  1.00  0.00     0.198 A 
ATOM     87  F   UNL A   1      43.755  32.536  33.458  1.00  0.00    -0.203 F 
ATOM     88  F   UNL A   1      43.963  36.997  30.326  1.00  0.00    -0.200 F 
ATOM     89  C   UNL A   1      43.918  36.018  32.474  1.00  0.00     0.200 A 
ATOM     90  F   UNL A   1      43.881  34.987  34.598  1.00  0.00    -0.200 F 
ATOM     91  F   UNL A   1      44.016  37.226  33.045  1.00  0.00    -0.200 F 
ENDBRANCH  57  81
BRANCH  69  92
ATOM     92  C   UNL A   1      48.516  28.629  29.750  1.00  0.00     0.064 A 
ATOM     93  C   UNL A   1      49.382  29.104  28.753  1.00  0.00     0.173 A 
ATOM     94  C   UNL A   1      49.086  28.145  30.937  1.00  0.00     0.173 A 
ATOM     95  F   UNL A   1      48.890  29.566  27.594  1.00  0.00    -0.203 F 
ATOM     96  C   UNL A   1      50.763  29.067  28.928  1.00  0.00     0.198 A 
ATOM     97  C   UNL A   1      50.466  28.142  31.122  1.00  0.00     0.198 A 
ATOM     98  F   UNL A   1      48.304  27.686  31.926  1.00  0.00    -0.203 F 
ATOM     99  F   UNL A   1      51.572  29.475  27.941  1.00  0.00    -0.200 F 
ATOM    100  C   UNL A   1      51.303  28.594  30.115  1.00  0.00     0.200 A 
ATOM    101  F   UNL A   1      50.984  27.702  32.277  1.00  0.00    -0.200 F 
ATOM    102  F   UNL A   1      52.632  28.567  30.285  1.00  0.00    -0.200 F 
ENDBRANCH  69  92
ENDBRANCH  43  44
ENDBRANCH  35  38
ENDBRANCH  33  34
ENDBRANCH  32  33
ENDBRANCH  31  32
ENDBRANCH  30  31
ENDBRANCH   1  30
TORSDOF 18
ENDMDL
