MODEL 1
REMARK VINA RESULT:     -12.6      0.000      0.000
REMARK SMILES Cc1ccc2nc(CC3(CC(=O)NCCCCCCNC(=O)c4ccc(-c5c6nc(c(-c7c(F)c(F)c(F)c(F)c7F)c7ccc([nH]7)c(-c7c(F)c(F)c(F)c(F)c7F)c7nc(c(-c8c(F)c(F)c(F)c(F)c8F)c8ccc5[nH]8)C=C7)C=C6)cc4)CCCCC3)sc2c1
REMARK SMILES IDX 16 1 15 2 14 3 13 4 11 5 12 6 10 8 9 9 86 10 90 11 87 12
REMARK SMILES IDX 89 13 88 14 8 15 7 16 1 17 2 18 3 19 93 20 4 21 92 22 5 23
REMARK SMILES IDX 91 24 6 25 17 26 18 27 19 28 20 29 21 30 22 32 23 33 24 34
REMARK SMILES IDX 85 35 25 36 84 37 26 38 27 39 28 40 78 41 29 42 83 43 77 44
REMARK SMILES IDX 79 45 30 46 82 47 76 48 75 49 31 51 63 52 43 53 62 54 44 55
REMARK SMILES IDX 47 56 61 57 80 58 45 59 46 60 60 62 81 63 48 64 32 65 33 66
REMARK SMILES IDX 41 67 34 68 35 69 39 70 42 71 36 72 37 73 40 74 38 75 64 76
REMARK SMILES IDX 65 77 73 78 66 79 67 80 71 81 74 82 68 83 69 84 72 85 70 86
REMARK SMILES IDX 49 87 50 88 58 89 51 90 52 91 56 92 59 93 53 94 54 95 57 96
REMARK SMILES IDX 55 97
REMARK H PARENT 13 7 20 31 79 50 47 61
REMARK Flexibility Score: inf
ROOT
ATOM      1  C   UNL A   1      32.718  29.923  26.656  1.00  0.00     0.002 C 
ENDROOT
BRANCH   1   2
ATOM      2  C   UNL A   1      32.374  28.591  27.323  1.00  0.00     0.021 C 
BRANCH   2   3
ATOM      3  C   UNL A   1      31.385  27.727  26.535  1.00  0.00     0.116 C 
BRANCH   3   4
ATOM      4  N   UNL A   1      31.293  26.395  27.097  1.00  0.00    -0.356 N 
ATOM      5  C   UNL A   1      31.475  25.180  26.518  1.00  0.00     0.220 C 
ATOM      6  O   UNL A   1      31.299  24.175  27.212  1.00  0.00    -0.275 OA
ATOM      7  H   UNL A   1      31.061  26.366  28.054  1.00  0.00     0.163 HD
BRANCH   5   8
ATOM      8  C   UNL A   1      31.880  25.040  25.056  1.00  0.00     0.107 C 
BRANCH   8   9
ATOM      9  C   UNL A   1      33.412  24.944  24.727  1.00  0.00    -0.015 C 
ATOM     10  C   UNL A   1      34.021  26.380  24.802  1.00  0.00     0.008 C 
ATOM     11  C   UNL A   1      33.667  24.452  23.275  1.00  0.00     0.008 C 
ATOM     12  C   UNL A   1      33.485  27.328  23.721  1.00  0.00     0.001 C 
ATOM     13  C   UNL A   1      33.111  25.363  22.181  1.00  0.00     0.001 C 
ATOM     14  C   UNL A   1      33.676  26.770  22.315  1.00  0.00     0.000 C 
BRANCH   9  15
ATOM     15  C   UNL A   1      34.112  24.031  25.797  1.00  0.00     0.075 C 
BRANCH  15  16
ATOM     16  C   UNL A   1      34.067  22.556  25.505  1.00  0.00     0.094 A 
ATOM     17  C   UNL A   1      34.366  16.601  23.888  1.00  0.00     0.044 C 
ATOM     18  C   UNL A   1      33.954  17.986  24.293  1.00  0.00    -0.050 A 
ATOM     19  C   UNL A   1      32.602  18.323  24.389  1.00  0.00     0.006 A 
ATOM     20  C   UNL A   1      34.941  18.946  24.580  1.00  0.00     0.024 A 
ATOM     21  C   UNL A   1      32.211  19.609  24.774  1.00  0.00     0.030 A 
ATOM     22  C   UNL A   1      34.536  20.241  24.940  1.00  0.00     0.055 A 
ATOM     23  C   UNL A   1      33.188  20.581  25.052  1.00  0.00     0.082 A 
ATOM     24  S   UNL A   1      35.494  21.632  25.293  1.00  0.00    -0.119 S 
ATOM     25  N   UNL A   1      32.937  21.885  25.424  1.00  0.00    -0.241 NA
ENDBRANCH  15  16
ENDBRANCH   9  15
ENDBRANCH   8   9
ENDBRANCH   5   8
ENDBRANCH   3   4
ENDBRANCH   2   3
ENDBRANCH   1   2
BRANCH   1  26
ATOM     26  C   UNL A   1      31.517  30.684  26.081  1.00  0.00     0.002 C 
BRANCH  26  27
ATOM     27  C   UNL A   1      31.413  32.162  26.479  1.00  0.00     0.021 C 
BRANCH  27  28
ATOM     28  C   UNL A   1      32.648  32.740  27.166  1.00  0.00     0.116 C 
BRANCH  28  29
ATOM     29  N   UNL A   1      32.439  34.110  27.604  1.00  0.00    -0.352 N 
ATOM     30  C   UNL A   1      33.007  34.801  28.644  1.00  0.00     0.251 C 
ATOM     31  H   UNL A   1      31.789  34.622  27.071  1.00  0.00     0.163 HD
ATOM     32  O   UNL A   1      32.545  35.884  28.989  1.00  0.00    -0.269 OA
BRANCH  30  33
ATOM     33  C   UNL A   1      34.173  34.244  29.363  1.00  0.00     0.039 A 
ATOM     34  C   UNL A   1      33.950  33.406  30.461  1.00  0.00     0.014 A 
ATOM     35  C   UNL A   1      35.477  34.578  28.989  1.00  0.00     0.014 A 
ATOM     36  C   UNL A   1      35.037  32.857  31.147  1.00  0.00     0.010 A 
ATOM     37  C   UNL A   1      36.558  33.984  29.637  1.00  0.00     0.010 A 
ATOM     38  C   UNL A   1      36.348  33.120  30.722  1.00  0.00    -0.014 A 
BRANCH  38  39
ATOM     39  C   UNL A   1      37.515  32.500  31.399  1.00  0.00     0.031 A 
ATOM     40  C   UNL A   1      38.243  31.355  30.753  1.00  0.00     0.074 A 
ATOM     41  C   UNL A   1      37.873  32.922  32.627  1.00  0.00     0.049 A 
ATOM     42  N   UNL A   1      39.224  30.626  31.223  1.00  0.00    -0.248 NA
ATOM     43  C   UNL A   1      37.791  30.961  29.410  1.00  0.00     0.031 C 
ATOM     44  C   UNL A   1      37.218  33.995  33.375  1.00  0.00     0.029 A 
ATOM     45  N   UNL A   1      38.865  32.485  33.469  1.00  0.00    -0.354 N 
ATOM     46  C   UNL A   1      39.493  29.678  30.244  1.00  0.00     0.074 A 
ATOM     47  C   UNL A   1      38.546  29.898  29.172  1.00  0.00     0.031 C 
ATOM     48  C   UNL A   1      37.833  34.143  34.559  1.00  0.00     0.029 A 
ATOM     49  C   UNL A   1      38.901  33.153  34.668  1.00  0.00     0.049 A 
ATOM     50  H   UNL A   1      39.492  31.763  33.235  1.00  0.00     0.167 HD
ATOM     51  C   UNL A   1      40.455  28.725  30.233  1.00  0.00     0.037 A 
ATOM     52  C   UNL A   1      39.697  32.979  35.740  1.00  0.00     0.037 A 
ATOM     53  C   UNL A   1      41.414  28.529  31.289  1.00  0.00     0.049 A 
ATOM     54  C   UNL A   1      40.759  31.914  35.702  1.00  0.00     0.074 A 
ATOM     55  C   UNL A   1      42.469  27.634  31.343  1.00  0.00     0.029 A 
ATOM     56  N   UNL A   1      41.433  29.241  32.479  1.00  0.00    -0.354 N 
ATOM     57  N   UNL A   1      41.045  31.066  34.745  1.00  0.00    -0.248 NA
ATOM     58  C   UNL A   1      41.612  31.786  36.892  1.00  0.00     0.031 C 
ATOM     59  C   UNL A   1      43.102  27.778  32.582  1.00  0.00     0.029 A 
ATOM     60  C   UNL A   1      42.469  28.791  33.283  1.00  0.00     0.049 A 
ATOM     61  H   UNL A   1      40.804  29.959  32.719  1.00  0.00     0.167 HD
ATOM     62  C   UNL A   1      42.123  30.322  35.204  1.00  0.00     0.074 A 
ATOM     63  C   UNL A   1      42.449  30.828  36.521  1.00  0.00     0.031 C 
ATOM     64  C   UNL A   1      42.783  29.310  34.589  1.00  0.00     0.037 A 
BRANCH  51  65
ATOM     65  C   UNL A   1      40.520  27.818  29.040  1.00  0.00     0.064 A 
ATOM     66  C   UNL A   1      39.739  26.657  28.955  1.00  0.00     0.173 A 
ATOM     67  C   UNL A   1      41.348  28.132  27.951  1.00  0.00     0.173 A 
ATOM     68  F   UNL A   1      38.940  26.305  29.974  1.00  0.00    -0.203 F 
ATOM     69  C   UNL A   1      39.805  25.828  27.838  1.00  0.00     0.198 A 
ATOM     70  C   UNL A   1      41.390  27.317  26.823  1.00  0.00     0.198 A 
ATOM     71  F   UNL A   1      42.112  29.236  27.977  1.00  0.00    -0.203 F 
ATOM     72  F   UNL A   1      39.084  24.698  27.800  1.00  0.00    -0.200 F 
ATOM     73  C   UNL A   1      40.624  26.162  26.771  1.00  0.00     0.200 A 
ATOM     74  F   UNL A   1      42.174  27.647  25.788  1.00  0.00    -0.200 F 
ATOM     75  F   UNL A   1      40.683  25.367  25.694  1.00  0.00    -0.200 F 
ENDBRANCH  51  65
BRANCH  52  76
ATOM     76  C   UNL A   1      39.534  33.850  36.931  1.00  0.00     0.064 A 
ATOM     77  C   UNL A   1      40.193  35.085  37.013  1.00  0.00     0.173 A 
ATOM     78  C   UNL A   1      38.716  33.474  38.005  1.00  0.00     0.173 A 
ATOM     79  F   UNL A   1      41.003  35.478  36.018  1.00  0.00    -0.203 F 
ATOM     80  C   UNL A   1      40.051  35.903  38.131  1.00  0.00     0.198 A 
ATOM     81  C   UNL A   1      38.555  34.304  39.112  1.00  0.00     0.198 A 
ATOM     82  F   UNL A   1      38.061  32.304  37.973  1.00  0.00    -0.203 F 
ATOM     83  F   UNL A   1      40.723  37.060  38.201  1.00  0.00    -0.200 F 
ATOM     84  C   UNL A   1      39.228  35.515  39.177  1.00  0.00     0.200 A 
ATOM     85  F   UNL A   1      37.749  33.933  40.116  1.00  0.00    -0.200 F 
ATOM     86  F   UNL A   1      39.088  36.305  40.250  1.00  0.00    -0.200 F 
ENDBRANCH  52  76
BRANCH  64  87
ATOM     87  C   UNL A   1      43.942  28.701  35.322  1.00  0.00     0.064 A 
ATOM     88  C   UNL A   1      45.237  29.224  35.210  1.00  0.00     0.173 A 
ATOM     89  C   UNL A   1      43.744  27.608  36.180  1.00  0.00     0.173 A 
ATOM     90  F   UNL A   1      45.479  30.258  34.390  1.00  0.00    -0.203 F 
ATOM     91  C   UNL A   1      46.298  28.663  35.915  1.00  0.00     0.198 A 
ATOM     92  C   UNL A   1      44.802  27.066  36.904  1.00  0.00     0.198 A 
ATOM     93  F   UNL A   1      42.521  27.075  36.325  1.00  0.00    -0.203 F 
ATOM     94  F   UNL A   1      47.536  29.153  35.763  1.00  0.00    -0.200 F 
ATOM     95  C   UNL A   1      46.078  27.589  36.766  1.00  0.00     0.200 A 
ATOM     96  F   UNL A   1      44.586  26.037  37.734  1.00  0.00    -0.200 F 
ATOM     97  F   UNL A   1      47.100  27.056  37.451  1.00  0.00    -0.200 F 
ENDBRANCH  64  87
ENDBRANCH  38  39
ENDBRANCH  30  33
ENDBRANCH  28  29
ENDBRANCH  27  28
ENDBRANCH  26  27
ENDBRANCH   1  26
TORSDOF 16
ENDMDL
MODEL 2
REMARK VINA RESULT:     -12.4      0.503      2.032
REMARK SMILES Cc1ccc2nc(CC3(CC(=O)NCCCCCCNC(=O)c4ccc(-c5c6nc(c(-c7c(F)c(F)c(F)c(F)c7F)c7ccc([nH]7)c(-c7c(F)c(F)c(F)c(F)c7F)c7nc(c(-c8c(F)c(F)c(F)c(F)c8F)c8ccc5[nH]8)C=C7)C=C6)cc4)CCCCC3)sc2c1
REMARK SMILES IDX 16 1 15 2 14 3 13 4 11 5 12 6 10 8 9 9 86 10 90 11 87 12
REMARK SMILES IDX 89 13 88 14 8 15 7 16 1 17 2 18 3 19 93 20 4 21 92 22 5 23
REMARK SMILES IDX 91 24 6 25 17 26 18 27 19 28 20 29 21 30 22 32 23 33 24 34
REMARK SMILES IDX 85 35 25 36 84 37 26 38 27 39 28 40 78 41 29 42 83 43 77 44
REMARK SMILES IDX 79 45 30 46 82 47 76 48 75 49 31 51 63 52 43 53 62 54 44 55
REMARK SMILES IDX 47 56 61 57 80 58 45 59 46 60 60 62 81 63 48 64 32 65 33 66
REMARK SMILES IDX 41 67 34 68 35 69 39 70 42 71 36 72 37 73 40 74 38 75 64 76
REMARK SMILES IDX 65 77 73 78 66 79 67 80 71 81 74 82 68 83 69 84 72 85 70 86
REMARK SMILES IDX 49 87 50 88 58 89 51 90 52 91 56 92 59 93 53 94 54 95 57 96
REMARK SMILES IDX 55 97
REMARK H PARENT 13 7 20 31 79 50 47 61
REMARK Flexibility Score: inf
ROOT
ATOM      1  C   UNL A   1      32.422  29.952  26.182  1.00  0.00     0.002 C 
ENDROOT
BRANCH   1   2
ATOM      2  C   UNL A   1      32.107  28.715  27.023  1.00  0.00     0.021 C 
BRANCH   2   3
ATOM      3  C   UNL A   1      31.203  27.693  26.329  1.00  0.00     0.116 C 
BRANCH   3   4
ATOM      4  N   UNL A   1      31.266  26.406  26.991  1.00  0.00    -0.356 N 
ATOM      5  C   UNL A   1      31.558  25.174  26.497  1.00  0.00     0.220 C 
ATOM      6  O   UNL A   1      31.507  24.213  27.269  1.00  0.00    -0.275 OA
ATOM      7  H   UNL A   1      31.064  26.427  27.955  1.00  0.00     0.163 HD
BRANCH   5   8
ATOM      8  C   UNL A   1      31.935  24.964  25.036  1.00  0.00     0.107 C 
BRANCH   8   9
ATOM      9  C   UNL A   1      33.462  24.873  24.680  1.00  0.00    -0.015 C 
ATOM     10  C   UNL A   1      34.071  26.308  24.757  1.00  0.00     0.008 C 
ATOM     11  C   UNL A   1      33.692  24.393  23.220  1.00  0.00     0.008 C 
ATOM     12  C   UNL A   1      33.516  27.265  23.694  1.00  0.00     0.001 C 
ATOM     13  C   UNL A   1      33.117  25.313  22.144  1.00  0.00     0.001 C 
ATOM     14  C   UNL A   1      33.683  26.719  22.280  1.00  0.00     0.000 C 
BRANCH   9  15
ATOM     15  C   UNL A   1      34.180  23.951  25.730  1.00  0.00     0.075 C 
BRANCH  15  16
ATOM     16  C   UNL A   1      34.112  22.477  25.439  1.00  0.00     0.094 A 
ATOM     17  C   UNL A   1      34.334  16.514  23.837  1.00  0.00     0.044 C 
ATOM     18  C   UNL A   1      33.940  17.909  24.226  1.00  0.00    -0.050 A 
ATOM     19  C   UNL A   1      32.593  18.276  24.274  1.00  0.00     0.006 A 
ATOM     20  C   UNL A   1      34.937  18.846  24.548  1.00  0.00     0.024 A 
ATOM     21  C   UNL A   1      32.218  19.571  24.643  1.00  0.00     0.030 A 
ATOM     22  C   UNL A   1      34.549  20.151  24.893  1.00  0.00     0.055 A 
ATOM     23  C   UNL A   1      33.206  20.521  24.956  1.00  0.00     0.082 A 
ATOM     24  S   UNL A   1      35.525  21.520  25.279  1.00  0.00    -0.119 S 
ATOM     25  N   UNL A   1      32.971  21.831  25.318  1.00  0.00    -0.241 NA
ENDBRANCH  15  16
ENDBRANCH   9  15
ENDBRANCH   8   9
ENDBRANCH   5   8
ENDBRANCH   3   4
ENDBRANCH   2   3
ENDBRANCH   1   2
BRANCH   1  26
ATOM     26  C   UNL A   1      31.201  30.795  25.794  1.00  0.00     0.002 C 
BRANCH  26  27
ATOM     27  C   UNL A   1      31.171  32.222  26.354  1.00  0.00     0.021 C 
BRANCH  27  28
ATOM     28  C   UNL A   1      32.431  32.654  27.103  1.00  0.00     0.116 C 
BRANCH  28  29
ATOM     29  N   UNL A   1      32.352  34.034  27.555  1.00  0.00    -0.352 N 
ATOM     30  C   UNL A   1      33.056  34.682  28.538  1.00  0.00     0.251 C 
ATOM     31  H   UNL A   1      31.691  34.589  27.081  1.00  0.00     0.163 HD
ATOM     32  O   UNL A   1      32.698  35.792  28.920  1.00  0.00    -0.269 OA
BRANCH  30  33
ATOM     33  C   UNL A   1      34.242  34.047  29.149  1.00  0.00     0.039 A 
ATOM     34  C   UNL A   1      35.512  34.528  28.813  1.00  0.00     0.014 A 
ATOM     35  C   UNL A   1      34.112  32.958  30.014  1.00  0.00     0.014 A 
ATOM     36  C   UNL A   1      36.648  33.953  29.389  1.00  0.00     0.010 A 
ATOM     37  C   UNL A   1      35.240  32.423  30.632  1.00  0.00     0.010 A 
ATOM     38  C   UNL A   1      36.518  32.915  30.324  1.00  0.00    -0.014 A 
BRANCH  38  39
ATOM     39  C   UNL A   1      37.707  32.329  30.994  1.00  0.00     0.031 A 
ATOM     40  C   UNL A   1      38.498  31.246  30.317  1.00  0.00     0.074 A 
ATOM     41  C   UNL A   1      38.028  32.722  32.241  1.00  0.00     0.049 A 
ATOM     42  N   UNL A   1      39.509  30.549  30.774  1.00  0.00    -0.248 NA
ATOM     43  C   UNL A   1      38.083  30.880  28.954  1.00  0.00     0.031 C 
ATOM     44  C   UNL A   1      37.311  33.734  33.018  1.00  0.00     0.029 A 
ATOM     45  N   UNL A   1      39.030  32.305  33.081  1.00  0.00    -0.354 N 
ATOM     46  C   UNL A   1      39.837  29.653  29.766  1.00  0.00     0.074 A 
ATOM     47  C   UNL A   1      38.893  29.864  28.689  1.00  0.00     0.031 C 
ATOM     48  C   UNL A   1      37.904  33.869  34.215  1.00  0.00     0.029 A 
ATOM     49  C   UNL A   1      39.018  32.929  34.304  1.00  0.00     0.049 A 
ATOM     50  H   UNL A   1      39.696  31.623  32.830  1.00  0.00     0.167 HD
ATOM     51  C   UNL A   1      40.845  28.750  29.734  1.00  0.00     0.037 A 
ATOM     52  C   UNL A   1      39.810  32.755  35.379  1.00  0.00     0.037 A 
ATOM     53  C   UNL A   1      41.800  28.562  30.794  1.00  0.00     0.049 A 
ATOM     54  C   UNL A   1      40.924  31.747  35.317  1.00  0.00     0.074 A 
ATOM     55  C   UNL A   1      42.898  27.720  30.831  1.00  0.00     0.029 A 
ATOM     56  N   UNL A   1      41.770  29.231  32.010  1.00  0.00    -0.354 N 
ATOM     57  N   UNL A   1      41.264  30.949  34.335  1.00  0.00    -0.248 NA
ATOM     58  C   UNL A   1      41.768  31.618  36.514  1.00  0.00     0.031 C 
ATOM     59  C   UNL A   1      43.508  27.849  32.083  1.00  0.00     0.029 A 
ATOM     60  C   UNL A   1      42.816  28.803  32.811  1.00  0.00     0.049 A 
ATOM     61  H   UNL A   1      41.102  29.907  32.266  1.00  0.00     0.167 HD
ATOM     62  C   UNL A   1      42.371  30.244  34.781  1.00  0.00     0.074 A 
ATOM     63  C   UNL A   1      42.656  30.716  36.121  1.00  0.00     0.031 C 
ATOM     64  C   UNL A   1      43.088  29.288  34.140  1.00  0.00     0.037 A 
BRANCH  51  65
ATOM     65  C   UNL A   1      40.970  27.892  28.509  1.00  0.00     0.064 A 
ATOM     66  C   UNL A   1      41.756  28.282  27.415  1.00  0.00     0.173 A 
ATOM     67  C   UNL A   1      40.324  26.648  28.441  1.00  0.00     0.173 A 
ATOM     68  F   UNL A   1      42.385  29.467  27.424  1.00  0.00    -0.203 F 
ATOM     69  C   UNL A   1      41.869  27.473  26.287  1.00  0.00     0.198 A 
ATOM     70  C   UNL A   1      40.462  25.828  27.325  1.00  0.00     0.198 A 
ATOM     71  F   UNL A   1      39.565  26.223  29.463  1.00  0.00    -0.203 F 
ATOM     72  F   UNL A   1      42.588  27.888  25.235  1.00  0.00    -0.200 F 
ATOM     73  C   UNL A   1      41.228  26.244  26.246  1.00  0.00     0.200 A 
ATOM     74  F   UNL A   1      39.851  24.636  27.291  1.00  0.00    -0.200 F 
ATOM     75  F   UNL A   1      41.341  25.463  25.162  1.00  0.00    -0.200 F 
ENDBRANCH  51  65
BRANCH  52  76
ATOM     76  C   UNL A   1      39.588  33.573  36.599  1.00  0.00     0.064 A 
ATOM     77  C   UNL A   1      38.781  33.100  37.643  1.00  0.00     0.173 A 
ATOM     78  C   UNL A   1      40.179  34.835  36.750  1.00  0.00     0.173 A 
ATOM     79  F   UNL A   1      38.178  31.907  37.534  1.00  0.00    -0.203 F 
ATOM     80  C   UNL A   1      38.561  33.866  38.786  1.00  0.00     0.198 A 
ATOM     81  C   UNL A   1      39.979  35.589  37.904  1.00  0.00     0.198 A 
ATOM     82  F   UNL A   1      40.963  35.329  35.781  1.00  0.00    -0.203 F 
ATOM     83  F   UNL A   1      37.754  33.407  39.752  1.00  0.00    -0.200 F 
ATOM     84  C   UNL A   1      39.165  35.107  38.918  1.00  0.00     0.200 A 
ATOM     85  F   UNL A   1      40.575  36.782  38.035  1.00  0.00    -0.200 F 
ATOM     86  F   UNL A   1      38.958  35.840  40.019  1.00  0.00    -0.200 F 
ENDBRANCH  52  76
BRANCH  64  87
ATOM     87  C   UNL A   1      44.268  28.711  34.866  1.00  0.00     0.064 A 
ATOM     88  C   UNL A   1      44.152  27.555  35.650  1.00  0.00     0.173 A 
ATOM     89  C   UNL A   1      45.536  29.298  34.739  1.00  0.00     0.173 A 
ATOM     90  F   UNL A   1      42.957  26.967  35.815  1.00  0.00    -0.203 F 
ATOM     91  C   UNL A   1      45.260  27.018  36.299  1.00  0.00     0.198 A 
ATOM     92  C   UNL A   1      46.647  28.744  35.368  1.00  0.00     0.198 A 
ATOM     93  F   UNL A   1      45.699  30.403  33.996  1.00  0.00    -0.203 F 
ATOM     94  F   UNL A   1      45.120  25.936  37.076  1.00  0.00    -0.200 F 
ATOM     95  C   UNL A   1      46.508  27.608  36.152  1.00  0.00     0.200 A 
ATOM     96  F   UNL A   1      47.853  29.308  35.215  1.00  0.00    -0.200 F 
ATOM     97  F   UNL A   1      47.575  27.085  36.770  1.00  0.00    -0.200 F 
ENDBRANCH  64  87
ENDBRANCH  38  39
ENDBRANCH  30  33
ENDBRANCH  28  29
ENDBRANCH  27  28
ENDBRANCH  26  27
ENDBRANCH   1  26
TORSDOF 16
ENDMDL
MODEL 3
REMARK VINA RESULT:     -12.3      0.881      7.209
REMARK SMILES Cc1ccc2nc(CC3(CC(=O)NCCCCCCNC(=O)c4ccc(-c5c6nc(c(-c7c(F)c(F)c(F)c(F)c7F)c7ccc([nH]7)c(-c7c(F)c(F)c(F)c(F)c7F)c7nc(c(-c8c(F)c(F)c(F)c(F)c8F)c8ccc5[nH]8)C=C7)C=C6)cc4)CCCCC3)sc2c1
REMARK SMILES IDX 16 1 15 2 14 3 13 4 11 5 12 6 10 8 9 9 86 10 90 11 87 12
REMARK SMILES IDX 89 13 88 14 8 15 7 16 1 17 2 18 3 19 93 20 4 21 92 22 5 23
REMARK SMILES IDX 91 24 6 25 17 26 18 27 19 28 20 29 21 30 22 32 23 33 24 34
REMARK SMILES IDX 85 35 25 36 84 37 26 38 27 39 28 40 78 41 29 42 83 43 77 44
REMARK SMILES IDX 79 45 30 46 82 47 76 48 75 49 31 51 63 52 43 53 62 54 44 55
REMARK SMILES IDX 47 56 61 57 80 58 45 59 46 60 60 62 81 63 48 64 32 65 33 66
REMARK SMILES IDX 41 67 34 68 35 69 39 70 42 71 36 72 37 73 40 74 38 75 64 76
REMARK SMILES IDX 65 77 73 78 66 79 67 80 71 81 74 82 68 83 69 84 72 85 70 86
REMARK SMILES IDX 49 87 50 88 58 89 51 90 52 91 56 92 59 93 53 94 54 95 57 96
REMARK SMILES IDX 55 97
REMARK H PARENT 13 7 20 31 79 50 47 61
REMARK Flexibility Score: inf
ROOT
ATOM      1  C   UNL A   1      32.253  30.047  26.158  1.00  0.00     0.002 C 
ENDROOT
BRANCH   1   2
ATOM      2  C   UNL A   1      31.871  28.822  26.991  1.00  0.00     0.021 C 
BRANCH   2   3
ATOM      3  C   UNL A   1      31.166  27.717  26.200  1.00  0.00     0.116 C 
BRANCH   3   4
ATOM      4  N   UNL A   1      31.225  26.452  26.905  1.00  0.00    -0.356 N 
ATOM      5  C   UNL A   1      31.506  25.203  26.450  1.00  0.00     0.220 C 
ATOM      6  O   UNL A   1      31.454  24.269  27.254  1.00  0.00    -0.275 OA
ATOM      7  H   UNL A   1      31.030  26.507  27.868  1.00  0.00     0.163 HD
BRANCH   5   8
ATOM      8  C   UNL A   1      31.871  24.942  24.994  1.00  0.00     0.107 C 
BRANCH   8   9
ATOM      9  C   UNL A   1      33.395  24.857  24.625  1.00  0.00    -0.015 C 
ATOM     10  C   UNL A   1      33.989  26.300  24.656  1.00  0.00     0.008 C 
ATOM     11  C   UNL A   1      33.616  24.338  23.178  1.00  0.00     0.008 C 
ATOM     12  C   UNL A   1      33.413  27.221  23.572  1.00  0.00     0.001 C 
ATOM     13  C   UNL A   1      33.021  25.221  22.081  1.00  0.00     0.001 C 
ATOM     14  C   UNL A   1      33.573  26.637  22.172  1.00  0.00     0.000 C 
BRANCH   9  15
ATOM     15  C   UNL A   1      34.133  23.973  25.694  1.00  0.00     0.075 C 
BRANCH  15  16
ATOM     16  C   UNL A   1      34.099  22.492  25.432  1.00  0.00     0.094 A 
ATOM     17  C   UNL A   1      34.430  16.510  23.922  1.00  0.00     0.044 C 
ATOM     18  C   UNL A   1      34.012  17.899  24.311  1.00  0.00    -0.050 A 
ATOM     19  C   UNL A   1      32.659  18.221  24.435  1.00  0.00     0.006 A 
ATOM     20  C   UNL A   1      34.994  18.875  24.554  1.00  0.00     0.024 A 
ATOM     21  C   UNL A   1      32.262  19.509  24.805  1.00  0.00     0.030 A 
ATOM     22  C   UNL A   1      34.583  20.172  24.900  1.00  0.00     0.055 A 
ATOM     23  C   UNL A   1      33.234  20.498  25.039  1.00  0.00     0.082 A 
ATOM     24  S   UNL A   1      35.532  21.581  25.201  1.00  0.00    -0.119 S 
ATOM     25  N   UNL A   1      32.976  21.806  25.393  1.00  0.00    -0.241 NA
ENDBRANCH  15  16
ENDBRANCH   9  15
ENDBRANCH   8   9
ENDBRANCH   5   8
ENDBRANCH   3   4
ENDBRANCH   2   3
ENDBRANCH   1   2
BRANCH   1  26
ATOM     26  C   UNL A   1      31.100  31.014  25.869  1.00  0.00     0.002 C 
BRANCH  26  27
ATOM     27  C   UNL A   1      31.248  32.423  26.456  1.00  0.00     0.021 C 
BRANCH  27  28
ATOM     28  C   UNL A   1      32.554  32.682  27.205  1.00  0.00     0.116 C 
BRANCH  28  29
ATOM     29  N   UNL A   1      32.686  34.072  27.609  1.00  0.00    -0.352 N 
ATOM     30  C   UNL A   1      33.509  34.645  28.546  1.00  0.00     0.251 C 
ATOM     31  H   UNL A   1      32.093  34.700  27.138  1.00  0.00     0.163 HD
ATOM     32  O   UNL A   1      33.325  35.805  28.900  1.00  0.00    -0.269 OA
BRANCH  30  33
ATOM     33  C   UNL A   1      34.617  33.868  29.142  1.00  0.00     0.039 A 
ATOM     34  C   UNL A   1      35.933  34.209  28.811  1.00  0.00     0.014 A 
ATOM     35  C   UNL A   1      34.365  32.783  29.984  1.00  0.00     0.014 A 
ATOM     36  C   UNL A   1      36.997  33.497  29.372  1.00  0.00     0.010 A 
ATOM     37  C   UNL A   1      35.426  32.112  30.589  1.00  0.00     0.010 A 
ATOM     38  C   UNL A   1      36.751  32.462  30.287  1.00  0.00    -0.014 A 
BRANCH  38  39
ATOM     39  C   UNL A   1      37.866  31.732  30.941  1.00  0.00     0.031 A 
ATOM     40  C   UNL A   1      38.275  32.078  32.345  1.00  0.00     0.074 A 
ATOM     41  C   UNL A   1      38.556  30.809  30.245  1.00  0.00     0.049 A 
ATOM     42  N   UNL A   1      39.276  31.620  33.053  1.00  0.00    -0.248 NA
ATOM     43  C   UNL A   1      37.465  33.094  33.036  1.00  0.00     0.031 C 
ATOM     44  C   UNL A   1      38.282  30.416  28.862  1.00  0.00     0.029 A 
ATOM     45  N   UNL A   1      39.640  30.046  30.599  1.00  0.00    -0.354 N 
ATOM     46  C   UNL A   1      39.228  32.302  34.262  1.00  0.00     0.074 A 
ATOM     47  C   UNL A   1      38.125  33.235  34.177  1.00  0.00     0.031 C 
ATOM     48  C   UNL A   1      39.166  29.477  28.489  1.00  0.00     0.029 A 
ATOM     49  C   UNL A   1      40.089  29.227  29.592  1.00  0.00     0.049 A 
ATOM     50  H   UNL A   1      40.057  30.082  31.491  1.00  0.00     0.167 HD
ATOM     51  C   UNL A   1      40.020  32.149  35.350  1.00  0.00     0.037 A 
ATOM     52  C   UNL A   1      41.135  28.379  29.559  1.00  0.00     0.037 A 
ATOM     53  C   UNL A   1      41.098  31.199  35.442  1.00  0.00     0.049 A 
ATOM     54  C   UNL A   1      41.998  28.227  30.782  1.00  0.00     0.074 A 
ATOM     55  C   UNL A   1      41.916  30.922  36.524  1.00  0.00     0.029 A 
ATOM     56  N   UNL A   1      41.508  30.369  34.408  1.00  0.00    -0.354 N 
ATOM     57  N   UNL A   1      41.904  28.831  31.941  1.00  0.00    -0.248 NA
ATOM     58  C   UNL A   1      43.110  27.270  30.692  1.00  0.00     0.031 C 
ATOM     59  C   UNL A   1      42.846  29.953  36.133  1.00  0.00     0.029 A 
ATOM     60  C   UNL A   1      42.581  29.596  34.821  1.00  0.00     0.049 A 
ATOM     61  H   UNL A   1      41.099  30.336  33.514  1.00  0.00     0.167 HD
ATOM     62  C   UNL A   1      42.924  28.313  32.725  1.00  0.00     0.074 A 
ATOM     63  C   UNL A   1      43.619  27.334  31.914  1.00  0.00     0.031 C 
ATOM     64  C   UNL A   1      43.257  28.622  34.003  1.00  0.00     0.037 A 
BRANCH  51  65
ATOM     65  C   UNL A   1      39.750  33.031  36.534  1.00  0.00     0.064 A 
ATOM     66  C   UNL A   1      40.424  34.247  36.714  1.00  0.00     0.173 A 
ATOM     67  C   UNL A   1      38.780  32.672  37.483  1.00  0.00     0.173 A 
ATOM     68  F   UNL A   1      41.370  34.630  35.842  1.00  0.00    -0.203 F 
ATOM     69  C   UNL A   1      40.160  35.058  37.814  1.00  0.00     0.198 A 
ATOM     70  C   UNL A   1      38.497  33.499  38.566  1.00  0.00     0.198 A 
ATOM     71  F   UNL A   1      38.101  31.522  37.355  1.00  0.00    -0.203 F 
ATOM     72  F   UNL A   1      40.850  36.194  37.990  1.00  0.00    -0.200 F 
ATOM     73  C   UNL A   1      39.191  34.688  38.735  1.00  0.00     0.200 A 
ATOM     74  F   UNL A   1      37.553  33.145  39.449  1.00  0.00    -0.200 F 
ATOM     75  F   UNL A   1      38.933  35.472  39.790  1.00  0.00    -0.200 F 
ENDBRANCH  51  65
BRANCH  52  76
ATOM     76  C   UNL A   1      41.408  27.592  28.330  1.00  0.00     0.064 A 
ATOM     77  C   UNL A   1      42.318  28.055  27.369  1.00  0.00     0.173 A 
ATOM     78  C   UNL A   1      40.774  26.364  28.092  1.00  0.00     0.173 A 
ATOM     79  F   UNL A   1      42.932  29.234  27.543  1.00  0.00    -0.203 F 
ATOM     80  C   UNL A   1      42.572  27.326  26.209  1.00  0.00     0.198 A 
ATOM     81  C   UNL A   1      41.048  25.624  26.945  1.00  0.00     0.198 A 
ATOM     82  F   UNL A   1      39.899  25.876  28.984  1.00  0.00    -0.203 F 
ATOM     83  F   UNL A   1      43.416  27.810  25.289  1.00  0.00    -0.200 F 
ATOM     84  C   UNL A   1      41.941  26.109  26.001  1.00  0.00     0.200 A 
ATOM     85  F   UNL A   1      40.447  24.442  26.752  1.00  0.00    -0.200 F 
ATOM     86  F   UNL A   1      42.190  25.406  24.888  1.00  0.00    -0.200 F 
ENDBRANCH  52  76
BRANCH  64  87
ATOM     87  C   UNL A   1      44.404  27.873  34.613  1.00  0.00     0.064 A 
ATOM     88  C   UNL A   1      45.712  28.376  34.576  1.00  0.00     0.173 A 
ATOM     89  C   UNL A   1      44.184  26.658  35.281  1.00  0.00     0.173 A 
ATOM     90  F   UNL A   1      45.975  29.525  33.935  1.00  0.00    -0.203 F 
ATOM     91  C   UNL A   1      46.763  27.681  35.168  1.00  0.00     0.198 A 
ATOM     92  C   UNL A   1      45.233  25.979  35.895  1.00  0.00     0.198 A 
ATOM     93  F   UNL A   1      42.950  26.138  35.349  1.00  0.00    -0.203 F 
ATOM     94  F   UNL A   1      48.012  28.160  35.085  1.00  0.00    -0.200 F 
ATOM     95  C   UNL A   1      46.521  26.487  35.832  1.00  0.00     0.200 A 
ATOM     96  F   UNL A   1      44.996  24.833  36.546  1.00  0.00    -0.200 F 
ATOM     97  F   UNL A   1      47.533  25.824  36.409  1.00  0.00    -0.200 F 
ENDBRANCH  64  87
ENDBRANCH  38  39
ENDBRANCH  30  33
ENDBRANCH  28  29
ENDBRANCH  27  28
ENDBRANCH  26  27
ENDBRANCH   1  26
TORSDOF 16
ENDMDL
