MODEL 1
REMARK VINA RESULT:     -14.1      0.000      0.000
REMARK SMILES CC(C)[C@@H]1C(=O)Nc2ccccc2N1C(=O)N[C@H](Cc1ccccc1)C(=O)NCCCCCCNC(=O)c1ccc(-c2c3nc(c(-c4c(F)c(F)c(F)c(F)c4F)c4ccc([nH]4)c(-c4c(F)c(F)c(F)c(F)c4F)c4nc(c(-c5c(F)c(F)c(F)c(F)c5F)c5ccc2[nH]5)C=C4)C=C3)cc1
REMARK SMILES IDX 31 1 30 2 29 3 28 4 26 5 27 6 18 8 17 9 15 10 16 11 14 13
REMARK SMILES IDX 4 14 5 15 6 16 7 17 13 18 8 19 12 21 9 22 11 23 10 24 2 25
REMARK SMILES IDX 1 26 3 27 19 28 20 29 21 30 25 31 22 32 24 33 23 34 32 35
REMARK SMILES IDX 33 36 34 37 35 38 36 39 37 41 38 42 39 43 100 44 40 45 99 46
REMARK SMILES IDX 41 47 42 48 43 49 93 50 44 51 98 52 92 53 94 54 45 55 97 56
REMARK SMILES IDX 91 57 90 58 46 60 78 61 58 62 77 63 59 64 62 65 76 66 95 67
REMARK SMILES IDX 60 68 61 69 75 71 96 72 63 73 47 74 48 75 56 76 49 77 50 78
REMARK SMILES IDX 54 79 57 80 51 81 52 82 55 83 53 84 79 85 80 86 88 87 81 88
REMARK SMILES IDX 82 89 86 90 89 91 83 92 84 93 87 94 85 95 64 96 65 97 73 98
REMARK SMILES IDX 66 99 67 100 71 101 74 102 68 103 69 104 72 105 70 106
REMARK H PARENT 28 7 17 12 7 20 35 40 94 59 62 70
REMARK Flexibility Score: inf
ROOT
ATOM      1  C   UNL A   1      34.873  32.432  28.396  1.00  0.00     0.002 C 
ENDROOT
BRANCH   1   2
ATOM      2  C   UNL A   1      35.463  31.248  27.647  1.00  0.00     0.021 C 
BRANCH   2   3
ATOM      3  C   UNL A   1      34.886  29.697  27.661  1.00  0.00     0.116 C 
BRANCH   3   4
ATOM      4  N   UNL A   1      33.028  28.825  27.655  1.00  0.00    -0.354 N 
ATOM      5  C   UNL A   1      32.182  27.618  27.177  1.00  0.00     0.242 C 
ATOM      6  O   UNL A   1      30.985  27.677  27.500  1.00  0.00    -0.273 OA
ATOM      7  H   UNL A   1      32.428  29.416  28.164  1.00  0.00     0.163 HD
BRANCH   5   8
ATOM      8  C   UNL A   1      32.726  26.200  26.185  1.00  0.00     0.177 C 
BRANCH   8   9
ATOM      9  N   UNL A   1      32.178  25.155  26.992  1.00  0.00    -0.326 N 
ATOM     10  C   UNL A   1      31.075  24.520  26.499  1.00  0.00     0.323 C 
ATOM     11  O   UNL A   1      30.392  23.834  27.252  1.00  0.00    -0.248 OA
ATOM     12  H   UNL A   1      32.575  24.907  27.858  1.00  0.00     0.166 HD
BRANCH  10  13
ATOM     13  N   UNL A   1      30.975  24.533  25.108  1.00  0.00    -0.280 N 
ATOM     14  C   UNL A   1      30.970  25.949  23.730  1.00  0.00     0.184 C 
ATOM     15  C   UNL A   1      31.789  25.499  21.997  1.00  0.00     0.247 C 
ATOM     16  O   UNL A   1      31.901  26.293  21.061  1.00  0.00    -0.272 OA
ATOM     17  N   UNL A   1      32.347  23.891  21.812  1.00  0.00    -0.322 N 
ATOM     18  C   UNL A   1      31.725  22.913  24.592  1.00  0.00     0.070 A 
ATOM     19  C   UNL A   1      32.309  22.632  23.016  1.00  0.00     0.065 A 
ATOM     20  H   UNL A   1      32.726  23.653  20.936  1.00  0.00     0.170 HD
ATOM     21  C   UNL A   1      31.760  21.807  25.423  1.00  0.00     0.028 A 
ATOM     22  C   UNL A   1      32.538  21.348  22.549  1.00  0.00     0.028 A 
ATOM     23  C   UNL A   1      32.063  20.543  24.847  1.00  0.00     0.002 A 
ATOM     24  C   UNL A   1      32.362  20.314  23.470  1.00  0.00     0.002 A 
BRANCH  14  25
ATOM     25  C   UNL A   1      29.873  27.037  23.485  1.00  0.00     0.015 C 
ATOM     26  C   UNL A   1      28.478  26.569  23.855  1.00  0.00     0.010 C 
ATOM     27  C   UNL A   1      30.435  28.452  23.895  1.00  0.00     0.010 C 
ENDBRANCH  14  25
ENDBRANCH  10  13
ENDBRANCH   8   9
BRANCH   8  28
ATOM     28  C   UNL A   1      34.199  25.594  25.826  1.00  0.00     0.070 C 
BRANCH  28  29
ATOM     29  C   UNL A   1      34.951  24.295  25.459  1.00  0.00    -0.045 A 
ATOM     30  C   UNL A   1      34.928  23.253  26.444  1.00  0.00     0.004 A 
ATOM     31  C   UNL A   1      35.377  23.896  24.199  1.00  0.00     0.004 A 
ATOM     32  C   UNL A   1      35.280  21.921  26.216  1.00  0.00     0.000 A 
ATOM     33  C   UNL A   1      35.748  22.545  23.959  1.00  0.00     0.000 A 
ATOM     34  C   UNL A   1      35.688  21.560  24.953  1.00  0.00     0.000 A 
ENDBRANCH  28  29
ENDBRANCH   8  28
ENDBRANCH   5   8
ENDBRANCH   3   4
ENDBRANCH   2   3
ENDBRANCH   1   2
BRANCH   1  35
ATOM     35  C   UNL A   1      35.476  33.779  28.057  1.00  0.00     0.002 C 
BRANCH  35  36
ATOM     36  C   UNL A   1      34.455  34.906  28.037  1.00  0.00     0.021 C 
BRANCH  36  37
ATOM     37  C   UNL A   1      33.222  34.518  28.825  1.00  0.00     0.116 C 
BRANCH  37  38
ATOM     38  N   UNL A   1      32.969  35.539  29.838  1.00  0.00    -0.352 N 
ATOM     39  C   UNL A   1      33.163  35.389  31.189  1.00  0.00     0.251 C 
ATOM     40  H   UNL A   1      32.631  36.409  29.526  1.00  0.00     0.163 HD
ATOM     41  O   UNL A   1      32.444  35.947  32.008  1.00  0.00    -0.269 OA
BRANCH  39  42
ATOM     42  C   UNL A   1      34.288  34.537  31.608  1.00  0.00     0.039 A 
ATOM     43  C   UNL A   1      34.084  33.223  32.018  1.00  0.00     0.014 A 
ATOM     44  C   UNL A   1      35.576  35.076  31.540  1.00  0.00     0.014 A 
ATOM     45  C   UNL A   1      35.193  32.446  32.344  1.00  0.00     0.010 A 
ATOM     46  C   UNL A   1      36.667  34.248  31.657  1.00  0.00     0.010 A 
ATOM     47  C   UNL A   1      36.490  32.952  32.143  1.00  0.00    -0.014 A 
BRANCH  47  48
ATOM     48  C   UNL A   1      37.702  32.202  32.522  1.00  0.00     0.031 A 
ATOM     49  C   UNL A   1      38.371  32.521  33.835  1.00  0.00     0.074 A 
ATOM     50  C   UNL A   1      38.227  31.316  31.660  1.00  0.00     0.049 A 
ATOM     51  N   UNL A   1      39.496  32.068  34.321  1.00  0.00    -0.248 NA
ATOM     52  C   UNL A   1      37.721  33.530  34.694  1.00  0.00     0.031 C 
ATOM     53  C   UNL A   1      37.690  31.002  30.334  1.00  0.00     0.029 A 
ATOM     54  N   UNL A   1      39.334  30.520  31.769  1.00  0.00    -0.354 N 
ATOM     55  C   UNL A   1      39.693  32.758  35.511  1.00  0.00     0.074 A 
ATOM     56  C   UNL A   1      38.634  33.730  35.628  1.00  0.00     0.031 C 
ATOM     57  C   UNL A   1      38.439  30.038  29.775  1.00  0.00     0.029 A 
ATOM     58  C   UNL A   1      39.537  29.714  30.677  1.00  0.00     0.049 A 
ATOM     59  H   UNL A   1      39.927  30.525  32.555  1.00  0.00     0.167 HD
ATOM     60  C   UNL A   1      40.647  32.562  36.447  1.00  0.00     0.037 A 
ATOM     61  C   UNL A   1      40.511  28.819  30.441  1.00  0.00     0.037 A 
ATOM     62  C   UNL A   1      41.663  31.555  36.328  1.00  0.00     0.049 A 
ATOM     63  C   UNL A   1      41.559  28.612  31.501  1.00  0.00     0.074 A 
ATOM     64  C   UNL A   1      42.643  31.205  37.236  1.00  0.00     0.029 A 
ATOM     65  N   UNL A   1      41.823  30.734  35.219  1.00  0.00    -0.354 N 
ATOM     66  N   UNL A   1      41.691  29.208  32.663  1.00  0.00    -0.248 NA
ATOM     67  C   UNL A   1      42.589  27.606  31.222  1.00  0.00     0.031 C 
ATOM     68  C   UNL A   1      43.441  30.221  36.647  1.00  0.00     0.029 A 
ATOM     69  C   UNL A   1      42.910  29.900  35.406  1.00  0.00     0.049 A 
ATOM     70  H   UNL A   1      41.249  30.745  34.419  1.00  0.00     0.167 HD
ATOM     71  C   UNL A   1      42.798  28.629  33.267  1.00  0.00     0.074 A 
ATOM     72  C   UNL A   1      43.287  27.621  32.348  1.00  0.00     0.031 C 
ATOM     73  C   UNL A   1      43.362  28.902  34.470  1.00  0.00     0.037 A 
BRANCH  60  74
ATOM     74  C   UNL A   1      40.628  33.441  37.666  1.00  0.00     0.064 A 
ATOM     75  C   UNL A   1      39.737  33.221  38.730  1.00  0.00     0.173 A 
ATOM     76  C   UNL A   1      41.528  34.512  37.781  1.00  0.00     0.173 A 
ATOM     77  F   UNL A   1      38.841  32.224  38.667  1.00  0.00    -0.203 F 
ATOM     78  C   UNL A   1      39.724  34.059  39.843  1.00  0.00     0.198 A 
ATOM     79  C   UNL A   1      41.539  35.322  38.914  1.00  0.00     0.198 A 
ATOM     80  F   UNL A   1      42.399  34.773  36.796  1.00  0.00    -0.203 F 
ATOM     81  F   UNL A   1      38.819  33.866  40.813  1.00  0.00    -0.200 F 
ATOM     82  C   UNL A   1      40.632  35.102  39.938  1.00  0.00     0.200 A 
ATOM     83  F   UNL A   1      42.427  36.321  39.011  1.00  0.00    -0.200 F 
ATOM     84  F   UNL A   1      40.626  35.900  41.014  1.00  0.00    -0.200 F 
ENDBRANCH  60  74
BRANCH  61  85
ATOM     85  C   UNL A   1      40.518  28.044  29.174  1.00  0.00     0.064 A 
ATOM     86  C   UNL A   1      39.759  26.873  29.039  1.00  0.00     0.173 A 
ATOM     87  C   UNL A   1      41.273  28.460  28.067  1.00  0.00     0.173 A 
ATOM     88  F   UNL A   1      39.024  26.429  30.069  1.00  0.00    -0.203 F 
ATOM     89  C   UNL A   1      39.780  26.131  27.859  1.00  0.00     0.198 A 
ATOM     90  C   UNL A   1      41.264  27.738  26.875  1.00  0.00     0.198 A 
ATOM     91  F   UNL A   1      42.004  29.582  28.136  1.00  0.00    -0.203 F 
ATOM     92  F   UNL A   1      39.086  24.988  27.777  1.00  0.00    -0.200 F 
ATOM     93  C   UNL A   1      40.528  26.568  26.776  1.00  0.00     0.200 A 
ATOM     94  F   UNL A   1      41.969  28.178  25.824  1.00  0.00    -0.200 F 
ATOM     95  F   UNL A   1      40.544  25.859  25.640  1.00  0.00    -0.200 F 
ENDBRANCH  61  85
BRANCH  73  96
ATOM     96  C   UNL A   1      44.544  28.071  34.875  1.00  0.00     0.064 A 
ATOM     97  C   UNL A   1      45.859  28.483  34.621  1.00  0.00     0.173 A 
ATOM     98  C   UNL A   1      44.352  26.870  35.574  1.00  0.00     0.173 A 
ATOM     99  F   UNL A   1      46.095  29.619  33.947  1.00  0.00    -0.203 F 
ATOM    100  C   UNL A   1      46.941  27.704  35.023  1.00  0.00     0.198 A 
ATOM    101  C   UNL A   1      45.434  26.116  36.012  1.00  0.00     0.198 A 
ATOM    102  F   UNL A   1      43.112  26.438  35.852  1.00  0.00    -0.203 F 
ATOM    103  F   UNL A   1      48.188  28.086  34.718  1.00  0.00    -0.200 F 
ATOM    104  C   UNL A   1      46.728  26.528  35.727  1.00  0.00     0.200 A 
ATOM    105  F   UNL A   1      45.227  24.993  36.713  1.00  0.00    -0.200 F 
ATOM    106  F   UNL A   1      47.770  25.787  36.126  1.00  0.00    -0.200 F 
ENDBRANCH  73  96
ENDBRANCH  47  48
ENDBRANCH  39  42
ENDBRANCH  37  38
ENDBRANCH  36  37
ENDBRANCH  35  36
ENDBRANCH   1  35
TORSDOF 18
ENDMDL
MODEL 2
REMARK VINA RESULT:     -13.8      5.816     11.238
REMARK SMILES CC(C)[C@@H]1C(=O)Nc2ccccc2N1C(=O)N[C@H](Cc1ccccc1)C(=O)NCCCCCCNC(=O)c1ccc(-c2c3nc(c(-c4c(F)c(F)c(F)c(F)c4F)c4ccc([nH]4)c(-c4c(F)c(F)c(F)c(F)c4F)c4nc(c(-c5c(F)c(F)c(F)c(F)c5F)c5ccc2[nH]5)C=C4)C=C3)cc1
REMARK SMILES IDX 31 1 30 2 29 3 28 4 26 5 27 6 18 8 17 9 15 10 16 11 14 13
REMARK SMILES IDX 4 14 5 15 6 16 7 17 13 18 8 19 12 21 9 22 11 23 10 24 2 25
REMARK SMILES IDX 1 26 3 27 19 28 20 29 21 30 25 31 22 32 24 33 23 34 32 35
REMARK SMILES IDX 33 36 34 37 35 38 36 39 37 41 38 42 39 43 100 44 40 45 99 46
REMARK SMILES IDX 41 47 42 48 43 49 93 50 44 51 98 52 92 53 94 54 45 55 97 56
REMARK SMILES IDX 91 57 90 58 46 60 78 61 58 62 77 63 59 64 62 65 76 66 95 67
REMARK SMILES IDX 60 68 61 69 75 71 96 72 63 73 47 74 48 75 56 76 49 77 50 78
REMARK SMILES IDX 54 79 57 80 51 81 52 82 55 83 53 84 79 85 80 86 88 87 81 88
REMARK SMILES IDX 82 89 86 90 89 91 83 92 84 93 87 94 85 95 64 96 65 97 73 98
REMARK SMILES IDX 66 99 67 100 71 101 74 102 68 103 69 104 72 105 70 106
REMARK H PARENT 28 7 17 12 7 20 35 40 94 59 62 70
REMARK Flexibility Score: inf
ROOT
ATOM      1  C   UNL A   1      40.623  21.871  26.497  1.00  0.00     0.002 C 
ENDROOT
BRANCH   1   2
ATOM      2  C   UNL A   1      39.791  23.069  26.925  1.00  0.00     0.021 C 
BRANCH   2   3
ATOM      3  C   UNL A   1      38.343  23.535  26.273  1.00  0.00     0.116 C 
BRANCH   3   4
ATOM      4  N   UNL A   1      37.370  23.223  24.492  1.00  0.00    -0.354 N 
ATOM      5  C   UNL A   1      36.093  23.512  23.664  1.00  0.00     0.242 C 
ATOM      6  O   UNL A   1      36.077  22.967  22.549  1.00  0.00    -0.273 OA
ATOM      7  H   UNL A   1      37.955  22.658  23.938  1.00  0.00     0.163 HD
BRANCH   5   8
ATOM      8  C   UNL A   1      34.646  24.490  24.154  1.00  0.00     0.177 C 
BRANCH   8   9
ATOM      9  N   UNL A   1      34.484  25.246  22.952  1.00  0.00    -0.326 N 
ATOM     10  C   UNL A   1      33.417  24.921  22.166  1.00  0.00     0.323 C 
ATOM     11  O   UNL A   1      33.385  25.314  21.005  1.00  0.00    -0.248 OA
ATOM     12  H   UNL A   1      35.111  25.964  22.704  1.00  0.00     0.166 HD
BRANCH  10  13
ATOM     13  N   UNL A   1      32.343  24.358  22.855  1.00  0.00    -0.280 N 
ATOM     14  C   UNL A   1      32.130  22.819  24.076  1.00  0.00     0.184 C 
ATOM     15  C   UNL A   1      30.789  23.003  25.505  1.00  0.00     0.247 C 
ATOM     16  O   UNL A   1      30.578  22.148  26.367  1.00  0.00    -0.272 OA
ATOM     17  N   UNL A   1      29.864  24.445  25.502  1.00  0.00    -0.322 N 
ATOM     18  C   UNL A   1      31.216  25.800  23.178  1.00  0.00     0.070 A 
ATOM     19  C   UNL A   1      30.026  25.781  24.397  1.00  0.00     0.065 A 
ATOM     20  H   UNL A   1      29.170  24.525  26.195  1.00  0.00     0.170 HD
ATOM     21  C   UNL A   1      31.206  26.933  22.383  1.00  0.00     0.028 A 
ATOM     22  C   UNL A   1      28.984  26.695  24.403  1.00  0.00     0.028 A 
ATOM     23  C   UNL A   1      30.114  27.835  22.512  1.00  0.00     0.002 A 
ATOM     24  C   UNL A   1      29.024  27.685  23.421  1.00  0.00     0.002 A 
BRANCH  14  25
ATOM     25  C   UNL A   1      32.268  21.301  23.728  1.00  0.00     0.015 C 
ATOM     26  C   UNL A   1      32.009  20.999  22.264  1.00  0.00     0.010 C 
ATOM     27  C   UNL A   1      33.485  20.688  24.522  1.00  0.00     0.010 C 
ENDBRANCH  14  25
ENDBRANCH  10  13
ENDBRANCH   8   9
BRANCH   8  28
ATOM     28  C   UNL A   1      34.412  25.636  25.293  1.00  0.00     0.070 C 
BRANCH  28  29
ATOM     29  C   UNL A   1      33.642  26.940  25.602  1.00  0.00    -0.045 A 
ATOM     30  C   UNL A   1      33.842  28.024  24.684  1.00  0.00     0.004 A 
ATOM     31  C   UNL A   1      32.564  27.097  26.462  1.00  0.00     0.004 A 
ATOM     32  C   UNL A   1      33.043  29.167  24.601  1.00  0.00     0.000 A 
ATOM     33  C   UNL A   1      31.751  28.261  26.393  1.00  0.00     0.000 A 
ATOM     34  C   UNL A   1      31.978  29.284  25.462  1.00  0.00     0.000 A 
ENDBRANCH  28  29
ENDBRANCH   8  28
ENDBRANCH   5   8
ENDBRANCH   3   4
ENDBRANCH   2   3
ENDBRANCH   1   2
BRANCH   1  35
ATOM     35  C   UNL A   1      41.373  21.172  27.613  1.00  0.00     0.002 C 
BRANCH  35  36
ATOM     36  C   UNL A   1      41.778  19.748  27.264  1.00  0.00     0.021 C 
BRANCH  36  37
ATOM     37  C   UNL A   1      41.873  19.577  25.763  1.00  0.00     0.116 C 
BRANCH  37  38
ATOM     38  N   UNL A   1      43.168  18.987  25.436  1.00  0.00    -0.352 N 
ATOM     39  C   UNL A   1      44.208  19.637  24.816  1.00  0.00     0.251 C 
ATOM     40  H   UNL A   1      43.308  18.044  25.680  1.00  0.00     0.163 HD
ATOM     41  O   UNL A   1      44.971  19.052  24.059  1.00  0.00    -0.269 OA
BRANCH  39  42
ATOM     42  C   UNL A   1      44.372  21.068  25.121  1.00  0.00     0.039 A 
ATOM     43  C   UNL A   1      43.931  22.048  24.236  1.00  0.00     0.014 A 
ATOM     44  C   UNL A   1      44.947  21.414  26.347  1.00  0.00     0.014 A 
ATOM     45  C   UNL A   1      44.057  23.385  24.605  1.00  0.00     0.010 A 
ATOM     46  C   UNL A   1      44.874  22.713  26.790  1.00  0.00     0.010 A 
ATOM     47  C   UNL A   1      44.510  23.719  25.894  1.00  0.00    -0.014 A 
BRANCH  47  48
ATOM     48  C   UNL A   1      44.721  25.114  26.325  1.00  0.00     0.031 A 
ATOM     49  C   UNL A   1      46.105  25.704  26.220  1.00  0.00     0.074 A 
ATOM     50  C   UNL A   1      43.702  25.797  26.873  1.00  0.00     0.049 A 
ATOM     51  N   UNL A   1      46.542  26.864  26.634  1.00  0.00    -0.248 NA
ATOM     52  C   UNL A   1      47.155  24.856  25.624  1.00  0.00     0.031 C 
ATOM     53  C   UNL A   1      42.350  25.277  27.086  1.00  0.00     0.029 A 
ATOM     54  N   UNL A   1      43.649  27.075  27.357  1.00  0.00    -0.354 N 
ATOM     55  C   UNL A   1      47.907  26.861  26.376  1.00  0.00     0.074 A 
ATOM     56  C   UNL A   1      48.249  25.556  25.868  1.00  0.00     0.031 C 
ATOM     57  C   UNL A   1      41.585  26.248  27.608  1.00  0.00     0.029 A 
ATOM     58  C   UNL A   1      42.408  27.433  27.818  1.00  0.00     0.049 A 
ATOM     59  H   UNL A   1      44.426  27.680  27.372  1.00  0.00     0.167 HD
ATOM     60  C   UNL A   1      48.789  27.876  26.507  1.00  0.00     0.037 A 
ATOM     61  C   UNL A   1      41.994  28.593  28.357  1.00  0.00     0.037 A 
ATOM     62  C   UNL A   1      48.413  29.181  26.971  1.00  0.00     0.049 A 
ATOM     63  C   UNL A   1      42.992  29.712  28.486  1.00  0.00     0.074 A 
ATOM     64  C   UNL A   1      49.192  30.317  27.080  1.00  0.00     0.029 A 
ATOM     65  N   UNL A   1      47.138  29.520  27.405  1.00  0.00    -0.354 N 
ATOM     66  N   UNL A   1      44.263  29.731  28.161  1.00  0.00    -0.248 NA
ATOM     67  C   UNL A   1      42.497  30.973  29.048  1.00  0.00     0.031 C 
ATOM     68  C   UNL A   1      48.406  31.322  27.649  1.00  0.00     0.029 A 
ATOM     69  C   UNL A   1      47.116  30.840  27.817  1.00  0.00     0.049 A 
ATOM     70  H   UNL A   1      46.364  28.910  27.418  1.00  0.00     0.167 HD
ATOM     71  C   UNL A   1      44.714  31.010  28.450  1.00  0.00     0.074 A 
ATOM     72  C   UNL A   1      43.572  31.744  28.958  1.00  0.00     0.031 C 
ATOM     73  C   UNL A   1      45.956  31.537  28.311  1.00  0.00     0.037 A 
BRANCH  60  74
ATOM     74  C   UNL A   1      50.223  27.615  26.140  1.00  0.00     0.064 A 
ATOM     75  C   UNL A   1      51.199  27.326  27.109  1.00  0.00     0.173 A 
ATOM     76  C   UNL A   1      50.626  27.638  24.796  1.00  0.00     0.173 A 
ATOM     77  F   UNL A   1      50.876  27.310  28.411  1.00  0.00    -0.203 F 
ATOM     78  C   UNL A   1      52.527  27.107  26.749  1.00  0.00     0.198 A 
ATOM     79  C   UNL A   1      51.945  27.376  24.438  1.00  0.00     0.198 A 
ATOM     80  F   UNL A   1      49.739  27.911  23.828  1.00  0.00    -0.203 F 
ATOM     81  F   UNL A   1      53.450  26.899  27.698  1.00  0.00    -0.200 F 
ATOM     82  C   UNL A   1      52.896  27.121  25.413  1.00  0.00     0.200 A 
ATOM     83  F   UNL A   1      52.298  27.377  23.144  1.00  0.00    -0.200 F 
ATOM     84  F   UNL A   1      54.171  26.897  25.067  1.00  0.00    -0.200 F 
ENDBRANCH  60  74
BRANCH  61  85
ATOM     85  C   UNL A   1      40.579  28.754  28.779  1.00  0.00     0.064 A 
ATOM     86  C   UNL A   1      39.586  29.112  27.856  1.00  0.00     0.173 A 
ATOM     87  C   UNL A   1      40.185  28.545  30.109  1.00  0.00     0.173 A 
ATOM     88  F   UNL A   1      39.911  29.329  26.573  1.00  0.00    -0.203 F 
ATOM     89  C   UNL A   1      38.261  29.285  28.253  1.00  0.00     0.198 A 
ATOM     90  C   UNL A   1      38.855  28.682  30.497  1.00  0.00     0.198 A 
ATOM     91  F   UNL A   1      41.091  28.185  31.029  1.00  0.00    -0.203 F 
ATOM     92  F   UNL A   1      37.344  29.679  27.360  1.00  0.00    -0.200 F 
ATOM     93  C   UNL A   1      37.896  29.065  29.572  1.00  0.00     0.200 A 
ATOM     94  F   UNL A   1      38.502  28.444  31.768  1.00  0.00    -0.200 F 
ATOM     95  F   UNL A   1      36.621  29.226  29.953  1.00  0.00    -0.200 F 
ENDBRANCH  61  85
BRANCH  73  96
ATOM     96  C   UNL A   1      46.131  32.982  28.674  1.00  0.00     0.064 A 
ATOM     97  C   UNL A   1      46.526  33.378  29.960  1.00  0.00     0.173 A 
ATOM     98  C   UNL A   1      45.951  33.978  27.703  1.00  0.00     0.173 A 
ATOM     99  F   UNL A   1      46.701  32.464  30.926  1.00  0.00    -0.203 F 
ATOM    100  C   UNL A   1      46.700  34.724  30.269  1.00  0.00     0.198 A 
ATOM    101  C   UNL A   1      46.168  35.318  28.003  1.00  0.00     0.198 A 
ATOM    102  F   UNL A   1      45.586  33.649  26.454  1.00  0.00    -0.203 F 
ATOM    103  F   UNL A   1      47.019  35.085  31.519  1.00  0.00    -0.200 F 
ATOM    104  C   UNL A   1      46.532  35.691  29.289  1.00  0.00     0.200 A 
ATOM    105  F   UNL A   1      46.029  36.248  27.049  1.00  0.00    -0.200 F 
ATOM    106  F   UNL A   1      46.715  36.984  29.584  1.00  0.00    -0.200 F 
ENDBRANCH  73  96
ENDBRANCH  47  48
ENDBRANCH  39  42
ENDBRANCH  37  38
ENDBRANCH  36  37
ENDBRANCH  35  36
ENDBRANCH   1  35
TORSDOF 18
ENDMDL
MODEL 3
REMARK VINA RESULT:     -13.8      0.669      7.123
REMARK SMILES CC(C)[C@@H]1C(=O)Nc2ccccc2N1C(=O)N[C@H](Cc1ccccc1)C(=O)NCCCCCCNC(=O)c1ccc(-c2c3nc(c(-c4c(F)c(F)c(F)c(F)c4F)c4ccc([nH]4)c(-c4c(F)c(F)c(F)c(F)c4F)c4nc(c(-c5c(F)c(F)c(F)c(F)c5F)c5ccc2[nH]5)C=C4)C=C3)cc1
REMARK SMILES IDX 31 1 30 2 29 3 28 4 26 5 27 6 18 8 17 9 15 10 16 11 14 13
REMARK SMILES IDX 4 14 5 15 6 16 7 17 13 18 8 19 12 21 9 22 11 23 10 24 2 25
REMARK SMILES IDX 1 26 3 27 19 28 20 29 21 30 25 31 22 32 24 33 23 34 32 35
REMARK SMILES IDX 33 36 34 37 35 38 36 39 37 41 38 42 39 43 100 44 40 45 99 46
REMARK SMILES IDX 41 47 42 48 43 49 93 50 44 51 98 52 92 53 94 54 45 55 97 56
REMARK SMILES IDX 91 57 90 58 46 60 78 61 58 62 77 63 59 64 62 65 76 66 95 67
REMARK SMILES IDX 60 68 61 69 75 71 96 72 63 73 47 74 48 75 56 76 49 77 50 78
REMARK SMILES IDX 54 79 57 80 51 81 52 82 55 83 53 84 79 85 80 86 88 87 81 88
REMARK SMILES IDX 82 89 86 90 89 91 83 92 84 93 87 94 85 95 64 96 65 97 73 98
REMARK SMILES IDX 66 99 67 100 71 101 74 102 68 103 69 104 72 105 70 106
REMARK H PARENT 28 7 17 12 7 20 35 40 94 59 62 70
REMARK Flexibility Score: inf
ROOT
ATOM      1  C   UNL A   1      34.754  32.409  28.174  1.00  0.00     0.002 C 
ENDROOT
BRANCH   1   2
ATOM      2  C   UNL A   1      35.563  31.153  27.888  1.00  0.00     0.021 C 
BRANCH   2   3
ATOM      3  C   UNL A   1      34.959  29.627  27.688  1.00  0.00     0.116 C 
BRANCH   3   4
ATOM      4  N   UNL A   1      33.088  28.783  27.662  1.00  0.00    -0.354 N 
ATOM      5  C   UNL A   1      32.228  27.591  27.173  1.00  0.00     0.242 C 
ATOM      6  O   UNL A   1      31.029  27.667  27.486  1.00  0.00    -0.273 OA
ATOM      7  H   UNL A   1      32.493  29.382  28.168  1.00  0.00     0.163 HD
BRANCH   5   8
ATOM      8  C   UNL A   1      32.759  26.167  26.182  1.00  0.00     0.177 C 
BRANCH   8   9
ATOM      9  N   UNL A   1      32.204  25.127  26.990  1.00  0.00    -0.326 N 
ATOM     10  C   UNL A   1      31.095  24.501  26.499  1.00  0.00     0.323 C 
ATOM     11  O   UNL A   1      30.407  23.822  27.253  1.00  0.00    -0.248 OA
ATOM     12  H   UNL A   1      32.600  24.877  27.855  1.00  0.00     0.166 HD
BRANCH  10  13
ATOM     13  N   UNL A   1      30.992  24.514  25.108  1.00  0.00    -0.280 N 
ATOM     14  C   UNL A   1      30.989  25.930  23.731  1.00  0.00     0.184 C 
ATOM     15  C   UNL A   1      31.803  25.479  21.996  1.00  0.00     0.247 C 
ATOM     16  O   UNL A   1      31.916  26.272  21.060  1.00  0.00    -0.272 OA
ATOM     17  N   UNL A   1      32.358  23.869  21.811  1.00  0.00    -0.322 N 
ATOM     18  C   UNL A   1      31.738  22.893  24.591  1.00  0.00     0.070 A 
ATOM     19  C   UNL A   1      32.319  22.611  23.015  1.00  0.00     0.065 A 
ATOM     20  H   UNL A   1      32.735  23.630  20.934  1.00  0.00     0.170 HD
ATOM     21  C   UNL A   1      31.771  21.787  25.423  1.00  0.00     0.028 A 
ATOM     22  C   UNL A   1      32.544  21.325  22.548  1.00  0.00     0.028 A 
ATOM     23  C   UNL A   1      32.071  20.522  24.846  1.00  0.00     0.002 A 
ATOM     24  C   UNL A   1      32.367  20.293  23.469  1.00  0.00     0.002 A 
BRANCH  14  25
ATOM     25  C   UNL A   1      29.894  27.021  23.486  1.00  0.00     0.015 C 
ATOM     26  C   UNL A   1      28.500  26.561  23.871  1.00  0.00     0.010 C 
ATOM     27  C   UNL A   1      30.464  28.436  23.882  1.00  0.00     0.010 C 
ENDBRANCH  14  25
ENDBRANCH  10  13
ENDBRANCH   8   9
BRANCH   8  28
ATOM     28  C   UNL A   1      34.226  25.549  25.821  1.00  0.00     0.070 C 
BRANCH  28  29
ATOM     29  C   UNL A   1      34.969  24.242  25.466  1.00  0.00    -0.045 A 
ATOM     30  C   UNL A   1      34.926  23.203  26.454  1.00  0.00     0.004 A 
ATOM     31  C   UNL A   1      35.405  23.835  24.212  1.00  0.00     0.004 A 
ATOM     32  C   UNL A   1      35.267  21.866  26.233  1.00  0.00     0.000 A 
ATOM     33  C   UNL A   1      35.765  22.479  23.980  1.00  0.00     0.000 A 
ATOM     34  C   UNL A   1      35.685  21.498  24.976  1.00  0.00     0.000 A 
ENDBRANCH  28  29
ENDBRANCH   8  28
ENDBRANCH   5   8
ENDBRANCH   3   4
ENDBRANCH   2   3
ENDBRANCH   1   2
BRANCH   1  35
ATOM     35  C   UNL A   1      35.559  33.687  28.284  1.00  0.00     0.002 C 
BRANCH  35  36
ATOM     36  C   UNL A   1      34.694  34.934  28.392  1.00  0.00     0.021 C 
BRANCH  36  37
ATOM     37  C   UNL A   1      33.309  34.576  28.889  1.00  0.00     0.116 C 
BRANCH  37  38
ATOM     38  N   UNL A   1      32.893  35.567  29.878  1.00  0.00    -0.352 N 
ATOM     39  C   UNL A   1      32.996  35.427  31.241  1.00  0.00     0.251 C 
ATOM     40  H   UNL A   1      32.506  36.406  29.540  1.00  0.00     0.163 HD
ATOM     41  O   UNL A   1      32.172  35.917  32.002  1.00  0.00    -0.269 OA
BRANCH  39  42
ATOM     42  C   UNL A   1      34.156  34.673  31.745  1.00  0.00     0.039 A 
ATOM     43  C   UNL A   1      34.068  33.311  32.018  1.00  0.00     0.014 A 
ATOM     44  C   UNL A   1      35.364  35.359  31.901  1.00  0.00     0.014 A 
ATOM     45  C   UNL A   1      35.214  32.638  32.434  1.00  0.00     0.010 A 
ATOM     46  C   UNL A   1      36.526  34.654  32.104  1.00  0.00     0.010 A 
ATOM     47  C   UNL A   1      36.452  33.306  32.457  1.00  0.00    -0.014 A 
BRANCH  47  48
ATOM     48  C   UNL A   1      37.689  32.667  32.942  1.00  0.00     0.031 A 
ATOM     49  C   UNL A   1      38.367  31.641  32.069  1.00  0.00     0.074 A 
ATOM     50  C   UNL A   1      38.138  32.949  34.177  1.00  0.00     0.049 A 
ATOM     51  N   UNL A   1      39.395  30.880  32.333  1.00  0.00    -0.248 NA
ATOM     52  C   UNL A   1      37.774  31.391  30.741  1.00  0.00     0.031 C 
ATOM     53  C   UNL A   1      37.501  33.870  35.121  1.00  0.00     0.029 A 
ATOM     54  N   UNL A   1      39.233  32.484  34.851  1.00  0.00    -0.354 N 
ATOM     55  C   UNL A   1      39.543  30.055  31.226  1.00  0.00     0.074 A 
ATOM     56  C   UNL A   1      38.445  30.328  30.332  1.00  0.00     0.031 C 
ATOM     57  C   UNL A   1      38.249  33.944  36.233  1.00  0.00     0.029 A 
ATOM     58  C   UNL A   1      39.380  33.033  36.100  1.00  0.00     0.049 A 
ATOM     59  H   UNL A   1      39.857  31.820  34.476  1.00  0.00     0.167 HD
ATOM     60  C   UNL A   1      40.536  29.179  30.957  1.00  0.00     0.037 A 
ATOM     61  C   UNL A   1      40.325  32.812  37.029  1.00  0.00     0.037 A 
ATOM     62  C   UNL A   1      41.643  28.959  31.844  1.00  0.00     0.049 A 
ATOM     63  C   UNL A   1      41.426  31.838  36.705  1.00  0.00     0.074 A 
ATOM     64  C   UNL A   1      42.751  28.155  31.658  1.00  0.00     0.029 A 
ATOM     65  N   UNL A   1      41.776  29.554  33.092  1.00  0.00    -0.354 N 
ATOM     66  N   UNL A   1      41.606  31.122  35.619  1.00  0.00    -0.248 NA
ATOM     67  C   UNL A   1      42.457  31.645  37.729  1.00  0.00     0.031 C 
ATOM     68  C   UNL A   1      43.518  28.208  32.825  1.00  0.00     0.029 A 
ATOM     69  C   UNL A   1      42.933  29.108  33.704  1.00  0.00     0.049 A 
ATOM     70  H   UNL A   1      41.141  30.197  33.482  1.00  0.00     0.167 HD
ATOM     71  C   UNL A   1      42.785  30.418  35.816  1.00  0.00     0.074 A 
ATOM     72  C   UNL A   1      43.286  30.810  37.119  1.00  0.00     0.031 C 
ATOM     73  C   UNL A   1      43.402  29.528  35.000  1.00  0.00     0.037 A 
BRANCH  60  74
ATOM     74  C   UNL A   1      40.469  28.412  29.667  1.00  0.00     0.064 A 
ATOM     75  C   UNL A   1      41.139  28.841  28.509  1.00  0.00     0.173 A 
ATOM     76  C   UNL A   1      39.736  27.218  29.589  1.00  0.00     0.173 A 
ATOM     77  F   UNL A   1      41.840  29.986  28.518  1.00  0.00    -0.203 F 
ATOM     78  C   UNL A   1      41.049  28.125  27.317  1.00  0.00     0.198 A 
ATOM     79  C   UNL A   1      39.682  26.483  28.408  1.00  0.00     0.198 A 
ATOM     80  F   UNL A   1      39.073  26.760  30.661  1.00  0.00    -0.203 F 
ATOM     81  F   UNL A   1      41.644  28.593  26.211  1.00  0.00    -0.200 F 
ATOM     82  C   UNL A   1      40.329  26.942  27.271  1.00  0.00     0.200 A 
ATOM     83  F   UNL A   1      38.997  25.332  28.368  1.00  0.00    -0.200 F 
ATOM     84  F   UNL A   1      40.252  26.247  26.128  1.00  0.00    -0.200 F 
ENDBRANCH  60  74
BRANCH  61  85
ATOM     85  C   UNL A   1      40.283  33.542  38.321  1.00  0.00     0.064 A 
ATOM     86  C   UNL A   1      41.096  34.663  38.546  1.00  0.00     0.173 A 
ATOM     87  C   UNL A   1      39.424  33.145  39.357  1.00  0.00     0.173 A 
ATOM     88  F   UNL A   1      41.939  35.080  37.589  1.00  0.00    -0.203 F 
ATOM     89  C   UNL A   1      41.075  35.337  39.765  1.00  0.00     0.198 A 
ATOM     90  C   UNL A   1      39.377  33.842  40.562  1.00  0.00     0.198 A 
ATOM     91  F   UNL A   1      38.614  32.091  39.190  1.00  0.00    -0.203 F 
ATOM     92  F   UNL A   1      41.901  36.372  39.969  1.00  0.00    -0.200 F 
ATOM     93  C   UNL A   1      40.211  34.929  40.770  1.00  0.00     0.200 A 
ATOM     94  F   UNL A   1      38.523  33.459  41.521  1.00  0.00    -0.200 F 
ATOM     95  F   UNL A   1      40.186  35.581  41.940  1.00  0.00    -0.200 F 
ENDBRANCH  61  85
BRANCH  73  96
ATOM     96  C   UNL A   1      44.704  28.952  35.475  1.00  0.00     0.064 A 
ATOM     97  C   UNL A   1      44.760  27.759  36.209  1.00  0.00     0.173 A 
ATOM     98  C   UNL A   1      45.913  29.580  35.142  1.00  0.00     0.173 A 
ATOM     99  F   UNL A   1      43.630  27.127  36.561  1.00  0.00    -0.203 F 
ATOM    100  C   UNL A   1      45.981  27.234  36.623  1.00  0.00     0.198 A 
ATOM    101  C   UNL A   1      47.132  29.030  35.519  1.00  0.00     0.198 A 
ATOM    102  F   UNL A   1      45.913  30.717  34.429  1.00  0.00    -0.203 F 
ATOM    103  F   UNL A   1      46.009  26.126  37.376  1.00  0.00    -0.200 F 
ATOM    104  C   UNL A   1      47.165  27.863  36.269  1.00  0.00     0.200 A 
ATOM    105  F   UNL A   1      48.276  29.625  35.155  1.00  0.00    -0.200 F 
ATOM    106  F   UNL A   1      48.340  27.349  36.656  1.00  0.00    -0.200 F 
ENDBRANCH  73  96
ENDBRANCH  47  48
ENDBRANCH  39  42
ENDBRANCH  37  38
ENDBRANCH  36  37
ENDBRANCH  35  36
ENDBRANCH   1  35
TORSDOF 18
ENDMDL
