MODEL 1
REMARK VINA RESULT:     -10.5      0.000      0.000
REMARK SMILES CCOC(=O)N[C@H]1C=C[C@H](C(=O)NCCCCCCNC(=O)c2ccc(-c3c4nc(c(-c5c(F)c(F)c(F)c(F)c5F)c5ccc([nH]5)c(-c5c(F)c(F)c(F)c(F)c5F)c5nc(c(-c6c(F)c(F)c(F)c(F)c6F)c6ccc3[nH]6)C=C5)C=C4)cc2)C1
REMARK SMILES IDX 16 1 15 2 14 3 13 4 11 5 12 6 10 8 7 9 8 10 86 11 9 12 6 13
REMARK SMILES IDX 4 14 5 15 3 17 2 18 1 19 17 20 18 21 19 22 20 23 21 24 22 26
REMARK SMILES IDX 23 27 24 28 85 29 25 30 84 31 26 32 27 33 28 34 78 35 29 36
REMARK SMILES IDX 83 37 77 38 79 39 30 40 82 41 76 42 75 43 31 45 63 46 43 47
REMARK SMILES IDX 62 48 44 49 47 50 61 51 80 52 45 53 46 54 60 56 81 57 48 58
REMARK SMILES IDX 32 59 33 60 41 61 34 62 35 63 39 64 42 65 36 66 37 67 40 68
REMARK SMILES IDX 38 69 64 70 65 71 73 72 66 73 67 74 71 75 74 76 68 77 69 78
REMARK SMILES IDX 72 79 70 80 49 81 50 82 58 83 51 84 52 85 56 86 59 87 53 88
REMARK SMILES IDX 54 89 57 90 55 91
REMARK H PARENT 13 7 6 16 20 25 79 44 47 55
REMARK Flexibility Score: inf
ROOT
ATOM      1  C   UNL A   1      34.614  32.039  28.920  1.00  0.00     0.002 C 
ENDROOT
BRANCH   1   2
ATOM      2  C   UNL A   1      35.282  31.491  27.654  1.00  0.00     0.021 C 
BRANCH   2   3
ATOM      3  C   UNL A   1      35.547  29.984  27.693  1.00  0.00     0.116 C 
BRANCH   3   4
ATOM      4  N   UNL A   1      34.331  29.257  27.998  1.00  0.00    -0.356 N 
ATOM      5  C   UNL A   1      33.341  28.825  27.161  1.00  0.00     0.227 C 
ATOM      6  O   UNL A   1      32.359  28.284  27.670  1.00  0.00    -0.274 OA
ATOM      7  H   UNL A   1      34.199  29.041  28.949  1.00  0.00     0.163 HD
BRANCH   5   8
ATOM      8  C   UNL A   1      33.533  28.971  25.646  1.00  0.00     0.103 C 
ATOM      9  C   UNL A   1      31.562  28.620  24.211  1.00  0.00     0.109 C 
ATOM     10  C   UNL A   1      32.493  27.458  24.168  1.00  0.00    -0.006 C 
ATOM     11  C   UNL A   1      32.377  29.694  24.938  1.00  0.00     0.047 C 
ATOM     12  C   UNL A   1      33.562  27.643  24.950  1.00  0.00    -0.016 C 
BRANCH   9  13
ATOM     13  N   UNL A   1      31.256  29.008  22.859  1.00  0.00    -0.315 N 
ATOM     14  C   UNL A   1      30.122  29.627  22.433  1.00  0.00     0.407 C 
ATOM     15  O   UNL A   1      29.931  29.862  21.246  1.00  0.00    -0.225 OA
ATOM     16  H   UNL A   1      31.935  28.807  22.175  1.00  0.00     0.167 HD
BRANCH  14  17
ATOM     17  O   UNL A   1      29.262  29.922  23.438  1.00  0.00    -0.450 OA
BRANCH  17  18
ATOM     18  C   UNL A   1      27.922  30.242  23.038  1.00  0.00     0.231 C 
ATOM     19  C   UNL A   1      27.386  31.443  23.796  1.00  0.00     0.049 C 
ENDBRANCH  17  18
ENDBRANCH  14  17
ENDBRANCH   9  13
ENDBRANCH   5   8
ENDBRANCH   3   4
ENDBRANCH   2   3
ENDBRANCH   1   2
BRANCH   1  20
ATOM     20  C   UNL A   1      34.767  33.549  29.128  1.00  0.00     0.002 C 
BRANCH  20  21
ATOM     21  C   UNL A   1      33.479  34.354  28.948  1.00  0.00     0.021 C 
BRANCH  21  22
ATOM     22  C   UNL A   1      33.569  35.803  29.421  1.00  0.00     0.116 C 
BRANCH  22  23
ATOM     23  N   UNL A   1      32.622  36.088  30.487  1.00  0.00    -0.352 N 
ATOM     24  C   UNL A   1      32.627  35.668  31.793  1.00  0.00     0.251 C 
ATOM     25  H   UNL A   1      31.868  36.668  30.234  1.00  0.00     0.163 HD
ATOM     26  O   UNL A   1      31.638  35.833  32.500  1.00  0.00    -0.269 OA
BRANCH  24  27
ATOM     27  C   UNL A   1      33.821  34.994  32.345  1.00  0.00     0.039 A 
ATOM     28  C   UNL A   1      33.690  33.702  32.860  1.00  0.00     0.014 A 
ATOM     29  C   UNL A   1      35.064  35.632  32.353  1.00  0.00     0.014 A 
ATOM     30  C   UNL A   1      34.820  33.023  33.320  1.00  0.00     0.010 A 
ATOM     31  C   UNL A   1      36.201  34.928  32.742  1.00  0.00     0.010 A 
ATOM     32  C   UNL A   1      36.091  33.614  33.224  1.00  0.00    -0.014 A 
BRANCH  32  33
ATOM     33  C   UNL A   1      37.320  32.866  33.598  1.00  0.00     0.031 A 
ATOM     34  C   UNL A   1      38.033  33.173  34.886  1.00  0.00     0.074 A 
ATOM     35  C   UNL A   1      37.831  31.960  32.741  1.00  0.00     0.049 A 
ATOM     36  N   UNL A   1      39.165  32.695  35.339  1.00  0.00    -0.248 NA
ATOM     37  C   UNL A   1      37.404  34.165  35.774  1.00  0.00     0.031 C 
ATOM     38  C   UNL A   1      37.252  31.599  31.445  1.00  0.00     0.029 A 
ATOM     39  N   UNL A   1      38.964  31.188  32.821  1.00  0.00    -0.354 N 
ATOM     40  C   UNL A   1      39.390  33.338  36.549  1.00  0.00     0.074 A 
ATOM     41  C   UNL A   1      38.301  34.267  36.746  1.00  0.00     0.031 C 
ATOM     42  C   UNL A   1      38.023  30.669  30.860  1.00  0.00     0.029 A 
ATOM     43  C   UNL A   1      39.177  30.403  31.712  1.00  0.00     0.049 A 
ATOM     44  H   UNL A   1      39.568  31.195  33.599  1.00  0.00     0.167 HD
ATOM     45  C   UNL A   1      40.409  33.155  37.422  1.00  0.00     0.037 A 
ATOM     46  C   UNL A   1      40.199  29.580  31.407  1.00  0.00     0.037 A 
ATOM     47  C   UNL A   1      41.477  32.206  37.237  1.00  0.00     0.049 A 
ATOM     48  C   UNL A   1      41.330  29.421  32.391  1.00  0.00     0.074 A 
ATOM     49  C   UNL A   1      42.511  31.895  38.103  1.00  0.00     0.029 A 
ATOM     50  N   UNL A   1      41.652  31.422  36.108  1.00  0.00    -0.354 N 
ATOM     51  N   UNL A   1      41.488  29.972  33.570  1.00  0.00    -0.248 NA
ATOM     52  C   UNL A   1      42.424  28.520  32.003  1.00  0.00     0.031 C 
ATOM     53  C   UNL A   1      43.350  30.975  37.470  1.00  0.00     0.029 A 
ATOM     54  C   UNL A   1      42.800  30.657  36.239  1.00  0.00     0.049 A 
ATOM     55  H   UNL A   1      41.050  31.410  35.328  1.00  0.00     0.167 HD
ATOM     56  C   UNL A   1      42.674  29.458  34.076  1.00  0.00     0.074 A 
ATOM     57  C   UNL A   1      43.186  28.536  33.086  1.00  0.00     0.031 C 
ATOM     58  C   UNL A   1      43.289  29.729  35.253  1.00  0.00     0.037 A 
BRANCH  45  59
ATOM     59  C   UNL A   1      40.437  33.995  38.666  1.00  0.00     0.064 A 
ATOM     60  C   UNL A   1      39.825  33.575  39.856  1.00  0.00     0.173 A 
ATOM     61  C   UNL A   1      41.172  35.191  38.693  1.00  0.00     0.173 A 
ATOM     62  F   UNL A   1      39.103  32.444  39.881  1.00  0.00    -0.203 F 
ATOM     63  C   UNL A   1      39.938  34.324  41.024  1.00  0.00     0.198 A 
ATOM     64  C   UNL A   1      41.309  35.922  39.870  1.00  0.00     0.198 A 
ATOM     65  F   UNL A   1      41.783  35.634  37.585  1.00  0.00    -0.203 F 
ATOM     66  F   UNL A   1      39.322  33.918  42.142  1.00  0.00    -0.200 F 
ATOM     67  C   UNL A   1      40.691  35.490  41.033  1.00  0.00     0.200 A 
ATOM     68  F   UNL A   1      42.051  37.039  39.881  1.00  0.00    -0.200 F 
ATOM     69  F   UNL A   1      40.821  36.197  42.164  1.00  0.00    -0.200 F 
ENDBRANCH  45  59
BRANCH  46  70
ATOM     70  C   UNL A   1      40.223  28.848  30.111  1.00  0.00     0.064 A 
ATOM     71  C   UNL A   1      40.840  29.402  28.980  1.00  0.00     0.173 A 
ATOM     72  C   UNL A   1      39.575  27.613  29.957  1.00  0.00     0.173 A 
ATOM     73  F   UNL A   1      41.455  30.591  29.067  1.00  0.00    -0.203 F 
ATOM     74  C   UNL A   1      40.770  28.773  27.738  1.00  0.00     0.198 A 
ATOM     75  C   UNL A   1      39.540  26.966  28.723  1.00  0.00     0.198 A 
ATOM     76  F   UNL A   1      38.972  27.034  31.006  1.00  0.00    -0.203 F 
ATOM     77  F   UNL A   1      41.302  29.364  26.659  1.00  0.00    -0.200 F 
ATOM     78  C   UNL A   1      40.121  27.554  27.612  1.00  0.00     0.200 A 
ATOM     79  F   UNL A   1      38.927  25.780  28.610  1.00  0.00    -0.200 F 
ATOM     80  F   UNL A   1      40.045  26.954  26.416  1.00  0.00    -0.200 F 
ENDBRANCH  46  70
BRANCH  58  81
ATOM     81  C   UNL A   1      44.556  28.981  35.560  1.00  0.00     0.064 A 
ATOM     82  C   UNL A   1      44.545  27.747  36.226  1.00  0.00     0.173 A 
ATOM     83  C   UNL A   1      45.797  29.494  35.150  1.00  0.00     0.173 A 
ATOM     84  F   UNL A   1      43.388  27.219  36.653  1.00  0.00    -0.203 F 
ATOM     85  C   UNL A   1      45.732  27.070  36.498  1.00  0.00     0.198 A 
ATOM     86  C   UNL A   1      46.977  28.797  35.389  1.00  0.00     0.198 A 
ATOM     87  F   UNL A   1      45.864  30.666  34.501  1.00  0.00    -0.203 F 
ATOM     88  F   UNL A   1      45.701  25.921  37.188  1.00  0.00    -0.200 F 
ATOM     89  C   UNL A   1      46.945  27.591  36.073  1.00  0.00     0.200 A 
ATOM     90  F   UNL A   1      48.145  29.293  34.961  1.00  0.00    -0.200 F 
ATOM     91  F   UNL A   1      48.084  26.934  36.328  1.00  0.00    -0.200 F 
ENDBRANCH  58  81
ENDBRANCH  32  33
ENDBRANCH  24  27
ENDBRANCH  22  23
ENDBRANCH  21  22
ENDBRANCH  20  21
ENDBRANCH   1  20
TORSDOF 16
ENDMDL
MODEL 2
REMARK VINA RESULT:     -10.4      7.056     11.759
REMARK SMILES CCOC(=O)N[C@H]1C=C[C@H](C(=O)NCCCCCCNC(=O)c2ccc(-c3c4nc(c(-c5c(F)c(F)c(F)c(F)c5F)c5ccc([nH]5)c(-c5c(F)c(F)c(F)c(F)c5F)c5nc(c(-c6c(F)c(F)c(F)c(F)c6F)c6ccc3[nH]6)C=C5)C=C4)cc2)C1
REMARK SMILES IDX 16 1 15 2 14 3 13 4 11 5 12 6 10 8 7 9 8 10 86 11 9 12 6 13
REMARK SMILES IDX 4 14 5 15 3 17 2 18 1 19 17 20 18 21 19 22 20 23 21 24 22 26
REMARK SMILES IDX 23 27 24 28 85 29 25 30 84 31 26 32 27 33 28 34 78 35 29 36
REMARK SMILES IDX 83 37 77 38 79 39 30 40 82 41 76 42 75 43 31 45 63 46 43 47
REMARK SMILES IDX 62 48 44 49 47 50 61 51 80 52 45 53 46 54 60 56 81 57 48 58
REMARK SMILES IDX 32 59 33 60 41 61 34 62 35 63 39 64 42 65 36 66 37 67 40 68
REMARK SMILES IDX 38 69 64 70 65 71 73 72 66 73 67 74 71 75 74 76 68 77 69 78
REMARK SMILES IDX 72 79 70 80 49 81 50 82 58 83 51 84 52 85 56 86 59 87 53 88
REMARK SMILES IDX 54 89 57 90 55 91
REMARK H PARENT 13 7 6 16 20 25 79 44 47 55
REMARK Flexibility Score: inf
ROOT
ATOM      1  C   UNL A   1      37.337  22.061  25.543  1.00  0.00     0.002 C 
ENDROOT
BRANCH   1   2
ATOM      2  C   UNL A   1      37.012  23.353  24.783  1.00  0.00     0.021 C 
BRANCH   2   3
ATOM      3  C   UNL A   1      36.086  24.304  25.544  1.00  0.00     0.116 C 
BRANCH   3   4
ATOM      4  N   UNL A   1      34.988  24.735  24.702  1.00  0.00    -0.356 N 
ATOM      5  C   UNL A   1      33.686  24.322  24.691  1.00  0.00     0.227 C 
ATOM      6  O   UNL A   1      32.946  24.789  23.824  1.00  0.00    -0.274 OA
ATOM      7  H   UNL A   1      35.213  25.428  24.041  1.00  0.00     0.163 HD
BRANCH   5   8
ATOM      8  C   UNL A   1      33.201  23.365  25.787  1.00  0.00     0.103 C 
ATOM      9  C   UNL A   1      32.415  21.138  25.086  1.00  0.00     0.109 C 
ATOM     10  C   UNL A   1      31.282  22.039  25.439  1.00  0.00    -0.006 C 
ATOM     11  C   UNL A   1      33.641  21.907  25.582  1.00  0.00     0.047 C 
ATOM     12  C   UNL A   1      31.705  23.251  25.815  1.00  0.00    -0.016 C 
BRANCH   9  13
ATOM     13  N   UNL A   1      32.244  19.895  25.792  1.00  0.00    -0.315 N 
ATOM     14  C   UNL A   1      32.679  18.671  25.389  1.00  0.00     0.407 C 
ATOM     15  O   UNL A   1      32.429  17.660  26.035  1.00  0.00    -0.225 OA
ATOM     16  H   UNL A   1      31.766  19.935  26.652  1.00  0.00     0.167 HD
BRANCH  14  17
ATOM     17  O   UNL A   1      33.376  18.705  24.227  1.00  0.00    -0.450 OA
BRANCH  17  18
ATOM     18  C   UNL A   1      34.460  17.770  24.123  1.00  0.00     0.231 C 
ATOM     19  C   UNL A   1      34.200  16.734  23.045  1.00  0.00     0.049 C 
ENDBRANCH  17  18
ENDBRANCH  14  17
ENDBRANCH   9  13
ENDBRANCH   5   8
ENDBRANCH   3   4
ENDBRANCH   2   3
ENDBRANCH   1   2
BRANCH   1  20
ATOM     20  C   UNL A   1      37.095  20.771  24.752  1.00  0.00     0.002 C 
BRANCH  20  21
ATOM     21  C   UNL A   1      38.134  19.672  24.985  1.00  0.00     0.021 C 
BRANCH  21  22
ATOM     22  C   UNL A   1      39.376  20.128  25.746  1.00  0.00     0.116 C 
BRANCH  22  23
ATOM     23  N   UNL A   1      40.349  19.058  25.893  1.00  0.00    -0.352 N 
ATOM     24  C   UNL A   1      41.704  19.133  26.095  1.00  0.00     0.251 C 
ATOM     25  H   UNL A   1      39.981  18.146  25.842  1.00  0.00     0.163 HD
ATOM     26  O   UNL A   1      42.403  18.130  25.988  1.00  0.00    -0.269 OA
BRANCH  24  27
ATOM     27  C   UNL A   1      42.328  20.432  26.422  1.00  0.00     0.039 A 
ATOM     28  C   UNL A   1      42.955  21.156  25.404  1.00  0.00     0.014 A 
ATOM     29  C   UNL A   1      42.296  20.935  27.725  1.00  0.00     0.014 A 
ATOM     30  C   UNL A   1      43.487  22.417  25.679  1.00  0.00     0.010 A 
ATOM     31  C   UNL A   1      42.760  22.223  27.982  1.00  0.00     0.010 A 
ATOM     32  C   UNL A   1      43.355  22.980  26.960  1.00  0.00    -0.014 A 
BRANCH  32  33
ATOM     33  C   UNL A   1      43.809  24.366  27.244  1.00  0.00     0.031 A 
ATOM     34  C   UNL A   1      42.826  25.409  27.701  1.00  0.00     0.074 A 
ATOM     35  C   UNL A   1      45.096  24.701  27.020  1.00  0.00     0.049 A 
ATOM     36  N   UNL A   1      43.014  26.688  27.908  1.00  0.00    -0.248 NA
ATOM     37  C   UNL A   1      41.444  24.960  27.935  1.00  0.00     0.031 C 
ATOM     38  C   UNL A   1      46.137  23.789  26.542  1.00  0.00     0.029 A 
ATOM     39  N   UNL A   1      45.746  25.904  27.147  1.00  0.00    -0.354 N 
ATOM     40  C   UNL A   1      41.777  27.197  28.278  1.00  0.00     0.074 A 
ATOM     41  C   UNL A   1      40.835  26.101  28.232  1.00  0.00     0.031 C 
ATOM     42  C   UNL A   1      47.294  24.459  26.431  1.00  0.00     0.029 A 
ATOM     43  C   UNL A   1      47.070  25.858  26.779  1.00  0.00     0.049 A 
ATOM     44  H   UNL A   1      45.305  26.723  27.471  1.00  0.00     0.167 HD
ATOM     45  C   UNL A   1      41.461  28.464  28.638  1.00  0.00     0.037 A 
ATOM     46  C   UNL A   1      47.992  26.838  26.708  1.00  0.00     0.037 A 
ATOM     47  C   UNL A   1      42.409  29.547  28.711  1.00  0.00     0.049 A 
ATOM     48  C   UNL A   1      47.598  28.242  27.090  1.00  0.00     0.074 A 
ATOM     49  C   UNL A   1      42.198  30.846  29.140  1.00  0.00     0.029 A 
ATOM     50  N   UNL A   1      43.742  29.459  28.342  1.00  0.00    -0.354 N 
ATOM     51  N   UNL A   1      46.444  28.693  27.519  1.00  0.00    -0.248 NA
ATOM     52  C   UNL A   1      48.639  29.274  26.983  1.00  0.00     0.031 C 
ATOM     53  C   UNL A   1      43.385  31.562  28.965  1.00  0.00     0.029 A 
ATOM     54  C   UNL A   1      44.355  30.692  28.496  1.00  0.00     0.049 A 
ATOM     55  H   UNL A   1      44.187  28.642  28.019  1.00  0.00     0.167 HD
ATOM     56  C   UNL A   1      46.632  30.046  27.766  1.00  0.00     0.074 A 
ATOM     57  C   UNL A   1      48.015  30.340  27.459  1.00  0.00     0.031 C 
ATOM     58  C   UNL A   1      45.738  30.967  28.204  1.00  0.00     0.037 A 
BRANCH  45  59
ATOM     59  C   UNL A   1      40.032  28.770  28.980  1.00  0.00     0.064 A 
ATOM     60  C   UNL A   1      39.115  29.200  28.011  1.00  0.00     0.173 A 
ATOM     61  C   UNL A   1      39.552  28.534  30.278  1.00  0.00     0.173 A 
ATOM     62  F   UNL A   1      39.524  29.448  26.757  1.00  0.00    -0.203 F 
ATOM     63  C   UNL A   1      37.773  29.391  28.328  1.00  0.00     0.198 A 
ATOM     64  C   UNL A   1      38.204  28.697  30.586  1.00  0.00     0.198 A 
ATOM     65  F   UNL A   1      40.386  28.115  31.242  1.00  0.00    -0.203 F 
ATOM     66  F   UNL A   1      36.920  29.829  27.392  1.00  0.00    -0.200 F 
ATOM     67  C   UNL A   1      37.317  29.127  29.611  1.00  0.00     0.200 A 
ATOM     68  F   UNL A   1      37.762  28.425  31.821  1.00  0.00    -0.200 F 
ATOM     69  F   UNL A   1      36.019  29.287  29.910  1.00  0.00    -0.200 F 
ENDBRANCH  45  59
BRANCH  46  70
ATOM     70  C   UNL A   1      49.375  26.545  26.244  1.00  0.00     0.064 A 
ATOM     71  C   UNL A   1      50.351  26.073  27.134  1.00  0.00     0.173 A 
ATOM     72  C   UNL A   1      49.770  26.790  24.920  1.00  0.00     0.173 A 
ATOM     73  F   UNL A   1      50.031  25.842  28.416  1.00  0.00    -0.203 F 
ATOM     74  C   UNL A   1      51.673  25.901  26.731  1.00  0.00     0.198 A 
ATOM     75  C   UNL A   1      51.084  26.580  24.508  1.00  0.00     0.198 A 
ATOM     76  F   UNL A   1      48.878  27.238  24.024  1.00  0.00    -0.203 F 
ATOM     77  F   UNL A   1      52.600  25.524  27.623  1.00  0.00    -0.200 F 
ATOM     78  C   UNL A   1      52.039  26.153  25.418  1.00  0.00     0.200 A 
ATOM     79  F   UNL A   1      51.429  26.808  23.234  1.00  0.00    -0.200 F 
ATOM     80  F   UNL A   1      53.313  25.999  25.032  1.00  0.00    -0.200 F 
ENDBRANCH  46  70
BRANCH  58  81
ATOM     81  C   UNL A   1      46.238  32.366  28.426  1.00  0.00     0.064 A 
ATOM     82  C   UNL A   1      46.175  33.344  27.422  1.00  0.00     0.173 A 
ATOM     83  C   UNL A   1      46.757  32.742  29.676  1.00  0.00     0.173 A 
ATOM     84  F   UNL A   1      45.702  33.033  26.206  1.00  0.00    -0.203 F 
ATOM     85  C   UNL A   1      46.643  34.636  27.651  1.00  0.00     0.198 A 
ATOM     86  C   UNL A   1      47.188  34.044  29.913  1.00  0.00     0.198 A 
ATOM     87  F   UNL A   1      46.831  31.849  30.674  1.00  0.00    -0.203 F 
ATOM     88  F   UNL A   1      46.627  35.536  26.658  1.00  0.00    -0.200 F 
ATOM     89  C   UNL A   1      47.140  34.987  28.897  1.00  0.00     0.200 A 
ATOM     90  F   UNL A   1      47.651  34.385  31.123  1.00  0.00    -0.200 F 
ATOM     91  F   UNL A   1      47.581  36.232  29.117  1.00  0.00    -0.200 F 
ENDBRANCH  58  81
ENDBRANCH  32  33
ENDBRANCH  24  27
ENDBRANCH  22  23
ENDBRANCH  21  22
ENDBRANCH  20  21
ENDBRANCH   1  20
TORSDOF 16
ENDMDL
MODEL 3
REMARK VINA RESULT:     -10.4      0.321      7.613
REMARK SMILES CCOC(=O)N[C@H]1C=C[C@H](C(=O)NCCCCCCNC(=O)c2ccc(-c3c4nc(c(-c5c(F)c(F)c(F)c(F)c5F)c5ccc([nH]5)c(-c5c(F)c(F)c(F)c(F)c5F)c5nc(c(-c6c(F)c(F)c(F)c(F)c6F)c6ccc3[nH]6)C=C5)C=C4)cc2)C1
REMARK SMILES IDX 16 1 15 2 14 3 13 4 11 5 12 6 10 8 7 9 8 10 86 11 9 12 6 13
REMARK SMILES IDX 4 14 5 15 3 17 2 18 1 19 17 20 18 21 19 22 20 23 21 24 22 26
REMARK SMILES IDX 23 27 24 28 85 29 25 30 84 31 26 32 27 33 28 34 78 35 29 36
REMARK SMILES IDX 83 37 77 38 79 39 30 40 82 41 76 42 75 43 31 45 63 46 43 47
REMARK SMILES IDX 62 48 44 49 47 50 61 51 80 52 45 53 46 54 60 56 81 57 48 58
REMARK SMILES IDX 32 59 33 60 41 61 34 62 35 63 39 64 42 65 36 66 37 67 40 68
REMARK SMILES IDX 38 69 64 70 65 71 73 72 66 73 67 74 71 75 74 76 68 77 69 78
REMARK SMILES IDX 72 79 70 80 49 81 50 82 58 83 51 84 52 85 56 86 59 87 53 88
REMARK SMILES IDX 54 89 57 90 55 91
REMARK H PARENT 13 7 6 16 20 25 79 44 47 55
REMARK Flexibility Score: inf
ROOT
ATOM      1  C   UNL A   1      34.677  31.978  28.900  1.00  0.00     0.002 C 
ENDROOT
BRANCH   1   2
ATOM      2  C   UNL A   1      35.366  31.400  27.657  1.00  0.00     0.021 C 
BRANCH   2   3
ATOM      3  C   UNL A   1      35.585  29.887  27.715  1.00  0.00     0.116 C 
BRANCH   3   4
ATOM      4  N   UNL A   1      34.344  29.199  28.013  1.00  0.00    -0.356 N 
ATOM      5  C   UNL A   1      33.339  28.815  27.171  1.00  0.00     0.227 C 
ATOM      6  O   UNL A   1      32.338  28.302  27.673  1.00  0.00    -0.274 OA
ATOM      7  H   UNL A   1      34.205  28.976  28.961  1.00  0.00     0.163 HD
BRANCH   5   8
ATOM      8  C   UNL A   1      33.535  28.974  25.658  1.00  0.00     0.103 C 
ATOM      9  C   UNL A   1      31.565  28.647  24.216  1.00  0.00     0.109 C 
ATOM     10  C   UNL A   1      32.489  27.481  24.163  1.00  0.00    -0.006 C 
ATOM     11  C   UNL A   1      32.384  29.709  24.954  1.00  0.00     0.047 C 
ATOM     12  C   UNL A   1      33.557  27.652  24.949  1.00  0.00    -0.016 C 
BRANCH   9  13
ATOM     13  N   UNL A   1      31.264  29.050  22.866  1.00  0.00    -0.315 N 
ATOM     14  C   UNL A   1      30.124  29.657  22.440  1.00  0.00     0.407 C 
ATOM     15  O   UNL A   1      29.938  29.906  21.254  1.00  0.00    -0.225 OA
ATOM     16  H   UNL A   1      31.951  28.869  22.185  1.00  0.00     0.167 HD
BRANCH  14  17
ATOM     17  O   UNL A   1      29.251  29.924  23.442  1.00  0.00    -0.450 OA
BRANCH  17  18
ATOM     18  C   UNL A   1      27.902  30.200  23.037  1.00  0.00     0.231 C 
ATOM     19  C   UNL A   1      27.311  31.358  23.819  1.00  0.00     0.049 C 
ENDBRANCH  17  18
ENDBRANCH  14  17
ENDBRANCH   9  13
ENDBRANCH   5   8
ENDBRANCH   3   4
ENDBRANCH   2   3
ENDBRANCH   1   2
BRANCH   1  20
ATOM     20  C   UNL A   1      34.816  33.494  29.067  1.00  0.00     0.002 C 
BRANCH  20  21
ATOM     21  C   UNL A   1      33.526  34.285  28.840  1.00  0.00     0.021 C 
BRANCH  21  22
ATOM     22  C   UNL A   1      33.546  35.701  29.410  1.00  0.00     0.116 C 
BRANCH  22  23
ATOM     23  N   UNL A   1      32.588  35.865  30.491  1.00  0.00    -0.352 N 
ATOM     24  C   UNL A   1      32.645  35.408  31.784  1.00  0.00     0.251 C 
ATOM     25  H   UNL A   1      31.781  36.381  30.263  1.00  0.00     0.163 HD
ATOM     26  O   UNL A   1      31.652  35.459  32.503  1.00  0.00    -0.269 OA
BRANCH  24  27
ATOM     27  C   UNL A   1      33.901  34.829  32.305  1.00  0.00     0.039 A 
ATOM     28  C   UNL A   1      33.881  33.536  32.834  1.00  0.00     0.014 A 
ATOM     29  C   UNL A   1      35.093  35.558  32.271  1.00  0.00     0.014 A 
ATOM     30  C   UNL A   1      35.072  32.947  33.265  1.00  0.00     0.010 A 
ATOM     31  C   UNL A   1      36.289  34.943  32.632  1.00  0.00     0.010 A 
ATOM     32  C   UNL A   1      36.292  33.629  33.127  1.00  0.00    -0.014 A 
BRANCH  32  33
ATOM     33  C   UNL A   1      37.583  32.978  33.470  1.00  0.00     0.031 A 
ATOM     34  C   UNL A   1      38.187  31.955  32.546  1.00  0.00     0.074 A 
ATOM     35  C   UNL A   1      38.173  33.256  34.649  1.00  0.00     0.049 A 
ATOM     36  N   UNL A   1      39.253  31.215  32.717  1.00  0.00    -0.248 NA
ATOM     37  C   UNL A   1      37.490  31.718  31.272  1.00  0.00     0.031 C 
ATOM     38  C   UNL A   1      37.667  34.202  35.646  1.00  0.00     0.029 A 
ATOM     39  N   UNL A   1      39.319  32.758  35.220  1.00  0.00    -0.354 N 
ATOM     40  C   UNL A   1      39.343  30.415  31.585  1.00  0.00     0.074 A 
ATOM     41  C   UNL A   1      38.206  30.730  30.750  1.00  0.00     0.031 C 
ATOM     42  C   UNL A   1      38.503  34.226  36.697  1.00  0.00     0.029 A 
ATOM     43  C   UNL A   1      39.576  33.264  36.473  1.00  0.00     0.049 A 
ATOM     44  H   UNL A   1      39.901  32.102  34.775  1.00  0.00     0.167 HD
ATOM     45  C   UNL A   1      40.299  29.510  31.268  1.00  0.00     0.037 A 
ATOM     46  C   UNL A   1      40.554  32.966  37.351  1.00  0.00     0.037 A 
ATOM     47  C   UNL A   1      41.447  29.220  32.089  1.00  0.00     0.049 A 
ATOM     48  C   UNL A   1      41.586  31.934  36.975  1.00  0.00     0.074 A 
ATOM     49  C   UNL A   1      42.508  28.375  31.816  1.00  0.00     0.029 A 
ATOM     50  N   UNL A   1      41.679  29.759  33.345  1.00  0.00    -0.354 N 
ATOM     51  N   UNL A   1      41.706  31.246  35.866  1.00  0.00    -0.248 NA
ATOM     52  C   UNL A   1      42.623  31.640  37.975  1.00  0.00     0.031 C 
ATOM     53  C   UNL A   1      43.347  28.350  32.933  1.00  0.00     0.029 A 
ATOM     54  C   UNL A   1      42.847  29.234  33.874  1.00  0.00     0.049 A 
ATOM     55  H   UNL A   1      41.100  30.418  33.794  1.00  0.00     0.167 HD
ATOM     56  C   UNL A   1      42.847  30.470  36.020  1.00  0.00     0.074 A 
ATOM     57  C   UNL A   1      43.396  30.786  37.322  1.00  0.00     0.031 C 
ATOM     58  C   UNL A   1      43.392  29.571  35.163  1.00  0.00     0.037 A 
BRANCH  45  59
ATOM     59  C   UNL A   1      40.160  28.751  29.980  1.00  0.00     0.064 A 
ATOM     60  C   UNL A   1      40.744  29.204  28.789  1.00  0.00     0.173 A 
ATOM     61  C   UNL A   1      39.515  27.504  29.963  1.00  0.00     0.173 A 
ATOM     62  F   UNL A   1      41.365  30.393  28.750  1.00  0.00    -0.203 F 
ATOM     63  C   UNL A   1      40.681  28.442  27.625  1.00  0.00     0.198 A 
ATOM     64  C   UNL A   1      39.480  26.731  28.805  1.00  0.00     0.198 A 
ATOM     65  F   UNL A   1      38.945  27.022  31.077  1.00  0.00    -0.203 F 
ATOM     66  F   UNL A   1      41.223  28.907  26.491  1.00  0.00    -0.200 F 
ATOM     67  C   UNL A   1      40.061  27.201  27.638  1.00  0.00     0.200 A 
ATOM     68  F   UNL A   1      38.895  25.525  28.824  1.00  0.00    -0.200 F 
ATOM     69  F   UNL A   1      40.023  26.457  26.523  1.00  0.00    -0.200 F 
ENDBRANCH  45  59
BRANCH  46  70
ATOM     70  C   UNL A   1      40.608  33.635  38.680  1.00  0.00     0.064 A 
ATOM     71  C   UNL A   1      39.739  33.258  39.714  1.00  0.00     0.173 A 
ATOM     72  C   UNL A   1      41.483  34.704  38.925  1.00  0.00     0.173 A 
ATOM     73  F   UNL A   1      38.868  32.255  39.525  1.00  0.00    -0.203 F 
ATOM     74  C   UNL A   1      39.710  33.952  40.922  1.00  0.00     0.198 A 
ATOM     75  C   UNL A   1      41.480  35.372  40.148  1.00  0.00     0.198 A 
ATOM     76  F   UNL A   1      42.340  35.105  37.974  1.00  0.00    -0.203 F 
ATOM     77  F   UNL A   1      38.815  33.620  41.862  1.00  0.00    -0.200 F 
ATOM     78  C   UNL A   1      40.582  35.008  41.139  1.00  0.00     0.200 A 
ATOM     79  F   UNL A   1      42.337  36.381  40.359  1.00  0.00    -0.200 F 
ATOM     80  F   UNL A   1      40.547  35.683  42.296  1.00  0.00    -0.200 F 
ENDBRANCH  46  70
BRANCH  58  81
ATOM     81  C   UNL A   1      44.671  28.903  35.582  1.00  0.00     0.064 A 
ATOM     82  C   UNL A   1      45.926  29.455  35.287  1.00  0.00     0.173 A 
ATOM     83  C   UNL A   1      44.637  27.709  36.320  1.00  0.00     0.173 A 
ATOM     84  F   UNL A   1      46.015  30.587  34.572  1.00  0.00    -0.203 F 
ATOM     85  C   UNL A   1      47.099  28.819  35.686  1.00  0.00     0.198 A 
ATOM     86  C   UNL A   1      45.810  27.097  36.751  1.00  0.00     0.198 A 
ATOM     87  F   UNL A   1      43.463  27.143  36.637  1.00  0.00    -0.203 F 
ATOM     88  F   UNL A   1      48.287  29.335  35.342  1.00  0.00    -0.200 F 
ATOM     89  C   UNL A   1      47.041  27.647  36.424  1.00  0.00     0.200 A 
ATOM     90  F   UNL A   1      45.750  25.974  37.479  1.00  0.00    -0.200 F 
ATOM     91  F   UNL A   1      48.170  27.042  36.815  1.00  0.00    -0.200 F 
ENDBRANCH  58  81
ENDBRANCH  32  33
ENDBRANCH  24  27
ENDBRANCH  22  23
ENDBRANCH  21  22
ENDBRANCH  20  21
ENDBRANCH   1  20
TORSDOF 16
ENDMDL
