MODEL 1
REMARK VINA RESULT:     -11.8      0.000      0.000
REMARK SMILES COc1ccc(-c2sc(C(=O)NCCCCCCNC(=O)c3ccc(-c4c5nc(c(-c6c(F)c(F)c(F)c(F)c6F)c6ccc([nH]6)c(-c6c(F)c(F)c(F)c(F)c6F)c6nc(c(-c7c(F)c(F)c(F)c(F)c7F)c7ccc4[nH]7)C=C6)C=C5)cc3)cc2C)c(OC)c1
REMARK SMILES IDX 15 1 14 2 13 3 12 4 10 5 11 6 9 8 7 9 8 10 86 11 85 12 87 13
REMARK SMILES IDX 6 14 3 15 4 16 91 17 5 18 88 19 2 20 1 21 89 22 90 23 16 24
REMARK SMILES IDX 17 25 18 26 19 27 20 28 21 30 22 31 23 32 84 33 24 34 83 35
REMARK SMILES IDX 25 36 26 37 27 38 77 39 28 40 82 41 76 42 78 43 29 44 81 45
REMARK SMILES IDX 75 46 74 47 30 49 62 50 42 51 61 52 43 53 46 54 60 55 79 56
REMARK SMILES IDX 44 57 45 58 59 60 80 61 47 62 31 63 32 64 40 65 33 66 34 67
REMARK SMILES IDX 38 68 41 69 35 70 36 71 39 72 37 73 63 74 64 75 72 76 65 77
REMARK SMILES IDX 66 78 70 79 73 80 67 81 68 82 71 83 69 84 48 85 49 86 57 87
REMARK SMILES IDX 50 88 51 89 55 90 58 91 52 92 53 93 56 94 54 95
REMARK H PARENT 12 7 19 29 78 48 46 59
REMARK Flexibility Score: inf
ROOT
ATOM      1  C   UNL A   1      32.882  29.721  25.531  1.00  0.00     0.002 C 
ENDROOT
BRANCH   1   2
ATOM      2  C   UNL A   1      33.007  28.427  24.714  1.00  0.00     0.021 C 
BRANCH   2   3
ATOM      3  C   UNL A   1      31.682  27.692  24.515  1.00  0.00     0.116 C 
BRANCH   3   4
ATOM      4  N   UNL A   1      31.484  27.344  23.122  1.00  0.00    -0.351 N 
ATOM      5  C   UNL A   1      31.763  26.242  22.350  1.00  0.00     0.261 C 
ATOM      6  O   UNL A   1      31.401  26.354  21.173  1.00  0.00    -0.268 OA
ATOM      7  H   UNL A   1      31.047  28.063  22.610  1.00  0.00     0.163 HD
BRANCH   5   8
ATOM      8  C   UNL A   1      32.388  25.012  22.828  1.00  0.00     0.093 A 
ATOM      9  C   UNL A   1      33.014  22.733  23.608  1.00  0.00     0.042 A 
ATOM     10  S   UNL A   1      31.589  23.670  23.494  1.00  0.00    -0.130 S 
ATOM     11  C   UNL A   1      34.137  23.480  23.295  1.00  0.00    -0.031 A 
ATOM     12  C   UNL A   1      33.758  24.792  22.850  1.00  0.00     0.029 A 
ATOM     13  C   UNL A   1      35.556  23.023  23.375  1.00  0.00     0.046 C 
BRANCH   9  14
ATOM     14  C   UNL A   1      32.886  21.329  24.022  1.00  0.00     0.034 A 
ATOM     15  C   UNL A   1      32.530  18.638  24.735  1.00  0.00     0.122 A 
ATOM     16  C   UNL A   1      32.227  19.060  23.444  1.00  0.00     0.047 A 
ATOM     17  C   UNL A   1      33.054  19.544  25.661  1.00  0.00     0.093 A 
ATOM     18  C   UNL A   1      32.395  20.398  23.091  1.00  0.00     0.017 A 
ATOM     19  C   UNL A   1      33.241  20.891  25.313  1.00  0.00     0.131 A 
BRANCH  15  20
ATOM     20  O   UNL A   1      32.315  17.307  24.978  1.00  0.00    -0.497 OA
ATOM     21  C   UNL A   1      33.432  16.602  25.510  1.00  0.00     0.278 C 
ENDBRANCH  15  20
BRANCH  19  22
ATOM     22  O   UNL A   1      33.736  21.846  26.165  1.00  0.00    -0.496 OA
ATOM     23  C   UNL A   1      33.652  21.590  27.561  1.00  0.00     0.278 C 
ENDBRANCH  19  22
ENDBRANCH   9  14
ENDBRANCH   5   8
ENDBRANCH   3   4
ENDBRANCH   2   3
ENDBRANCH   1   2
BRANCH   1  24
ATOM     24  C   UNL A   1      31.461  30.286  25.655  1.00  0.00     0.002 C 
BRANCH  24  25
ATOM     25  C   UNL A   1      31.336  31.595  26.442  1.00  0.00     0.021 C 
BRANCH  25  26
ATOM     26  C   UNL A   1      32.646  32.140  27.008  1.00  0.00     0.116 C 
BRANCH  26  27
ATOM     27  N   UNL A   1      32.523  33.520  27.445  1.00  0.00    -0.352 N 
ATOM     28  C   UNL A   1      33.232  34.212  28.391  1.00  0.00     0.251 C 
ATOM     29  H   UNL A   1      31.821  34.038  26.990  1.00  0.00     0.163 HD
ATOM     30  O   UNL A   1      32.854  35.331  28.734  1.00  0.00    -0.269 OA
BRANCH  28  31
ATOM     31  C   UNL A   1      34.437  33.629  29.022  1.00  0.00     0.039 A 
ATOM     32  C   UNL A   1      34.262  32.647  30.003  1.00  0.00     0.014 A 
ATOM     33  C   UNL A   1      35.725  34.073  28.705  1.00  0.00     0.014 A 
ATOM     34  C   UNL A   1      35.373  32.083  30.633  1.00  0.00     0.010 A 
ATOM     35  C   UNL A   1      36.837  33.467  29.291  1.00  0.00     0.010 A 
ATOM     36  C   UNL A   1      36.672  32.473  30.266  1.00  0.00    -0.014 A 
BRANCH  36  37
ATOM     37  C   UNL A   1      37.851  31.831  30.899  1.00  0.00     0.031 A 
ATOM     38  C   UNL A   1      38.284  32.216  32.286  1.00  0.00     0.074 A 
ATOM     39  C   UNL A   1      38.550  30.910  30.208  1.00  0.00     0.049 A 
ATOM     40  N   UNL A   1      39.266  31.735  33.009  1.00  0.00    -0.248 NA
ATOM     41  C   UNL A   1      37.533  33.298  32.940  1.00  0.00     0.031 C 
ATOM     42  C   UNL A   1      38.269  30.496  28.833  1.00  0.00     0.029 A 
ATOM     43  N   UNL A   1      39.636  30.153  30.569  1.00  0.00    -0.354 N 
ATOM     44  C   UNL A   1      39.253  32.457  34.195  1.00  0.00     0.074 A 
ATOM     45  C   UNL A   1      38.199  33.442  34.076  1.00  0.00     0.031 C 
ATOM     46  C   UNL A   1      39.139  29.540  28.475  1.00  0.00     0.029 A 
ATOM     47  C   UNL A   1      40.050  29.287  29.588  1.00  0.00     0.049 A 
ATOM     48  H   UNL A   1      40.077  30.225  31.446  1.00  0.00     0.167 HD
ATOM     49  C   UNL A   1      40.034  32.298  35.290  1.00  0.00     0.037 A 
ATOM     50  C   UNL A   1      41.046  28.381  29.591  1.00  0.00     0.037 A 
ATOM     51  C   UNL A   1      41.065  31.301  35.416  1.00  0.00     0.049 A 
ATOM     52  C   UNL A   1      41.874  28.199  30.831  1.00  0.00     0.074 A 
ATOM     53  C   UNL A   1      41.862  31.014  36.512  1.00  0.00     0.029 A 
ATOM     54  N   UNL A   1      41.442  30.425  34.410  1.00  0.00    -0.354 N 
ATOM     55  N   UNL A   1      41.797  28.831  31.977  1.00  0.00    -0.248 NA
ATOM     56  C   UNL A   1      42.920  27.168  30.783  1.00  0.00     0.031 C 
ATOM     57  C   UNL A   1      42.747  29.990  36.155  1.00  0.00     0.029 A 
ATOM     58  C   UNL A   1      42.475  29.612  34.851  1.00  0.00     0.049 A 
ATOM     59  H   UNL A   1      41.038  30.387  33.513  1.00  0.00     0.167 HD
ATOM     60  C   UNL A   1      42.768  28.265  32.790  1.00  0.00     0.074 A 
ATOM     61  C   UNL A   1      43.407  27.222  32.014  1.00  0.00     0.031 C 
ATOM     62  C   UNL A   1      43.104  28.583  34.064  1.00  0.00     0.037 A 
BRANCH  49  63
ATOM     63  C   UNL A   1      39.798  33.221  36.450  1.00  0.00     0.064 A 
ATOM     64  C   UNL A   1      40.490  34.435  36.574  1.00  0.00     0.173 A 
ATOM     65  C   UNL A   1      38.840  32.908  37.427  1.00  0.00     0.173 A 
ATOM     66  F   UNL A   1      41.423  34.775  35.673  1.00  0.00    -0.203 F 
ATOM     67  C   UNL A   1      40.250  35.290  37.646  1.00  0.00     0.198 A 
ATOM     68  C   UNL A   1      38.584  33.777  38.484  1.00  0.00     0.198 A 
ATOM     69  F   UNL A   1      38.146  31.762  37.352  1.00  0.00    -0.203 F 
ATOM     70  F   UNL A   1      40.953  36.424  37.768  1.00  0.00    -0.200 F 
ATOM     71  C   UNL A   1      39.293  34.964  38.597  1.00  0.00     0.200 A 
ATOM     72  F   UNL A   1      37.652  33.466  39.395  1.00  0.00    -0.200 F 
ATOM     73  F   UNL A   1      39.060  35.790  39.625  1.00  0.00    -0.200 F 
ENDBRANCH  49  63
BRANCH  50  74
ATOM     74  C   UNL A   1      41.281  27.541  28.388  1.00  0.00     0.064 A 
ATOM     75  C   UNL A   1      42.194  27.938  27.403  1.00  0.00     0.173 A 
ATOM     76  C   UNL A   1      40.605  26.326  28.205  1.00  0.00     0.173 A 
ATOM     77  F   UNL A   1      42.850  29.102  27.527  1.00  0.00    -0.203 F 
ATOM     78  C   UNL A   1      42.410  27.161  26.266  1.00  0.00     0.198 A 
ATOM     79  C   UNL A   1      40.839  25.538  27.080  1.00  0.00     0.198 A 
ATOM     80  F   UNL A   1      39.726  25.902  29.124  1.00  0.00    -0.203 F 
ATOM     81  F   UNL A   1      43.259  27.583  25.320  1.00  0.00    -0.200 F 
ATOM     82  C   UNL A   1      41.736  25.958  26.110  1.00  0.00     0.200 A 
ATOM     83  F   UNL A   1      40.197  24.371  26.936  1.00  0.00    -0.200 F 
ATOM     84  F   UNL A   1      41.947  25.209  25.019  1.00  0.00    -0.200 F 
ENDBRANCH  50  74
BRANCH  62  85
ATOM     85  C   UNL A   1      44.205  27.784  34.697  1.00  0.00     0.064 A 
ATOM     86  C   UNL A   1      43.940  26.583  35.373  1.00  0.00     0.173 A 
ATOM     87  C   UNL A   1      45.537  28.215  34.617  1.00  0.00     0.173 A 
ATOM     88  F   UNL A   1      42.680  26.138  35.491  1.00  0.00    -0.203 F 
ATOM     89  C   UNL A   1      44.967  25.858  35.971  1.00  0.00     0.198 A 
ATOM     90  C   UNL A   1      46.564  27.473  35.193  1.00  0.00     0.198 A 
ATOM     91  F   UNL A   1      45.843  29.354  33.977  1.00  0.00    -0.203 F 
ATOM     92  F   UNL A   1      44.685  24.741  36.655  1.00  0.00    -0.200 F 
ATOM     93  C   UNL A   1      46.278  26.301  35.877  1.00  0.00     0.200 A 
ATOM     94  F   UNL A   1      47.832  27.897  35.094  1.00  0.00    -0.200 F 
ATOM     95  F   UNL A   1      47.265  25.603  36.455  1.00  0.00    -0.200 F 
ENDBRANCH  62  85
ENDBRANCH  36  37
ENDBRANCH  28  31
ENDBRANCH  26  27
ENDBRANCH  25  26
ENDBRANCH  24  25
ENDBRANCH   1  24
TORSDOF 16
ENDMDL
MODEL 2
REMARK VINA RESULT:     -11.8      1.731      2.158
REMARK SMILES COc1ccc(-c2sc(C(=O)NCCCCCCNC(=O)c3ccc(-c4c5nc(c(-c6c(F)c(F)c(F)c(F)c6F)c6ccc([nH]6)c(-c6c(F)c(F)c(F)c(F)c6F)c6nc(c(-c7c(F)c(F)c(F)c(F)c7F)c7ccc4[nH]7)C=C6)C=C5)cc3)cc2C)c(OC)c1
REMARK SMILES IDX 15 1 14 2 13 3 12 4 10 5 11 6 9 8 7 9 8 10 86 11 85 12 87 13
REMARK SMILES IDX 6 14 3 15 4 16 91 17 5 18 88 19 2 20 1 21 89 22 90 23 16 24
REMARK SMILES IDX 17 25 18 26 19 27 20 28 21 30 22 31 23 32 84 33 24 34 83 35
REMARK SMILES IDX 25 36 26 37 27 38 77 39 28 40 82 41 76 42 78 43 29 44 81 45
REMARK SMILES IDX 75 46 74 47 30 49 62 50 42 51 61 52 43 53 46 54 60 55 79 56
REMARK SMILES IDX 44 57 45 58 59 60 80 61 47 62 31 63 32 64 40 65 33 66 34 67
REMARK SMILES IDX 38 68 41 69 35 70 36 71 39 72 37 73 63 74 64 75 72 76 65 77
REMARK SMILES IDX 66 78 70 79 73 80 67 81 68 82 71 83 69 84 48 85 49 86 57 87
REMARK SMILES IDX 50 88 51 89 55 90 58 91 52 92 53 93 56 94 54 95
REMARK H PARENT 12 7 19 29 78 48 46 59
REMARK Flexibility Score: inf
ROOT
ATOM      1  C   UNL A   1      30.854  28.252  22.686  1.00  0.00     0.002 C 
ENDROOT
BRANCH   1   2
ATOM      2  C   UNL A   1      29.496  27.722  23.168  1.00  0.00     0.021 C 
BRANCH   2   3
ATOM      3  C   UNL A   1      29.577  26.366  23.869  1.00  0.00     0.116 C 
BRANCH   3   4
ATOM      4  N   UNL A   1      30.195  26.490  25.174  1.00  0.00    -0.351 N 
ATOM      5  C   UNL A   1      31.195  25.822  25.839  1.00  0.00     0.261 C 
ATOM      6  O   UNL A   1      31.432  26.274  26.965  1.00  0.00    -0.268 OA
ATOM      7  H   UNL A   1      29.810  27.222  25.708  1.00  0.00     0.163 HD
BRANCH   5   8
ATOM      8  C   UNL A   1      31.968  24.706  25.302  1.00  0.00     0.093 A 
ATOM      9  C   UNL A   1      32.910  22.542  24.513  1.00  0.00     0.042 A 
ATOM     10  S   UNL A   1      31.701  23.057  25.606  1.00  0.00    -0.130 S 
ATOM     11  C   UNL A   1      33.641  23.612  24.025  1.00  0.00    -0.031 A 
ATOM     12  C   UNL A   1      33.086  24.851  24.492  1.00  0.00     0.029 A 
ATOM     13  C   UNL A   1      34.830  23.536  23.126  1.00  0.00     0.046 C 
BRANCH   9  14
ATOM     14  C   UNL A   1      33.036  21.101  24.251  1.00  0.00     0.034 A 
ATOM     15  C   UNL A   1      33.140  18.344  23.739  1.00  0.00     0.122 A 
ATOM     16  C   UNL A   1      32.211  19.139  23.075  1.00  0.00     0.047 A 
ATOM     17  C   UNL A   1      34.050  18.926  24.626  1.00  0.00     0.093 A 
ATOM     18  C   UNL A   1      32.152  20.507  23.335  1.00  0.00     0.017 A 
ATOM     19  C   UNL A   1      34.009  20.305  24.885  1.00  0.00     0.131 A 
BRANCH  15  20
ATOM     20  O   UNL A   1      33.103  17.013  23.418  1.00  0.00    -0.497 OA
ATOM     21  C   UNL A   1      33.329  16.122  24.505  1.00  0.00     0.278 C 
ENDBRANCH  15  20
BRANCH  19  22
ATOM     22  O   UNL A   1      34.856  20.951  25.751  1.00  0.00    -0.496 OA
ATOM     23  C   UNL A   1      36.221  21.068  25.374  1.00  0.00     0.278 C 
ENDBRANCH  19  22
ENDBRANCH   9  14
ENDBRANCH   5   8
ENDBRANCH   3   4
ENDBRANCH   2   3
ENDBRANCH   1   2
BRANCH   1  24
ATOM     24  C   UNL A   1      31.587  29.173  23.670  1.00  0.00     0.002 C 
BRANCH  24  25
ATOM     25  C   UNL A   1      33.030  28.775  23.998  1.00  0.00     0.021 C 
BRANCH  25  26
ATOM     26  C   UNL A   1      33.487  29.099  25.419  1.00  0.00     0.116 C 
BRANCH  26  27
ATOM     27  N   UNL A   1      32.975  30.378  25.880  1.00  0.00    -0.352 N 
ATOM     28  C   UNL A   1      33.387  31.170  26.919  1.00  0.00     0.251 C 
ATOM     29  H   UNL A   1      32.213  30.731  25.365  1.00  0.00     0.163 HD
ATOM     30  O   UNL A   1      32.705  32.140  27.250  1.00  0.00    -0.269 OA
BRANCH  28  31
ATOM     31  C   UNL A   1      34.631  30.871  27.663  1.00  0.00     0.039 A 
ATOM     32  C   UNL A   1      34.725  29.644  28.329  1.00  0.00     0.014 A 
ATOM     33  C   UNL A   1      35.674  31.797  27.761  1.00  0.00     0.014 A 
ATOM     34  C   UNL A   1      35.876  29.330  29.054  1.00  0.00     0.010 A 
ATOM     35  C   UNL A   1      36.848  31.459  28.436  1.00  0.00     0.010 A 
ATOM     36  C   UNL A   1      36.957  30.226  29.095  1.00  0.00    -0.014 A 
BRANCH  36  37
ATOM     37  C   UNL A   1      38.199  29.864  29.822  1.00  0.00     0.031 A 
ATOM     38  C   UNL A   1      38.475  30.411  31.195  1.00  0.00     0.074 A 
ATOM     39  C   UNL A   1      39.097  29.053  29.230  1.00  0.00     0.049 A 
ATOM     40  N   UNL A   1      39.488  30.174  31.991  1.00  0.00    -0.248 NA
ATOM     41  C   UNL A   1      37.497  31.367  31.737  1.00  0.00     0.031 C 
ATOM     42  C   UNL A   1      38.975  28.509  27.877  1.00  0.00     0.029 A 
ATOM     43  N   UNL A   1      40.285  28.544  29.689  1.00  0.00    -0.354 N 
ATOM     44  C   UNL A   1      39.273  30.953  33.120  1.00  0.00     0.074 A 
ATOM     45  C   UNL A   1      38.060  31.707  32.887  1.00  0.00     0.031 C 
ATOM     46  C   UNL A   1      40.029  27.717  27.625  1.00  0.00     0.029 A 
ATOM     47  C   UNL A   1      40.909  27.714  28.791  1.00  0.00     0.049 A 
ATOM     48  H   UNL A   1      40.655  28.755  30.576  1.00  0.00     0.167 HD
ATOM     49  C   UNL A   1      40.009  31.016  34.257  1.00  0.00     0.037 A 
ATOM     50  C   UNL A   1      42.056  27.019  28.901  1.00  0.00     0.037 A 
ATOM     51  C   UNL A   1      41.201  30.246  34.497  1.00  0.00     0.049 A 
ATOM     52  C   UNL A   1      42.834  27.078  30.185  1.00  0.00     0.074 A 
ATOM     53  C   UNL A   1      41.976  30.187  35.643  1.00  0.00     0.029 A 
ATOM     54  N   UNL A   1      41.792  29.398  33.573  1.00  0.00    -0.354 N 
ATOM     55  N   UNL A   1      42.576  27.754  31.278  1.00  0.00    -0.248 NA
ATOM     56  C   UNL A   1      44.058  26.266  30.255  1.00  0.00     0.031 C 
ATOM     57  C   UNL A   1      43.057  29.332  35.399  1.00  0.00     0.029 A 
ATOM     58  C   UNL A   1      42.934  28.828  34.115  1.00  0.00     0.049 A 
ATOM     59  H   UNL A   1      41.453  29.227  32.665  1.00  0.00     0.167 HD
ATOM     60  C   UNL A   1      43.591  27.437  32.170  1.00  0.00     0.074 A 
ATOM     61  C   UNL A   1      44.457  26.490  31.499  1.00  0.00     0.031 C 
ATOM     62  C   UNL A   1      43.790  27.892  33.431  1.00  0.00     0.037 A 
BRANCH  49  63
ATOM     63  C   UNL A   1      39.538  31.946  35.336  1.00  0.00     0.064 A 
ATOM     64  C   UNL A   1      39.974  33.279  35.397  1.00  0.00     0.173 A 
ATOM     65  C   UNL A   1      38.611  31.514  36.297  1.00  0.00     0.173 A 
ATOM     66  F   UNL A   1      40.868  33.737  34.509  1.00  0.00    -0.203 F 
ATOM     67  C   UNL A   1      39.518  34.137  36.394  1.00  0.00     0.198 A 
ATOM     68  C   UNL A   1      38.137  32.382  37.277  1.00  0.00     0.198 A 
ATOM     69  F   UNL A   1      38.158  30.251  36.279  1.00  0.00    -0.203 F 
ATOM     70  F   UNL A   1      39.980  35.393  36.459  1.00  0.00    -0.200 F 
ATOM     71  C   UNL A   1      38.595  33.690  37.329  1.00  0.00     0.200 A 
ATOM     72  F   UNL A   1      37.238  31.952  38.172  1.00  0.00    -0.200 F 
ATOM     73  F   UNL A   1      38.153  34.518  38.285  1.00  0.00    -0.200 F 
ENDBRANCH  49  63
BRANCH  50  74
ATOM     74  C   UNL A   1      42.513  26.167  27.773  1.00  0.00     0.064 A 
ATOM     75  C   UNL A   1      43.470  26.633  26.863  1.00  0.00     0.173 A 
ATOM     76  C   UNL A   1      42.006  24.873  27.587  1.00  0.00     0.173 A 
ATOM     77  F   UNL A   1      43.969  27.872  26.990  1.00  0.00    -0.203 F 
ATOM     78  C   UNL A   1      43.893  25.843  25.795  1.00  0.00     0.198 A 
ATOM     79  C   UNL A   1      42.447  24.074  26.533  1.00  0.00     0.198 A 
ATOM     80  F   UNL A   1      41.091  24.381  28.435  1.00  0.00    -0.203 F 
ATOM     81  F   UNL A   1      44.781  26.327  24.917  1.00  0.00    -0.200 F 
ATOM     82  C   UNL A   1      43.385  24.562  25.636  1.00  0.00     0.200 A 
ATOM     83  F   UNL A   1      41.963  22.833  26.387  1.00  0.00    -0.200 F 
ATOM     84  F   UNL A   1      43.794  23.801  24.611  1.00  0.00    -0.200 F 
ENDBRANCH  50  74
BRANCH  62  85
ATOM     85  C   UNL A   1      44.985  27.361  34.166  1.00  0.00     0.064 A 
ATOM     86  C   UNL A   1      44.910  26.188  34.931  1.00  0.00     0.173 A 
ATOM     87  C   UNL A   1      46.219  28.023  34.094  1.00  0.00     0.173 A 
ATOM     88  F   UNL A   1      43.747  25.529  35.045  1.00  0.00    -0.203 F 
ATOM     89  C   UNL A   1      46.021  25.714  35.622  1.00  0.00     0.198 A 
ATOM     90  C   UNL A   1      47.335  27.531  34.764  1.00  0.00     0.198 A 
ATOM     91  F   UNL A   1      46.344  29.146  33.370  1.00  0.00    -0.203 F 
ATOM     92  F   UNL A   1      45.914  24.620  36.389  1.00  0.00    -0.200 F 
ATOM     93  C   UNL A   1      47.233  26.382  35.535  1.00  0.00     0.200 A 
ATOM     94  F   UNL A   1      48.508  28.172  34.672  1.00  0.00    -0.200 F 
ATOM     95  F   UNL A   1      48.301  25.925  36.202  1.00  0.00    -0.200 F 
ENDBRANCH  62  85
ENDBRANCH  36  37
ENDBRANCH  28  31
ENDBRANCH  26  27
ENDBRANCH  25  26
ENDBRANCH  24  25
ENDBRANCH   1  24
TORSDOF 16
ENDMDL
MODEL 3
REMARK VINA RESULT:     -11.7      5.978     11.662
REMARK SMILES COc1ccc(-c2sc(C(=O)NCCCCCCNC(=O)c3ccc(-c4c5nc(c(-c6c(F)c(F)c(F)c(F)c6F)c6ccc([nH]6)c(-c6c(F)c(F)c(F)c(F)c6F)c6nc(c(-c7c(F)c(F)c(F)c(F)c7F)c7ccc4[nH]7)C=C6)C=C5)cc3)cc2C)c(OC)c1
REMARK SMILES IDX 15 1 14 2 13 3 12 4 10 5 11 6 9 8 7 9 8 10 86 11 85 12 87 13
REMARK SMILES IDX 6 14 3 15 4 16 91 17 5 18 88 19 2 20 1 21 89 22 90 23 16 24
REMARK SMILES IDX 17 25 18 26 19 27 20 28 21 30 22 31 23 32 84 33 24 34 83 35
REMARK SMILES IDX 25 36 26 37 27 38 77 39 28 40 82 41 76 42 78 43 29 44 81 45
REMARK SMILES IDX 75 46 74 47 30 49 62 50 42 51 61 52 43 53 46 54 60 55 79 56
REMARK SMILES IDX 44 57 45 58 59 60 80 61 47 62 31 63 32 64 40 65 33 66 34 67
REMARK SMILES IDX 38 68 41 69 35 70 36 71 39 72 37 73 63 74 64 75 72 76 65 77
REMARK SMILES IDX 66 78 70 79 73 80 67 81 68 82 71 83 69 84 48 85 49 86 57 87
REMARK SMILES IDX 50 88 51 89 55 90 58 91 52 92 53 93 56 94 54 95
REMARK H PARENT 12 7 19 29 78 48 46 59
REMARK Flexibility Score: inf
ROOT
ATOM      1  C   UNL A   1      41.455  21.699  26.392  1.00  0.00     0.002 C 
ENDROOT
BRANCH   1   2
ATOM      2  C   UNL A   1      40.465  22.519  27.232  1.00  0.00     0.021 C 
BRANCH   2   3
ATOM      3  C   UNL A   1      39.253  23.018  26.447  1.00  0.00     0.116 C 
BRANCH   3   4
ATOM      4  N   UNL A   1      38.628  21.936  25.711  1.00  0.00    -0.351 N 
ATOM      5  C   UNL A   1      37.342  21.646  25.322  1.00  0.00     0.261 C 
ATOM      6  O   UNL A   1      37.243  20.597  24.674  1.00  0.00    -0.268 OA
ATOM      7  H   UNL A   1      39.273  21.250  25.424  1.00  0.00     0.163 HD
BRANCH   5   8
ATOM      8  C   UNL A   1      36.172  22.479  25.581  1.00  0.00     0.093 A 
ATOM      9  C   UNL A   1      34.325  24.146  25.643  1.00  0.00     0.042 A 
ATOM     10  S   UNL A   1      35.897  24.043  24.981  1.00  0.00    -0.130 S 
ATOM     11  C   UNL A   1      34.050  23.065  26.464  1.00  0.00    -0.031 A 
ATOM     12  C   UNL A   1      35.127  22.115  26.418  1.00  0.00     0.029 A 
ATOM     13  C   UNL A   1      32.817  22.863  27.282  1.00  0.00     0.046 C 
BRANCH   9  14
ATOM     14  C   UNL A   1      33.504  25.315  25.299  1.00  0.00     0.034 A 
ATOM     15  C   UNL A   1      31.954  27.594  24.768  1.00  0.00     0.122 A 
ATOM     16  C   UNL A   1      33.072  27.691  25.591  1.00  0.00     0.047 A 
ATOM     17  C   UNL A   1      31.630  26.372  24.171  1.00  0.00     0.093 A 
ATOM     18  C   UNL A   1      33.838  26.558  25.862  1.00  0.00     0.017 A 
ATOM     19  C   UNL A   1      32.402  25.228  24.426  1.00  0.00     0.131 A 
BRANCH  15  20
ATOM     20  O   UNL A   1      31.267  28.763  24.579  1.00  0.00    -0.497 OA
ATOM     21  C   UNL A   1      31.673  29.845  25.412  1.00  0.00     0.278 C 
ENDBRANCH  15  20
BRANCH  19  22
ATOM     22  O   UNL A   1      32.145  23.990  23.891  1.00  0.00    -0.496 OA
ATOM     23  C   UNL A   1      30.807  23.705  23.505  1.00  0.00     0.278 C 
ENDBRANCH  19  22
ENDBRANCH   9  14
ENDBRANCH   5   8
ENDBRANCH   3   4
ENDBRANCH   2   3
ENDBRANCH   1   2
BRANCH   1  24
ATOM     24  C   UNL A   1      42.062  20.479  27.096  1.00  0.00     0.002 C 
BRANCH  24  25
ATOM     25  C   UNL A   1      42.180  19.213  26.240  1.00  0.00     0.021 C 
BRANCH  25  26
ATOM     26  C   UNL A   1      43.585  18.622  26.145  1.00  0.00     0.116 C 
BRANCH  26  27
ATOM     27  N   UNL A   1      44.072  18.584  24.777  1.00  0.00    -0.352 N 
ATOM     28  C   UNL A   1      44.548  19.593  23.982  1.00  0.00     0.251 C 
ATOM     29  H   UNL A   1      44.059  17.695  24.356  1.00  0.00     0.163 HD
ATOM     30  O   UNL A   1      44.751  19.379  22.787  1.00  0.00    -0.269 OA
BRANCH  28  31
ATOM     31  C   UNL A   1      44.806  20.943  24.531  1.00  0.00     0.039 A 
ATOM     32  C   UNL A   1      44.422  22.052  23.770  1.00  0.00     0.014 A 
ATOM     33  C   UNL A   1      45.468  21.131  25.749  1.00  0.00     0.014 A 
ATOM     34  C   UNL A   1      44.661  23.342  24.247  1.00  0.00     0.010 A 
ATOM     35  C   UNL A   1      45.654  22.419  26.252  1.00  0.00     0.010 A 
ATOM     36  C   UNL A   1      45.259  23.537  25.502  1.00  0.00    -0.014 A 
BRANCH  36  37
ATOM     37  C   UNL A   1      45.462  24.910  26.028  1.00  0.00     0.031 A 
ATOM     38  C   UNL A   1      46.812  25.568  25.963  1.00  0.00     0.074 A 
ATOM     39  C   UNL A   1      44.424  25.560  26.589  1.00  0.00     0.049 A 
ATOM     40  N   UNL A   1      47.164  26.772  26.340  1.00  0.00    -0.248 NA
ATOM     41  C   UNL A   1      47.918  24.761  25.427  1.00  0.00     0.031 C 
ATOM     42  C   UNL A   1      43.082  25.007  26.769  1.00  0.00     0.029 A 
ATOM     43  N   UNL A   1      44.335  26.827  27.109  1.00  0.00    -0.354 N 
ATOM     44  C   UNL A   1      48.527  26.865  26.092  1.00  0.00     0.074 A 
ATOM     45  C   UNL A   1      48.949  25.579  25.580  1.00  0.00     0.031 C 
ATOM     46  C   UNL A   1      42.294  25.938  27.329  1.00  0.00     0.029 A 
ATOM     47  C   UNL A   1      43.080  27.146  27.564  1.00  0.00     0.049 A 
ATOM     48  H   UNL A   1      45.098  27.448  27.151  1.00  0.00     0.167 HD
ATOM     49  C   UNL A   1      49.346  27.931  26.257  1.00  0.00     0.037 A 
ATOM     50  C   UNL A   1      42.613  28.289  28.101  1.00  0.00     0.037 A 
ATOM     51  C   UNL A   1      48.919  29.218  26.742  1.00  0.00     0.049 A 
ATOM     52  C   UNL A   1      43.534  29.468  28.239  1.00  0.00     0.074 A 
ATOM     53  C   UNL A   1      49.658  30.380  26.876  1.00  0.00     0.029 A 
ATOM     54  N   UNL A   1      47.634  29.511  27.174  1.00  0.00    -0.354 N 
ATOM     55  N   UNL A   1      44.802  29.569  27.923  1.00  0.00    -0.248 NA
ATOM     56  C   UNL A   1      42.954  30.698  28.796  1.00  0.00     0.031 C 
ATOM     57  C   UNL A   1      48.830  31.367  27.425  1.00  0.00     0.029 A 
ATOM     58  C   UNL A   1      47.565  30.830  27.595  1.00  0.00     0.049 A 
ATOM     59  H   UNL A   1      46.882  28.875  27.182  1.00  0.00     0.167 HD
ATOM     60  C   UNL A   1      45.167  30.874  28.224  1.00  0.00     0.074 A 
ATOM     61  C   UNL A   1      43.980  31.534  28.728  1.00  0.00     0.031 C 
ATOM     62  C   UNL A   1      46.377  31.470  28.100  1.00  0.00     0.037 A 
BRANCH  49  63
ATOM     63  C   UNL A   1      50.792  27.756  25.898  1.00  0.00     0.064 A 
ATOM     64  C   UNL A   1      51.247  27.925  24.581  1.00  0.00     0.173 A 
ATOM     65  C   UNL A   1      51.741  27.454  26.886  1.00  0.00     0.173 A 
ATOM     66  F   UNL A   1      50.378  28.203  23.598  1.00  0.00    -0.203 F 
ATOM     67  C   UNL A   1      52.595  27.774  24.264  1.00  0.00     0.198 A 
ATOM     68  C   UNL A   1      53.092  27.330  26.570  1.00  0.00     0.198 A 
ATOM     69  F   UNL A   1      51.360  27.287  28.162  1.00  0.00    -0.203 F 
ATOM     70  F   UNL A   1      53.000  27.898  22.992  1.00  0.00    -0.200 F 
ATOM     71  C   UNL A   1      53.516  27.483  25.259  1.00  0.00     0.200 A 
ATOM     72  F   UNL A   1      53.982  27.059  27.534  1.00  0.00    -0.200 F 
ATOM     73  F   UNL A   1      54.813  27.344  24.952  1.00  0.00    -0.200 F 
ENDBRANCH  49  63
BRANCH  50  74
ATOM     74  C   UNL A   1      41.187  28.385  28.504  1.00  0.00     0.064 A 
ATOM     75  C   UNL A   1      40.225  28.896  27.624  1.00  0.00     0.173 A 
ATOM     76  C   UNL A   1      40.759  27.965  29.771  1.00  0.00     0.173 A 
ATOM     77  F   UNL A   1      40.592  29.328  26.407  1.00  0.00    -0.203 F 
ATOM     78  C   UNL A   1      38.888  29.001  28.001  1.00  0.00     0.198 A 
ATOM     79  C   UNL A   1      39.418  28.047  30.139  1.00  0.00     0.198 A 
ATOM     80  F   UNL A   1      41.642  27.464  30.647  1.00  0.00    -0.203 F 
ATOM     81  F   UNL A   1      37.994  29.529  27.154  1.00  0.00    -0.200 F 
ATOM     82  C   UNL A   1      38.484  28.570  29.257  1.00  0.00     0.200 A 
ATOM     83  F   UNL A   1      39.029  27.621  31.348  1.00  0.00    -0.200 F 
ATOM     84  F   UNL A   1      37.198  28.667  29.618  1.00  0.00    -0.200 F 
ENDBRANCH  50  74
BRANCH  62  85
ATOM     85  C   UNL A   1      46.471  32.911  28.506  1.00  0.00     0.064 A 
ATOM     86  C   UNL A   1      46.841  33.280  29.809  1.00  0.00     0.173 A 
ATOM     87  C   UNL A   1      46.202  33.932  27.583  1.00  0.00     0.173 A 
ATOM     88  F   UNL A   1      47.091  32.340  30.732  1.00  0.00    -0.203 F 
ATOM     89  C   UNL A   1      46.908  34.620  30.179  1.00  0.00     0.198 A 
ATOM     90  C   UNL A   1      46.297  35.271  27.950  1.00  0.00     0.198 A 
ATOM     91  F   UNL A   1      45.850  33.631  26.325  1.00  0.00    -0.203 F 
ATOM     92  F   UNL A   1      47.213  34.950  31.442  1.00  0.00    -0.200 F 
ATOM     93  C   UNL A   1      46.641  35.614  29.249  1.00  0.00     0.200 A 
ATOM     94  F   UNL A   1      46.048  36.231  27.049  1.00  0.00    -0.200 F 
ATOM     95  F   UNL A   1      46.705  36.904  29.608  1.00  0.00    -0.200 F 
ENDBRANCH  62  85
ENDBRANCH  36  37
ENDBRANCH  28  31
ENDBRANCH  26  27
ENDBRANCH  25  26
ENDBRANCH  24  25
ENDBRANCH   1  24
TORSDOF 16
ENDMDL
