MODEL 1
REMARK VINA RESULT:     -11.3      0.000      0.000
REMARK SMILES C[C@@H](O)[C@@H](NC(=O)CCOc1ccc(Br)cc1)C(=O)NCCCCCCNC(=O)c1ccc(-c2c3nc(c(-c4c(F)c(F)c(F)c(F)c4F)c4ccc([nH]4)c(-c4c(F)c(F)c(F)c(F)c4F)c4nc(c(-c5c(F)c(F)c(F)c(F)c5F)c5ccc2[nH]5)C=C4)C=C3)cc1
REMARK SMILES IDX 22 1 21 2 20 3 18 4 19 5 4 7 2 8 1 9 3 10 5 12 6 13 7 15
REMARK SMILES IDX 8 16 9 17 10 18 11 19 12 20 17 21 13 22 16 23 14 24 15 25
REMARK SMILES IDX 23 26 24 27 25 28 26 29 27 30 28 31 29 33 30 34 31 35 92 36
REMARK SMILES IDX 32 37 91 38 33 39 34 40 35 41 85 42 36 43 90 44 84 45 86 46
REMARK SMILES IDX 37 47 89 48 83 49 82 50 38 52 70 53 50 54 69 55 51 56 54 57
REMARK SMILES IDX 68 58 87 59 52 60 53 61 67 63 88 64 55 65 39 66 40 67 48 68
REMARK SMILES IDX 41 69 42 70 46 71 49 72 43 73 44 74 47 75 45 76 71 77 72 78
REMARK SMILES IDX 80 79 73 80 74 81 78 82 81 83 75 84 76 85 79 86 77 87 56 88
REMARK SMILES IDX 57 89 65 90 58 91 59 92 63 93 66 94 60 95 61 96 64 97 62 98
REMARK H PARENT 20 6 3 11 5 14 27 32 86 51 54 62
REMARK Flexibility Score: inf
ROOT
ATOM      1  C   UNL A   1      33.225  29.497  27.227  1.00  0.00     0.021 C 
ENDROOT
BRANCH   1   2
ATOM      2  C   UNL A   1      34.059  28.569  26.343  1.00  0.00     0.116 C 
BRANCH   2   3
ATOM      3  N   UNL A   1      34.206  28.954  24.959  1.00  0.00    -0.354 N 
ATOM      4  C   UNL A   1      33.547  28.451  23.866  1.00  0.00     0.245 C 
ATOM      5  O   UNL A   1      33.282  29.276  22.980  1.00  0.00    -0.273 OA
ATOM      6  H   UNL A   1      34.861  29.666  24.777  1.00  0.00     0.163 HD
BRANCH   4   7
ATOM      7  C   UNL A   1      33.051  26.974  23.715  1.00  0.00     0.199 C 
BRANCH   7   8
ATOM      8  C   UNL A   1      33.573  26.157  22.504  1.00  0.00     0.143 C 
ATOM      9  C   UNL A   1      32.899  24.787  22.363  1.00  0.00     0.041 C 
BRANCH   8  10
ATOM     10  O   UNL A   1      33.305  26.878  21.294  1.00  0.00    -0.391 OA
ATOM     11  H   UNL A   1      33.697  27.764  21.352  1.00  0.00     0.211 HD
ENDBRANCH   8  10
ENDBRANCH   7   8
BRANCH   7  12
ATOM     12  N   UNL A   1      32.706  26.174  24.914  1.00  0.00    -0.342 N 
ATOM     13  C   UNL A   1      31.623  26.041  25.713  1.00  0.00     0.224 C 
ATOM     14  H   UNL A   1      33.450  25.595  25.199  1.00  0.00     0.164 HD
ATOM     15  O   UNL A   1      31.759  25.410  26.765  1.00  0.00    -0.275 OA
BRANCH  13  16
ATOM     16  C   UNL A   1      30.277  26.574  25.327  1.00  0.00     0.141 C 
BRANCH  16  17
ATOM     17  C   UNL A   1      29.715  25.915  24.071  1.00  0.00     0.239 C 
BRANCH  17  18
ATOM     18  O   UNL A   1      28.592  26.593  23.502  1.00  0.00    -0.493 OA
BRANCH  18  19
ATOM     19  C   UNL A   1      28.684  27.906  23.145  1.00  0.00     0.119 A 
ATOM     20  C   UNL A   1      29.804  28.538  22.616  1.00  0.00     0.047 A 
ATOM     21  C   UNL A   1      27.504  28.643  23.309  1.00  0.00     0.047 A 
ATOM     22  C   UNL A   1      29.725  29.866  22.184  1.00  0.00     0.019 A 
ATOM     23  C   UNL A   1      27.413  29.963  22.864  1.00  0.00     0.019 A 
ATOM     24  C   UNL A   1      28.526  30.566  22.291  1.00  0.00     0.018 A 
ATOM     25  Br  UNL A   1      28.402  32.329  21.628  1.00  0.00    -0.051 Br
ENDBRANCH  18  19
ENDBRANCH  17  18
ENDBRANCH  16  17
ENDBRANCH  13  16
ENDBRANCH   7  12
ENDBRANCH   4   7
ENDBRANCH   2   3
ENDBRANCH   1   2
BRANCH   1  26
ATOM     26  C   UNL A   1      31.753  29.662  26.823  1.00  0.00     0.002 C 
BRANCH  26  27
ATOM     27  C   UNL A   1      31.410  30.844  25.904  1.00  0.00     0.002 C 
BRANCH  27  28
ATOM     28  C   UNL A   1      31.253  32.219  26.564  1.00  0.00     0.021 C 
BRANCH  28  29
ATOM     29  C   UNL A   1      32.535  32.879  27.065  1.00  0.00     0.116 C 
BRANCH  29  30
ATOM     30  N   UNL A   1      32.321  34.204  27.625  1.00  0.00    -0.352 N 
ATOM     31  C   UNL A   1      32.950  34.839  28.664  1.00  0.00     0.251 C 
ATOM     32  H   UNL A   1      31.610  34.728  27.190  1.00  0.00     0.163 HD
ATOM     33  O   UNL A   1      32.528  35.927  29.058  1.00  0.00    -0.269 OA
BRANCH  31  34
ATOM     34  C   UNL A   1      34.120  34.232  29.334  1.00  0.00     0.039 A 
ATOM     35  C   UNL A   1      33.907  33.435  30.464  1.00  0.00     0.014 A 
ATOM     36  C   UNL A   1      35.422  34.473  28.889  1.00  0.00     0.014 A 
ATOM     37  C   UNL A   1      34.992  32.851  31.120  1.00  0.00     0.010 A 
ATOM     38  C   UNL A   1      36.497  33.826  29.495  1.00  0.00     0.010 A 
ATOM     39  C   UNL A   1      36.295  33.021  30.626  1.00  0.00    -0.014 A 
BRANCH  39  40
ATOM     40  C   UNL A   1      37.457  32.389  31.301  1.00  0.00     0.031 A 
ATOM     41  C   UNL A   1      38.226  31.294  30.614  1.00  0.00     0.074 A 
ATOM     42  C   UNL A   1      37.791  32.773  32.549  1.00  0.00     0.049 A 
ATOM     43  N   UNL A   1      39.243  30.594  31.050  1.00  0.00    -0.248 NA
ATOM     44  C   UNL A   1      37.775  30.914  29.265  1.00  0.00     0.031 C 
ATOM     45  C   UNL A   1      37.094  33.790  33.335  1.00  0.00     0.029 A 
ATOM     46  N   UNL A   1      38.802  32.349  33.376  1.00  0.00    -0.354 N 
ATOM     47  C   UNL A   1      39.543  29.690  30.038  1.00  0.00     0.074 A 
ATOM     48  C   UNL A   1      38.561  29.883  28.994  1.00  0.00     0.031 C 
ATOM     49  C   UNL A   1      37.714  33.936  34.517  1.00  0.00     0.029 A 
ATOM     50  C   UNL A   1      38.826  32.994  34.589  1.00  0.00     0.049 A 
ATOM     51  H   UNL A   1      39.448  31.650  33.124  1.00  0.00     0.167 HD
ATOM     52  C   UNL A   1      40.561  28.799  29.974  1.00  0.00     0.037 A 
ATOM     53  C   UNL A   1      39.652  32.838  35.640  1.00  0.00     0.037 A 
ATOM     54  C   UNL A   1      41.546  28.625  31.011  1.00  0.00     0.049 A 
ATOM     55  C   UNL A   1      40.770  31.834  35.547  1.00  0.00     0.074 A 
ATOM     56  C   UNL A   1      42.644  27.784  31.027  1.00  0.00     0.029 A 
ATOM     57  N   UNL A   1      41.546  29.306  32.219  1.00  0.00    -0.354 N 
ATOM     58  N   UNL A   1      41.085  31.032  34.558  1.00  0.00    -0.248 NA
ATOM     59  C   UNL A   1      41.657  31.723  36.713  1.00  0.00     0.031 C 
ATOM     60  C   UNL A   1      43.277  27.916  32.267  1.00  0.00     0.029 A 
ATOM     61  C   UNL A   1      42.614  28.889  32.997  1.00  0.00     0.049 A 
ATOM     62  H   UNL A   1      40.884  29.986  32.486  1.00  0.00     0.167 HD
ATOM     63  C   UNL A   1      42.223  30.351  34.965  1.00  0.00     0.074 A 
ATOM     64  C   UNL A   1      42.554  30.846  36.285  1.00  0.00     0.031 C 
ATOM     65  C   UNL A   1      42.935  29.402  34.306  1.00  0.00     0.037 A 
BRANCH  52  66
ATOM     66  C   UNL A   1      40.662  27.944  28.742  1.00  0.00     0.064 A 
ATOM     67  C   UNL A   1      41.460  28.314  27.648  1.00  0.00     0.173 A 
ATOM     68  C   UNL A   1      39.978  26.720  28.665  1.00  0.00     0.173 A 
ATOM     69  F   UNL A   1      42.127  29.478  27.663  1.00  0.00    -0.203 F 
ATOM     70  C   UNL A   1      41.543  27.511  26.513  1.00  0.00     0.198 A 
ATOM     71  C   UNL A   1      40.090  25.902  27.544  1.00  0.00     0.198 A 
ATOM     72  F   UNL A   1      39.204  26.312  29.682  1.00  0.00    -0.203 F 
ATOM     73  F   UNL A   1      42.266  27.915  25.460  1.00  0.00    -0.200 F 
ATOM     74  C   UNL A   1      40.865  26.302  26.465  1.00  0.00     0.200 A 
ATOM     75  F   UNL A   1      39.446  24.728  27.505  1.00  0.00    -0.200 F 
ATOM     76  F   UNL A   1      40.952  25.526  25.376  1.00  0.00    -0.200 F 
ENDBRANCH  52  66
BRANCH  53  77
ATOM     77  C   UNL A   1      39.474  33.671  36.860  1.00  0.00     0.064 A 
ATOM     78  C   UNL A   1      38.736  33.200  37.955  1.00  0.00     0.173 A 
ATOM     79  C   UNL A   1      40.024  34.958  36.953  1.00  0.00     0.173 A 
ATOM     80  F   UNL A   1      38.173  31.982  37.910  1.00  0.00    -0.203 F 
ATOM     81  C   UNL A   1      38.528  33.994  39.082  1.00  0.00     0.198 A 
ATOM     82  C   UNL A   1      39.846  35.738  38.094  1.00  0.00     0.198 A 
ATOM     83  F   UNL A   1      40.746  35.455  35.938  1.00  0.00    -0.203 F 
ATOM     84  F   UNL A   1      37.771  33.539  40.089  1.00  0.00    -0.200 F 
ATOM     85  C   UNL A   1      39.088  35.260  39.152  1.00  0.00     0.200 A 
ATOM     86  F   UNL A   1      40.403  36.954  38.165  1.00  0.00    -0.200 F 
ATOM     87  F   UNL A   1      38.890  36.023  40.236  1.00  0.00    -0.200 F 
ENDBRANCH  53  77
BRANCH  65  88
ATOM     88  C   UNL A   1      44.171  28.878  34.978  1.00  0.00     0.064 A 
ATOM     89  C   UNL A   1      45.421  29.496  34.823  1.00  0.00     0.173 A 
ATOM     90  C   UNL A   1      44.097  27.751  35.812  1.00  0.00     0.173 A 
ATOM     91  F   UNL A   1      45.549  30.568  34.027  1.00  0.00    -0.203 F 
ATOM     92  C   UNL A   1      46.555  28.983  35.447  1.00  0.00     0.198 A 
ATOM     93  C   UNL A   1      45.226  27.264  36.464  1.00  0.00     0.198 A 
ATOM     94  F   UNL A   1      42.925  27.126  36.004  1.00  0.00    -0.203 F 
ATOM     95  F   UNL A   1      47.749  29.554  35.234  1.00  0.00    -0.200 F 
ATOM     96  C   UNL A   1      46.456  27.873  36.272  1.00  0.00     0.200 A 
ATOM     97  F   UNL A   1      45.124  26.203  37.276  1.00  0.00    -0.200 F 
ATOM     98  F   UNL A   1      47.548  27.386  36.875  1.00  0.00    -0.200 F 
ENDBRANCH  65  88
ENDBRANCH  39  40
ENDBRANCH  31  34
ENDBRANCH  29  30
ENDBRANCH  28  29
ENDBRANCH  27  28
ENDBRANCH  26  27
ENDBRANCH   1  26
TORSDOF 20
ENDMDL
MODEL 2
REMARK VINA RESULT:     -11.3      0.576      7.390
REMARK SMILES C[C@@H](O)[C@@H](NC(=O)CCOc1ccc(Br)cc1)C(=O)NCCCCCCNC(=O)c1ccc(-c2c3nc(c(-c4c(F)c(F)c(F)c(F)c4F)c4ccc([nH]4)c(-c4c(F)c(F)c(F)c(F)c4F)c4nc(c(-c5c(F)c(F)c(F)c(F)c5F)c5ccc2[nH]5)C=C4)C=C3)cc1
REMARK SMILES IDX 22 1 21 2 20 3 18 4 19 5 4 7 2 8 1 9 3 10 5 12 6 13 7 15
REMARK SMILES IDX 8 16 9 17 10 18 11 19 12 20 17 21 13 22 16 23 14 24 15 25
REMARK SMILES IDX 23 26 24 27 25 28 26 29 27 30 28 31 29 33 30 34 31 35 92 36
REMARK SMILES IDX 32 37 91 38 33 39 34 40 35 41 85 42 36 43 90 44 84 45 86 46
REMARK SMILES IDX 37 47 89 48 83 49 82 50 38 52 70 53 50 54 69 55 51 56 54 57
REMARK SMILES IDX 68 58 87 59 52 60 53 61 67 63 88 64 55 65 39 66 40 67 48 68
REMARK SMILES IDX 41 69 42 70 46 71 49 72 43 73 44 74 47 75 45 76 71 77 72 78
REMARK SMILES IDX 80 79 73 80 74 81 78 82 81 83 75 84 76 85 79 86 77 87 56 88
REMARK SMILES IDX 57 89 65 90 58 91 59 92 63 93 66 94 60 95 61 96 64 97 62 98
REMARK H PARENT 20 6 3 11 5 14 27 32 86 51 54 62
REMARK Flexibility Score: inf
ROOT
ATOM      1  C   UNL A   1      33.214  29.331  27.195  1.00  0.00     0.021 C 
ENDROOT
BRANCH   1   2
ATOM      2  C   UNL A   1      34.086  28.428  26.323  1.00  0.00     0.116 C 
BRANCH   2   3
ATOM      3  N   UNL A   1      34.239  28.815  24.941  1.00  0.00    -0.354 N 
ATOM      4  C   UNL A   1      33.574  28.325  23.845  1.00  0.00     0.245 C 
ATOM      5  O   UNL A   1      33.321  29.157  22.962  1.00  0.00    -0.273 OA
ATOM      6  H   UNL A   1      34.904  29.519  24.762  1.00  0.00     0.163 HD
BRANCH   4   7
ATOM      7  C   UNL A   1      33.059  26.856  23.688  1.00  0.00     0.199 C 
BRANCH   7   8
ATOM      8  C   UNL A   1      33.565  26.038  22.471  1.00  0.00     0.143 C 
ATOM      9  C   UNL A   1      32.862  24.684  22.317  1.00  0.00     0.041 C 
BRANCH   8  10
ATOM     10  O   UNL A   1      33.313  26.776  21.267  1.00  0.00    -0.391 OA
ATOM     11  H   UNL A   1      32.747  26.253  20.678  1.00  0.00     0.211 HD
ENDBRANCH   8  10
ENDBRANCH   7   8
BRANCH   7  12
ATOM     12  N   UNL A   1      32.709  26.053  24.884  1.00  0.00    -0.342 N 
ATOM     13  C   UNL A   1      31.627  25.926  25.685  1.00  0.00     0.224 C 
ATOM     14  H   UNL A   1      33.449  25.467  25.166  1.00  0.00     0.164 HD
ATOM     15  O   UNL A   1      31.759  25.289  26.734  1.00  0.00    -0.275 OA
BRANCH  13  16
ATOM     16  C   UNL A   1      30.284  26.471  25.303  1.00  0.00     0.141 C 
BRANCH  16  17
ATOM     17  C   UNL A   1      29.720  25.830  24.038  1.00  0.00     0.239 C 
BRANCH  17  18
ATOM     18  O   UNL A   1      28.605  26.524  23.472  1.00  0.00    -0.493 OA
BRANCH  18  19
ATOM     19  C   UNL A   1      28.698  27.850  23.169  1.00  0.00     0.119 A 
ATOM     20  C   UNL A   1      29.821  28.505  22.673  1.00  0.00     0.047 A 
ATOM     21  C   UNL A   1      27.516  28.579  23.354  1.00  0.00     0.047 A 
ATOM     22  C   UNL A   1      29.743  29.849  22.295  1.00  0.00     0.019 A 
ATOM     23  C   UNL A   1      27.426  29.915  22.961  1.00  0.00     0.019 A 
ATOM     24  C   UNL A   1      28.542  30.542  22.421  1.00  0.00     0.018 A 
ATOM     25  Br  UNL A   1      28.421  32.331  21.828  1.00  0.00    -0.051 Br
ENDBRANCH  18  19
ENDBRANCH  17  18
ENDBRANCH  16  17
ENDBRANCH  13  16
ENDBRANCH   7  12
ENDBRANCH   4   7
ENDBRANCH   2   3
ENDBRANCH   1   2
BRANCH   1  26
ATOM     26  C   UNL A   1      31.746  29.465  26.765  1.00  0.00     0.002 C 
BRANCH  26  27
ATOM     27  C   UNL A   1      31.392  30.646  25.850  1.00  0.00     0.002 C 
BRANCH  27  28
ATOM     28  C   UNL A   1      31.303  32.031  26.501  1.00  0.00     0.021 C 
BRANCH  28  29
ATOM     29  C   UNL A   1      32.614  32.629  27.004  1.00  0.00     0.116 C 
BRANCH  29  30
ATOM     30  N   UNL A   1      32.464  33.964  27.561  1.00  0.00    -0.352 N 
ATOM     31  C   UNL A   1      33.158  34.589  28.564  1.00  0.00     0.251 C 
ATOM     32  H   UNL A   1      31.749  34.505  27.153  1.00  0.00     0.163 HD
ATOM     33  O   UNL A   1      32.785  35.693  28.965  1.00  0.00    -0.269 OA
BRANCH  31  34
ATOM     34  C   UNL A   1      34.339  33.953  29.186  1.00  0.00     0.039 A 
ATOM     35  C   UNL A   1      34.138  32.899  30.083  1.00  0.00     0.014 A 
ATOM     36  C   UNL A   1      35.633  34.411  28.931  1.00  0.00     0.014 A 
ATOM     37  C   UNL A   1      35.232  32.280  30.689  1.00  0.00     0.010 A 
ATOM     38  C   UNL A   1      36.728  33.742  29.473  1.00  0.00     0.010 A 
ATOM     39  C   UNL A   1      36.540  32.681  30.370  1.00  0.00    -0.014 A 
BRANCH  39  40
ATOM     40  C   UNL A   1      37.715  32.018  30.991  1.00  0.00     0.031 A 
ATOM     41  C   UNL A   1      38.165  32.417  32.370  1.00  0.00     0.074 A 
ATOM     42  C   UNL A   1      38.400  31.089  30.297  1.00  0.00     0.049 A 
ATOM     43  N   UNL A   1      39.185  31.985  33.068  1.00  0.00    -0.248 NA
ATOM     44  C   UNL A   1      37.379  33.462  33.046  1.00  0.00     0.031 C 
ATOM     45  C   UNL A   1      38.089  30.653  28.935  1.00  0.00     0.029 A 
ATOM     46  N   UNL A   1      39.502  30.346  30.640  1.00  0.00    -0.354 N 
ATOM     47  C   UNL A   1      39.167  32.710  34.253  1.00  0.00     0.074 A 
ATOM     48  C   UNL A   1      38.078  33.656  34.155  1.00  0.00     0.031 C 
ATOM     49  C   UNL A   1      38.958  29.697  28.569  1.00  0.00     0.029 A 
ATOM     50  C   UNL A   1      39.912  29.483  29.652  1.00  0.00     0.049 A 
ATOM     51  H   UNL A   1      39.956  30.425  31.509  1.00  0.00     0.167 HD
ATOM     52  C   UNL A   1      39.971  32.580  35.337  1.00  0.00     0.037 A 
ATOM     53  C   UNL A   1      40.944  28.619  29.625  1.00  0.00     0.037 A 
ATOM     54  C   UNL A   1      41.043  31.623  35.434  1.00  0.00     0.049 A 
ATOM     55  C   UNL A   1      41.827  28.501  30.839  1.00  0.00     0.074 A 
ATOM     56  C   UNL A   1      41.886  31.377  36.502  1.00  0.00     0.029 A 
ATOM     57  N   UNL A   1      41.419  30.756  34.419  1.00  0.00    -0.354 N 
ATOM     58  N   UNL A   1      41.761  29.144  31.980  1.00  0.00    -0.248 NA
ATOM     59  C   UNL A   1      42.923  27.525  30.765  1.00  0.00     0.031 C 
ATOM     60  C   UNL A   1      42.808  30.399  36.114  1.00  0.00     0.029 A 
ATOM     61  C   UNL A   1      42.497  29.987  34.829  1.00  0.00     0.049 A 
ATOM     62  H   UNL A   1      40.985  30.695  33.536  1.00  0.00     0.167 HD
ATOM     63  C   UNL A   1      42.777  28.627  32.771  1.00  0.00     0.074 A 
ATOM     64  C   UNL A   1      43.436  27.604  31.985  1.00  0.00     0.031 C 
ATOM     65  C   UNL A   1      43.133  28.965  34.036  1.00  0.00     0.037 A 
BRANCH  52  66
ATOM     66  C   UNL A   1      39.720  33.494  36.503  1.00  0.00     0.064 A 
ATOM     67  C   UNL A   1      38.860  33.134  37.553  1.00  0.00     0.173 A 
ATOM     68  C   UNL A   1      40.374  34.733  36.591  1.00  0.00     0.173 A 
ATOM     69  F   UNL A   1      38.201  31.966  37.515  1.00  0.00    -0.203 F 
ATOM     70  C   UNL A   1      38.638  33.992  38.627  1.00  0.00     0.198 A 
ATOM     71  C   UNL A   1      40.177  35.574  37.684  1.00  0.00     0.198 A 
ATOM     72  F   UNL A   1      41.211  35.128  35.620  1.00  0.00    -0.203 F 
ATOM     73  F   UNL A   1      37.768  33.650  39.587  1.00  0.00    -0.200 F 
ATOM     74  C   UNL A   1      39.303  35.207  38.696  1.00  0.00     0.200 A 
ATOM     75  F   UNL A   1      40.832  36.741  37.756  1.00  0.00    -0.200 F 
ATOM     76  F   UNL A   1      39.094  36.029  39.734  1.00  0.00    -0.200 F 
ENDBRANCH  52  66
BRANCH  53  77
ATOM     77  C   UNL A   1      41.183  27.778  28.423  1.00  0.00     0.064 A 
ATOM     78  C   UNL A   1      42.062  28.194  27.412  1.00  0.00     0.173 A 
ATOM     79  C   UNL A   1      40.530  26.548  28.249  1.00  0.00     0.173 A 
ATOM     80  F   UNL A   1      42.699  29.370  27.521  1.00  0.00    -0.203 F 
ATOM     81  C   UNL A   1      42.255  27.429  26.262  1.00  0.00     0.198 A 
ATOM     82  C   UNL A   1      40.749  25.768  27.116  1.00  0.00     0.198 A 
ATOM     83  F   UNL A   1      39.685  26.099  29.189  1.00  0.00    -0.203 F 
ATOM     84  F   UNL A   1      43.057  27.880  25.288  1.00  0.00    -0.200 F 
ATOM     85  C   UNL A   1      41.602  26.215  26.118  1.00  0.00     0.200 A 
ATOM     86  F   UNL A   1      40.130  24.587  26.988  1.00  0.00    -0.200 F 
ATOM     87  F   UNL A   1      41.789  25.479  25.013  1.00  0.00    -0.200 F 
ENDBRANCH  53  77
BRANCH  65  88
ATOM     88  C   UNL A   1      44.250  28.185  34.668  1.00  0.00     0.064 A 
ATOM     89  C   UNL A   1      44.019  26.995  35.375  1.00  0.00     0.173 A 
ATOM     90  C   UNL A   1      45.577  28.624  34.542  1.00  0.00     0.173 A 
ATOM     91  F   UNL A   1      42.769  26.537  35.536  1.00  0.00    -0.203 F 
ATOM     92  C   UNL A   1      45.070  26.296  35.963  1.00  0.00     0.198 A 
ATOM     93  C   UNL A   1      46.630  27.903  35.099  1.00  0.00     0.198 A 
ATOM     94  F   UNL A   1      45.856  29.751  33.869  1.00  0.00    -0.203 F 
ATOM     95  F   UNL A   1      44.818  25.195  36.685  1.00  0.00    -0.200 F 
ATOM     96  C   UNL A   1      46.374  26.746  35.818  1.00  0.00     0.200 A 
ATOM     97  F   UNL A   1      47.890  28.329  34.941  1.00  0.00    -0.200 F 
ATOM     98  F   UNL A   1      47.384  26.069  36.380  1.00  0.00    -0.200 F 
ENDBRANCH  65  88
ENDBRANCH  39  40
ENDBRANCH  31  34
ENDBRANCH  29  30
ENDBRANCH  28  29
ENDBRANCH  27  28
ENDBRANCH  26  27
ENDBRANCH   1  26
TORSDOF 20
ENDMDL
MODEL 3
REMARK VINA RESULT:     -11.3      5.527      9.561
REMARK SMILES C[C@@H](O)[C@@H](NC(=O)CCOc1ccc(Br)cc1)C(=O)NCCCCCCNC(=O)c1ccc(-c2c3nc(c(-c4c(F)c(F)c(F)c(F)c4F)c4ccc([nH]4)c(-c4c(F)c(F)c(F)c(F)c4F)c4nc(c(-c5c(F)c(F)c(F)c(F)c5F)c5ccc2[nH]5)C=C4)C=C3)cc1
REMARK SMILES IDX 22 1 21 2 20 3 18 4 19 5 4 7 2 8 1 9 3 10 5 12 6 13 7 15
REMARK SMILES IDX 8 16 9 17 10 18 11 19 12 20 17 21 13 22 16 23 14 24 15 25
REMARK SMILES IDX 23 26 24 27 25 28 26 29 27 30 28 31 29 33 30 34 31 35 92 36
REMARK SMILES IDX 32 37 91 38 33 39 34 40 35 41 85 42 36 43 90 44 84 45 86 46
REMARK SMILES IDX 37 47 89 48 83 49 82 50 38 52 70 53 50 54 69 55 51 56 54 57
REMARK SMILES IDX 68 58 87 59 52 60 53 61 67 63 88 64 55 65 39 66 40 67 48 68
REMARK SMILES IDX 41 69 42 70 46 71 49 72 43 73 44 74 47 75 45 76 71 77 72 78
REMARK SMILES IDX 80 79 73 80 74 81 78 82 81 83 75 84 76 85 79 86 77 87 56 88
REMARK SMILES IDX 57 89 65 90 58 91 59 92 63 93 66 94 60 95 61 96 64 97 62 98
REMARK H PARENT 20 6 3 11 5 14 27 32 86 51 54 62
REMARK Flexibility Score: inf
ROOT
ATOM      1  C   UNL A   1      35.879  22.573  23.878  1.00  0.00     0.021 C 
ENDROOT
BRANCH   1   2
ATOM      2  C   UNL A   1      35.024  23.507  24.734  1.00  0.00     0.116 C 
BRANCH   2   3
ATOM      3  N   UNL A   1      34.853  23.140  26.120  1.00  0.00    -0.354 N 
ATOM      4  C   UNL A   1      34.020  22.185  26.647  1.00  0.00     0.245 C 
ATOM      5  O   UNL A   1      34.469  21.569  27.624  1.00  0.00    -0.273 OA
ATOM      6  H   UNL A   1      35.404  23.635  26.768  1.00  0.00     0.163 HD
BRANCH   4   7
ATOM      7  C   UNL A   1      32.628  21.781  26.057  1.00  0.00     0.199 C 
BRANCH   7   8
ATOM      8  C   UNL A   1      32.505  20.390  25.381  1.00  0.00     0.143 C 
ATOM      9  C   UNL A   1      33.043  20.365  23.946  1.00  0.00     0.041 C 
BRANCH   8  10
ATOM     10  O   UNL A   1      33.267  19.432  26.128  1.00  0.00    -0.391 OA
ATOM     11  H   UNL A   1      33.761  18.864  25.517  1.00  0.00     0.211 HD
ENDBRANCH   8  10
ENDBRANCH   7   8
BRANCH   7  12
ATOM     12  N   UNL A   1      31.378  22.299  26.664  1.00  0.00    -0.342 N 
ATOM     13  C   UNL A   1      30.557  23.350  26.445  1.00  0.00     0.224 C 
ATOM     14  H   UNL A   1      31.071  21.739  27.414  1.00  0.00     0.164 HD
ATOM     15  O   UNL A   1      29.689  23.588  27.291  1.00  0.00    -0.275 OA
BRANCH  13  16
ATOM     16  C   UNL A   1      30.629  24.171  25.194  1.00  0.00     0.141 C 
BRANCH  16  17
ATOM     17  C   UNL A   1      30.962  25.636  25.463  1.00  0.00     0.239 C 
BRANCH  17  18
ATOM     18  O   UNL A   1      32.347  25.889  25.714  1.00  0.00    -0.493 OA
BRANCH  18  19
ATOM     19  C   UNL A   1      32.751  27.095  26.205  1.00  0.00     0.119 A 
ATOM     20  C   UNL A   1      34.033  27.629  26.122  1.00  0.00     0.047 A 
ATOM     21  C   UNL A   1      31.740  27.851  26.811  1.00  0.00     0.047 A 
ATOM     22  C   UNL A   1      34.283  28.931  26.567  1.00  0.00     0.019 A 
ATOM     23  C   UNL A   1      31.978  29.157  27.241  1.00  0.00     0.019 A 
ATOM     24  C   UNL A   1      33.252  29.696  27.105  1.00  0.00     0.018 A 
ATOM     25  Br  UNL A   1      33.576  31.482  27.626  1.00  0.00    -0.051 Br
ENDBRANCH  18  19
ENDBRANCH  17  18
ENDBRANCH  16  17
ENDBRANCH  13  16
ENDBRANCH   7  12
ENDBRANCH   4   7
ENDBRANCH   2   3
ENDBRANCH   1   2
BRANCH   1  26
ATOM     26  C   UNL A   1      37.010  21.839  24.612  1.00  0.00     0.002 C 
BRANCH  26  27
ATOM     27  C   UNL A   1      36.808  20.342  24.886  1.00  0.00     0.002 C 
BRANCH  27  28
ATOM     28  C   UNL A   1      38.069  19.477  24.999  1.00  0.00     0.021 C 
BRANCH  28  29
ATOM     29  C   UNL A   1      39.159  19.988  25.937  1.00  0.00     0.116 C 
BRANCH  29  30
ATOM     30  N   UNL A   1      40.345  19.146  25.957  1.00  0.00    -0.352 N 
ATOM     31  C   UNL A   1      41.665  19.478  26.121  1.00  0.00     0.251 C 
ATOM     32  H   UNL A   1      40.172  18.185  25.832  1.00  0.00     0.163 HD
ATOM     33  O   UNL A   1      42.531  18.613  25.984  1.00  0.00    -0.269 OA
BRANCH  31  34
ATOM     34  C   UNL A   1      42.069  20.863  26.445  1.00  0.00     0.039 A 
ATOM     35  C   UNL A   1      42.205  21.783  25.400  1.00  0.00     0.014 A 
ATOM     36  C   UNL A   1      42.357  21.251  27.755  1.00  0.00     0.014 A 
ATOM     37  C   UNL A   1      42.588  23.096  25.673  1.00  0.00     0.010 A 
ATOM     38  C   UNL A   1      42.662  22.582  28.036  1.00  0.00     0.010 A 
ATOM     39  C   UNL A   1      42.796  23.514  26.998  1.00  0.00    -0.014 A 
BRANCH  39  40
ATOM     40  C   UNL A   1      43.185  24.914  27.305  1.00  0.00     0.031 A 
ATOM     41  C   UNL A   1      44.584  25.389  27.022  1.00  0.00     0.074 A 
ATOM     42  C   UNL A   1      42.290  25.743  27.876  1.00  0.00     0.049 A 
ATOM     43  N   UNL A   1      45.126  26.558  27.252  1.00  0.00    -0.248 NA
ATOM     44  C   UNL A   1      45.507  24.410  26.426  1.00  0.00     0.031 C 
ATOM     45  C   UNL A   1      40.919  25.385  28.240  1.00  0.00     0.029 A 
ATOM     46  N   UNL A   1      42.400  27.059  28.254  1.00  0.00    -0.354 N 
ATOM     47  C   UNL A   1      46.449  26.450  26.840  1.00  0.00     0.074 A 
ATOM     48  C   UNL A   1      46.647  25.084  26.408  1.00  0.00     0.031 C 
ATOM     49  C   UNL A   1      40.305  26.460  28.759  1.00  0.00     0.029 A 
ATOM     50  C   UNL A   1      41.250  27.571  28.803  1.00  0.00     0.049 A 
ATOM     51  H   UNL A   1      43.225  27.584  28.143  1.00  0.00     0.167 HD
ATOM     52  C   UNL A   1      47.404  27.410  26.801  1.00  0.00     0.037 A 
ATOM     53  C   UNL A   1      40.991  28.799  29.291  1.00  0.00     0.037 A 
ATOM     54  C   UNL A   1      47.193  28.773  27.216  1.00  0.00     0.049 A 
ATOM     55  C   UNL A   1      42.074  29.845  29.243  1.00  0.00     0.074 A 
ATOM     56  C   UNL A   1      48.078  29.835  27.174  1.00  0.00     0.029 A 
ATOM     57  N   UNL A   1      46.011  29.259  27.754  1.00  0.00    -0.354 N 
ATOM     58  N   UNL A   1      43.300  29.751  28.790  1.00  0.00    -0.248 NA
ATOM     59  C   UNL A   1      41.729  31.175  29.765  1.00  0.00     0.031 C 
ATOM     60  C   UNL A   1      47.450  30.950  27.737  1.00  0.00     0.029 A 
ATOM     61  C   UNL A   1      46.150  30.602  28.068  1.00  0.00     0.049 A 
ATOM     62  H   UNL A   1      45.192  28.728  27.893  1.00  0.00     0.167 HD
ATOM     63  C   UNL A   1      43.861  31.012  28.935  1.00  0.00     0.074 A 
ATOM     64  C   UNL A   1      42.834  31.860  29.504  1.00  0.00     0.031 C 
ATOM     65  C   UNL A   1      45.112  31.434  28.623  1.00  0.00     0.037 A 
BRANCH  52  66
ATOM     66  C   UNL A   1      48.763  27.020  26.290  1.00  0.00     0.064 A 
ATOM     67  C   UNL A   1      49.088  27.088  24.926  1.00  0.00     0.173 A 
ATOM     68  C   UNL A   1      49.767  26.605  27.179  1.00  0.00     0.173 A 
ATOM     69  F   UNL A   1      48.163  27.467  24.030  1.00  0.00    -0.203 F 
ATOM     70  C   UNL A   1      50.351  26.722  24.469  1.00  0.00     0.198 A 
ATOM     71  C   UNL A   1      51.040  26.274  26.723  1.00  0.00     0.198 A 
ATOM     72  F   UNL A   1      49.515  26.526  28.495  1.00  0.00    -0.203 F 
ATOM     73  F   UNL A   1      50.618  26.740  23.155  1.00  0.00    -0.200 F 
ATOM     74  C   UNL A   1      51.329  26.324  25.368  1.00  0.00     0.200 A 
ATOM     75  F   UNL A   1      51.988  25.904  27.595  1.00  0.00    -0.200 F 
ATOM     76  F   UNL A   1      52.547  25.981  24.927  1.00  0.00    -0.200 F 
ENDBRANCH  52  66
BRANCH  53  77
ATOM     77  C   UNL A   1      39.646  29.118  29.838  1.00  0.00     0.064 A 
ATOM     78  C   UNL A   1      38.601  29.528  28.996  1.00  0.00     0.173 A 
ATOM     79  C   UNL A   1      39.377  29.033  31.213  1.00  0.00     0.173 A 
ATOM     80  F   UNL A   1      38.811  29.642  27.676  1.00  0.00    -0.203 F 
ATOM     81  C   UNL A   1      37.351  29.870  29.510  1.00  0.00     0.198 A 
ATOM     82  C   UNL A   1      38.117  29.343  31.722  1.00  0.00     0.198 A 
ATOM     83  F   UNL A   1      40.337  28.638  32.061  1.00  0.00    -0.203 F 
ATOM     84  F   UNL A   1      36.391  30.313  28.688  1.00  0.00    -0.200 F 
ATOM     85  C   UNL A   1      37.110  29.772  30.871  1.00  0.00     0.200 A 
ATOM     86  F   UNL A   1      37.882  29.230  33.036  1.00  0.00    -0.200 F 
ATOM     87  F   UNL A   1      35.907  30.100  31.366  1.00  0.00    -0.200 F 
ENDBRANCH  53  77
BRANCH  65  88
ATOM     88  C   UNL A   1      45.422  32.887  28.839  1.00  0.00     0.064 A 
ATOM     89  C   UNL A   1      45.996  33.356  30.031  1.00  0.00     0.173 A 
ATOM     90  C   UNL A   1      45.163  33.822  27.825  1.00  0.00     0.173 A 
ATOM     91  F   UNL A   1      46.253  32.506  31.037  1.00  0.00    -0.203 F 
ATOM     92  C   UNL A   1      46.263  34.710  30.212  1.00  0.00     0.198 A 
ATOM     93  C   UNL A   1      45.467  35.170  27.996  1.00  0.00     0.198 A 
ATOM     94  F   UNL A   1      44.624  33.427  26.662  1.00  0.00    -0.203 F 
ATOM     95  F   UNL A   1      46.754  35.142  31.382  1.00  0.00    -0.200 F 
ATOM     96  C   UNL A   1      46.006  35.614  29.193  1.00  0.00     0.200 A 
ATOM     97  F   UNL A   1      45.235  36.038  27.002  1.00  0.00    -0.200 F 
ATOM     98  F   UNL A   1      46.269  36.916  29.368  1.00  0.00    -0.200 F 
ENDBRANCH  65  88
ENDBRANCH  39  40
ENDBRANCH  31  34
ENDBRANCH  29  30
ENDBRANCH  28  29
ENDBRANCH  27  28
ENDBRANCH  26  27
ENDBRANCH   1  26
TORSDOF 20
ENDMDL
