MODEL 1
REMARK VINA RESULT:     -15.0      0.000      0.000
REMARK SMILES Cc1ccccc1[C@@H]1[NH2+][C@@H](C(=O)NCCCCCCNC(=O)c2ccc(-c3c4nc(c(-c5c(F)c(F)c(F)c(F)c5F)c5ccc([nH]5)c(-c5c(F)c(F)c(F)c(F)c5F)c5nc(c(-c6c(F)c(F)c(F)c(F)c6F)c6ccc3[nH]6)C=C5)C=C4)cc2)CC2=c3ccccc3=N[C@@H]21
REMARK SMILES IDX 17 1 16 2 15 3 14 4 13 5 11 6 12 7 10 9 8 10 9 11 95 12
REMARK SMILES IDX 87 15 94 16 86 17 88 18 93 19 89 20 92 21 90 22 91 23 7 24
REMARK SMILES IDX 1 25 2 26 3 27 4 28 6 29 5 30 18 31 19 32 20 33 21 34 22 36
REMARK SMILES IDX 23 37 24 38 85 39 25 40 84 41 26 42 27 43 28 44 78 45 29 46
REMARK SMILES IDX 83 47 77 48 79 49 30 50 82 51 76 52 75 53 31 55 63 56 43 57
REMARK SMILES IDX 62 58 44 59 47 60 61 61 80 62 45 63 46 64 60 66 81 67 48 68
REMARK SMILES IDX 32 69 33 70 41 71 34 72 35 73 39 74 42 75 36 76 37 77 40 78
REMARK SMILES IDX 38 79 64 80 65 81 73 82 66 83 67 84 71 85 74 86 68 87 69 88
REMARK SMILES IDX 72 89 70 90 49 91 50 92 58 93 51 94 52 95 56 96 59 97 53 98
REMARK SMILES IDX 54 99 57 100 55 101
REMARK H PARENT 13 8 9 13 9 14 20 35 79 54 47 65
REMARK Flexibility Score: inf
ROOT
ATOM      1  C   UNL A   1      31.790  30.043  26.776  1.00  0.00     0.002 C 
ENDROOT
BRANCH   1   2
ATOM      2  C   UNL A   1      32.246  28.580  26.822  1.00  0.00     0.002 C 
BRANCH   2   3
ATOM      3  C   UNL A   1      31.207  27.544  27.282  1.00  0.00     0.021 C 
BRANCH   3   4
ATOM      4  C   UNL A   1      30.658  26.544  26.237  1.00  0.00     0.116 C 
BRANCH   4   5
ATOM      5  N   UNL A   1      30.554  25.100  26.532  1.00  0.00    -0.351 N 
ATOM      6  C   UNL A   1      31.621  24.202  26.794  1.00  0.00     0.278 C 
ATOM      7  O   UNL A   1      31.503  23.275  27.586  1.00  0.00    -0.268 OA
ATOM      8  H   UNL A   1      29.646  24.719  26.547  1.00  0.00     0.163 HD
BRANCH   6   9
ATOM      9  C   UNL A   1      32.768  24.364  25.793  1.00  0.00     0.277 C 
ATOM     10  C   UNL A   1      34.273  22.619  24.725  1.00  0.00     0.243 C 
ATOM     11  N   UNL A   1      33.107  22.969  25.543  1.00  0.00    -0.327 N 
ATOM     12  C   UNL A   1      34.680  23.776  23.711  1.00  0.00     0.196 C 
ATOM     13  H   UNL A   1      33.251  22.536  26.455  1.00  0.00     0.347 HD
ATOM     14  H   UNL A   1      32.324  22.642  24.976  1.00  0.00     0.347 HD
ATOM     15  C   UNL A   1      34.402  25.170  24.338  1.00  0.00    -0.024 C 
ATOM     16  N   UNL A   1      33.872  23.793  22.454  1.00  0.00    -0.270 NA
ATOM     17  C   UNL A   1      34.039  25.205  25.833  1.00  0.00     0.109 C 
ATOM     18  C   UNL A   1      33.747  25.962  23.472  1.00  0.00     0.002 A 
ATOM     19  C   UNL A   1      33.409  25.008  22.389  1.00  0.00     0.066 A 
ATOM     20  C   UNL A   1      32.903  27.109  23.712  1.00  0.00     0.010 A 
ATOM     21  C   UNL A   1      32.402  25.474  21.402  1.00  0.00     0.028 A 
ATOM     22  C   UNL A   1      31.890  27.373  22.871  1.00  0.00     0.001 A 
ATOM     23  C   UNL A   1      31.681  26.576  21.675  1.00  0.00     0.002 A 
BRANCH  10  24
ATOM     24  C   UNL A   1      34.095  21.102  24.390  1.00  0.00     0.015 A 
ATOM     25  C   UNL A   1      36.477  20.471  25.072  1.00  0.00     0.045 C 
ATOM     26  C   UNL A   1      35.066  20.128  24.694  1.00  0.00    -0.042 A 
ATOM     27  C   UNL A   1      34.687  18.763  24.796  1.00  0.00     0.004 A 
ATOM     28  C   UNL A   1      33.372  18.338  24.606  1.00  0.00     0.000 A 
ATOM     29  C   UNL A   1      32.798  20.594  24.095  1.00  0.00     0.010 A 
ATOM     30  C   UNL A   1      32.421  19.261  24.244  1.00  0.00     0.001 A 
ENDBRANCH  10  24
ENDBRANCH   6   9
ENDBRANCH   4   5
ENDBRANCH   3   4
ENDBRANCH   2   3
ENDBRANCH   1   2
BRANCH   1  31
ATOM     31  C   UNL A   1      32.824  31.088  27.199  1.00  0.00     0.021 C 
BRANCH  31  32
ATOM     32  C   UNL A   1      34.201  30.523  27.533  1.00  0.00     0.116 C 
BRANCH  32  33
ATOM     33  N   UNL A   1      34.922  31.348  28.486  1.00  0.00    -0.352 N 
ATOM     34  C   UNL A   1      35.955  31.048  29.355  1.00  0.00     0.251 C 
ATOM     35  H   UNL A   1      34.622  32.285  28.521  1.00  0.00     0.163 HD
ATOM     36  O   UNL A   1      36.214  31.824  30.253  1.00  0.00    -0.269 OA
BRANCH  34  37
ATOM     37  C   UNL A   1      36.861  29.897  29.089  1.00  0.00     0.039 A 
ATOM     38  C   UNL A   1      37.148  29.062  30.182  1.00  0.00     0.014 A 
ATOM     39  C   UNL A   1      37.579  29.753  27.907  1.00  0.00     0.014 A 
ATOM     40  C   UNL A   1      38.293  28.273  30.173  1.00  0.00     0.010 A 
ATOM     41  C   UNL A   1      38.756  29.036  27.921  1.00  0.00     0.010 A 
ATOM     42  C   UNL A   1      39.145  28.358  29.078  1.00  0.00    -0.014 A 
BRANCH  42  43
ATOM     43  C   UNL A   1      40.490  27.811  29.047  1.00  0.00     0.031 A 
ATOM     44  C   UNL A   1      40.693  26.396  28.696  1.00  0.00     0.074 A 
ATOM     45  C   UNL A   1      41.537  28.652  29.188  1.00  0.00     0.049 A 
ATOM     46  N   UNL A   1      41.780  25.739  28.912  1.00  0.00    -0.248 NA
ATOM     47  C   UNL A   1      39.645  25.590  28.086  1.00  0.00     0.031 C 
ATOM     48  C   UNL A   1      42.940  28.383  28.892  1.00  0.00     0.029 A 
ATOM     49  N   UNL A   1      41.551  29.898  29.837  1.00  0.00    -0.354 N 
ATOM     50  C   UNL A   1      41.686  24.535  28.253  1.00  0.00     0.074 A 
ATOM     51  C   UNL A   1      40.313  24.467  27.809  1.00  0.00     0.031 C 
ATOM     52  C   UNL A   1      43.697  29.225  29.612  1.00  0.00     0.029 A 
ATOM     53  C   UNL A   1      42.806  29.952  30.498  1.00  0.00     0.049 A 
ATOM     54  H   UNL A   1      40.845  30.584  29.835  1.00  0.00     0.167 HD
ATOM     55  C   UNL A   1      42.823  23.800  28.071  1.00  0.00     0.037 A 
ATOM     56  C   UNL A   1      42.862  29.929  31.863  1.00  0.00     0.037 A 
ATOM     57  C   UNL A   1      43.952  24.404  28.783  1.00  0.00     0.049 A 
ATOM     58  C   UNL A   1      43.549  28.710  32.446  1.00  0.00     0.074 A 
ATOM     59  C   UNL A   1      45.002  25.231  28.420  1.00  0.00     0.029 A 
ATOM     60  N   UNL A   1      43.912  24.428  30.165  1.00  0.00    -0.354 N 
ATOM     61  N   UNL A   1      43.977  27.700  31.740  1.00  0.00    -0.248 NA
ATOM     62  C   UNL A   1      43.727  28.495  33.882  1.00  0.00     0.031 C 
ATOM     63  C   UNL A   1      45.560  25.788  29.610  1.00  0.00     0.029 A 
ATOM     64  C   UNL A   1      44.856  25.286  30.690  1.00  0.00     0.049 A 
ATOM     65  H   UNL A   1      43.285  23.897  30.708  1.00  0.00     0.167 HD
ATOM     66  C   UNL A   1      44.428  26.718  32.577  1.00  0.00     0.074 A 
ATOM     67  C   UNL A   1      44.258  27.260  33.911  1.00  0.00     0.031 C 
ATOM     68  C   UNL A   1      44.875  25.512  32.125  1.00  0.00     0.037 A 
BRANCH  55  69
ATOM     69  C   UNL A   1      42.979  22.662  27.086  1.00  0.00     0.064 A 
ATOM     70  C   UNL A   1      42.267  21.456  27.272  1.00  0.00     0.173 A 
ATOM     71  C   UNL A   1      43.842  22.660  25.973  1.00  0.00     0.173 A 
ATOM     72  F   UNL A   1      41.330  21.335  28.221  1.00  0.00    -0.203 F 
ATOM     73  C   UNL A   1      42.487  20.320  26.486  1.00  0.00     0.198 A 
ATOM     74  C   UNL A   1      44.102  21.510  25.220  1.00  0.00     0.198 A 
ATOM     75  F   UNL A   1      44.412  23.781  25.523  1.00  0.00    -0.203 F 
ATOM     76  F   UNL A   1      41.779  19.205  26.717  1.00  0.00    -0.200 F 
ATOM     77  C   UNL A   1      43.432  20.335  25.483  1.00  0.00     0.200 A 
ATOM     78  F   UNL A   1      45.006  21.557  24.229  1.00  0.00    -0.200 F 
ATOM     79  F   UNL A   1      43.674  19.237  24.756  1.00  0.00    -0.200 F 
ENDBRANCH  55  69
BRANCH  56  80
ATOM     80  C   UNL A   1      41.717  30.654  32.479  1.00  0.00     0.064 A 
ATOM     81  C   UNL A   1      41.708  32.061  32.398  1.00  0.00     0.173 A 
ATOM     82  C   UNL A   1      40.500  30.012  32.736  1.00  0.00     0.173 A 
ATOM     83  F   UNL A   1      42.852  32.725  32.164  1.00  0.00    -0.203 F 
ATOM     84  C   UNL A   1      40.516  32.779  32.423  1.00  0.00     0.198 A 
ATOM     85  C   UNL A   1      39.309  30.739  32.784  1.00  0.00     0.198 A 
ATOM     86  F   UNL A   1      40.442  28.676  32.820  1.00  0.00    -0.203 F 
ATOM     87  F   UNL A   1      40.527  34.104  32.214  1.00  0.00    -0.200 F 
ATOM     88  C   UNL A   1      39.313  32.112  32.584  1.00  0.00     0.200 A 
ATOM     89  F   UNL A   1      38.144  30.094  32.937  1.00  0.00    -0.200 F 
ATOM     90  F   UNL A   1      38.158  32.789  32.513  1.00  0.00    -0.200 F 
ENDBRANCH  56  80
BRANCH  68  91
ATOM     91  C   UNL A   1      45.382  24.437  33.034  1.00  0.00     0.064 A 
ATOM     92  C   UNL A   1      44.561  23.385  33.465  1.00  0.00     0.173 A 
ATOM     93  C   UNL A   1      46.666  24.512  33.609  1.00  0.00     0.173 A 
ATOM     94  F   UNL A   1      43.313  23.256  32.992  1.00  0.00    -0.203 F 
ATOM     95  C   UNL A   1      45.006  22.454  34.404  1.00  0.00     0.198 A 
ATOM     96  C   UNL A   1      47.088  23.614  34.585  1.00  0.00     0.198 A 
ATOM     97  F   UNL A   1      47.549  25.445  33.222  1.00  0.00    -0.203 F 
ATOM     98  F   UNL A   1      44.210  21.437  34.760  1.00  0.00    -0.200 F 
ATOM     99  C   UNL A   1      46.261  22.579  34.977  1.00  0.00     0.200 A 
ATOM    100  F   UNL A   1      48.300  23.755  35.141  1.00  0.00    -0.200 F 
ATOM    101  F   UNL A   1      46.674  21.701  35.900  1.00  0.00    -0.200 F 
ENDBRANCH  68  91
ENDBRANCH  42  43
ENDBRANCH  34  37
ENDBRANCH  32  33
ENDBRANCH  31  32
ENDBRANCH   1  31
TORSDOF 14
ENDMDL
MODEL 2
REMARK VINA RESULT:     -14.7      3.491     10.063
REMARK SMILES Cc1ccccc1[C@@H]1[NH2+][C@@H](C(=O)NCCCCCCNC(=O)c2ccc(-c3c4nc(c(-c5c(F)c(F)c(F)c(F)c5F)c5ccc([nH]5)c(-c5c(F)c(F)c(F)c(F)c5F)c5nc(c(-c6c(F)c(F)c(F)c(F)c6F)c6ccc3[nH]6)C=C5)C=C4)cc2)CC2=c3ccccc3=N[C@@H]21
REMARK SMILES IDX 17 1 16 2 15 3 14 4 13 5 11 6 12 7 10 9 8 10 9 11 95 12
REMARK SMILES IDX 87 15 94 16 86 17 88 18 93 19 89 20 92 21 90 22 91 23 7 24
REMARK SMILES IDX 1 25 2 26 3 27 4 28 6 29 5 30 18 31 19 32 20 33 21 34 22 36
REMARK SMILES IDX 23 37 24 38 85 39 25 40 84 41 26 42 27 43 28 44 78 45 29 46
REMARK SMILES IDX 83 47 77 48 79 49 30 50 82 51 76 52 75 53 31 55 63 56 43 57
REMARK SMILES IDX 62 58 44 59 47 60 61 61 80 62 45 63 46 64 60 66 81 67 48 68
REMARK SMILES IDX 32 69 33 70 41 71 34 72 35 73 39 74 42 75 36 76 37 77 40 78
REMARK SMILES IDX 38 79 64 80 65 81 73 82 66 83 67 84 71 85 74 86 68 87 69 88
REMARK SMILES IDX 72 89 70 90 49 91 50 92 58 93 51 94 52 95 56 96 59 97 53 98
REMARK SMILES IDX 54 99 57 100 55 101
REMARK H PARENT 13 8 9 13 9 14 20 35 79 54 47 65
REMARK Flexibility Score: inf
ROOT
ATOM      1  C   UNL A   1      36.861  21.317  24.735  1.00  0.00     0.002 C 
ENDROOT
BRANCH   1   2
ATOM      2  C   UNL A   1      36.113  22.642  24.548  1.00  0.00     0.002 C 
BRANCH   2   3
ATOM      3  C   UNL A   1      35.639  22.976  23.124  1.00  0.00     0.021 C 
BRANCH   3   4
ATOM      4  C   UNL A   1      34.118  22.962  22.837  1.00  0.00     0.116 C 
BRANCH   4   5
ATOM      5  N   UNL A   1      33.469  24.042  22.065  1.00  0.00    -0.351 N 
ATOM      6  C   UNL A   1      33.475  25.429  22.364  1.00  0.00     0.278 C 
ATOM      7  O   UNL A   1      33.496  26.278  21.483  1.00  0.00    -0.268 OA
ATOM      8  H   UNL A   1      32.979  23.769  21.255  1.00  0.00     0.163 HD
BRANCH   6   9
ATOM      9  C   UNL A   1      33.169  25.700  23.840  1.00  0.00     0.277 C 
ATOM     10  C   UNL A   1      31.872  27.593  24.927  1.00  0.00     0.243 C 
ATOM     11  N   UNL A   1      32.314  26.874  23.728  1.00  0.00    -0.327 N 
ATOM     12  C   UNL A   1      31.867  26.674  26.226  1.00  0.00     0.196 C 
ATOM     13  H   UNL A   1      32.821  27.549  23.154  1.00  0.00     0.347 HD
ATOM     14  H   UNL A   1      31.445  26.490  23.358  1.00  0.00     0.347 HD
ATOM     15  C   UNL A   1      33.029  25.646  26.167  1.00  0.00    -0.024 C 
ATOM     16  N   UNL A   1      30.650  25.817  26.357  1.00  0.00    -0.270 NA
ATOM     17  C   UNL A   1      34.078  25.837  25.056  1.00  0.00     0.109 C 
ATOM     18  C   UNL A   1      32.592  24.411  26.468  1.00  0.00     0.002 A 
ATOM     19  C   UNL A   1      31.123  24.612  26.494  1.00  0.00     0.066 A 
ATOM     20  C   UNL A   1      33.137  23.118  26.126  1.00  0.00     0.010 A 
ATOM     21  C   UNL A   1      30.297  23.377  26.488  1.00  0.00     0.028 A 
ATOM     22  C   UNL A   1      32.309  22.075  25.958  1.00  0.00     0.001 A 
ATOM     23  C   UNL A   1      30.883  22.201  26.200  1.00  0.00     0.002 A 
BRANCH  10  24
ATOM     24  C   UNL A   1      30.717  28.528  24.439  1.00  0.00     0.015 A 
ATOM     25  C   UNL A   1      31.568  30.573  25.715  1.00  0.00     0.045 C 
ATOM     26  C   UNL A   1      30.687  29.912  24.697  1.00  0.00    -0.042 A 
ATOM     27  C   UNL A   1      29.902  30.765  23.876  1.00  0.00     0.004 A 
ATOM     28  C   UNL A   1      29.149  30.284  22.805  1.00  0.00     0.000 A 
ATOM     29  C   UNL A   1      29.841  28.084  23.408  1.00  0.00     0.010 A 
ATOM     30  C   UNL A   1      29.111  28.930  22.575  1.00  0.00     0.001 A 
ENDBRANCH  10  24
ENDBRANCH   6   9
ENDBRANCH   4   5
ENDBRANCH   3   4
ENDBRANCH   2   3
ENDBRANCH   1   2
BRANCH   1  31
ATOM     31  C   UNL A   1      38.245  21.406  25.381  1.00  0.00     0.021 C 
BRANCH  31  32
ATOM     32  C   UNL A   1      38.559  22.749  26.032  1.00  0.00     0.116 C 
BRANCH  32  33
ATOM     33  N   UNL A   1      39.969  22.895  26.350  1.00  0.00    -0.352 N 
ATOM     34  C   UNL A   1      40.746  24.019  26.559  1.00  0.00     0.251 C 
ATOM     35  H   UNL A   1      40.457  22.044  26.429  1.00  0.00     0.163 HD
ATOM     36  O   UNL A   1      41.956  23.911  26.537  1.00  0.00    -0.269 OA
BRANCH  34  37
ATOM     37  C   UNL A   1      40.125  25.301  26.993  1.00  0.00     0.039 A 
ATOM     38  C   UNL A   1      40.540  26.458  26.311  1.00  0.00     0.014 A 
ATOM     39  C   UNL A   1      39.354  25.421  28.143  1.00  0.00     0.014 A 
ATOM     40  C   UNL A   1      40.396  27.706  26.908  1.00  0.00     0.010 A 
ATOM     41  C   UNL A   1      39.278  26.642  28.776  1.00  0.00     0.010 A 
ATOM     42  C   UNL A   1      39.863  27.767  28.190  1.00  0.00    -0.014 A 
BRANCH  42  43
ATOM     43  C   UNL A   1      39.903  28.949  29.033  1.00  0.00     0.031 A 
ATOM     44  C   UNL A   1      38.869  29.986  28.884  1.00  0.00     0.074 A 
ATOM     45  C   UNL A   1      40.797  28.997  30.044  1.00  0.00     0.049 A 
ATOM     46  N   UNL A   1      38.959  31.181  29.357  1.00  0.00    -0.248 NA
ATOM     47  C   UNL A   1      37.637  29.751  28.143  1.00  0.00     0.031 C 
ATOM     48  C   UNL A   1      40.812  29.918  31.175  1.00  0.00     0.029 A 
ATOM     49  N   UNL A   1      42.022  28.314  30.135  1.00  0.00    -0.354 N 
ATOM     50  C   UNL A   1      37.729  31.783  29.226  1.00  0.00     0.074 A 
ATOM     51  C   UNL A   1      36.961  30.873  28.407  1.00  0.00     0.031 C 
ATOM     52  C   UNL A   1      42.066  29.992  31.648  1.00  0.00     0.029 A 
ATOM     53  C   UNL A   1      42.912  29.238  30.740  1.00  0.00     0.049 A 
ATOM     54  H   UNL A   1      42.219  27.394  29.843  1.00  0.00     0.167 HD
ATOM     55  C   UNL A   1      37.484  32.928  29.930  1.00  0.00     0.037 A 
ATOM     56  C   UNL A   1      43.954  29.754  30.023  1.00  0.00     0.037 A 
ATOM     57  C   UNL A   1      38.699  33.393  30.604  1.00  0.00     0.049 A 
ATOM     58  C   UNL A   1      43.883  31.250  29.794  1.00  0.00     0.074 A 
ATOM     59  C   UNL A   1      39.202  33.280  31.890  1.00  0.00     0.029 A 
ATOM     60  N   UNL A   1      39.754  33.824  29.821  1.00  0.00    -0.354 N 
ATOM     61  N   UNL A   1      42.878  32.001  30.152  1.00  0.00    -0.248 NA
ATOM     62  C   UNL A   1      44.902  32.004  29.062  1.00  0.00     0.031 C 
ATOM     63  C   UNL A   1      40.591  33.607  31.852  1.00  0.00     0.029 A 
ATOM     64  C   UNL A   1      40.921  33.930  30.548  1.00  0.00     0.049 A 
ATOM     65  H   UNL A   1      39.680  34.029  28.861  1.00  0.00     0.167 HD
ATOM     66  C   UNL A   1      43.071  33.273  29.688  1.00  0.00     0.074 A 
ATOM     67  C   UNL A   1      44.355  33.230  29.015  1.00  0.00     0.031 C 
ATOM     68  C   UNL A   1      42.151  34.265  29.852  1.00  0.00     0.037 A 
BRANCH  55  69
ATOM     69  C   UNL A   1      36.115  33.517  30.191  1.00  0.00     0.064 A 
ATOM     70  C   UNL A   1      35.346  34.033  29.123  1.00  0.00     0.173 A 
ATOM     71  C   UNL A   1      35.517  33.658  31.457  1.00  0.00     0.173 A 
ATOM     72  F   UNL A   1      35.728  33.882  27.848  1.00  0.00    -0.203 F 
ATOM     73  C   UNL A   1      34.147  34.726  29.321  1.00  0.00     0.198 A 
ATOM     74  C   UNL A   1      34.346  34.397  31.663  1.00  0.00     0.198 A 
ATOM     75  F   UNL A   1      35.995  33.031  32.535  1.00  0.00    -0.203 F 
ATOM     76  F   UNL A   1      33.468  35.193  28.265  1.00  0.00    -0.200 F 
ATOM     77  C   UNL A   1      33.667  34.941  30.595  1.00  0.00     0.200 A 
ATOM     78  F   UNL A   1      33.880  34.568  32.909  1.00  0.00    -0.200 F 
ATOM     79  F   UNL A   1      32.541  35.639  30.790  1.00  0.00    -0.200 F 
ENDBRANCH  55  69
BRANCH  56  80
ATOM     80  C   UNL A   1      44.521  28.760  29.072  1.00  0.00     0.064 A 
ATOM     81  C   UNL A   1      45.286  27.702  29.603  1.00  0.00     0.173 A 
ATOM     82  C   UNL A   1      43.991  28.594  27.787  1.00  0.00     0.173 A 
ATOM     83  F   UNL A   1      45.826  27.815  30.827  1.00  0.00    -0.203 F 
ATOM     84  C   UNL A   1      45.389  26.481  28.941  1.00  0.00     0.198 A 
ATOM     85  C   UNL A   1      44.116  27.375  27.117  1.00  0.00     0.198 A 
ATOM     86  F   UNL A   1      43.250  29.562  27.228  1.00  0.00    -0.203 F 
ATOM     87  F   UNL A   1      46.014  25.451  29.531  1.00  0.00    -0.200 F 
ATOM     88  C   UNL A   1      44.775  26.309  27.713  1.00  0.00     0.200 A 
ATOM     89  F   UNL A   1      43.520  27.207  25.928  1.00  0.00    -0.200 F 
ATOM     90  F   UNL A   1      44.791  25.107  27.118  1.00  0.00    -0.200 F 
ENDBRANCH  56  80
BRANCH  68  91
ATOM     91  C   UNL A   1      42.361  35.662  29.357  1.00  0.00     0.064 A 
ATOM     92  C   UNL A   1      41.810  36.108  28.148  1.00  0.00     0.173 A 
ATOM     93  C   UNL A   1      43.238  36.546  30.016  1.00  0.00     0.173 A 
ATOM     94  F   UNL A   1      40.989  35.319  27.440  1.00  0.00    -0.203 F 
ATOM     95  C   UNL A   1      42.107  37.372  27.637  1.00  0.00     0.198 A 
ATOM     96  C   UNL A   1      43.575  37.785  29.478  1.00  0.00     0.198 A 
ATOM     97  F   UNL A   1      43.773  36.238  31.208  1.00  0.00    -0.203 F 
ATOM     98  F   UNL A   1      41.528  37.783  26.501  1.00  0.00    -0.200 F 
ATOM     99  C   UNL A   1      43.002  38.202  28.292  1.00  0.00     0.200 A 
ATOM    100  F   UNL A   1      44.454  38.571  30.116  1.00  0.00    -0.200 F 
ATOM    101  F   UNL A   1      43.309  39.403  27.784  1.00  0.00    -0.200 F 
ENDBRANCH  68  91
ENDBRANCH  42  43
ENDBRANCH  34  37
ENDBRANCH  32  33
ENDBRANCH  31  32
ENDBRANCH   1  31
TORSDOF 14
ENDMDL
MODEL 3
REMARK VINA RESULT:     -14.6      1.270      1.984
REMARK SMILES Cc1ccccc1[C@@H]1[NH2+][C@@H](C(=O)NCCCCCCNC(=O)c2ccc(-c3c4nc(c(-c5c(F)c(F)c(F)c(F)c5F)c5ccc([nH]5)c(-c5c(F)c(F)c(F)c(F)c5F)c5nc(c(-c6c(F)c(F)c(F)c(F)c6F)c6ccc3[nH]6)C=C5)C=C4)cc2)CC2=c3ccccc3=N[C@@H]21
REMARK SMILES IDX 17 1 16 2 15 3 14 4 13 5 11 6 12 7 10 9 8 10 9 11 95 12
REMARK SMILES IDX 87 15 94 16 86 17 88 18 93 19 89 20 92 21 90 22 91 23 7 24
REMARK SMILES IDX 1 25 2 26 3 27 4 28 6 29 5 30 18 31 19 32 20 33 21 34 22 36
REMARK SMILES IDX 23 37 24 38 85 39 25 40 84 41 26 42 27 43 28 44 78 45 29 46
REMARK SMILES IDX 83 47 77 48 79 49 30 50 82 51 76 52 75 53 31 55 63 56 43 57
REMARK SMILES IDX 62 58 44 59 47 60 61 61 80 62 45 63 46 64 60 66 81 67 48 68
REMARK SMILES IDX 32 69 33 70 41 71 34 72 35 73 39 74 42 75 36 76 37 77 40 78
REMARK SMILES IDX 38 79 64 80 65 81 73 82 66 83 67 84 71 85 74 86 68 87 69 88
REMARK SMILES IDX 72 89 70 90 49 91 50 92 58 93 51 94 52 95 56 96 59 97 53 98
REMARK SMILES IDX 54 99 57 100 55 101
REMARK H PARENT 13 8 9 13 9 14 20 35 79 54 47 65
REMARK Flexibility Score: inf
ROOT
ATOM      1  C   UNL A   1      32.428  28.599  27.026  1.00  0.00     0.002 C 
ENDROOT
BRANCH   1   2
ATOM      2  C   UNL A   1      31.394  27.980  26.077  1.00  0.00     0.002 C 
BRANCH   2   3
ATOM      3  C   UNL A   1      30.769  26.644  26.510  1.00  0.00     0.021 C 
BRANCH   3   4
ATOM      4  C   UNL A   1      30.550  25.555  25.431  1.00  0.00     0.116 C 
BRANCH   4   5
ATOM      5  N   UNL A   1      29.949  24.248  25.766  1.00  0.00    -0.351 N 
ATOM      6  C   UNL A   1      30.476  23.265  26.643  1.00  0.00     0.278 C 
ATOM      7  O   UNL A   1      29.749  22.565  27.337  1.00  0.00    -0.268 OA
ATOM      8  H   UNL A   1      29.090  24.036  25.333  1.00  0.00     0.163 HD
BRANCH   6   9
ATOM      9  C   UNL A   1      31.966  23.013  26.395  1.00  0.00     0.277 C 
ATOM     10  C   UNL A   1      33.187  20.876  25.766  1.00  0.00     0.243 C 
ATOM     11  N   UNL A   1      31.939  21.615  25.984  1.00  0.00    -0.327 N 
ATOM     12  C   UNL A   1      34.409  21.831  25.411  1.00  0.00     0.196 C 
ATOM     13  H   UNL A   1      31.423  21.110  26.705  1.00  0.00     0.347 HD
ATOM     14  H   UNL A   1      31.533  21.659  25.050  1.00  0.00     0.347 HD
ATOM     15  C   UNL A   1      34.280  23.181  26.167  1.00  0.00    -0.024 C 
ATOM     16  N   UNL A   1      34.464  22.239  23.976  1.00  0.00    -0.270 NA
ATOM     17  C   UNL A   1      33.196  23.273  27.256  1.00  0.00     0.109 C 
ATOM     18  C   UNL A   1      34.480  24.217  25.334  1.00  0.00     0.002 A 
ATOM     19  C   UNL A   1      34.510  23.539  24.016  1.00  0.00     0.066 A 
ATOM     20  C   UNL A   1      34.043  25.590  25.429  1.00  0.00     0.010 A 
ATOM     21  C   UNL A   1      34.401  24.423  22.827  1.00  0.00     0.028 A 
ATOM     22  C   UNL A   1      33.787  26.282  24.307  1.00  0.00     0.001 A 
ATOM     23  C   UNL A   1      34.027  25.704  22.997  1.00  0.00     0.002 A 
BRANCH  10  24
ATOM     24  C   UNL A   1      32.763  19.577  25.005  1.00  0.00     0.015 A 
ATOM     25  C   UNL A   1      32.153  20.803  22.847  1.00  0.00     0.045 C 
ATOM     26  C   UNL A   1      32.436  19.559  23.636  1.00  0.00    -0.042 A 
ATOM     27  C   UNL A   1      32.509  18.340  22.910  1.00  0.00     0.004 A 
ATOM     28  C   UNL A   1      32.900  17.140  23.504  1.00  0.00     0.000 A 
ATOM     29  C   UNL A   1      33.042  18.304  25.579  1.00  0.00     0.010 A 
ATOM     30  C   UNL A   1      33.159  17.120  24.853  1.00  0.00     0.001 A 
ENDBRANCH  10  24
ENDBRANCH   6   9
ENDBRANCH   4   5
ENDBRANCH   3   4
ENDBRANCH   2   3
ENDBRANCH   1   2
BRANCH   1  31
ATOM     31  C   UNL A   1      32.322  30.108  27.251  1.00  0.00     0.021 C 
BRANCH  31  32
ATOM     32  C   UNL A   1      33.562  30.901  26.850  1.00  0.00     0.116 C 
BRANCH  32  33
ATOM     33  N   UNL A   1      34.068  31.725  27.933  1.00  0.00    -0.352 N 
ATOM     34  C   UNL A   1      34.979  31.455  28.937  1.00  0.00     0.251 C 
ATOM     35  H   UNL A   1      33.695  32.636  27.958  1.00  0.00     0.163 HD
ATOM     36  O   UNL A   1      35.041  32.202  29.894  1.00  0.00    -0.269 OA
BRANCH  34  37
ATOM     37  C   UNL A   1      36.000  30.385  28.768  1.00  0.00     0.039 A 
ATOM     38  C   UNL A   1      36.310  29.631  29.913  1.00  0.00     0.014 A 
ATOM     39  C   UNL A   1      36.784  30.256  27.628  1.00  0.00     0.014 A 
ATOM     40  C   UNL A   1      37.524  28.955  29.993  1.00  0.00     0.010 A 
ATOM     41  C   UNL A   1      38.020  29.656  27.728  1.00  0.00     0.010 A 
ATOM     42  C   UNL A   1      38.415  29.071  28.933  1.00  0.00    -0.014 A 
BRANCH  42  43
ATOM     43  C   UNL A   1      39.805  28.653  28.988  1.00  0.00     0.031 A 
ATOM     44  C   UNL A   1      40.169  27.279  28.607  1.00  0.00     0.074 A 
ATOM     45  C   UNL A   1      40.753  29.582  29.236  1.00  0.00     0.049 A 
ATOM     46  N   UNL A   1      41.295  26.718  28.885  1.00  0.00    -0.248 NA
ATOM     47  C   UNL A   1      39.251  26.404  27.892  1.00  0.00     0.031 C 
ATOM     48  C   UNL A   1      42.193  29.458  29.040  1.00  0.00     0.029 A 
ATOM     49  N   UNL A   1      40.600  30.797  29.926  1.00  0.00    -0.354 N 
ATOM     50  C   UNL A   1      41.366  25.538  28.181  1.00  0.00     0.074 A 
ATOM     51  C   UNL A   1      40.042  25.360  27.631  1.00  0.00     0.031 C 
ATOM     52  C   UNL A   1      42.811  30.337  29.844  1.00  0.00     0.029 A 
ATOM     53  C   UNL A   1      41.791  30.942  30.682  1.00  0.00     0.049 A 
ATOM     54  H   UNL A   1      39.833  31.414  29.891  1.00  0.00     0.167 HD
ATOM     55  C   UNL A   1      42.578  24.921  28.063  1.00  0.00     0.037 A 
ATOM     56  C   UNL A   1      41.749  30.869  32.045  1.00  0.00     0.037 A 
ATOM     57  C   UNL A   1      43.588  25.598  28.880  1.00  0.00     0.049 A 
ATOM     58  C   UNL A   1      42.505  29.698  32.639  1.00  0.00     0.074 A 
ATOM     59  C   UNL A   1      44.578  26.534  28.626  1.00  0.00     0.029 A 
ATOM     60  N   UNL A   1      43.445  25.563  30.254  1.00  0.00    -0.354 N 
ATOM     61  N   UNL A   1      43.079  28.762  31.936  1.00  0.00    -0.248 NA
ATOM     62  C   UNL A   1      42.597  29.443  34.078  1.00  0.00     0.031 C 
ATOM     63  C   UNL A   1      44.991  27.092  29.872  1.00  0.00     0.029 A 
ATOM     64  C   UNL A   1      44.261  26.484  30.878  1.00  0.00     0.049 A 
ATOM     65  H   UNL A   1      42.834  24.954  30.730  1.00  0.00     0.167 HD
ATOM     66  C   UNL A   1      43.560  27.793  32.772  1.00  0.00     0.074 A 
ATOM     67  C   UNL A   1      43.240  28.263  34.106  1.00  0.00     0.031 C 
ATOM     68  C   UNL A   1      44.153  26.653  32.317  1.00  0.00     0.037 A 
BRANCH  55  69
ATOM     69  C   UNL A   1      42.915  23.842  27.056  1.00  0.00     0.064 A 
ATOM     70  C   UNL A   1      42.580  22.494  27.317  1.00  0.00     0.173 A 
ATOM     71  C   UNL A   1      43.608  24.044  25.847  1.00  0.00     0.173 A 
ATOM     72  F   UNL A   1      41.830  22.151  28.372  1.00  0.00    -0.203 F 
ATOM     73  C   UNL A   1      43.001  21.440  26.499  1.00  0.00     0.198 A 
ATOM     74  C   UNL A   1      44.075  22.988  25.057  1.00  0.00     0.198 A 
ATOM     75  F   UNL A   1      43.798  25.266  25.341  1.00  0.00    -0.203 F 
ATOM     76  F   UNL A   1      42.651  20.183  26.805  1.00  0.00    -0.200 F 
ATOM     77  C   UNL A   1      43.781  21.684  25.390  1.00  0.00     0.200 A 
ATOM     78  F   UNL A   1      44.808  23.250  23.964  1.00  0.00    -0.200 F 
ATOM     79  F   UNL A   1      44.219  20.673  24.628  1.00  0.00    -0.200 F 
ENDBRANCH  55  69
BRANCH  56  80
ATOM     80  C   UNL A   1      40.498  31.459  32.595  1.00  0.00     0.064 A 
ATOM     81  C   UNL A   1      40.330  32.855  32.500  1.00  0.00     0.173 A 
ATOM     82  C   UNL A   1      39.351  30.682  32.795  1.00  0.00     0.173 A 
ATOM     83  F   UNL A   1      41.400  33.647  32.319  1.00  0.00    -0.203 F 
ATOM     84  C   UNL A   1      39.063  33.431  32.458  1.00  0.00     0.198 A 
ATOM     85  C   UNL A   1      38.083  31.266  32.776  1.00  0.00     0.198 A 
ATOM     86  F   UNL A   1      39.443  29.348  32.889  1.00  0.00    -0.203 F 
ATOM     87  F   UNL A   1      38.933  34.747  32.236  1.00  0.00    -0.200 F 
ATOM     88  C   UNL A   1      37.939  32.630  32.563  1.00  0.00     0.200 A 
ATOM     89  F   UNL A   1      36.994  30.491  32.875  1.00  0.00    -0.200 F 
ATOM     90  F   UNL A   1      36.719  33.167  32.427  1.00  0.00    -0.200 F 
ENDBRANCH  56  80
BRANCH  68  91
ATOM     91  C   UNL A   1      44.692  25.595  33.227  1.00  0.00     0.064 A 
ATOM     92  C   UNL A   1      46.051  25.248  33.234  1.00  0.00     0.173 A 
ATOM     93  C   UNL A   1      43.834  24.803  34.016  1.00  0.00     0.173 A 
ATOM     94  F   UNL A   1      46.933  25.929  32.488  1.00  0.00    -0.203 F 
ATOM     95  C   UNL A   1      46.524  24.182  33.999  1.00  0.00     0.198 A 
ATOM     96  C   UNL A   1      44.301  23.707  34.736  1.00  0.00     0.198 A 
ATOM     97  F   UNL A   1      42.528  25.088  34.124  1.00  0.00    -0.203 F 
ATOM     98  F   UNL A   1      47.835  23.905  34.015  1.00  0.00    -0.200 F 
ATOM     99  C   UNL A   1      45.648  23.401  34.734  1.00  0.00     0.200 A 
ATOM    100  F   UNL A   1      43.439  22.952  35.432  1.00  0.00    -0.200 F 
ATOM    101  F   UNL A   1      46.101  22.359  35.444  1.00  0.00    -0.200 F 
ENDBRANCH  68  91
ENDBRANCH  42  43
ENDBRANCH  34  37
ENDBRANCH  32  33
ENDBRANCH  31  32
ENDBRANCH   1  31
TORSDOF 14
ENDMDL
