MODEL 1
REMARK VINA RESULT:     -15.2      0.000      0.000
REMARK SMILES Cc1ccc([C@@]23C[C@@H]4C[C@@H](C[C@@](C(=O)N5CCC(C(=O)NCCCCCCNC(=O)c6ccc(-c7c8nc(c(-c9c(F)c(F)c(F)c(F)c9F)c9ccc([nH]9)c(-c9c(F)c(F)c(F)c(F)c9F)c9nc(c(-c%10c(F)c(F)c(F)c(F)c%10F)c%10ccc7[nH]%10)C=C9)C=C8)cc6)CC5)(C4)C2)C3)cc1
REMARK SMILES IDX 24 1 23 2 22 3 21 4 19 5 20 6 18 8 13 9 14 10 15 11 16 12
REMARK SMILES IDX 95 13 17 14 94 15 12 16 6 17 7 18 97 19 98 20 8 21 10 22
REMARK SMILES IDX 9 23 96 24 11 25 5 26 1 27 2 28 3 29 100 30 4 31 99 32 25 33
REMARK SMILES IDX 26 34 27 35 28 36 29 37 30 39 31 40 32 41 93 42 33 43 92 44
REMARK SMILES IDX 34 45 35 46 36 47 86 48 37 49 91 50 85 51 87 52 38 53 90 54
REMARK SMILES IDX 84 55 83 56 39 58 71 59 51 60 70 61 52 62 55 63 69 64 88 65
REMARK SMILES IDX 53 66 54 67 68 69 89 70 56 71 40 72 41 73 49 74 42 75 43 76
REMARK SMILES IDX 47 77 50 78 44 79 45 80 48 81 46 82 72 83 73 84 81 85 74 86
REMARK SMILES IDX 75 87 79 88 82 89 76 90 77 91 80 92 78 93 57 94 58 95 66 96
REMARK SMILES IDX 59 97 60 98 64 99 67 100 61 101 62 102 65 103 63 104
REMARK H PARENT 21 7 28 38 87 57 55 68
REMARK Flexibility Score: inf
ROOT
ATOM      1  C   UNL A   1      33.561  28.214  25.892  1.00  0.00     0.002 C 
ENDROOT
BRANCH   1   2
ATOM      2  C   UNL A   1      32.978  29.137  24.815  1.00  0.00     0.021 C 
BRANCH   2   3
ATOM      3  C   UNL A   1      31.453  29.214  24.775  1.00  0.00     0.116 C 
BRANCH   3   4
ATOM      4  N   UNL A   1      30.955  29.687  23.495  1.00  0.00    -0.356 N 
ATOM      5  C   UNL A   1      30.428  29.006  22.440  1.00  0.00     0.223 C 
ATOM      6  O   UNL A   1      30.004  29.659  21.484  1.00  0.00    -0.275 OA
ATOM      7  H   UNL A   1      31.009  30.662  23.368  1.00  0.00     0.163 HD
BRANCH   5   8
ATOM      8  C   UNL A   1      30.374  27.486  22.417  1.00  0.00     0.082 C 
ATOM      9  C   UNL A   1      31.766  24.872  25.101  1.00  0.00     0.228 C 
ATOM     10  O   UNL A   1      31.178  25.118  26.159  1.00  0.00    -0.274 OA
ATOM     11  N   UNL A   1      31.168  25.163  23.874  1.00  0.00    -0.342 N 
ATOM     12  C   UNL A   1      29.743  25.461  23.842  1.00  0.00     0.120 C 
ATOM     13  C   UNL A   1      31.816  25.408  22.587  1.00  0.00     0.120 C 
ATOM     14  C   UNL A   1      29.510  26.938  23.570  1.00  0.00     0.035 C 
ATOM     15  C   UNL A   1      31.788  26.896  22.283  1.00  0.00     0.035 C 
BRANCH   9  16
ATOM     16  C   UNL A   1      33.150  24.186  25.138  1.00  0.00     0.051 C 
ATOM     17  C   UNL A   1      34.270  21.878  24.885  1.00  0.00    -0.003 C 
ATOM     18  C   UNL A   1      35.176  22.548  23.808  1.00  0.00     0.015 C 
ATOM     19  C   UNL A   1      32.948  22.674  24.923  1.00  0.00     0.028 C 
ATOM     20  C   UNL A   1      34.935  22.050  26.274  1.00  0.00     0.015 C 
ATOM     21  C   UNL A   1      35.460  24.026  24.141  1.00  0.00    -0.009 C 
ATOM     22  C   UNL A   1      35.158  23.545  26.585  1.00  0.00    -0.009 C 
ATOM     23  C   UNL A   1      36.107  24.128  25.529  1.00  0.00     0.007 C 
ATOM     24  C   UNL A   1      34.146  24.816  24.145  1.00  0.00     0.020 C 
ATOM     25  C   UNL A   1      33.814  24.310  26.546  1.00  0.00     0.020 C 
BRANCH  17  26
ATOM     26  C   UNL A   1      34.017  20.394  24.556  1.00  0.00    -0.042 A 
ATOM     27  C   UNL A   1      33.228  16.181  23.849  1.00  0.00     0.044 C 
ATOM     28  C   UNL A   1      33.490  17.641  24.064  1.00  0.00    -0.051 A 
ATOM     29  C   UNL A   1      34.757  18.057  24.465  1.00  0.00     0.004 A 
ATOM     30  C   UNL A   1      32.493  18.602  23.885  1.00  0.00     0.004 A 
ATOM     31  C   UNL A   1      35.015  19.410  24.696  1.00  0.00     0.004 A 
ATOM     32  C   UNL A   1      32.754  19.959  24.122  1.00  0.00     0.004 A 
ENDBRANCH  17  26
ENDBRANCH   9  16
ENDBRANCH   5   8
ENDBRANCH   3   4
ENDBRANCH   2   3
ENDBRANCH   1   2
BRANCH   1  33
ATOM     33  C   UNL A   1      34.312  28.896  27.048  1.00  0.00     0.002 C 
BRANCH  33  34
ATOM     34  C   UNL A   1      33.718  30.209  27.564  1.00  0.00     0.021 C 
BRANCH  34  35
ATOM     35  C   UNL A   1      34.692  31.378  27.586  1.00  0.00     0.116 C 
BRANCH  35  36
ATOM     36  N   UNL A   1      35.041  31.849  28.918  1.00  0.00    -0.352 N 
ATOM     37  C   UNL A   1      35.910  31.299  29.850  1.00  0.00     0.251 C 
ATOM     38  H   UNL A   1      34.596  32.681  29.199  1.00  0.00     0.163 HD
ATOM     39  O   UNL A   1      36.026  31.794  30.951  1.00  0.00    -0.269 OA
BRANCH  37  40
ATOM     40  C   UNL A   1      36.798  30.178  29.438  1.00  0.00     0.039 A 
ATOM     41  C   UNL A   1      37.041  29.162  30.371  1.00  0.00     0.014 A 
ATOM     42  C   UNL A   1      37.529  30.230  28.256  1.00  0.00     0.014 A 
ATOM     43  C   UNL A   1      38.178  28.368  30.235  1.00  0.00     0.010 A 
ATOM     44  C   UNL A   1      38.710  29.520  28.173  1.00  0.00     0.010 A 
ATOM     45  C   UNL A   1      39.068  28.640  29.198  1.00  0.00    -0.014 A 
BRANCH  45  46
ATOM     46  C   UNL A   1      40.449  28.172  29.186  1.00  0.00     0.031 A 
ATOM     47  C   UNL A   1      40.807  26.851  28.634  1.00  0.00     0.074 A 
ATOM     48  C   UNL A   1      41.430  29.014  29.585  1.00  0.00     0.049 A 
ATOM     49  N   UNL A   1      41.864  26.193  28.977  1.00  0.00    -0.248 NA
ATOM     50  C   UNL A   1      39.987  26.150  27.653  1.00  0.00     0.031 C 
ATOM     51  C   UNL A   1      42.866  28.866  29.362  1.00  0.00     0.029 A 
ATOM     52  N   UNL A   1      41.324  30.118  30.447  1.00  0.00    -0.354 N 
ATOM     53  C   UNL A   1      42.016  25.154  28.090  1.00  0.00     0.074 A 
ATOM     54  C   UNL A   1      40.787  25.130  27.328  1.00  0.00     0.031 C 
ATOM     55  C   UNL A   1      43.525  29.615  30.258  1.00  0.00     0.029 A 
ATOM     56  C   UNL A   1      42.536  30.153  31.175  1.00  0.00     0.049 A 
ATOM     57  H   UNL A   1      40.563  30.738  30.529  1.00  0.00     0.167 HD
ATOM     58  C   UNL A   1      43.222  24.522  27.996  1.00  0.00     0.037 A 
ATOM     59  C   UNL A   1      42.567  30.006  32.531  1.00  0.00     0.037 A 
ATOM     60  C   UNL A   1      44.193  25.080  28.929  1.00  0.00     0.049 A 
ATOM     61  C   UNL A   1      43.420  28.855  33.007  1.00  0.00     0.074 A 
ATOM     62  C   UNL A   1      45.207  26.013  28.770  1.00  0.00     0.029 A 
ATOM     63  N   UNL A   1      44.012  24.927  30.299  1.00  0.00    -0.354 N 
ATOM     64  N   UNL A   1      43.761  27.850  32.253  1.00  0.00    -0.248 NA
ATOM     65  C   UNL A   1      43.917  28.722  34.373  1.00  0.00     0.031 C 
ATOM     66  C   UNL A   1      45.632  26.429  30.051  1.00  0.00     0.029 A 
ATOM     67  C   UNL A   1      44.880  25.749  30.992  1.00  0.00     0.049 A 
ATOM     68  H   UNL A   1      43.358  24.320  30.716  1.00  0.00     0.167 HD
ATOM     69  C   UNL A   1      44.472  26.940  32.994  1.00  0.00     0.074 A 
ATOM     70  C   UNL A   1      44.561  27.543  34.310  1.00  0.00     0.031 C 
ATOM     71  C   UNL A   1      44.907  25.767  32.446  1.00  0.00     0.037 A 
BRANCH  58  72
ATOM     72  C   UNL A   1      43.602  23.616  26.845  1.00  0.00     0.064 A 
ATOM     73  C   UNL A   1      43.194  22.264  26.812  1.00  0.00     0.173 A 
ATOM     74  C   UNL A   1      44.412  24.013  25.767  1.00  0.00     0.173 A 
ATOM     75  F   UNL A   1      42.325  21.768  27.701  1.00  0.00    -0.203 F 
ATOM     76  C   UNL A   1      43.669  21.359  25.862  1.00  0.00     0.198 A 
ATOM     77  C   UNL A   1      44.930  23.097  24.845  1.00  0.00     0.198 A 
ATOM     78  F   UNL A   1      44.688  25.306  25.549  1.00  0.00    -0.203 F 
ATOM     79  F   UNL A   1      43.260  20.082  25.897  1.00  0.00    -0.200 F 
ATOM     80  C   UNL A   1      44.572  21.765  24.903  1.00  0.00     0.200 A 
ATOM     81  F   UNL A   1      45.788  23.515  23.902  1.00  0.00    -0.200 F 
ATOM     82  F   UNL A   1      45.073  20.886  24.026  1.00  0.00    -0.200 F 
ENDBRANCH  58  72
BRANCH  59  83
ATOM     83  C   UNL A   1      41.321  30.467  33.196  1.00  0.00     0.064 A 
ATOM     84  C   UNL A   1      41.131  31.851  33.376  1.00  0.00     0.173 A 
ATOM     85  C   UNL A   1      40.196  29.639  33.288  1.00  0.00     0.173 A 
ATOM     86  F   UNL A   1      42.179  32.686  33.292  1.00  0.00    -0.203 F 
ATOM     87  C   UNL A   1      39.856  32.393  33.514  1.00  0.00     0.198 A 
ATOM     88  C   UNL A   1      38.921  30.186  33.441  1.00  0.00     0.198 A 
ATOM     89  F   UNL A   1      40.311  28.316  33.110  1.00  0.00    -0.203 F 
ATOM     90  F   UNL A   1      39.699  33.724  33.563  1.00  0.00    -0.200 F 
ATOM     91  C   UNL A   1      38.750  31.562  33.518  1.00  0.00     0.200 A 
ATOM     92  F   UNL A   1      37.846  29.386  33.415  1.00  0.00    -0.200 F 
ATOM     93  F   UNL A   1      37.516  32.085  33.553  1.00  0.00    -0.200 F 
ENDBRANCH  59  83
BRANCH  71  94
ATOM     94  C   UNL A   1      45.487  24.573  33.174  1.00  0.00     0.064 A 
ATOM     95  C   UNL A   1      46.793  24.515  33.685  1.00  0.00     0.173 A 
ATOM     96  C   UNL A   1      44.659  23.471  33.509  1.00  0.00     0.173 A 
ATOM     97  F   UNL A   1      47.645  25.537  33.546  1.00  0.00    -0.203 F 
ATOM     98  C   UNL A   1      47.252  23.418  34.422  1.00  0.00     0.198 A 
ATOM     99  C   UNL A   1      45.102  22.408  34.294  1.00  0.00     0.198 A 
ATOM    100  F   UNL A   1      43.380  23.402  33.111  1.00  0.00    -0.203 F 
ATOM    101  F   UNL A   1      48.522  23.395  34.853  1.00  0.00    -0.200 F 
ATOM    102  C   UNL A   1      46.406  22.373  34.738  1.00  0.00     0.200 A 
ATOM    103  F   UNL A   1      44.250  21.430  34.634  1.00  0.00    -0.200 F 
ATOM    104  F   UNL A   1      46.838  21.348  35.485  1.00  0.00    -0.200 F 
ENDBRANCH  71  94
ENDBRANCH  45  46
ENDBRANCH  37  40
ENDBRANCH  35  36
ENDBRANCH  34  35
ENDBRANCH  33  34
ENDBRANCH   1  33
TORSDOF 15
ENDMDL
MODEL 2
REMARK VINA RESULT:     -14.5      1.876      3.096
REMARK SMILES Cc1ccc([C@@]23C[C@@H]4C[C@@H](C[C@@](C(=O)N5CCC(C(=O)NCCCCCCNC(=O)c6ccc(-c7c8nc(c(-c9c(F)c(F)c(F)c(F)c9F)c9ccc([nH]9)c(-c9c(F)c(F)c(F)c(F)c9F)c9nc(c(-c%10c(F)c(F)c(F)c(F)c%10F)c%10ccc7[nH]%10)C=C9)C=C8)cc6)CC5)(C4)C2)C3)cc1
REMARK SMILES IDX 24 1 23 2 22 3 21 4 19 5 20 6 18 8 13 9 14 10 15 11 16 12
REMARK SMILES IDX 95 13 17 14 94 15 12 16 6 17 7 18 97 19 98 20 8 21 10 22
REMARK SMILES IDX 9 23 96 24 11 25 5 26 1 27 2 28 3 29 100 30 4 31 99 32 25 33
REMARK SMILES IDX 26 34 27 35 28 36 29 37 30 39 31 40 32 41 93 42 33 43 92 44
REMARK SMILES IDX 34 45 35 46 36 47 86 48 37 49 91 50 85 51 87 52 38 53 90 54
REMARK SMILES IDX 84 55 83 56 39 58 71 59 51 60 70 61 52 62 55 63 69 64 88 65
REMARK SMILES IDX 53 66 54 67 68 69 89 70 56 71 40 72 41 73 49 74 42 75 43 76
REMARK SMILES IDX 47 77 50 78 44 79 45 80 48 81 46 82 72 83 73 84 81 85 74 86
REMARK SMILES IDX 75 87 79 88 82 89 76 90 77 91 80 92 78 93 57 94 58 95 66 96
REMARK SMILES IDX 59 97 60 98 64 99 67 100 61 101 62 102 65 103 63 104
REMARK H PARENT 21 7 28 38 87 57 55 68
REMARK Flexibility Score: inf
ROOT
ATOM      1  C   UNL A   1      33.349  28.502  26.197  1.00  0.00     0.002 C 
ENDROOT
BRANCH   1   2
ATOM      2  C   UNL A   1      32.520  29.274  25.163  1.00  0.00     0.021 C 
BRANCH   2   3
ATOM      3  C   UNL A   1      32.810  28.930  23.704  1.00  0.00     0.116 C 
BRANCH   3   4
ATOM      4  N   UNL A   1      31.734  29.333  22.815  1.00  0.00    -0.356 N 
ATOM      5  C   UNL A   1      30.682  28.627  22.317  1.00  0.00     0.223 C 
ATOM      6  O   UNL A   1      29.853  29.230  21.632  1.00  0.00    -0.275 OA
ATOM      7  H   UNL A   1      31.772  30.273  22.523  1.00  0.00     0.163 HD
BRANCH   5   8
ATOM      8  C   UNL A   1      30.528  27.135  22.572  1.00  0.00     0.082 C 
ATOM      9  C   UNL A   1      32.381  24.833  25.263  1.00  0.00     0.228 C 
ATOM     10  O   UNL A   1      32.093  25.298  26.370  1.00  0.00    -0.274 OA
ATOM     11  N   UNL A   1      31.514  24.993  24.181  1.00  0.00    -0.342 N 
ATOM     12  C   UNL A   1      30.148  25.429  24.435  1.00  0.00     0.120 C 
ATOM     13  C   UNL A   1      31.834  24.970  22.754  1.00  0.00     0.120 C 
ATOM     14  C   UNL A   1      29.948  26.862  23.973  1.00  0.00     0.035 C 
ATOM     15  C   UNL A   1      31.824  26.388  22.212  1.00  0.00     0.035 C 
BRANCH   9  16
ATOM     16  C   UNL A   1      33.685  24.021  25.091  1.00  0.00     0.051 C 
ATOM     17  C   UNL A   1      34.545  21.601  24.875  1.00  0.00    -0.003 C 
ATOM     18  C   UNL A   1      35.245  22.075  23.565  1.00  0.00     0.015 C 
ATOM     19  C   UNL A   1      33.327  22.524  25.094  1.00  0.00     0.028 C 
ATOM     20  C   UNL A   1      35.506  21.838  26.068  1.00  0.00     0.015 C 
ATOM     21  C   UNL A   1      35.706  23.542  23.663  1.00  0.00    -0.009 C 
ATOM     22  C   UNL A   1      35.903  23.327  26.155  1.00  0.00    -0.009 C 
ATOM     23  C   UNL A   1      36.643  23.712  24.865  1.00  0.00     0.007 C 
ATOM     24  C   UNL A   1      34.487  24.454  23.848  1.00  0.00     0.020 C 
ATOM     25  C   UNL A   1      34.644  24.212  26.307  1.00  0.00     0.020 C 
BRANCH  17  26
ATOM     26  C   UNL A   1      34.116  20.125  24.776  1.00  0.00    -0.042 A 
ATOM     27  C   UNL A   1      32.915  15.950  24.731  1.00  0.00     0.044 C 
ATOM     28  C   UNL A   1      33.310  17.396  24.723  1.00  0.00    -0.051 A 
ATOM     29  C   UNL A   1      34.654  17.739  24.600  1.00  0.00     0.004 A 
ATOM     30  C   UNL A   1      32.366  18.418  24.847  1.00  0.00     0.004 A 
ATOM     31  C   UNL A   1      35.046  19.079  24.617  1.00  0.00     0.004 A 
ATOM     32  C   UNL A   1      32.763  19.763  24.868  1.00  0.00     0.004 A 
ENDBRANCH  17  26
ENDBRANCH   9  16
ENDBRANCH   5   8
ENDBRANCH   3   4
ENDBRANCH   2   3
ENDBRANCH   1   2
BRANCH   1  33
ATOM     33  C   UNL A   1      33.443  29.120  27.602  1.00  0.00     0.002 C 
BRANCH  33  34
ATOM     34  C   UNL A   1      34.765  29.808  27.954  1.00  0.00     0.021 C 
BRANCH  34  35
ATOM     35  C   UNL A   1      34.929  31.201  27.364  1.00  0.00     0.116 C 
BRANCH  35  36
ATOM     36  N   UNL A   1      34.120  32.228  28.005  1.00  0.00    -0.352 N 
ATOM     37  C   UNL A   1      34.400  33.005  29.120  1.00  0.00     0.251 C 
ATOM     38  H   UNL A   1      33.245  32.397  27.585  1.00  0.00     0.163 HD
ATOM     39  O   UNL A   1      33.569  33.771  29.562  1.00  0.00    -0.269 OA
BRANCH  37  40
ATOM     40  C   UNL A   1      35.776  32.990  29.686  1.00  0.00     0.039 A 
ATOM     41  C   UNL A   1      36.802  33.561  28.921  1.00  0.00     0.014 A 
ATOM     42  C   UNL A   1      36.082  32.259  30.829  1.00  0.00     0.014 A 
ATOM     43  C   UNL A   1      38.122  33.182  29.157  1.00  0.00     0.010 A 
ATOM     44  C   UNL A   1      37.373  31.799  30.998  1.00  0.00     0.010 A 
ATOM     45  C   UNL A   1      38.379  32.206  30.119  1.00  0.00    -0.014 A 
BRANCH  45  46
ATOM     46  C   UNL A   1      39.623  31.449  30.174  1.00  0.00     0.031 A 
ATOM     47  C   UNL A   1      39.748  30.128  29.526  1.00  0.00     0.074 A 
ATOM     48  C   UNL A   1      40.715  32.020  30.732  1.00  0.00     0.049 A 
ATOM     49  N   UNL A   1      40.600  29.229  29.888  1.00  0.00    -0.248 NA
ATOM     50  C   UNL A   1      38.901  29.705  28.417  1.00  0.00     0.031 C 
ATOM     51  C   UNL A   1      42.102  31.578  30.615  1.00  0.00     0.029 A 
ATOM     52  N   UNL A   1      40.758  33.049  31.688  1.00  0.00    -0.354 N 
ATOM     53  C   UNL A   1      40.618  28.255  28.918  1.00  0.00     0.074 A 
ATOM     54  C   UNL A   1      39.496  28.561  28.059  1.00  0.00     0.031 C 
ATOM     55  C   UNL A   1      42.810  32.091  31.632  1.00  0.00     0.029 A 
ATOM     56  C   UNL A   1      41.870  32.760  32.513  1.00  0.00     0.049 A 
ATOM     57  H   UNL A   1      40.142  33.813  31.768  1.00  0.00     0.167 HD
ATOM     58  C   UNL A   1      41.666  27.382  28.862  1.00  0.00     0.037 A 
ATOM     59  C   UNL A   1      41.732  32.504  33.845  1.00  0.00     0.037 A 
ATOM     60  C   UNL A   1      42.634  27.639  29.922  1.00  0.00     0.049 A 
ATOM     61  C   UNL A   1      42.269  31.160  34.274  1.00  0.00     0.074 A 
ATOM     62  C   UNL A   1      43.833  28.335  29.938  1.00  0.00     0.029 A 
ATOM     63  N   UNL A   1      42.286  27.423  31.250  1.00  0.00    -0.354 N 
ATOM     64  N   UNL A   1      42.463  30.166  33.455  1.00  0.00    -0.248 NA
ATOM     65  C   UNL A   1      42.586  30.814  35.657  1.00  0.00     0.031 C 
ATOM     66  C   UNL A   1      44.205  28.545  31.285  1.00  0.00     0.029 A 
ATOM     67  C   UNL A   1      43.234  27.977  32.090  1.00  0.00     0.049 A 
ATOM     68  H   UNL A   1      41.480  26.943  31.550  1.00  0.00     0.167 HD
ATOM     69  C   UNL A   1      42.887  29.067  34.159  1.00  0.00     0.074 A 
ATOM     70  C   UNL A   1      42.967  29.531  35.530  1.00  0.00     0.031 C 
ATOM     71  C   UNL A   1      43.117  27.874  33.536  1.00  0.00     0.037 A 
BRANCH  58  72
ATOM     72  C   UNL A   1      41.960  26.509  27.662  1.00  0.00     0.064 A 
ATOM     73  C   UNL A   1      41.309  25.267  27.483  1.00  0.00     0.173 A 
ATOM     74  C   UNL A   1      42.915  26.819  26.678  1.00  0.00     0.173 A 
ATOM     75  F   UNL A   1      40.292  24.885  28.266  1.00  0.00    -0.203 F 
ATOM     76  C   UNL A   1      41.680  24.360  26.490  1.00  0.00     0.198 A 
ATOM     77  C   UNL A   1      43.324  25.891  25.714  1.00  0.00     0.198 A 
ATOM     78  F   UNL A   1      43.447  28.046  26.595  1.00  0.00    -0.203 F 
ATOM     79  F   UNL A   1      41.036  23.189  26.385  1.00  0.00    -0.200 F 
ATOM     80  C   UNL A   1      42.717  24.654  25.631  1.00  0.00     0.200 A 
ATOM     81  F   UNL A   1      44.318  26.203  24.870  1.00  0.00    -0.200 F 
ATOM     82  F   UNL A   1      43.113  23.761  24.714  1.00  0.00    -0.200 F 
ENDBRANCH  58  72
BRANCH  59  83
ATOM     83  C   UNL A   1      40.551  33.174  34.449  1.00  0.00     0.064 A 
ATOM     84  C   UNL A   1      39.379  32.417  34.642  1.00  0.00     0.173 A 
ATOM     85  C   UNL A   1      40.680  34.367  35.170  1.00  0.00     0.173 A 
ATOM     86  F   UNL A   1      39.211  31.263  33.977  1.00  0.00    -0.203 F 
ATOM     87  C   UNL A   1      38.439  32.774  35.606  1.00  0.00     0.198 A 
ATOM     88  C   UNL A   1      39.729  34.728  36.124  1.00  0.00     0.198 A 
ATOM     89  F   UNL A   1      41.781  35.122  35.041  1.00  0.00    -0.203 F 
ATOM     90  F   UNL A   1      37.395  31.969  35.849  1.00  0.00    -0.200 F 
ATOM     91  C   UNL A   1      38.630  33.915  36.365  1.00  0.00     0.200 A 
ATOM     92  F   UNL A   1      39.926  35.816  36.882  1.00  0.00    -0.200 F 
ATOM     93  F   UNL A   1      37.780  34.210  37.359  1.00  0.00    -0.200 F 
ENDBRANCH  59  83
BRANCH  71  94
ATOM     94  C   UNL A   1      43.354  26.529  34.187  1.00  0.00     0.064 A 
ATOM     95  C   UNL A   1      42.351  25.748  34.782  1.00  0.00     0.173 A 
ATOM     96  C   UNL A   1      44.627  25.906  34.097  1.00  0.00     0.173 A 
ATOM     97  F   UNL A   1      41.078  26.161  34.829  1.00  0.00    -0.203 F 
ATOM     98  C   UNL A   1      42.610  24.473  35.298  1.00  0.00     0.198 A 
ATOM     99  C   UNL A   1      44.867  24.613  34.557  1.00  0.00     0.198 A 
ATOM    100  F   UNL A   1      45.674  26.523  33.530  1.00  0.00    -0.203 F 
ATOM    101  F   UNL A   1      41.624  23.786  35.893  1.00  0.00    -0.200 F 
ATOM    102  C   UNL A   1      43.861  23.901  35.174  1.00  0.00     0.200 A 
ATOM    103  F   UNL A   1      46.074  24.056  34.380  1.00  0.00    -0.200 F 
ATOM    104  F   UNL A   1      44.092  22.661  35.626  1.00  0.00    -0.200 F 
ENDBRANCH  71  94
ENDBRANCH  45  46
ENDBRANCH  37  40
ENDBRANCH  35  36
ENDBRANCH  34  35
ENDBRANCH  33  34
ENDBRANCH   1  33
TORSDOF 15
ENDMDL
MODEL 3
REMARK VINA RESULT:     -13.9      3.795     10.194
REMARK SMILES Cc1ccc([C@@]23C[C@@H]4C[C@@H](C[C@@](C(=O)N5CCC(C(=O)NCCCCCCNC(=O)c6ccc(-c7c8nc(c(-c9c(F)c(F)c(F)c(F)c9F)c9ccc([nH]9)c(-c9c(F)c(F)c(F)c(F)c9F)c9nc(c(-c%10c(F)c(F)c(F)c(F)c%10F)c%10ccc7[nH]%10)C=C9)C=C8)cc6)CC5)(C4)C2)C3)cc1
REMARK SMILES IDX 24 1 23 2 22 3 21 4 19 5 20 6 18 8 13 9 14 10 15 11 16 12
REMARK SMILES IDX 95 13 17 14 94 15 12 16 6 17 7 18 97 19 98 20 8 21 10 22
REMARK SMILES IDX 9 23 96 24 11 25 5 26 1 27 2 28 3 29 100 30 4 31 99 32 25 33
REMARK SMILES IDX 26 34 27 35 28 36 29 37 30 39 31 40 32 41 93 42 33 43 92 44
REMARK SMILES IDX 34 45 35 46 36 47 86 48 37 49 91 50 85 51 87 52 38 53 90 54
REMARK SMILES IDX 84 55 83 56 39 58 71 59 51 60 70 61 52 62 55 63 69 64 88 65
REMARK SMILES IDX 53 66 54 67 68 69 89 70 56 71 40 72 41 73 49 74 42 75 43 76
REMARK SMILES IDX 47 77 50 78 44 79 45 80 48 81 46 82 72 83 73 84 81 85 74 86
REMARK SMILES IDX 75 87 79 88 82 89 76 90 77 91 80 92 78 93 57 94 58 95 66 96
REMARK SMILES IDX 59 97 60 98 64 99 67 100 61 101 62 102 65 103 63 104
REMARK H PARENT 21 7 28 38 87 57 55 68
REMARK Flexibility Score: inf
ROOT
ATOM      1  C   UNL A   1      40.503  20.617  26.440  1.00  0.00     0.002 C 
ENDROOT
BRANCH   1   2
ATOM      2  C   UNL A   1      39.398  19.807  25.751  1.00  0.00     0.021 C 
BRANCH   2   3
ATOM      3  C   UNL A   1      38.338  20.631  25.025  1.00  0.00     0.116 C 
BRANCH   3   4
ATOM      4  N   UNL A   1      38.360  22.030  25.416  1.00  0.00    -0.356 N 
ATOM      5  C   UNL A   1      37.373  22.968  25.418  1.00  0.00     0.223 C 
ATOM      6  O   UNL A   1      37.633  24.082  25.877  1.00  0.00    -0.275 OA
ATOM      7  H   UNL A   1      39.234  22.354  25.734  1.00  0.00     0.163 HD
BRANCH   5   8
ATOM      8  C   UNL A   1      35.990  22.672  24.856  1.00  0.00     0.082 C 
ATOM      9  C   UNL A   1      33.441  25.134  23.006  1.00  0.00     0.228 C 
ATOM     10  O   UNL A   1      34.028  25.544  21.999  1.00  0.00    -0.274 OA
ATOM     11  N   UNL A   1      33.760  23.891  23.554  1.00  0.00    -0.342 N 
ATOM     12  C   UNL A   1      34.552  22.958  22.763  1.00  0.00     0.120 C 
ATOM     13  C   UNL A   1      33.572  23.433  24.930  1.00  0.00     0.120 C 
ATOM     14  C   UNL A   1      35.959  22.840  23.324  1.00  0.00     0.035 C 
ATOM     15  C   UNL A   1      34.911  23.430  25.648  1.00  0.00     0.035 C 
BRANCH   9  16
ATOM     16  C   UNL A   1      32.309  25.981  23.628  1.00  0.00     0.051 C 
ATOM     17  C   UNL A   1      31.910  27.946  25.247  1.00  0.00    -0.003 C 
ATOM     18  C   UNL A   1      31.101  28.605  24.088  1.00  0.00     0.015 C 
ATOM     19  C   UNL A   1      32.940  26.998  24.597  1.00  0.00     0.028 C 
ATOM     20  C   UNL A   1      30.953  27.061  26.085  1.00  0.00     0.015 C 
ATOM     21  C   UNL A   1      30.377  27.550  23.228  1.00  0.00    -0.009 C 
ATOM     22  C   UNL A   1      30.287  25.992  25.193  1.00  0.00    -0.009 C 
ATOM     23  C   UNL A   1      29.455  26.703  24.115  1.00  0.00     0.007 C 
ATOM     24  C   UNL A   1      31.408  26.632  22.561  1.00  0.00     0.020 C 
ATOM     25  C   UNL A   1      31.362  25.111  24.514  1.00  0.00     0.020 C 
BRANCH  17  26
ATOM     26  C   UNL A   1      32.605  29.012  26.116  1.00  0.00    -0.042 A 
ATOM     27  C   UNL A   1      34.635  32.123  28.368  1.00  0.00     0.044 C 
ATOM     28  C   UNL A   1      33.912  31.050  27.613  1.00  0.00    -0.051 A 
ATOM     29  C   UNL A   1      34.572  29.862  27.310  1.00  0.00     0.004 A 
ATOM     30  C   UNL A   1      32.591  31.210  27.189  1.00  0.00     0.004 A 
ATOM     31  C   UNL A   1      33.926  28.860  26.584  1.00  0.00     0.004 A 
ATOM     32  C   UNL A   1      31.945  30.203  26.457  1.00  0.00     0.004 A 
ENDBRANCH  17  26
ENDBRANCH   9  16
ENDBRANCH   5   8
ENDBRANCH   3   4
ENDBRANCH   2   3
ENDBRANCH   1   2
BRANCH   1  33
ATOM     33  C   UNL A   1      41.480  19.830  27.329  1.00  0.00     0.002 C 
BRANCH  33  34
ATOM     34  C   UNL A   1      42.661  19.164  26.618  1.00  0.00     0.021 C 
BRANCH  34  35
ATOM     35  C   UNL A   1      43.133  19.886  25.365  1.00  0.00     0.116 C 
BRANCH  35  36
ATOM     36  N   UNL A   1      44.523  20.316  25.403  1.00  0.00    -0.352 N 
ATOM     37  C   UNL A   1      45.054  21.567  25.689  1.00  0.00     0.251 C 
ATOM     38  H   UNL A   1      45.185  19.617  25.195  1.00  0.00     0.163 HD
ATOM     39  O   UNL A   1      46.248  21.763  25.603  1.00  0.00    -0.269 OA
BRANCH  37  40
ATOM     40  C   UNL A   1      44.162  22.624  26.235  1.00  0.00     0.039 A 
ATOM     41  C   UNL A   1      43.966  23.776  25.462  1.00  0.00     0.014 A 
ATOM     42  C   UNL A   1      43.700  22.577  27.547  1.00  0.00     0.014 A 
ATOM     43  C   UNL A   1      43.548  24.952  26.082  1.00  0.00     0.010 A 
ATOM     44  C   UNL A   1      43.388  23.761  28.184  1.00  0.00     0.010 A 
ATOM     45  C   UNL A   1      43.381  24.959  27.466  1.00  0.00    -0.014 A 
BRANCH  45  46
ATOM     46  C   UNL A   1      43.348  26.181  28.260  1.00  0.00     0.031 A 
ATOM     47  C   UNL A   1      42.098  26.945  28.443  1.00  0.00     0.074 A 
ATOM     48  C   UNL A   1      44.460  26.555  28.934  1.00  0.00     0.049 A 
ATOM     49  N   UNL A   1      42.062  28.205  28.722  1.00  0.00    -0.248 NA
ATOM     50  C   UNL A   1      40.775  26.347  28.309  1.00  0.00     0.031 C 
ATOM     51  C   UNL A   1      44.553  27.541  30.008  1.00  0.00     0.029 A 
ATOM     52  N   UNL A   1      45.796  26.227  28.647  1.00  0.00    -0.354 N 
ATOM     53  C   UNL A   1      40.771  28.517  29.077  1.00  0.00     0.074 A 
ATOM     54  C   UNL A   1      39.995  27.345  28.739  1.00  0.00     0.031 C 
ATOM     55  C   UNL A   1      45.823  27.961  30.104  1.00  0.00     0.029 A 
ATOM     56  C   UNL A   1      46.555  27.367  29.000  1.00  0.00     0.049 A 
ATOM     57  H   UNL A   1      46.133  25.380  28.276  1.00  0.00     0.167 HD
ATOM     58  C   UNL A   1      40.523  29.676  29.754  1.00  0.00     0.037 A 
ATOM     59  C   UNL A   1      47.280  28.063  28.079  1.00  0.00     0.037 A 
ATOM     60  C   UNL A   1      41.746  30.439  29.977  1.00  0.00     0.049 A 
ATOM     61  C   UNL A   1      46.905  29.521  27.973  1.00  0.00     0.074 A 
ATOM     62  C   UNL A   1      42.592  30.541  31.070  1.00  0.00     0.029 A 
ATOM     63  N   UNL A   1      42.424  30.997  28.900  1.00  0.00    -0.354 N 
ATOM     64  N   UNL A   1      45.766  30.004  28.379  1.00  0.00    -0.248 NA
ATOM     65  C   UNL A   1      47.758  30.539  27.366  1.00  0.00     0.031 C 
ATOM     66  C   UNL A   1      43.791  31.157  30.647  1.00  0.00     0.029 A 
ATOM     67  C   UNL A   1      43.675  31.433  29.296  1.00  0.00     0.049 A 
ATOM     68  H   UNL A   1      42.066  31.072  27.986  1.00  0.00     0.167 HD
ATOM     69  C   UNL A   1      45.702  31.342  28.080  1.00  0.00     0.074 A 
ATOM     70  C   UNL A   1      46.982  31.632  27.465  1.00  0.00     0.031 C 
ATOM     71  C   UNL A   1      44.584  32.076  28.360  1.00  0.00     0.037 A 
BRANCH  58  72
ATOM     72  C   UNL A   1      39.226  29.956  30.481  1.00  0.00     0.064 A 
ATOM     73  C   UNL A   1      38.446  31.094  30.175  1.00  0.00     0.173 A 
ATOM     74  C   UNL A   1      38.724  29.163  31.528  1.00  0.00     0.173 A 
ATOM     75  F   UNL A   1      38.726  31.879  29.127  1.00  0.00    -0.203 F 
ATOM     76  C   UNL A   1      37.343  31.476  30.939  1.00  0.00     0.198 A 
ATOM     77  C   UNL A   1      37.650  29.572  32.327  1.00  0.00     0.198 A 
ATOM     78  F   UNL A   1      39.231  27.949  31.779  1.00  0.00    -0.203 F 
ATOM     79  F   UNL A   1      36.655  32.579  30.608  1.00  0.00    -0.200 F 
ATOM     80  C   UNL A   1      36.970  30.739  32.042  1.00  0.00     0.200 A 
ATOM     81  F   UNL A   1      37.285  28.829  33.381  1.00  0.00    -0.200 F 
ATOM     82  F   UNL A   1      35.946  31.135  32.810  1.00  0.00    -0.200 F 
ENDBRANCH  58  72
BRANCH  59  83
ATOM     83  C   UNL A   1      47.739  27.224  26.942  1.00  0.00     0.064 A 
ATOM     84  C   UNL A   1      47.102  27.380  25.696  1.00  0.00     0.173 A 
ATOM     85  C   UNL A   1      48.992  26.600  26.957  1.00  0.00     0.173 A 
ATOM     86  F   UNL A   1      45.902  27.977  25.629  1.00  0.00    -0.203 F 
ATOM     87  C   UNL A   1      47.745  27.040  24.508  1.00  0.00     0.198 A 
ATOM     88  C   UNL A   1      49.626  26.248  25.765  1.00  0.00     0.198 A 
ATOM     89  F   UNL A   1      49.655  26.438  28.111  1.00  0.00    -0.203 F 
ATOM     90  F   UNL A   1      47.160  27.311  23.332  1.00  0.00    -0.200 F 
ATOM     91  C   UNL A   1      49.018  26.500  24.543  1.00  0.00     0.200 A 
ATOM     92  F   UNL A   1      50.872  25.753  25.795  1.00  0.00    -0.200 F 
ATOM     93  F   UNL A   1      49.679  26.263  23.401  1.00  0.00    -0.200 F 
ENDBRANCH  59  83
BRANCH  71  94
ATOM     94  C   UNL A   1      44.265  33.478  27.889  1.00  0.00     0.064 A 
ATOM     95  C   UNL A   1      43.778  33.795  26.611  1.00  0.00     0.173 A 
ATOM     96  C   UNL A   1      44.311  34.565  28.802  1.00  0.00     0.173 A 
ATOM     97  F   UNL A   1      43.571  32.848  25.687  1.00  0.00    -0.203 F 
ATOM     98  C   UNL A   1      43.422  35.100  26.255  1.00  0.00     0.198 A 
ATOM     99  C   UNL A   1      43.899  35.852  28.461  1.00  0.00     0.198 A 
ATOM    100  F   UNL A   1      44.731  34.407  30.066  1.00  0.00    -0.203 F 
ATOM    101  F   UNL A   1      43.000  35.354  25.008  1.00  0.00    -0.200 F 
ATOM    102  C   UNL A   1      43.469  36.124  27.181  1.00  0.00     0.200 A 
ATOM    103  F   UNL A   1      43.902  36.820  29.389  1.00  0.00    -0.200 F 
ATOM    104  F   UNL A   1      43.080  37.362  26.849  1.00  0.00    -0.200 F 
ENDBRANCH  71  94
ENDBRANCH  45  46
ENDBRANCH  37  40
ENDBRANCH  35  36
ENDBRANCH  34  35
ENDBRANCH  33  34
ENDBRANCH   1  33
TORSDOF 15
ENDMDL
