MODEL 1
REMARK VINA RESULT:      -9.9      0.000      0.000
REMARK SMILES O=C(CC(=O)c1ccccc1)Nc1cccc(C(=O)NCCCCCCNC(=O)c2ccc(-c3c4nc(c(-c5c(F)c(F)c(F)c(F)c5F)c5ccc([nH]5)c(-c5c(F)c(F)c(F)c(F)c5F)c5nc(c(-c6c(F)c(F)c(F)c(F)c6F)c6ccc3[nH]6)C=C5)C=C4)cc2)c1
REMARK SMILES IDX 22 1 21 2 20 3 18 4 19 5 17 7 13 8 14 9 93 10 15 11 16 12
REMARK SMILES IDX 12 13 1 14 2 15 3 17 4 18 5 19 6 20 7 21 11 22 8 23 10 24
REMARK SMILES IDX 9 25 23 26 24 27 25 28 26 29 27 30 28 31 29 33 30 34 31 35
REMARK SMILES IDX 92 36 32 37 91 38 33 39 34 40 35 41 85 42 36 43 90 44 84 45
REMARK SMILES IDX 86 46 37 47 89 48 83 49 82 50 38 52 70 53 50 54 69 55 51 56
REMARK SMILES IDX 54 57 68 58 87 59 52 60 53 61 67 63 88 64 55 65 39 66 40 67
REMARK SMILES IDX 48 68 41 69 42 70 46 71 49 72 43 73 44 74 47 75 45 76 71 77
REMARK SMILES IDX 72 78 80 79 73 80 74 81 78 82 81 83 75 84 76 85 79 86 77 87
REMARK SMILES IDX 56 88 57 89 65 90 58 91 59 92 63 93 66 94 60 95 61 96 64 97
REMARK SMILES IDX 62 98
REMARK H PARENT 20 6 12 16 27 32 86 51 54 62
REMARK Flexibility Score: inf
ROOT
ATOM      1  C   UNL A   1      44.596  23.190  28.502  1.00  0.00     0.021 C 
ENDROOT
BRANCH   1   2
ATOM      2  C   UNL A   1      45.570  24.343  28.713  1.00  0.00     0.116 C 
BRANCH   2   3
ATOM      3  N   UNL A   1      46.721  24.344  27.819  1.00  0.00    -0.352 N 
ATOM      4  C   UNL A   1      46.925  25.023  26.632  1.00  0.00     0.251 C 
ATOM      5  O   UNL A   1      47.976  24.866  26.015  1.00  0.00    -0.269 OA
ATOM      6  H   UNL A   1      47.470  23.772  28.105  1.00  0.00     0.163 HD
BRANCH   4   7
ATOM      7  C   UNL A   1      45.861  25.887  26.052  1.00  0.00     0.041 A 
ATOM      8  C   UNL A   1      44.749  28.034  26.017  1.00  0.00     0.041 A 
ATOM      9  C   UNL A   1      43.650  27.445  25.387  1.00  0.00     0.026 A 
ATOM     10  C   UNL A   1      45.896  27.270  26.209  1.00  0.00     0.040 A 
ATOM     11  C   UNL A   1      43.681  26.089  25.038  1.00  0.00     0.003 A 
ATOM     12  C   UNL A   1      44.771  25.299  25.407  1.00  0.00     0.014 A 
BRANCH   8  13
ATOM     13  N   UNL A   1      44.624  29.356  26.506  1.00  0.00    -0.326 N 
ATOM     14  O   UNL A   1      46.404  30.401  25.422  1.00  0.00    -0.274 OA
ATOM     15  C   UNL A   1      45.426  30.436  26.167  1.00  0.00     0.232 C 
ATOM     16  H   UNL A   1      43.897  29.526  27.149  1.00  0.00     0.169 HD
BRANCH  15  17
ATOM     17  C   UNL A   1      45.076  31.732  26.831  1.00  0.00     0.181 C 
BRANCH  17  18
ATOM     18  C   UNL A   1      44.477  32.830  26.003  1.00  0.00     0.172 C 
ATOM     19  O   UNL A   1      44.529  32.764  24.773  1.00  0.00    -0.294 OA
BRANCH  18  20
ATOM     20  C   UNL A   1      43.754  33.982  26.617  1.00  0.00     0.018 A 
ATOM     21  C   UNL A   1      43.446  33.882  27.981  1.00  0.00     0.012 A 
ATOM     22  C   UNL A   1      43.291  35.092  25.901  1.00  0.00     0.012 A 
ATOM     23  C   UNL A   1      42.666  34.853  28.609  1.00  0.00     0.001 A 
ATOM     24  C   UNL A   1      42.483  36.048  26.525  1.00  0.00     0.001 A 
ATOM     25  C   UNL A   1      42.169  35.927  27.875  1.00  0.00     0.000 A 
ENDBRANCH  18  20
ENDBRANCH  17  18
ENDBRANCH  15  17
ENDBRANCH   8  13
ENDBRANCH   4   7
ENDBRANCH   2   3
ENDBRANCH   1   2
BRANCH   1  26
ATOM     26  C   UNL A   1      43.181  23.570  28.075  1.00  0.00     0.002 C 
BRANCH  26  27
ATOM     27  C   UNL A   1      42.039  22.793  28.736  1.00  0.00     0.002 C 
BRANCH  27  28
ATOM     28  C   UNL A   1      41.339  21.739  27.874  1.00  0.00     0.021 C 
BRANCH  28  29
ATOM     29  C   UNL A   1      41.231  22.056  26.385  1.00  0.00     0.116 C 
BRANCH  29  30
ATOM     30  N   UNL A   1      39.855  22.177  25.930  1.00  0.00    -0.352 N 
ATOM     31  C   UNL A   1      38.946  23.185  26.132  1.00  0.00     0.251 C 
ATOM     32  H   UNL A   1      39.526  21.421  25.395  1.00  0.00     0.163 HD
ATOM     33  O   UNL A   1      37.779  23.035  25.780  1.00  0.00    -0.269 OA
BRANCH  31  34
ATOM     34  C   UNL A   1      39.349  24.449  26.792  1.00  0.00     0.039 A 
ATOM     35  C   UNL A   1      38.968  24.660  28.121  1.00  0.00     0.014 A 
ATOM     36  C   UNL A   1      40.061  25.437  26.107  1.00  0.00     0.014 A 
ATOM     37  C   UNL A   1      39.346  25.834  28.777  1.00  0.00     0.010 A 
ATOM     38  C   UNL A   1      40.496  26.577  26.783  1.00  0.00     0.010 A 
ATOM     39  C   UNL A   1      40.139  26.790  28.124  1.00  0.00    -0.014 A 
BRANCH  39  40
ATOM     40  C   UNL A   1      40.595  28.018  28.829  1.00  0.00     0.031 A 
ATOM     41  C   UNL A   1      42.013  28.128  29.323  1.00  0.00     0.074 A 
ATOM     42  C   UNL A   1      39.718  29.011  29.074  1.00  0.00     0.049 A 
ATOM     43  N   UNL A   1      42.579  29.092  30.007  1.00  0.00    -0.248 NA
ATOM     44  C   UNL A   1      42.907  26.996  29.034  1.00  0.00     0.031 C 
ATOM     45  C   UNL A   1      38.305  29.002  28.694  1.00  0.00     0.029 A 
ATOM     46  N   UNL A   1      39.881  30.215  29.714  1.00  0.00    -0.354 N 
ATOM     47  C   UNL A   1      43.883  28.673  30.244  1.00  0.00     0.074 A 
ATOM     48  C   UNL A   1      44.014  27.352  29.671  1.00  0.00     0.031 C 
ATOM     49  C   UNL A   1      37.734  30.150  29.094  1.00  0.00     0.029 A 
ATOM     50  C   UNL A   1      38.729  30.959  29.790  1.00  0.00     0.049 A 
ATOM     51  H   UNL A   1      40.743  30.517  30.083  1.00  0.00     0.167 HD
ATOM     52  C   UNL A   1      44.884  29.341  30.867  1.00  0.00     0.037 A 
ATOM     53  C   UNL A   1      38.497  32.155  30.366  1.00  0.00     0.037 A 
ATOM     54  C   UNL A   1      44.761  30.672  31.403  1.00  0.00     0.049 A 
ATOM     55  C   UNL A   1      39.635  32.881  31.034  1.00  0.00     0.074 A 
ATOM     56  C   UNL A   1      45.740  31.461  31.982  1.00  0.00     0.029 A 
ATOM     57  N   UNL A   1      43.587  31.409  31.427  1.00  0.00    -0.354 N 
ATOM     58  N   UNL A   1      40.884  32.509  31.179  1.00  0.00    -0.248 NA
ATOM     59  C   UNL A   1      39.335  34.200  31.609  1.00  0.00     0.031 C 
ATOM     60  C   UNL A   1      45.148  32.654  32.404  1.00  0.00     0.029 A 
ATOM     61  C   UNL A   1      43.813  32.634  32.035  1.00  0.00     0.049 A 
ATOM     62  H   UNL A   1      42.723  31.107  31.067  1.00  0.00     0.167 HD
ATOM     63  C   UNL A   1      41.523  33.557  31.828  1.00  0.00     0.074 A 
ATOM     64  C   UNL A   1      40.528  34.588  32.034  1.00  0.00     0.031 C 
ATOM     65  C   UNL A   1      42.816  33.657  32.220  1.00  0.00     0.037 A 
BRANCH  52  66
ATOM     66  C   UNL A   1      46.211  28.651  31.004  1.00  0.00     0.064 A 
ATOM     67  C   UNL A   1      47.222  28.798  30.043  1.00  0.00     0.173 A 
ATOM     68  C   UNL A   1      46.499  27.891  32.148  1.00  0.00     0.173 A 
ATOM     69  F   UNL A   1      46.995  29.507  28.926  1.00  0.00    -0.203 F 
ATOM     70  C   UNL A   1      48.466  28.196  30.214  1.00  0.00     0.198 A 
ATOM     71  C   UNL A   1      47.754  27.316  32.330  1.00  0.00     0.198 A 
ATOM     72  F   UNL A   1      45.570  27.724  33.101  1.00  0.00    -0.203 F 
ATOM     73  F   UNL A   1      49.405  28.321  29.265  1.00  0.00    -0.200 F 
ATOM     74  C   UNL A   1      48.735  27.464  31.361  1.00  0.00     0.200 A 
ATOM     75  F   UNL A   1      48.017  26.622  33.446  1.00  0.00    -0.200 F 
ATOM     76  F   UNL A   1      49.939  26.901  31.531  1.00  0.00    -0.200 F 
ENDBRANCH  52  66
BRANCH  53  77
ATOM     77  C   UNL A   1      37.135  32.751  30.333  1.00  0.00     0.064 A 
ATOM     78  C   UNL A   1      36.210  32.504  31.356  1.00  0.00     0.173 A 
ATOM     79  C   UNL A   1      36.720  33.555  29.261  1.00  0.00     0.173 A 
ATOM     80  F   UNL A   1      36.551  31.724  32.393  1.00  0.00    -0.203 F 
ATOM     81  C   UNL A   1      34.912  33.009  31.293  1.00  0.00     0.198 A 
ATOM     82  C   UNL A   1      35.433  34.087  29.214  1.00  0.00     0.198 A 
ATOM     83  F   UNL A   1      37.567  33.828  28.257  1.00  0.00    -0.203 F 
ATOM     84  F   UNL A   1      34.030  32.704  32.253  1.00  0.00    -0.200 F 
ATOM     85  C   UNL A   1      34.526  33.803  30.224  1.00  0.00     0.200 A 
ATOM     86  F   UNL A   1      35.069  34.867  28.187  1.00  0.00    -0.200 F 
ATOM     87  F   UNL A   1      33.278  34.285  30.161  1.00  0.00    -0.200 F 
ENDBRANCH  53  77
BRANCH  65  88
ATOM     88  C   UNL A   1      43.243  34.943  32.869  1.00  0.00     0.064 A 
ATOM     89  C   UNL A   1      43.844  35.978  32.138  1.00  0.00     0.173 A 
ATOM     90  C   UNL A   1      43.017  35.152  34.239  1.00  0.00     0.173 A 
ATOM     91  F   UNL A   1      44.095  35.821  30.829  1.00  0.00    -0.203 F 
ATOM     92  C   UNL A   1      44.232  37.161  32.759  1.00  0.00     0.198 A 
ATOM     93  C   UNL A   1      43.375  36.350  34.849  1.00  0.00     0.198 A 
ATOM     94  F   UNL A   1      42.437  34.198  34.983  1.00  0.00    -0.203 F 
ATOM     95  F   UNL A   1      44.854  38.114  32.052  1.00  0.00    -0.200 F 
ATOM     96  C   UNL A   1      43.991  37.350  34.112  1.00  0.00     0.200 A 
ATOM     97  F   UNL A   1      43.126  36.536  36.153  1.00  0.00    -0.200 F 
ATOM     98  F   UNL A   1      44.359  38.492  34.707  1.00  0.00    -0.200 F 
ENDBRANCH  65  88
ENDBRANCH  39  40
ENDBRANCH  31  34
ENDBRANCH  29  30
ENDBRANCH  28  29
ENDBRANCH  27  28
ENDBRANCH  26  27
ENDBRANCH   1  26
TORSDOF 17
ENDMDL
MODEL 2
REMARK VINA RESULT:      -9.7      0.534      2.041
REMARK SMILES O=C(CC(=O)c1ccccc1)Nc1cccc(C(=O)NCCCCCCNC(=O)c2ccc(-c3c4nc(c(-c5c(F)c(F)c(F)c(F)c5F)c5ccc([nH]5)c(-c5c(F)c(F)c(F)c(F)c5F)c5nc(c(-c6c(F)c(F)c(F)c(F)c6F)c6ccc3[nH]6)C=C5)C=C4)cc2)c1
REMARK SMILES IDX 22 1 21 2 20 3 18 4 19 5 17 7 13 8 14 9 93 10 15 11 16 12
REMARK SMILES IDX 12 13 1 14 2 15 3 17 4 18 5 19 6 20 7 21 11 22 8 23 10 24
REMARK SMILES IDX 9 25 23 26 24 27 25 28 26 29 27 30 28 31 29 33 30 34 31 35
REMARK SMILES IDX 92 36 32 37 91 38 33 39 34 40 35 41 85 42 36 43 90 44 84 45
REMARK SMILES IDX 86 46 37 47 89 48 83 49 82 50 38 52 70 53 50 54 69 55 51 56
REMARK SMILES IDX 54 57 68 58 87 59 52 60 53 61 67 63 88 64 55 65 39 66 40 67
REMARK SMILES IDX 48 68 41 69 42 70 46 71 49 72 43 73 44 74 47 75 45 76 71 77
REMARK SMILES IDX 72 78 80 79 73 80 74 81 78 82 81 83 75 84 76 85 79 86 77 87
REMARK SMILES IDX 56 88 57 89 65 90 58 91 59 92 63 93 66 94 60 95 61 96 64 97
REMARK SMILES IDX 62 98
REMARK H PARENT 20 6 12 16 27 32 86 51 54 62
REMARK Flexibility Score: inf
ROOT
ATOM      1  C   UNL A   1      44.481  23.402  29.103  1.00  0.00     0.021 C 
ENDROOT
BRANCH   1   2
ATOM      2  C   UNL A   1      45.637  24.297  28.677  1.00  0.00     0.116 C 
BRANCH   2   3
ATOM      3  N   UNL A   1      46.393  23.817  27.526  1.00  0.00    -0.352 N 
ATOM      4  C   UNL A   1      46.398  24.260  26.217  1.00  0.00     0.251 C 
ATOM      5  O   UNL A   1      47.104  23.694  25.386  1.00  0.00    -0.269 OA
ATOM      6  H   UNL A   1      46.993  23.058  27.710  1.00  0.00     0.163 HD
BRANCH   4   7
ATOM      7  C   UNL A   1      45.505  25.368  25.781  1.00  0.00     0.041 A 
ATOM      8  C   UNL A   1      44.901  27.705  25.941  1.00  0.00     0.041 A 
ATOM      9  C   UNL A   1      43.646  27.408  25.403  1.00  0.00     0.026 A 
ATOM     10  C   UNL A   1      45.861  26.699  25.986  1.00  0.00     0.040 A 
ATOM     11  C   UNL A   1      43.343  26.102  25.001  1.00  0.00     0.003 A 
ATOM     12  C   UNL A   1      44.258  25.072  25.227  1.00  0.00     0.014 A 
BRANCH   8  13
ATOM     13  N   UNL A   1      45.118  28.990  26.490  1.00  0.00    -0.326 N 
ATOM     14  O   UNL A   1      42.961  29.874  26.422  1.00  0.00    -0.274 OA
ATOM     15  C   UNL A   1      44.153  29.962  26.712  1.00  0.00     0.232 C 
ATOM     16  H   UNL A   1      46.044  29.218  26.739  1.00  0.00     0.169 HD
BRANCH  15  17
ATOM     17  C   UNL A   1      44.653  31.242  27.309  1.00  0.00     0.181 C 
BRANCH  17  18
ATOM     18  C   UNL A   1      44.569  32.500  26.495  1.00  0.00     0.172 C 
ATOM     19  O   UNL A   1      45.176  32.576  25.425  1.00  0.00    -0.294 OA
BRANCH  18  20
ATOM     20  C   UNL A   1      43.715  33.654  26.905  1.00  0.00     0.018 A 
ATOM     21  C   UNL A   1      43.434  34.614  25.923  1.00  0.00     0.012 A 
ATOM     22  C   UNL A   1      43.267  33.876  28.212  1.00  0.00     0.012 A 
ATOM     23  C   UNL A   1      42.749  35.785  26.247  1.00  0.00     0.001 A 
ATOM     24  C   UNL A   1      42.609  35.064  28.541  1.00  0.00     0.001 A 
ATOM     25  C   UNL A   1      42.353  36.018  27.561  1.00  0.00     0.000 A 
ENDBRANCH  18  20
ENDBRANCH  17  18
ENDBRANCH  15  17
ENDBRANCH   8  13
ENDBRANCH   4   7
ENDBRANCH   2   3
ENDBRANCH   1   2
BRANCH   1  26
ATOM     26  C   UNL A   1      43.194  23.528  28.293  1.00  0.00     0.002 C 
BRANCH  26  27
ATOM     27  C   UNL A   1      42.037  22.614  28.708  1.00  0.00     0.002 C 
BRANCH  27  28
ATOM     28  C   UNL A   1      41.567  21.591  27.670  1.00  0.00     0.021 C 
BRANCH  28  29
ATOM     29  C   UNL A   1      41.333  22.125  26.261  1.00  0.00     0.116 C 
BRANCH  29  30
ATOM     30  N   UNL A   1      39.925  22.200  25.909  1.00  0.00    -0.352 N 
ATOM     31  C   UNL A   1      38.994  23.167  26.196  1.00  0.00     0.251 C 
ATOM     32  H   UNL A   1      39.587  21.440  25.384  1.00  0.00     0.163 HD
ATOM     33  O   UNL A   1      37.811  22.976  25.927  1.00  0.00    -0.269 OA
BRANCH  31  34
ATOM     34  C   UNL A   1      39.395  24.434  26.850  1.00  0.00     0.039 A 
ATOM     35  C   UNL A   1      39.096  24.611  28.205  1.00  0.00     0.014 A 
ATOM     36  C   UNL A   1      40.025  25.458  26.138  1.00  0.00     0.014 A 
ATOM     37  C   UNL A   1      39.475  25.787  28.856  1.00  0.00     0.010 A 
ATOM     38  C   UNL A   1      40.464  26.602  26.804  1.00  0.00     0.010 A 
ATOM     39  C   UNL A   1      40.189  26.782  28.169  1.00  0.00    -0.014 A 
BRANCH  39  40
ATOM     40  C   UNL A   1      40.647  28.014  28.865  1.00  0.00     0.031 A 
ATOM     41  C   UNL A   1      42.071  28.136  29.337  1.00  0.00     0.074 A 
ATOM     42  C   UNL A   1      39.766  29.001  29.121  1.00  0.00     0.049 A 
ATOM     43  N   UNL A   1      42.641  29.105  30.009  1.00  0.00    -0.248 NA
ATOM     44  C   UNL A   1      42.969  27.009  29.036  1.00  0.00     0.031 C 
ATOM     45  C   UNL A   1      38.347  28.981  28.762  1.00  0.00     0.029 A 
ATOM     46  N   UNL A   1      39.931  30.208  29.756  1.00  0.00    -0.354 N 
ATOM     47  C   UNL A   1      43.951  28.696  30.227  1.00  0.00     0.074 A 
ATOM     48  C   UNL A   1      44.083  27.374  29.655  1.00  0.00     0.031 C 
ATOM     49  C   UNL A   1      37.775  30.126  29.169  1.00  0.00     0.029 A 
ATOM     50  C   UNL A   1      38.774  30.944  29.848  1.00  0.00     0.049 A 
ATOM     51  H   UNL A   1      40.796  30.517  30.111  1.00  0.00     0.167 HD
ATOM     52  C   UNL A   1      44.957  29.372  30.833  1.00  0.00     0.037 A 
ATOM     53  C   UNL A   1      38.543  32.139  30.425  1.00  0.00     0.037 A 
ATOM     54  C   UNL A   1      44.832  30.703  31.368  1.00  0.00     0.049 A 
ATOM     55  C   UNL A   1      39.686  32.875  31.074  1.00  0.00     0.074 A 
ATOM     56  C   UNL A   1      45.815  31.501  31.930  1.00  0.00     0.029 A 
ATOM     57  N   UNL A   1      43.654  31.433  31.409  1.00  0.00    -0.354 N 
ATOM     58  N   UNL A   1      40.940  32.512  31.200  1.00  0.00    -0.248 NA
ATOM     59  C   UNL A   1      39.385  34.193  31.650  1.00  0.00     0.031 C 
ATOM     60  C   UNL A   1      45.221  32.691  32.359  1.00  0.00     0.029 A 
ATOM     61  C   UNL A   1      43.880  32.661  32.010  1.00  0.00     0.049 A 
ATOM     62  H   UNL A   1      42.786  31.124  31.063  1.00  0.00     0.167 HD
ATOM     63  C   UNL A   1      41.581  33.567  31.837  1.00  0.00     0.074 A 
ATOM     64  C   UNL A   1      40.582  34.591  32.057  1.00  0.00     0.031 C 
ATOM     65  C   UNL A   1      42.879  33.677  32.208  1.00  0.00     0.037 A 
BRANCH  52  66
ATOM     66  C   UNL A   1      46.291  28.692  30.951  1.00  0.00     0.064 A 
ATOM     67  C   UNL A   1      46.588  27.831  32.016  1.00  0.00     0.173 A 
ATOM     68  C   UNL A   1      47.256  28.848  29.944  1.00  0.00     0.173 A 
ATOM     69  F   UNL A   1      45.702  27.654  33.009  1.00  0.00    -0.203 F 
ATOM     70  C   UNL A   1      47.810  27.165  32.081  1.00  0.00     0.198 A 
ATOM     71  C   UNL A   1      48.464  28.157  29.996  1.00  0.00     0.198 A 
ATOM     72  F   UNL A   1      47.021  29.655  28.899  1.00  0.00    -0.203 F 
ATOM     73  F   UNL A   1      48.086  26.374  33.127  1.00  0.00    -0.200 F 
ATOM     74  C   UNL A   1      48.742  27.320  31.066  1.00  0.00     0.200 A 
ATOM     75  F   UNL A   1      49.357  28.297  29.007  1.00  0.00    -0.200 F 
ATOM     76  F   UNL A   1      49.909  26.664  31.121  1.00  0.00    -0.200 F 
ENDBRANCH  52  66
BRANCH  53  77
ATOM     77  C   UNL A   1      37.176  32.726  30.411  1.00  0.00     0.064 A 
ATOM     78  C   UNL A   1      36.765  33.581  29.379  1.00  0.00     0.173 A 
ATOM     79  C   UNL A   1      36.265  32.470  31.446  1.00  0.00     0.173 A 
ATOM     80  F   UNL A   1      37.607  33.874  28.377  1.00  0.00    -0.203 F 
ATOM     81  C   UNL A   1      35.509  34.184  29.399  1.00  0.00     0.198 A 
ATOM     82  C   UNL A   1      34.997  33.047  31.449  1.00  0.00     0.198 A 
ATOM     83  F   UNL A   1      36.605  31.656  32.456  1.00  0.00    -0.203 F 
ATOM     84  F   UNL A   1      35.166  35.046  28.433  1.00  0.00    -0.200 F 
ATOM     85  C   UNL A   1      34.624  33.913  30.432  1.00  0.00     0.200 A 
ATOM     86  F   UNL A   1      34.139  32.771  32.441  1.00  0.00    -0.200 F 
ATOM     87  F   UNL A   1      33.418  34.496  30.454  1.00  0.00    -0.200 F 
ENDBRANCH  53  77
BRANCH  65  88
ATOM     88  C   UNL A   1      43.307  34.967  32.848  1.00  0.00     0.064 A 
ATOM     89  C   UNL A   1      43.107  35.218  34.214  1.00  0.00     0.173 A 
ATOM     90  C   UNL A   1      43.957  35.952  32.088  1.00  0.00     0.173 A 
ATOM     91  F   UNL A   1      42.478  34.314  34.981  1.00  0.00    -0.203 F 
ATOM     92  C   UNL A   1      43.512  36.420  34.787  1.00  0.00     0.198 A 
ATOM     93  C   UNL A   1      44.391  37.138  32.672  1.00  0.00     0.198 A 
ATOM     94  F   UNL A   1      44.181  35.759  30.780  1.00  0.00    -0.203 F 
ATOM     95  F   UNL A   1      43.260  36.661  36.081  1.00  0.00    -0.200 F 
ATOM     96  C   UNL A   1      44.159  37.376  34.018  1.00  0.00     0.200 A 
ATOM     97  F   UNL A   1      45.031  38.054  31.931  1.00  0.00    -0.200 F 
ATOM     98  F   UNL A   1      44.553  38.530  34.573  1.00  0.00    -0.200 F 
ENDBRANCH  65  88
ENDBRANCH  39  40
ENDBRANCH  31  34
ENDBRANCH  29  30
ENDBRANCH  28  29
ENDBRANCH  27  28
ENDBRANCH  26  27
ENDBRANCH   1  26
TORSDOF 17
ENDMDL
MODEL 3
REMARK VINA RESULT:      -9.2      4.879     11.519
REMARK SMILES O=C(CC(=O)c1ccccc1)Nc1cccc(C(=O)NCCCCCCNC(=O)c2ccc(-c3c4nc(c(-c5c(F)c(F)c(F)c(F)c5F)c5ccc([nH]5)c(-c5c(F)c(F)c(F)c(F)c5F)c5nc(c(-c6c(F)c(F)c(F)c(F)c6F)c6ccc3[nH]6)C=C5)C=C4)cc2)c1
REMARK SMILES IDX 22 1 21 2 20 3 18 4 19 5 17 7 13 8 14 9 93 10 15 11 16 12
REMARK SMILES IDX 12 13 1 14 2 15 3 17 4 18 5 19 6 20 7 21 11 22 8 23 10 24
REMARK SMILES IDX 9 25 23 26 24 27 25 28 26 29 27 30 28 31 29 33 30 34 31 35
REMARK SMILES IDX 92 36 32 37 91 38 33 39 34 40 35 41 85 42 36 43 90 44 84 45
REMARK SMILES IDX 86 46 37 47 89 48 83 49 82 50 38 52 70 53 50 54 69 55 51 56
REMARK SMILES IDX 54 57 68 58 87 59 52 60 53 61 67 63 88 64 55 65 39 66 40 67
REMARK SMILES IDX 48 68 41 69 42 70 46 71 49 72 43 73 44 74 47 75 45 76 71 77
REMARK SMILES IDX 72 78 80 79 73 80 74 81 78 82 81 83 75 84 76 85 79 86 77 87
REMARK SMILES IDX 56 88 57 89 65 90 58 91 59 92 63 93 66 94 60 95 61 96 64 97
REMARK SMILES IDX 62 98
REMARK H PARENT 20 6 12 16 27 32 86 51 54 62
REMARK Flexibility Score: inf
ROOT
ATOM      1  C   UNL A   1      31.991  29.282  24.212  1.00  0.00     0.021 C 
ENDROOT
BRANCH   1   2
ATOM      2  C   UNL A   1      31.682  28.979  22.752  1.00  0.00     0.116 C 
BRANCH   2   3
ATOM      3  N   UNL A   1      32.705  28.208  22.055  1.00  0.00    -0.352 N 
ATOM      4  C   UNL A   1      32.978  26.854  22.094  1.00  0.00     0.251 C 
ATOM      5  O   UNL A   1      33.913  26.404  21.435  1.00  0.00    -0.269 OA
ATOM      6  H   UNL A   1      33.293  28.734  21.466  1.00  0.00     0.163 HD
BRANCH   4   7
ATOM      7  C   UNL A   1      32.204  25.941  22.978  1.00  0.00     0.041 A 
ATOM      8  C   UNL A   1      32.162  23.936  24.331  1.00  0.00     0.041 A 
ATOM      9  C   UNL A   1      30.766  23.930  24.262  1.00  0.00     0.026 A 
ATOM     10  C   UNL A   1      32.850  25.025  23.806  1.00  0.00     0.040 A 
ATOM     11  C   UNL A   1      30.088  24.961  23.600  1.00  0.00     0.003 A 
ATOM     12  C   UNL A   1      30.809  25.946  22.923  1.00  0.00     0.014 A 
BRANCH   8  13
ATOM     13  N   UNL A   1      32.821  22.801  24.857  1.00  0.00    -0.326 N 
ATOM     14  O   UNL A   1      32.503  23.122  27.145  1.00  0.00    -0.274 OA
ATOM     15  C   UNL A   1      32.927  22.461  26.198  1.00  0.00     0.232 C 
ATOM     16  H   UNL A   1      33.246  22.193  24.208  1.00  0.00     0.169 HD
BRANCH  15  17
ATOM     17  C   UNL A   1      33.682  21.200  26.485  1.00  0.00     0.181 C 
BRANCH  17  18
ATOM     18  C   UNL A   1      34.454  20.550  25.375  1.00  0.00     0.172 C 
ATOM     19  O   UNL A   1      35.566  20.987  25.070  1.00  0.00    -0.294 OA
BRANCH  18  20
ATOM     20  C   UNL A   1      33.951  19.340  24.661  1.00  0.00     0.018 A 
ATOM     21  C   UNL A   1      34.804  18.228  24.621  1.00  0.00     0.012 A 
ATOM     22  C   UNL A   1      32.740  19.286  23.962  1.00  0.00     0.012 A 
ATOM     23  C   UNL A   1      34.469  17.099  23.873  1.00  0.00     0.001 A 
ATOM     24  C   UNL A   1      32.421  18.167  23.188  1.00  0.00     0.001 A 
ATOM     25  C   UNL A   1      33.285  17.077  23.141  1.00  0.00     0.000 A 
ENDBRANCH  18  20
ENDBRANCH  17  18
ENDBRANCH  15  17
ENDBRANCH   8  13
ENDBRANCH   4   7
ENDBRANCH   2   3
ENDBRANCH   1   2
BRANCH   1  26
ATOM     26  C   UNL A   1      31.023  28.707  25.243  1.00  0.00     0.002 C 
BRANCH  26  27
ATOM     27  C   UNL A   1      31.578  28.500  26.655  1.00  0.00     0.002 C 
BRANCH  27  28
ATOM     28  C   UNL A   1      32.833  27.632  26.777  1.00  0.00     0.021 C 
BRANCH  28  29
ATOM     29  C   UNL A   1      34.158  28.381  26.882  1.00  0.00     0.116 C 
BRANCH  29  30
ATOM     30  N   UNL A   1      34.014  29.709  27.456  1.00  0.00    -0.352 N 
ATOM     31  C   UNL A   1      34.891  30.440  28.217  1.00  0.00     0.251 C 
ATOM     32  H   UNL A   1      33.157  30.152  27.268  1.00  0.00     0.163 HD
ATOM     33  O   UNL A   1      34.524  31.495  28.728  1.00  0.00    -0.269 OA
BRANCH  31  34
ATOM     34  C   UNL A   1      36.273  29.961  28.453  1.00  0.00     0.039 A 
ATOM     35  C   UNL A   1      37.220  30.129  27.437  1.00  0.00     0.014 A 
ATOM     36  C   UNL A   1      36.633  29.320  29.641  1.00  0.00     0.014 A 
ATOM     37  C   UNL A   1      38.536  29.703  27.634  1.00  0.00     0.010 A 
ATOM     38  C   UNL A   1      37.961  28.958  29.862  1.00  0.00     0.010 A 
ATOM     39  C   UNL A   1      38.927  29.140  28.859  1.00  0.00    -0.014 A 
BRANCH  39  40
ATOM     40  C   UNL A   1      40.337  28.735  29.101  1.00  0.00     0.031 A 
ATOM     41  C   UNL A   1      41.297  29.682  29.769  1.00  0.00     0.074 A 
ATOM     42  C   UNL A   1      40.768  27.533  28.668  1.00  0.00     0.049 A 
ATOM     43  N   UNL A   1      42.575  29.531  30.014  1.00  0.00    -0.248 NA
ATOM     44  C   UNL A   1      40.757  30.983  30.196  1.00  0.00     0.031 C 
ATOM     45  C   UNL A   1      39.951  26.547  27.961  1.00  0.00     0.029 A 
ATOM     46  N   UNL A   1      42.006  26.942  28.748  1.00  0.00    -0.354 N 
ATOM     47  C   UNL A   1      42.992  30.719  30.602  1.00  0.00     0.074 A 
ATOM     48  C   UNL A   1      41.844  31.598  30.640  1.00  0.00     0.031 C 
ATOM     49  C   UNL A   1      40.703  25.470  27.684  1.00  0.00     0.029 A 
ATOM     50  C   UNL A   1      42.062  25.702  28.160  1.00  0.00     0.049 A 
ATOM     51  H   UNL A   1      42.779  27.367  29.185  1.00  0.00     0.167 HD
ATOM     52  C   UNL A   1      44.217  31.037  31.085  1.00  0.00     0.037 A 
ATOM     53  C   UNL A   1      43.097  24.852  28.011  1.00  0.00     0.037 A 
ATOM     54  C   UNL A   1      45.348  30.146  31.080  1.00  0.00     0.049 A 
ATOM     55  C   UNL A   1      44.442  25.227  28.576  1.00  0.00     0.074 A 
ATOM     56  C   UNL A   1      46.608  30.350  31.617  1.00  0.00     0.029 A 
ATOM     57  N   UNL A   1      45.356  28.882  30.510  1.00  0.00    -0.354 N 
ATOM     58  N   UNL A   1      44.802  26.320  29.204  1.00  0.00    -0.248 NA
ATOM     59  C   UNL A   1      45.524  24.244  28.421  1.00  0.00     0.031 C 
ATOM     60  C   UNL A   1      47.395  29.232  31.325  1.00  0.00     0.029 A 
ATOM     61  C   UNL A   1      46.608  28.305  30.660  1.00  0.00     0.049 A 
ATOM     62  H   UNL A   1      44.588  28.458  30.065  1.00  0.00     0.167 HD
ATOM     63  C   UNL A   1      46.135  26.143  29.547  1.00  0.00     0.074 A 
ATOM     64  C   UNL A   1      46.517  24.829  29.074  1.00  0.00     0.031 C 
ATOM     65  C   UNL A   1      46.969  26.991  30.196  1.00  0.00     0.037 A 
BRANCH  52  66
ATOM     66  C   UNL A   1      44.409  32.408  31.668  1.00  0.00     0.064 A 
ATOM     67  C   UNL A   1      44.216  32.663  33.033  1.00  0.00     0.173 A 
ATOM     68  C   UNL A   1      44.862  33.463  30.861  1.00  0.00     0.173 A 
ATOM     69  F   UNL A   1      43.774  31.691  33.846  1.00  0.00    -0.203 F 
ATOM     70  C   UNL A   1      44.452  33.928  33.566  1.00  0.00     0.198 A 
ATOM     71  C   UNL A   1      45.126  34.718  31.403  1.00  0.00     0.198 A 
ATOM     72  F   UNL A   1      45.069  33.272  29.550  1.00  0.00    -0.203 F 
ATOM     73  F   UNL A   1      44.226  34.157  34.868  1.00  0.00    -0.200 F 
ATOM     74  C   UNL A   1      44.917  34.951  32.754  1.00  0.00     0.200 A 
ATOM     75  F   UNL A   1      45.590  35.701  30.619  1.00  0.00    -0.200 F 
ATOM     76  F   UNL A   1      45.161  36.162  33.273  1.00  0.00    -0.200 F 
ENDBRANCH  52  66
BRANCH  53  77
ATOM     77  C   UNL A   1      42.907  23.556  27.306  1.00  0.00     0.064 A 
ATOM     78  C   UNL A   1      42.324  22.457  27.953  1.00  0.00     0.173 A 
ATOM     79  C   UNL A   1      43.333  23.380  25.982  1.00  0.00     0.173 A 
ATOM     80  F   UNL A   1      41.919  22.568  29.227  1.00  0.00    -0.203 F 
ATOM     81  C   UNL A   1      42.206  21.224  27.316  1.00  0.00     0.198 A 
ATOM     82  C   UNL A   1      43.185  22.156  25.333  1.00  0.00     0.198 A 
ATOM     83  F   UNL A   1      43.893  24.399  25.313  1.00  0.00    -0.203 F 
ATOM     84  F   UNL A   1      41.704  20.174  27.979  1.00  0.00    -0.200 F 
ATOM     85  C   UNL A   1      42.632  21.075  26.005  1.00  0.00     0.200 A 
ATOM     86  F   UNL A   1      43.584  22.020  24.061  1.00  0.00    -0.200 F 
ATOM     87  F   UNL A   1      42.523  19.888  25.393  1.00  0.00    -0.200 F 
ENDBRANCH  53  77
BRANCH  65  88
ATOM     88  C   UNL A   1      48.365  26.509  30.474  1.00  0.00     0.064 A 
ATOM     89  C   UNL A   1      49.414  26.715  29.566  1.00  0.00     0.173 A 
ATOM     90  C   UNL A   1      48.661  25.860  31.683  1.00  0.00     0.173 A 
ATOM     91  F   UNL A   1      49.180  27.317  28.390  1.00  0.00    -0.203 F 
ATOM     92  C   UNL A   1      50.700  26.260  29.843  1.00  0.00     0.198 A 
ATOM     93  C   UNL A   1      49.955  25.438  31.972  1.00  0.00     0.198 A 
ATOM     94  F   UNL A   1      47.697  25.646  32.590  1.00  0.00    -0.203 F 
ATOM     95  F   UNL A   1      51.674  26.419  28.937  1.00  0.00    -0.200 F 
ATOM     96  C   UNL A   1      50.972  25.629  31.048  1.00  0.00     0.200 A 
ATOM     97  F   UNL A   1      50.219  24.843  33.144  1.00  0.00    -0.200 F 
ATOM     98  F   UNL A   1      52.211  25.198  31.316  1.00  0.00    -0.200 F 
ENDBRANCH  65  88
ENDBRANCH  39  40
ENDBRANCH  31  34
ENDBRANCH  29  30
ENDBRANCH  28  29
ENDBRANCH  27  28
ENDBRANCH  26  27
ENDBRANCH   1  26
TORSDOF 17
ENDMDL
