MODEL 1
REMARK VINA RESULT:     -13.8      0.000      0.000
REMARK SMILES Cc1cc(C(=O)NCCCCCCNC(=O)c2ccc(-c3c4nc(c(-c5c(F)c(F)c(F)c(F)c5F)c5ccc([nH]5)c(-c5c(F)c(F)c(F)c(F)c5F)c5nc(c(-c6c(F)c(F)c(F)c(F)c6F)c6ccc3[nH]6)C=C5)C=C4)cc2)ccc1NC(=O)N1C[C@@H](C)[C@H](C)C1
REMARK SMILES IDX 11 1 10 2 9 3 8 4 7 5 5 6 6 7 4 9 1 10 2 11 3 12 82 13 81 14
REMARK SMILES IDX 80 15 83 16 84 17 85 19 86 20 87 21 92 22 88 23 90 24 89 25
REMARK SMILES IDX 91 26 12 27 13 28 14 29 15 30 16 32 17 33 18 34 79 35 19 36
REMARK SMILES IDX 78 37 20 38 21 39 22 40 72 41 23 42 77 43 71 44 73 45 24 46
REMARK SMILES IDX 76 47 70 48 69 49 25 51 57 52 37 53 56 54 38 55 41 56 55 57
REMARK SMILES IDX 74 58 39 59 40 60 54 62 75 63 42 64 26 65 27 66 35 67 28 68
REMARK SMILES IDX 29 69 33 70 36 71 30 72 31 73 34 74 32 75 58 76 59 77 67 78
REMARK SMILES IDX 60 79 61 80 65 81 68 82 62 83 63 84 66 85 64 86 43 87 44 88
REMARK SMILES IDX 52 89 45 90 46 91 50 92 53 93 47 94 48 95 51 96 49 97
REMARK H PARENT 7 8 83 18 14 31 73 50 41 61
REMARK Flexibility Score: inf
ROOT
ATOM      1  C   UNL A   1      33.783  28.490  27.135  1.00  0.00     0.002 C 
ENDROOT
BRANCH   1   2
ATOM      2  C   UNL A   1      33.613  27.972  25.697  1.00  0.00     0.002 C 
BRANCH   2   3
ATOM      3  C   UNL A   1      33.444  29.036  24.602  1.00  0.00     0.021 C 
BRANCH   3   4
ATOM      4  C   UNL A   1      33.468  28.496  23.169  1.00  0.00     0.116 C 
BRANCH   4   5
ATOM      5  N   UNL A   1      32.231  28.786  22.466  1.00  0.00    -0.352 N 
ATOM      6  C   UNL A   1      31.044  28.092  22.403  1.00  0.00     0.251 C 
ATOM      7  O   UNL A   1      30.075  28.616  21.858  1.00  0.00    -0.269 OA
ATOM      8  H   UNL A   1      32.243  29.622  21.946  1.00  0.00     0.163 HD
BRANCH   6   9
ATOM      9  C   UNL A   1      30.893  26.756  23.032  1.00  0.00     0.040 A 
ATOM     10  C   UNL A   1      29.646  25.450  26.370  1.00  0.00     0.046 C 
ATOM     11  C   UNL A   1      30.325  25.448  25.027  1.00  0.00    -0.027 A 
ATOM     12  C   UNL A   1      30.379  26.677  24.333  1.00  0.00     0.019 A 
ATOM     13  C   UNL A   1      30.857  24.302  24.410  1.00  0.00     0.045 A 
ATOM     14  C   UNL A   1      31.209  24.370  23.055  1.00  0.00     0.027 A 
ATOM     15  C   UNL A   1      31.205  25.579  22.364  1.00  0.00     0.016 A 
BRANCH  13  16
ATOM     16  N   UNL A   1      30.990  23.090  25.121  1.00  0.00    -0.308 N 
ATOM     17  C   UNL A   1      32.003  22.175  25.089  1.00  0.00     0.321 C 
ATOM     18  H   UNL A   1      30.244  22.873  25.725  1.00  0.00     0.171 HD
ATOM     19  O   UNL A   1      31.737  20.987  25.268  1.00  0.00    -0.248 OA
ATOM     20  N   UNL A   1      33.289  22.613  24.890  1.00  0.00    -0.324 N 
ATOM     21  C   UNL A   1      34.296  21.735  24.322  1.00  0.00     0.125 C 
ATOM     22  C   UNL A   1      33.900  23.737  25.588  1.00  0.00     0.125 C 
ATOM     23  C   UNL A   1      35.637  22.276  24.819  1.00  0.00     0.010 C 
ATOM     24  C   UNL A   1      35.346  23.764  25.087  1.00  0.00     0.010 C 
ATOM     25  C   UNL A   1      36.764  22.052  23.824  1.00  0.00     0.010 C 
ATOM     26  C   UNL A   1      36.320  24.398  26.073  1.00  0.00     0.010 C 
ENDBRANCH  13  16
ENDBRANCH   6   9
ENDBRANCH   4   5
ENDBRANCH   3   4
ENDBRANCH   2   3
ENDBRANCH   1   2
BRANCH   1  27
ATOM     27  C   UNL A   1      33.413  29.958  27.371  1.00  0.00     0.021 C 
BRANCH  27  28
ATOM     28  C   UNL A   1      34.600  30.913  27.336  1.00  0.00     0.116 C 
BRANCH  28  29
ATOM     29  N   UNL A   1      34.933  31.499  28.628  1.00  0.00    -0.352 N 
ATOM     30  C   UNL A   1      35.824  31.055  29.591  1.00  0.00     0.251 C 
ATOM     31  H   UNL A   1      34.455  32.331  28.849  1.00  0.00     0.163 HD
ATOM     32  O   UNL A   1      35.942  31.655  30.647  1.00  0.00    -0.269 OA
BRANCH  30  33
ATOM     33  C   UNL A   1      36.722  29.917  29.279  1.00  0.00     0.039 A 
ATOM     34  C   UNL A   1      37.029  29.016  30.305  1.00  0.00     0.014 A 
ATOM     35  C   UNL A   1      37.390  29.841  28.060  1.00  0.00     0.014 A 
ATOM     36  C   UNL A   1      38.159  28.208  30.192  1.00  0.00     0.010 A 
ATOM     37  C   UNL A   1      38.561  29.113  27.982  1.00  0.00     0.010 A 
ATOM     38  C   UNL A   1      38.982  28.351  29.076  1.00  0.00    -0.014 A 
BRANCH  38  39
ATOM     39  C   UNL A   1      40.347  27.839  29.012  1.00  0.00     0.031 A 
ATOM     40  C   UNL A   1      40.619  26.446  28.601  1.00  0.00     0.074 A 
ATOM     41  C   UNL A   1      41.375  28.686  29.244  1.00  0.00     0.049 A 
ATOM     42  N   UNL A   1      41.724  25.821  28.836  1.00  0.00    -0.248 NA
ATOM     43  C   UNL A   1      39.632  25.630  27.906  1.00  0.00     0.031 C 
ATOM     44  C   UNL A   1      42.793  28.463  28.976  1.00  0.00     0.029 A 
ATOM     45  N   UNL A   1      41.348  29.872  29.998  1.00  0.00    -0.354 N 
ATOM     46  C   UNL A   1      41.696  24.632  28.148  1.00  0.00     0.074 A 
ATOM     47  C   UNL A   1      40.358  24.546  27.608  1.00  0.00     0.031 C 
ATOM     48  C   UNL A   1      43.513  29.249  29.792  1.00  0.00     0.029 A 
ATOM     49  C   UNL A   1      42.578  29.892  30.700  1.00  0.00     0.049 A 
ATOM     50  H   UNL A   1      40.628  30.544  30.032  1.00  0.00     0.167 HD
ATOM     51  C   UNL A   1      42.841  23.898  28.031  1.00  0.00     0.037 A 
ATOM     52  C   UNL A   1      42.606  29.796  32.060  1.00  0.00     0.037 A 
ATOM     53  C   UNL A   1      43.936  24.483  28.798  1.00  0.00     0.049 A 
ATOM     54  C   UNL A   1      43.354  28.595  32.598  1.00  0.00     0.074 A 
ATOM     55  C   UNL A   1      44.999  25.317  28.488  1.00  0.00     0.029 A 
ATOM     56  N   UNL A   1      43.860  24.458  30.178  1.00  0.00    -0.354 N 
ATOM     57  N   UNL A   1      43.824  27.629  31.858  1.00  0.00    -0.248 NA
ATOM     58  C   UNL A   1      43.533  28.339  34.029  1.00  0.00     0.031 C 
ATOM     59  C   UNL A   1      45.538  25.819  29.706  1.00  0.00     0.029 A 
ATOM     60  C   UNL A   1      44.806  25.285  30.750  1.00  0.00     0.049 A 
ATOM     61  H   UNL A   1      43.213  23.919  30.687  1.00  0.00     0.167 HD
ATOM     62  C   UNL A   1      44.306  26.638  32.669  1.00  0.00     0.074 A 
ATOM     63  C   UNL A   1      44.104  27.123  34.020  1.00  0.00     0.031 C 
ATOM     64  C   UNL A   1      44.803  25.466  32.188  1.00  0.00     0.037 A 
BRANCH  51  65
ATOM     65  C   UNL A   1      43.024  22.761  27.056  1.00  0.00     0.064 A 
ATOM     66  C   UNL A   1      42.320  21.548  27.223  1.00  0.00     0.173 A 
ATOM     67  C   UNL A   1      43.906  22.786  25.961  1.00  0.00     0.173 A 
ATOM     68  F   UNL A   1      41.375  21.411  28.163  1.00  0.00    -0.203 F 
ATOM     69  C   UNL A   1      42.568  20.422  26.435  1.00  0.00     0.198 A 
ATOM     70  C   UNL A   1      44.201  21.642  25.211  1.00  0.00     0.198 A 
ATOM     71  F   UNL A   1      44.468  23.928  25.548  1.00  0.00    -0.203 F 
ATOM     72  F   UNL A   1      41.869  19.298  26.643  1.00  0.00    -0.200 F 
ATOM     73  C   UNL A   1      43.539  20.456  25.455  1.00  0.00     0.200 A 
ATOM     74  F   UNL A   1      45.131  21.701  24.249  1.00  0.00    -0.200 F 
ATOM     75  F   UNL A   1      43.816  19.361  24.735  1.00  0.00    -0.200 F 
ENDBRANCH  51  65
BRANCH  52  76
ATOM     76  C   UNL A   1      41.412  30.404  32.708  1.00  0.00     0.064 A 
ATOM     77  C   UNL A   1      41.299  31.809  32.729  1.00  0.00     0.173 A 
ATOM     78  C   UNL A   1      40.257  29.659  32.964  1.00  0.00     0.173 A 
ATOM     79  F   UNL A   1      42.377  32.573  32.487  1.00  0.00    -0.203 F 
ATOM     80  C   UNL A   1      40.062  32.434  32.870  1.00  0.00     0.198 A 
ATOM     81  C   UNL A   1      39.024  30.289  33.132  1.00  0.00     0.198 A 
ATOM     82  F   UNL A   1      40.291  28.319  32.941  1.00  0.00    -0.203 F 
ATOM     83  F   UNL A   1      39.970  33.766  32.756  1.00  0.00    -0.200 F 
ATOM     84  C   UNL A   1      38.922  31.670  33.046  1.00  0.00     0.200 A 
ATOM     85  F   UNL A   1      37.915  29.549  33.277  1.00  0.00    -0.200 F 
ATOM     86  F   UNL A   1      37.719  32.260  33.090  1.00  0.00    -0.200 F 
ENDBRANCH  52  76
BRANCH  64  87
ATOM     87  C   UNL A   1      45.340  24.393  33.076  1.00  0.00     0.064 A 
ATOM     88  C   UNL A   1      44.559  23.294  33.462  1.00  0.00     0.173 A 
ATOM     89  C   UNL A   1      46.617  24.502  33.660  1.00  0.00     0.173 A 
ATOM     90  F   UNL A   1      43.319  23.135  32.976  1.00  0.00    -0.203 F 
ATOM     91  C   UNL A   1      45.038  22.345  34.364  1.00  0.00     0.198 A 
ATOM     92  C   UNL A   1      47.075  23.576  34.593  1.00  0.00     0.198 A 
ATOM     93  F   UNL A   1      47.451  25.497  33.321  1.00  0.00    -0.203 F 
ATOM     94  F   UNL A   1      44.281  21.285  34.678  1.00  0.00    -0.200 F 
ATOM     95  C   UNL A   1      46.289  22.493  34.939  1.00  0.00     0.200 A 
ATOM     96  F   UNL A   1      48.283  23.738  35.154  1.00  0.00    -0.200 F 
ATOM     97  F   UNL A   1      46.738  21.591  35.822  1.00  0.00    -0.200 F 
ENDBRANCH  64  87
ENDBRANCH  38  39
ENDBRANCH  30  33
ENDBRANCH  28  29
ENDBRANCH  27  28
ENDBRANCH   1  27
TORSDOF 14
ENDMDL
MODEL 2
REMARK VINA RESULT:     -13.8      3.626      9.930
REMARK SMILES Cc1cc(C(=O)NCCCCCCNC(=O)c2ccc(-c3c4nc(c(-c5c(F)c(F)c(F)c(F)c5F)c5ccc([nH]5)c(-c5c(F)c(F)c(F)c(F)c5F)c5nc(c(-c6c(F)c(F)c(F)c(F)c6F)c6ccc3[nH]6)C=C5)C=C4)cc2)ccc1NC(=O)N1C[C@@H](C)[C@H](C)C1
REMARK SMILES IDX 11 1 10 2 9 3 8 4 7 5 5 6 6 7 4 9 1 10 2 11 3 12 82 13 81 14
REMARK SMILES IDX 80 15 83 16 84 17 85 19 86 20 87 21 92 22 88 23 90 24 89 25
REMARK SMILES IDX 91 26 12 27 13 28 14 29 15 30 16 32 17 33 18 34 79 35 19 36
REMARK SMILES IDX 78 37 20 38 21 39 22 40 72 41 23 42 77 43 71 44 73 45 24 46
REMARK SMILES IDX 76 47 70 48 69 49 25 51 57 52 37 53 56 54 38 55 41 56 55 57
REMARK SMILES IDX 74 58 39 59 40 60 54 62 75 63 42 64 26 65 27 66 35 67 28 68
REMARK SMILES IDX 29 69 33 70 36 71 30 72 31 73 34 74 32 75 58 76 59 77 67 78
REMARK SMILES IDX 60 79 61 80 65 81 68 82 62 83 63 84 66 85 64 86 43 87 44 88
REMARK SMILES IDX 52 89 45 90 46 91 50 92 53 93 47 94 48 95 51 96 49 97
REMARK H PARENT 7 8 83 18 14 31 73 50 41 61
REMARK Flexibility Score: inf
ROOT
ATOM      1  C   UNL A   1      36.879  24.079  25.912  1.00  0.00     0.002 C 
ENDROOT
BRANCH   1   2
ATOM      2  C   UNL A   1      35.500  23.424  25.723  1.00  0.00     0.002 C 
BRANCH   2   3
ATOM      3  C   UNL A   1      35.375  21.958  26.159  1.00  0.00     0.021 C 
BRANCH   3   4
ATOM      4  C   UNL A   1      35.347  20.944  25.012  1.00  0.00     0.116 C 
BRANCH   4   5
ATOM      5  N   UNL A   1      34.301  19.953  25.196  1.00  0.00    -0.352 N 
ATOM      6  C   UNL A   1      32.941  20.030  25.005  1.00  0.00     0.251 C 
ATOM      7  O   UNL A   1      32.268  19.005  25.084  1.00  0.00    -0.269 OA
ATOM      8  H   UNL A   1      34.620  19.076  25.510  1.00  0.00     0.163 HD
BRANCH   6   9
ATOM      9  C   UNL A   1      32.280  21.310  24.645  1.00  0.00     0.040 A 
ATOM     10  C   UNL A   1      30.292  23.958  26.500  1.00  0.00     0.046 C 
ATOM     11  C   UNL A   1      30.867  23.190  25.341  1.00  0.00    -0.027 A 
ATOM     12  C   UNL A   1      31.615  22.031  25.646  1.00  0.00     0.019 A 
ATOM     13  C   UNL A   1      30.748  23.581  23.995  1.00  0.00     0.045 A 
ATOM     14  C   UNL A   1      31.553  22.949  23.038  1.00  0.00     0.027 A 
ATOM     15  C   UNL A   1      32.330  21.839  23.362  1.00  0.00     0.016 A 
BRANCH  13  16
ATOM     16  N   UNL A   1      29.874  24.621  23.616  1.00  0.00    -0.308 N 
ATOM     17  C   UNL A   1      29.899  25.942  23.963  1.00  0.00     0.321 C 
ATOM     18  H   UNL A   1      29.141  24.357  23.015  1.00  0.00     0.171 HD
ATOM     19  O   UNL A   1      28.833  26.552  24.054  1.00  0.00    -0.248 OA
ATOM     20  N   UNL A   1      31.110  26.553  24.170  1.00  0.00    -0.324 N 
ATOM     21  C   UNL A   1      31.220  27.720  25.025  1.00  0.00     0.125 C 
ATOM     22  C   UNL A   1      32.259  26.439  23.280  1.00  0.00     0.125 C 
ATOM     23  C   UNL A   1      32.463  28.467  24.540  1.00  0.00     0.010 C 
ATOM     24  C   UNL A   1      33.316  27.361  23.893  1.00  0.00     0.010 C 
ATOM     25  C   UNL A   1      33.179  29.204  25.661  1.00  0.00     0.010 C 
ATOM     26  C   UNL A   1      34.320  27.895  22.878  1.00  0.00     0.010 C 
ENDBRANCH  13  16
ENDBRANCH   6   9
ENDBRANCH   4   5
ENDBRANCH   3   4
ENDBRANCH   2   3
ENDBRANCH   1   2
BRANCH   1  27
ATOM     27  C   UNL A   1      38.081  23.279  25.402  1.00  0.00     0.021 C 
BRANCH  27  28
ATOM     28  C   UNL A   1      38.918  22.639  26.503  1.00  0.00     0.116 C 
BRANCH  28  29
ATOM     29  N   UNL A   1      40.352  22.854  26.363  1.00  0.00    -0.352 N 
ATOM     30  C   UNL A   1      41.078  24.030  26.454  1.00  0.00     0.251 C 
ATOM     31  H   UNL A   1      40.883  22.045  26.178  1.00  0.00     0.163 HD
ATOM     32  O   UNL A   1      42.283  24.029  26.261  1.00  0.00    -0.269 OA
BRANCH  30  33
ATOM     33  C   UNL A   1      40.399  25.268  26.908  1.00  0.00     0.039 A 
ATOM     34  C   UNL A   1      40.680  26.461  26.232  1.00  0.00     0.014 A 
ATOM     35  C   UNL A   1      39.648  25.288  28.080  1.00  0.00     0.014 A 
ATOM     36  C   UNL A   1      40.417  27.680  26.857  1.00  0.00     0.010 A 
ATOM     37  C   UNL A   1      39.472  26.488  28.742  1.00  0.00     0.010 A 
ATOM     38  C   UNL A   1      39.921  27.678  28.160  1.00  0.00    -0.014 A 
BRANCH  38  39
ATOM     39  C   UNL A   1      39.944  28.847  29.031  1.00  0.00     0.031 A 
ATOM     40  C   UNL A   1      38.894  29.883  28.944  1.00  0.00     0.074 A 
ATOM     41  C   UNL A   1      40.892  28.929  29.992  1.00  0.00     0.049 A 
ATOM     42  N   UNL A   1      39.010  31.078  29.415  1.00  0.00    -0.248 NA
ATOM     43  C   UNL A   1      37.619  29.648  28.278  1.00  0.00     0.031 C 
ATOM     44  C   UNL A   1      40.940  29.853  31.122  1.00  0.00     0.029 A 
ATOM     45  N   UNL A   1      42.151  28.306  30.001  1.00  0.00    -0.354 N 
ATOM     46  C   UNL A   1      37.783  31.693  29.328  1.00  0.00     0.074 A 
ATOM     47  C   UNL A   1      36.956  30.769  28.584  1.00  0.00     0.031 C 
ATOM     48  C   UNL A   1      42.218  29.990  31.511  1.00  0.00     0.029 A 
ATOM     49  C   UNL A   1      43.035  29.267  30.551  1.00  0.00     0.049 A 
ATOM     50  H   UNL A   1      42.373  27.398  29.690  1.00  0.00     0.167 HD
ATOM     51  C   UNL A   1      37.577  32.873  29.981  1.00  0.00     0.037 A 
ATOM     52  C   UNL A   1      44.032  29.811  29.795  1.00  0.00     0.037 A 
ATOM     53  C   UNL A   1      38.802  33.366  30.604  1.00  0.00     0.049 A 
ATOM     54  C   UNL A   1      43.950  31.313  29.619  1.00  0.00     0.074 A 
ATOM     55  C   UNL A   1      39.335  33.295  31.881  1.00  0.00     0.029 A 
ATOM     56  N   UNL A   1      39.826  33.802  29.785  1.00  0.00    -0.354 N 
ATOM     57  N   UNL A   1      42.948  32.046  30.018  1.00  0.00    -0.248 NA
ATOM     58  C   UNL A   1      44.949  32.086  28.880  1.00  0.00     0.031 C 
ATOM     59  C   UNL A   1      40.709  33.665  31.809  1.00  0.00     0.029 A 
ATOM     60  C   UNL A   1      41.002  33.963  30.491  1.00  0.00     0.049 A 
ATOM     61  H   UNL A   1      39.731  33.975  28.821  1.00  0.00     0.167 HD
ATOM     62  C   UNL A   1      43.126  33.327  29.571  1.00  0.00     0.074 A 
ATOM     63  C   UNL A   1      44.391  33.308  28.863  1.00  0.00     0.031 C 
ATOM     64  C   UNL A   1      42.211  34.314  29.773  1.00  0.00     0.037 A 
BRANCH  51  65
ATOM     65  C   UNL A   1      36.218  33.480  30.228  1.00  0.00     0.064 A 
ATOM     66  C   UNL A   1      35.462  34.013  29.162  1.00  0.00     0.173 A 
ATOM     67  C   UNL A   1      35.620  33.604  31.496  1.00  0.00     0.173 A 
ATOM     68  F   UNL A   1      35.858  33.881  27.889  1.00  0.00    -0.203 F 
ATOM     69  C   UNL A   1      34.270  34.714  29.364  1.00  0.00     0.198 A 
ATOM     70  C   UNL A   1      34.461  34.358  31.706  1.00  0.00     0.198 A 
ATOM     71  F   UNL A   1      36.108  32.954  32.560  1.00  0.00    -0.203 F 
ATOM     72  F   UNL A   1      33.598  35.199  28.310  1.00  0.00    -0.200 F 
ATOM     73  C   UNL A   1      33.791  34.923  30.640  1.00  0.00     0.200 A 
ATOM     74  F   UNL A   1      33.999  34.531  32.952  1.00  0.00    -0.200 F 
ATOM     75  F   UNL A   1      32.678  35.641  30.839  1.00  0.00    -0.200 F 
ENDBRANCH  51  65
BRANCH  52  76
ATOM     76  C   UNL A   1      44.559  28.870  28.769  1.00  0.00     0.064 A 
ATOM     77  C   UNL A   1      45.384  27.808  29.191  1.00  0.00     0.173 A 
ATOM     78  C   UNL A   1      43.994  28.783  27.494  1.00  0.00     0.173 A 
ATOM     79  F   UNL A   1      45.952  27.840  30.408  1.00  0.00    -0.203 F 
ATOM     80  C   UNL A   1      45.528  26.655  28.423  1.00  0.00     0.198 A 
ATOM     81  C   UNL A   1      44.162  27.638  26.716  1.00  0.00     0.198 A 
ATOM     82  F   UNL A   1      43.184  29.750  27.039  1.00  0.00    -0.203 F 
ATOM     83  F   UNL A   1      46.213  25.610  28.908  1.00  0.00    -0.200 F 
ATOM     84  C   UNL A   1      44.894  26.561  27.196  1.00  0.00     0.200 A 
ATOM     85  F   UNL A   1      43.528  27.537  25.539  1.00  0.00    -0.200 F 
ATOM     86  F   UNL A   1      44.953  25.421  26.495  1.00  0.00    -0.200 F 
ENDBRANCH  52  76
BRANCH  64  87
ATOM     87  C   UNL A   1      42.416  35.714  29.295  1.00  0.00     0.064 A 
ATOM     88  C   UNL A   1      41.866  36.169  28.089  1.00  0.00     0.173 A 
ATOM     89  C   UNL A   1      43.269  36.600  29.980  1.00  0.00     0.173 A 
ATOM     90  F   UNL A   1      41.069  35.374  27.359  1.00  0.00    -0.203 F 
ATOM     91  C   UNL A   1      42.138  37.449  27.605  1.00  0.00     0.198 A 
ATOM     92  C   UNL A   1      43.573  37.860  29.473  1.00  0.00     0.198 A 
ATOM     93  F   UNL A   1      43.808  36.266  31.163  1.00  0.00    -0.203 F 
ATOM     94  F   UNL A   1      41.562  37.867  26.470  1.00  0.00    -0.200 F 
ATOM     95  C   UNL A   1      43.000  38.288  28.290  1.00  0.00     0.200 A 
ATOM     96  F   UNL A   1      44.421  38.658  30.139  1.00  0.00    -0.200 F 
ATOM     97  F   UNL A   1      43.277  39.509  27.813  1.00  0.00    -0.200 F 
ENDBRANCH  64  87
ENDBRANCH  38  39
ENDBRANCH  30  33
ENDBRANCH  28  29
ENDBRANCH  27  28
ENDBRANCH   1  27
TORSDOF 14
ENDMDL
MODEL 3
REMARK VINA RESULT:     -13.7      3.576      9.963
REMARK SMILES Cc1cc(C(=O)NCCCCCCNC(=O)c2ccc(-c3c4nc(c(-c5c(F)c(F)c(F)c(F)c5F)c5ccc([nH]5)c(-c5c(F)c(F)c(F)c(F)c5F)c5nc(c(-c6c(F)c(F)c(F)c(F)c6F)c6ccc3[nH]6)C=C5)C=C4)cc2)ccc1NC(=O)N1C[C@@H](C)[C@H](C)C1
REMARK SMILES IDX 11 1 10 2 9 3 8 4 7 5 5 6 6 7 4 9 1 10 2 11 3 12 82 13 81 14
REMARK SMILES IDX 80 15 83 16 84 17 85 19 86 20 87 21 92 22 88 23 90 24 89 25
REMARK SMILES IDX 91 26 12 27 13 28 14 29 15 30 16 32 17 33 18 34 79 35 19 36
REMARK SMILES IDX 78 37 20 38 21 39 22 40 72 41 23 42 77 43 71 44 73 45 24 46
REMARK SMILES IDX 76 47 70 48 69 49 25 51 57 52 37 53 56 54 38 55 41 56 55 57
REMARK SMILES IDX 74 58 39 59 40 60 54 62 75 63 42 64 26 65 27 66 35 67 28 68
REMARK SMILES IDX 29 69 33 70 36 71 30 72 31 73 34 74 32 75 58 76 59 77 67 78
REMARK SMILES IDX 60 79 61 80 65 81 68 82 62 83 63 84 66 85 64 86 43 87 44 88
REMARK SMILES IDX 52 89 45 90 46 91 50 92 53 93 47 94 48 95 51 96 49 97
REMARK H PARENT 7 8 83 18 14 31 73 50 41 61
REMARK Flexibility Score: inf
ROOT
ATOM      1  C   UNL A   1      36.789  21.740  24.524  1.00  0.00     0.002 C 
ENDROOT
BRANCH   1   2
ATOM      2  C   UNL A   1      35.610  22.405  25.255  1.00  0.00     0.002 C 
BRANCH   2   3
ATOM      3  C   UNL A   1      34.728  21.484  26.109  1.00  0.00     0.021 C 
BRANCH   3   4
ATOM      4  C   UNL A   1      33.221  21.672  25.914  1.00  0.00     0.116 C 
BRANCH   4   5
ATOM      5  N   UNL A   1      32.739  20.962  24.741  1.00  0.00    -0.352 N 
ATOM      6  C   UNL A   1      32.343  21.423  23.507  1.00  0.00     0.251 C 
ATOM      7  O   UNL A   1      32.114  20.613  22.613  1.00  0.00    -0.269 OA
ATOM      8  H   UNL A   1      32.688  19.985  24.848  1.00  0.00     0.163 HD
BRANCH   6   9
ATOM      9  C   UNL A   1      32.248  22.876  23.216  1.00  0.00     0.040 A 
ATOM     10  C   UNL A   1      29.648  25.590  23.745  1.00  0.00     0.046 C 
ATOM     11  C   UNL A   1      30.882  24.912  23.212  1.00  0.00    -0.027 A 
ATOM     12  C   UNL A   1      31.079  23.561  23.571  1.00  0.00     0.019 A 
ATOM     13  C   UNL A   1      31.860  25.552  22.431  1.00  0.00     0.045 A 
ATOM     14  C   UNL A   1      33.088  24.906  22.231  1.00  0.00     0.027 A 
ATOM     15  C   UNL A   1      33.291  23.589  22.639  1.00  0.00     0.016 A 
BRANCH  13  16
ATOM     16  N   UNL A   1      31.637  26.838  21.897  1.00  0.00    -0.308 N 
ATOM     17  C   UNL A   1      31.321  28.000  22.541  1.00  0.00     0.321 C 
ATOM     18  H   UNL A   1      31.722  26.908  20.918  1.00  0.00     0.171 HD
ATOM     19  O   UNL A   1      30.617  28.828  21.962  1.00  0.00    -0.248 OA
ATOM     20  N   UNL A   1      31.820  28.220  23.800  1.00  0.00    -0.324 N 
ATOM     21  C   UNL A   1      31.140  29.104  24.729  1.00  0.00     0.125 C 
ATOM     22  C   UNL A   1      33.210  28.012  24.189  1.00  0.00     0.125 C 
ATOM     23  C   UNL A   1      32.221  29.595  25.692  1.00  0.00     0.010 C 
ATOM     24  C   UNL A   1      33.277  28.476  25.646  1.00  0.00     0.010 C 
ATOM     25  C   UNL A   1      31.683  29.861  27.090  1.00  0.00     0.010 C 
ATOM     26  C   UNL A   1      34.664  28.943  26.073  1.00  0.00     0.010 C 
ENDBRANCH  13  16
ENDBRANCH   6   9
ENDBRANCH   4   5
ENDBRANCH   3   4
ENDBRANCH   2   3
ENDBRANCH   1   2
BRANCH   1  27
ATOM     27  C   UNL A   1      38.064  21.536  25.347  1.00  0.00     0.021 C 
BRANCH  27  28
ATOM     28  C   UNL A   1      38.568  22.797  26.040  1.00  0.00     0.116 C 
BRANCH  28  29
ATOM     29  N   UNL A   1      40.008  22.821  26.260  1.00  0.00    -0.352 N 
ATOM     30  C   UNL A   1      40.825  23.880  26.622  1.00  0.00     0.251 C 
ATOM     31  H   UNL A   1      40.468  21.960  26.133  1.00  0.00     0.163 HD
ATOM     32  O   UNL A   1      42.031  23.726  26.717  1.00  0.00    -0.269 OA
BRANCH  30  33
ATOM     33  C   UNL A   1      40.208  25.172  27.012  1.00  0.00     0.039 A 
ATOM     34  C   UNL A   1      40.639  26.333  26.361  1.00  0.00     0.014 A 
ATOM     35  C   UNL A   1      39.361  25.261  28.113  1.00  0.00     0.014 A 
ATOM     36  C   UNL A   1      40.418  27.574  26.957  1.00  0.00     0.010 A 
ATOM     37  C   UNL A   1      39.223  26.476  28.754  1.00  0.00     0.010 A 
ATOM     38  C   UNL A   1      39.812  27.623  28.212  1.00  0.00    -0.014 A 
BRANCH  38  39
ATOM     39  C   UNL A   1      39.850  28.795  29.079  1.00  0.00     0.031 A 
ATOM     40  C   UNL A   1      38.813  29.843  28.989  1.00  0.00     0.074 A 
ATOM     41  C   UNL A   1      40.800  28.868  30.039  1.00  0.00     0.049 A 
ATOM     42  N   UNL A   1      38.944  31.039  29.455  1.00  0.00    -0.248 NA
ATOM     43  C   UNL A   1      37.535  29.622  28.324  1.00  0.00     0.031 C 
ATOM     44  C   UNL A   1      40.861  29.795  31.165  1.00  0.00     0.029 A 
ATOM     45  N   UNL A   1      42.052  28.230  30.048  1.00  0.00    -0.354 N 
ATOM     46  C   UNL A   1      37.726  31.668  29.367  1.00  0.00     0.074 A 
ATOM     47  C   UNL A   1      36.887  30.752  28.627  1.00  0.00     0.031 C 
ATOM     48  C   UNL A   1      42.140  29.917  31.552  1.00  0.00     0.029 A 
ATOM     49  C   UNL A   1      42.947  29.181  30.594  1.00  0.00     0.049 A 
ATOM     50  H   UNL A   1      42.262  27.318  29.740  1.00  0.00     0.167 HD
ATOM     51  C   UNL A   1      37.535  32.854  30.016  1.00  0.00     0.037 A 
ATOM     52  C   UNL A   1      43.951  29.710  29.835  1.00  0.00     0.037 A 
ATOM     53  C   UNL A   1      38.766  33.333  30.637  1.00  0.00     0.049 A 
ATOM     54  C   UNL A   1      43.888  31.212  29.655  1.00  0.00     0.074 A 
ATOM     55  C   UNL A   1      39.300  33.260  31.914  1.00  0.00     0.029 A 
ATOM     56  N   UNL A   1      39.795  33.753  29.816  1.00  0.00    -0.354 N 
ATOM     57  N   UNL A   1      42.895  31.960  30.052  1.00  0.00    -0.248 NA
ATOM     58  C   UNL A   1      44.895  31.971  28.911  1.00  0.00     0.031 C 
ATOM     59  C   UNL A   1      40.677  33.612  31.839  1.00  0.00     0.029 A 
ATOM     60  C   UNL A   1      40.974  33.902  30.520  1.00  0.00     0.049 A 
ATOM     61  H   UNL A   1      39.701  33.924  28.851  1.00  0.00     0.167 HD
ATOM     62  C   UNL A   1      43.088  33.236  29.600  1.00  0.00     0.074 A 
ATOM     63  C   UNL A   1      44.352  33.199  28.891  1.00  0.00     0.031 C 
ATOM     64  C   UNL A   1      42.186  34.235  29.799  1.00  0.00     0.037 A 
BRANCH  51  65
ATOM     65  C   UNL A   1      36.183  33.478  30.263  1.00  0.00     0.064 A 
ATOM     66  C   UNL A   1      35.427  34.005  29.193  1.00  0.00     0.173 A 
ATOM     67  C   UNL A   1      35.594  33.625  31.531  1.00  0.00     0.173 A 
ATOM     68  F   UNL A   1      35.816  33.853  27.920  1.00  0.00    -0.203 F 
ATOM     69  C   UNL A   1      34.245  34.722  29.392  1.00  0.00     0.198 A 
ATOM     70  C   UNL A   1      34.444  34.394  31.738  1.00  0.00     0.198 A 
ATOM     71  F   UNL A   1      36.080  32.983  32.601  1.00  0.00    -0.203 F 
ATOM     72  F   UNL A   1      33.573  35.201  28.336  1.00  0.00    -0.200 F 
ATOM     73  C   UNL A   1      33.775  34.952  30.668  1.00  0.00     0.200 A 
ATOM     74  F   UNL A   1      33.990  34.588  32.983  1.00  0.00    -0.200 F 
ATOM     75  F   UNL A   1      32.671  35.685  30.863  1.00  0.00    -0.200 F 
ENDBRANCH  51  65
BRANCH  52  76
ATOM     76  C   UNL A   1      44.465  28.759  28.813  1.00  0.00     0.064 A 
ATOM     77  C   UNL A   1      45.223  27.651  29.244  1.00  0.00     0.173 A 
ATOM     78  C   UNL A   1      43.939  28.718  27.518  1.00  0.00     0.173 A 
ATOM     79  F   UNL A   1      45.751  27.639  30.479  1.00  0.00    -0.203 F 
ATOM     80  C   UNL A   1      45.337  26.504  28.463  1.00  0.00     0.198 A 
ATOM     81  C   UNL A   1      44.076  27.577  26.728  1.00  0.00     0.198 A 
ATOM     82  F   UNL A   1      43.193  29.730  27.053  1.00  0.00    -0.203 F 
ATOM     83  F   UNL A   1      45.954  25.420  28.953  1.00  0.00    -0.200 F 
ATOM     84  C   UNL A   1      44.740  26.459  27.215  1.00  0.00     0.200 A 
ATOM     85  F   UNL A   1      43.478  27.524  25.530  1.00  0.00    -0.200 F 
ATOM     86  F   UNL A   1      44.766  25.327  26.498  1.00  0.00    -0.200 F 
ENDBRANCH  52  76
BRANCH  64  87
ATOM     87  C   UNL A   1      42.408  35.631  29.317  1.00  0.00     0.064 A 
ATOM     88  C   UNL A   1      41.853  36.093  28.115  1.00  0.00     0.173 A 
ATOM     89  C   UNL A   1      43.282  36.504  29.991  1.00  0.00     0.173 A 
ATOM     90  F   UNL A   1      41.035  35.309  27.395  1.00  0.00    -0.203 F 
ATOM     91  C   UNL A   1      42.140  37.367  27.626  1.00  0.00     0.198 A 
ATOM     92  C   UNL A   1      43.601  37.758  29.478  1.00  0.00     0.198 A 
ATOM     93  F   UNL A   1      43.829  36.164  31.168  1.00  0.00    -0.203 F 
ATOM     94  F   UNL A   1      41.559  37.792  26.496  1.00  0.00    -0.200 F 
ATOM     95  C   UNL A   1      43.023  38.194  28.300  1.00  0.00     0.200 A 
ATOM     96  F   UNL A   1      44.468  38.544  30.133  1.00  0.00    -0.200 F 
ATOM     97  F   UNL A   1      43.314  39.409  27.817  1.00  0.00    -0.200 F 
ENDBRANCH  64  87
ENDBRANCH  38  39
ENDBRANCH  30  33
ENDBRANCH  28  29
ENDBRANCH  27  28
ENDBRANCH   1  27
TORSDOF 14
ENDMDL
