MODEL 1
REMARK VINA RESULT:     -13.0      0.000      0.000
REMARK SMILES CC[C@@H](Sc1nnc2ccc3ccccc3n12)C(=O)Nc1cccc(C(=O)NCCCCCCNC(=O)c2ccc(-c3c4nc(c(-c5c(F)c(F)c(F)c(F)c5F)c5ccc([nH]5)c(-c5c(F)c(F)c(F)c(F)c5F)c5nc(c(-c6c(F)c(F)c(F)c(F)c6F)c6ccc3[nH]6)C=C5)C=C4)cc2)c1
REMARK SMILES IDX 30 1 29 2 28 3 26 4 27 5 25 7 21 8 22 9 101 10 23 11 24 12
REMARK SMILES IDX 20 13 18 14 19 15 3 17 2 18 1 19 4 20 5 21 6 22 17 23 7 24
REMARK SMILES IDX 8 25 16 26 9 27 11 28 15 29 10 30 12 31 14 32 13 33 31 34
REMARK SMILES IDX 32 35 33 36 34 37 35 38 36 39 37 41 38 42 39 43 100 44 40 45
REMARK SMILES IDX 99 46 41 47 42 48 43 49 93 50 44 51 98 52 92 53 94 54 45 55
REMARK SMILES IDX 97 56 91 57 90 58 46 60 78 61 58 62 77 63 59 64 62 65 76 66
REMARK SMILES IDX 95 67 60 68 61 69 75 71 96 72 63 73 47 74 48 75 56 76 49 77
REMARK SMILES IDX 50 78 54 79 57 80 51 81 52 82 55 83 53 84 79 85 80 86 88 87
REMARK SMILES IDX 81 88 82 89 86 90 89 91 83 92 84 93 87 94 85 95 64 96 65 97
REMARK SMILES IDX 73 98 66 99 67 100 71 101 74 102 68 103 69 104 72 105 70 106
REMARK H PARENT 28 6 20 16 35 40 94 59 62 70
REMARK Flexibility Score: inf
ROOT
ATOM      1  C   UNL A   1      39.739  22.476  26.796  1.00  0.00     0.021 C 
ENDROOT
BRANCH   1   2
ATOM      2  C   UNL A   1      38.430  22.779  26.098  1.00  0.00     0.116 C 
BRANCH   2   3
ATOM      3  N   UNL A   1      37.674  21.614  25.696  1.00  0.00    -0.352 N 
ATOM      4  C   UNL A   1      36.385  21.482  25.227  1.00  0.00     0.251 C 
ATOM      5  O   UNL A   1      35.982  20.356  24.971  1.00  0.00    -0.269 OA
ATOM      6  H   UNL A   1      38.166  20.764  25.772  1.00  0.00     0.163 HD
BRANCH   4   7
ATOM      7  C   UNL A   1      35.459  22.643  25.062  1.00  0.00     0.041 A 
ATOM      8  C   UNL A   1      33.993  24.023  23.728  1.00  0.00     0.041 A 
ATOM      9  C   UNL A   1      33.890  24.919  24.774  1.00  0.00     0.026 A 
ATOM     10  C   UNL A   1      34.570  22.790  23.997  1.00  0.00     0.040 A 
ATOM     11  C   UNL A   1      34.672  24.758  25.918  1.00  0.00     0.003 A 
ATOM     12  C   UNL A   1      35.526  23.665  26.016  1.00  0.00     0.014 A 
BRANCH   8  13
ATOM     13  N   UNL A   1      33.562  24.242  22.410  1.00  0.00    -0.325 N 
ATOM     14  C   UNL A   1      33.188  25.395  21.763  1.00  0.00     0.237 C 
ATOM     15  O   UNL A   1      33.248  25.320  20.522  1.00  0.00    -0.273 OA
ATOM     16  H   UNL A   1      33.519  23.430  21.856  1.00  0.00     0.169 HD
BRANCH  14  17
ATOM     17  C   UNL A   1      32.777  26.761  22.402  1.00  0.00     0.144 C 
BRANCH  17  18
ATOM     18  C   UNL A   1      33.775  27.875  22.114  1.00  0.00     0.021 C 
ATOM     19  C   UNL A   1      34.232  28.743  23.272  1.00  0.00     0.005 C 
ENDBRANCH  17  18
BRANCH  17  20
ATOM     20  S   UNL A   1      30.978  26.936  22.289  1.00  0.00    -0.072 SA
BRANCH  20  21
ATOM     21  C   UNL A   1      30.216  28.326  23.004  1.00  0.00     0.196 A 
ATOM     22  N   UNL A   1      29.258  28.897  22.290  1.00  0.00    -0.122 NA
ATOM     23  N   UNL A   1      30.446  29.121  24.123  1.00  0.00    -0.270 N 
ATOM     24  N   UNL A   1      29.004  30.142  22.785  1.00  0.00    -0.129 NA
ATOM     25  C   UNL A   1      29.791  30.317  23.819  1.00  0.00     0.161 A 
ATOM     26  C   UNL A   1      31.227  29.000  25.303  1.00  0.00     0.057 A 
ATOM     27  C   UNL A   1      30.043  31.486  24.579  1.00  0.00     0.050 A 
ATOM     28  C   UNL A   1      31.614  30.209  25.922  1.00  0.00    -0.001 A 
ATOM     29  C   UNL A   1      31.686  27.787  25.797  1.00  0.00     0.027 A 
ATOM     30  C   UNL A   1      30.953  31.467  25.561  1.00  0.00     0.014 A 
ATOM     31  C   UNL A   1      32.645  30.202  26.864  1.00  0.00     0.010 A 
ATOM     32  C   UNL A   1      32.707  27.791  26.757  1.00  0.00     0.002 A 
ATOM     33  C   UNL A   1      33.225  28.994  27.242  1.00  0.00     0.001 A 
ENDBRANCH  20  21
ENDBRANCH  17  20
ENDBRANCH  14  17
ENDBRANCH   8  13
ENDBRANCH   4   7
ENDBRANCH   2   3
ENDBRANCH   1   2
BRANCH   1  34
ATOM     34  C   UNL A   1      40.330  21.097  26.530  1.00  0.00     0.002 C 
BRANCH  34  35
ATOM     35  C   UNL A   1      41.372  20.603  27.537  1.00  0.00     0.002 C 
BRANCH  35  36
ATOM     36  C   UNL A   1      42.366  19.545  27.037  1.00  0.00     0.021 C 
BRANCH  36  37
ATOM     37  C   UNL A   1      42.436  19.371  25.520  1.00  0.00     0.116 C 
BRANCH  37  38
ATOM     38  N   UNL A   1      43.656  19.868  24.925  1.00  0.00    -0.352 N 
ATOM     39  C   UNL A   1      44.365  21.027  24.987  1.00  0.00     0.251 C 
ATOM     40  H   UNL A   1      44.077  19.206  24.330  1.00  0.00     0.163 HD
ATOM     41  O   UNL A   1      45.445  21.036  24.391  1.00  0.00    -0.269 OA
BRANCH  39  42
ATOM     42  C   UNL A   1      43.904  22.276  25.643  1.00  0.00     0.039 A 
ATOM     43  C   UNL A   1      43.023  23.211  25.099  1.00  0.00     0.014 A 
ATOM     44  C   UNL A   1      44.479  22.537  26.900  1.00  0.00     0.014 A 
ATOM     45  C   UNL A   1      42.824  24.430  25.731  1.00  0.00     0.010 A 
ATOM     46  C   UNL A   1      44.265  23.741  27.550  1.00  0.00     0.010 A 
ATOM     47  C   UNL A   1      43.489  24.709  26.928  1.00  0.00    -0.014 A 
BRANCH  47  48
ATOM     48  C   UNL A   1      43.252  26.001  27.558  1.00  0.00     0.031 A 
ATOM     49  C   UNL A   1      44.229  27.046  27.153  1.00  0.00     0.074 A 
ATOM     50  C   UNL A   1      42.183  26.240  28.347  1.00  0.00     0.049 A 
ATOM     51  N   UNL A   1      45.055  27.691  27.908  1.00  0.00    -0.248 NA
ATOM     52  C   UNL A   1      44.403  27.317  25.715  1.00  0.00     0.031 C 
ATOM     53  C   UNL A   1      41.032  25.356  28.564  1.00  0.00     0.029 A 
ATOM     54  N   UNL A   1      41.837  27.363  29.044  1.00  0.00    -0.354 N 
ATOM     55  C   UNL A   1      45.702  28.600  27.074  1.00  0.00     0.074 A 
ATOM     56  C   UNL A   1      45.387  28.220  25.724  1.00  0.00     0.031 C 
ATOM     57  C   UNL A   1      40.021  26.061  29.118  1.00  0.00     0.029 A 
ATOM     58  C   UNL A   1      40.502  27.392  29.440  1.00  0.00     0.049 A 
ATOM     59  H   UNL A   1      42.473  28.087  29.247  1.00  0.00     0.167 HD
ATOM     60  C   UNL A   1      46.205  29.760  27.579  1.00  0.00     0.037 A 
ATOM     61  C   UNL A   1      39.834  28.458  29.944  1.00  0.00     0.037 A 
ATOM     62  C   UNL A   1      46.322  29.695  29.009  1.00  0.00     0.049 A 
ATOM     63  C   UNL A   1      40.838  29.391  30.505  1.00  0.00     0.074 A 
ATOM     64  C   UNL A   1      47.224  29.205  29.926  1.00  0.00     0.029 A 
ATOM     65  N   UNL A   1      45.136  29.878  29.663  1.00  0.00    -0.354 N 
ATOM     66  N   UNL A   1      41.573  29.116  31.545  1.00  0.00    -0.248 NA
ATOM     67  C   UNL A   1      41.274  30.535  29.710  1.00  0.00     0.031 C 
ATOM     68  C   UNL A   1      46.497  28.996  31.137  1.00  0.00     0.029 A 
ATOM     69  C   UNL A   1      45.181  29.405  30.945  1.00  0.00     0.049 A 
ATOM     70  H   UNL A   1      44.344  30.300  29.259  1.00  0.00     0.167 HD
ATOM     71  C   UNL A   1      42.765  29.760  31.292  1.00  0.00     0.074 A 
ATOM     72  C   UNL A   1      42.469  30.751  30.267  1.00  0.00     0.031 C 
ATOM     73  C   UNL A   1      43.951  29.205  31.672  1.00  0.00     0.037 A 
BRANCH  60  74
ATOM     74  C   UNL A   1      46.123  31.094  26.869  1.00  0.00     0.064 A 
ATOM     75  C   UNL A   1      47.261  31.922  26.805  1.00  0.00     0.173 A 
ATOM     76  C   UNL A   1      44.901  31.715  26.527  1.00  0.00     0.173 A 
ATOM     77  F   UNL A   1      48.468  31.453  27.155  1.00  0.00    -0.203 F 
ATOM     78  C   UNL A   1      47.173  33.275  26.453  1.00  0.00     0.198 A 
ATOM     79  C   UNL A   1      44.824  33.048  26.129  1.00  0.00     0.198 A 
ATOM     80  F   UNL A   1      43.725  31.095  26.679  1.00  0.00    -0.203 F 
ATOM     81  F   UNL A   1      48.265  34.050  26.501  1.00  0.00    -0.200 F 
ATOM     82  C   UNL A   1      45.955  33.835  26.112  1.00  0.00     0.200 A 
ATOM     83  F   UNL A   1      43.628  33.580  25.835  1.00  0.00    -0.200 F 
ATOM     84  F   UNL A   1      45.861  35.138  25.817  1.00  0.00    -0.200 F 
ENDBRANCH  60  74
BRANCH  61  85
ATOM     85  C   UNL A   1      38.440  28.892  29.675  1.00  0.00     0.064 A 
ATOM     86  C   UNL A   1      37.591  29.261  30.734  1.00  0.00     0.173 A 
ATOM     87  C   UNL A   1      38.029  29.273  28.383  1.00  0.00     0.173 A 
ATOM     88  F   UNL A   1      37.918  28.957  31.998  1.00  0.00    -0.203 F 
ATOM     89  C   UNL A   1      36.441  30.029  30.521  1.00  0.00     0.198 A 
ATOM     90  C   UNL A   1      36.879  30.035  28.172  1.00  0.00     0.198 A 
ATOM     91  F   UNL A   1      38.791  29.008  27.313  1.00  0.00    -0.203 F 
ATOM     92  F   UNL A   1      35.709  30.439  31.566  1.00  0.00    -0.200 F 
ATOM     93  C   UNL A   1      36.098  30.433  29.242  1.00  0.00     0.200 A 
ATOM     94  F   UNL A   1      36.574  30.446  26.933  1.00  0.00    -0.200 F 
ATOM     95  F   UNL A   1      35.049  31.243  29.045  1.00  0.00    -0.200 F 
ENDBRANCH  61  85
BRANCH  73  96
ATOM     96  C   UNL A   1      43.923  28.224  32.800  1.00  0.00     0.064 A 
ATOM     97  C   UNL A   1      43.824  28.573  34.157  1.00  0.00     0.173 A 
ATOM     98  C   UNL A   1      43.951  26.861  32.480  1.00  0.00     0.173 A 
ATOM     99  F   UNL A   1      43.715  29.853  34.535  1.00  0.00    -0.203 F 
ATOM    100  C   UNL A   1      43.797  27.593  35.149  1.00  0.00     0.198 A 
ATOM    101  C   UNL A   1      43.887  25.886  33.468  1.00  0.00     0.198 A 
ATOM    102  F   UNL A   1      44.009  26.475  31.196  1.00  0.00    -0.203 F 
ATOM    103  F   UNL A   1      43.724  27.945  36.441  1.00  0.00    -0.200 F 
ATOM    104  C   UNL A   1      43.823  26.250  34.803  1.00  0.00     0.200 A 
ATOM    105  F   UNL A   1      43.871  24.591  33.124  1.00  0.00    -0.200 F 
ATOM    106  F   UNL A   1      43.766  25.308  35.754  1.00  0.00    -0.200 F 
ENDBRANCH  73  96
ENDBRANCH  47  48
ENDBRANCH  39  42
ENDBRANCH  37  38
ENDBRANCH  36  37
ENDBRANCH  35  36
ENDBRANCH  34  35
ENDBRANCH   1  34
TORSDOF 18
ENDMDL
MODEL 2
REMARK VINA RESULT:     -12.9      1.598      3.090
REMARK SMILES CC[C@@H](Sc1nnc2ccc3ccccc3n12)C(=O)Nc1cccc(C(=O)NCCCCCCNC(=O)c2ccc(-c3c4nc(c(-c5c(F)c(F)c(F)c(F)c5F)c5ccc([nH]5)c(-c5c(F)c(F)c(F)c(F)c5F)c5nc(c(-c6c(F)c(F)c(F)c(F)c6F)c6ccc3[nH]6)C=C5)C=C4)cc2)c1
REMARK SMILES IDX 30 1 29 2 28 3 26 4 27 5 25 7 21 8 22 9 101 10 23 11 24 12
REMARK SMILES IDX 20 13 18 14 19 15 3 17 2 18 1 19 4 20 5 21 6 22 17 23 7 24
REMARK SMILES IDX 8 25 16 26 9 27 11 28 15 29 10 30 12 31 14 32 13 33 31 34
REMARK SMILES IDX 32 35 33 36 34 37 35 38 36 39 37 41 38 42 39 43 100 44 40 45
REMARK SMILES IDX 99 46 41 47 42 48 43 49 93 50 44 51 98 52 92 53 94 54 45 55
REMARK SMILES IDX 97 56 91 57 90 58 46 60 78 61 58 62 77 63 59 64 62 65 76 66
REMARK SMILES IDX 95 67 60 68 61 69 75 71 96 72 63 73 47 74 48 75 56 76 49 77
REMARK SMILES IDX 50 78 54 79 57 80 51 81 52 82 55 83 53 84 79 85 80 86 88 87
REMARK SMILES IDX 81 88 82 89 86 90 89 91 83 92 84 93 87 94 85 95 64 96 65 97
REMARK SMILES IDX 73 98 66 99 67 100 71 101 74 102 68 103 69 104 72 105 70 106
REMARK H PARENT 28 6 20 16 35 40 94 59 62 70
REMARK Flexibility Score: inf
ROOT
ATOM      1  C   UNL A   1      40.070  22.321  26.949  1.00  0.00     0.021 C 
ENDROOT
BRANCH   1   2
ATOM      2  C   UNL A   1      38.904  22.764  26.091  1.00  0.00     0.116 C 
BRANCH   2   3
ATOM      3  N   UNL A   1      38.308  21.718  25.292  1.00  0.00    -0.352 N 
ATOM      4  C   UNL A   1      37.103  21.655  24.625  1.00  0.00     0.251 C 
ATOM      5  O   UNL A   1      36.834  20.623  24.026  1.00  0.00    -0.269 OA
ATOM      6  H   UNL A   1      38.859  20.905  25.210  1.00  0.00     0.163 HD
BRANCH   4   7
ATOM      7  C   UNL A   1      36.108  22.769  24.642  1.00  0.00     0.041 A 
ATOM      8  C   UNL A   1      34.518  24.220  23.546  1.00  0.00     0.041 A 
ATOM      9  C   UNL A   1      34.403  24.964  24.704  1.00  0.00     0.026 A 
ATOM     10  C   UNL A   1      35.174  23.000  23.632  1.00  0.00     0.040 A 
ATOM     11  C   UNL A   1      35.235  24.703  25.793  1.00  0.00     0.003 A 
ATOM     12  C   UNL A   1      36.152  23.660  25.721  1.00  0.00     0.014 A 
BRANCH   8  13
ATOM     13  N   UNL A   1      34.027  24.582  22.282  1.00  0.00    -0.325 N 
ATOM     14  C   UNL A   1      32.966  25.377  21.920  1.00  0.00     0.237 C 
ATOM     15  O   UNL A   1      33.038  25.817  20.758  1.00  0.00    -0.273 OA
ATOM     16  H   UNL A   1      34.528  24.200  21.526  1.00  0.00     0.169 HD
BRANCH  14  17
ATOM     17  C   UNL A   1      31.759  25.824  22.807  1.00  0.00     0.144 C 
BRANCH  17  18
ATOM     18  C   UNL A   1      31.065  27.073  22.279  1.00  0.00     0.021 C 
ATOM     19  C   UNL A   1      30.190  27.862  23.235  1.00  0.00     0.005 C 
ENDBRANCH  17  18
BRANCH  17  20
ATOM     20  S   UNL A   1      30.901  24.346  23.406  1.00  0.00    -0.072 SA
BRANCH  20  21
ATOM     21  C   UNL A   1      31.142  23.836  25.052  1.00  0.00     0.196 A 
ATOM     22  N   UNL A   1      30.787  24.703  25.988  1.00  0.00    -0.122 NA
ATOM     23  N   UNL A   1      31.764  22.760  25.679  1.00  0.00    -0.270 N 
ATOM     24  N   UNL A   1      31.344  24.338  27.178  1.00  0.00    -0.129 NA
ATOM     25  C   UNL A   1      32.015  23.232  26.971  1.00  0.00     0.161 A 
ATOM     26  C   UNL A   1      32.238  21.489  25.265  1.00  0.00     0.057 A 
ATOM     27  C   UNL A   1      32.905  22.537  27.826  1.00  0.00     0.050 A 
ATOM     28  C   UNL A   1      33.266  20.919  26.050  1.00  0.00    -0.001 A 
ATOM     29  C   UNL A   1      31.814  20.851  24.107  1.00  0.00     0.027 A 
ATOM     30  C   UNL A   1      33.554  21.452  27.385  1.00  0.00     0.014 A 
ATOM     31  C   UNL A   1      34.018  19.860  25.538  1.00  0.00     0.010 A 
ATOM     32  C   UNL A   1      32.565  19.777  23.613  1.00  0.00     0.002 A 
ATOM     33  C   UNL A   1      33.697  19.324  24.295  1.00  0.00     0.001 A 
ENDBRANCH  20  21
ENDBRANCH  17  20
ENDBRANCH  14  17
ENDBRANCH   8  13
ENDBRANCH   4   7
ENDBRANCH   2   3
ENDBRANCH   1   2
BRANCH   1  34
ATOM     34  C   UNL A   1      40.586  20.911  26.692  1.00  0.00     0.002 C 
BRANCH  34  35
ATOM     35  C   UNL A   1      41.681  20.409  27.636  1.00  0.00     0.002 C 
BRANCH  35  36
ATOM     36  C   UNL A   1      42.715  19.443  27.042  1.00  0.00     0.021 C 
BRANCH  36  37
ATOM     37  C   UNL A   1      42.686  19.299  25.520  1.00  0.00     0.116 C 
BRANCH  37  38
ATOM     38  N   UNL A   1      43.850  19.836  24.854  1.00  0.00    -0.352 N 
ATOM     39  C   UNL A   1      44.518  21.021  24.870  1.00  0.00     0.251 C 
ATOM     40  H   UNL A   1      44.260  19.185  24.240  1.00  0.00     0.163 HD
ATOM     41  O   UNL A   1      45.562  21.064  24.213  1.00  0.00    -0.269 OA
BRANCH  39  42
ATOM     42  C   UNL A   1      44.050  22.257  25.544  1.00  0.00     0.039 A 
ATOM     43  C   UNL A   1      43.142  23.180  25.026  1.00  0.00     0.014 A 
ATOM     44  C   UNL A   1      44.646  22.519  26.792  1.00  0.00     0.014 A 
ATOM     45  C   UNL A   1      42.935  24.391  25.671  1.00  0.00     0.010 A 
ATOM     46  C   UNL A   1      44.425  23.714  27.454  1.00  0.00     0.010 A 
ATOM     47  C   UNL A   1      43.620  24.673  26.856  1.00  0.00    -0.014 A 
BRANCH  47  48
ATOM     48  C   UNL A   1      43.374  25.956  27.500  1.00  0.00     0.031 A 
ATOM     49  C   UNL A   1      44.346  27.011  27.112  1.00  0.00     0.074 A 
ATOM     50  C   UNL A   1      42.300  26.181  28.288  1.00  0.00     0.049 A 
ATOM     51  N   UNL A   1      45.167  27.651  27.877  1.00  0.00    -0.248 NA
ATOM     52  C   UNL A   1      44.525  27.300  25.677  1.00  0.00     0.031 C 
ATOM     53  C   UNL A   1      41.153  25.288  28.490  1.00  0.00     0.029 A 
ATOM     54  N   UNL A   1      41.946  27.294  28.997  1.00  0.00    -0.354 N 
ATOM     55  C   UNL A   1      45.812  28.574  27.056  1.00  0.00     0.074 A 
ATOM     56  C   UNL A   1      45.503  28.208  25.700  1.00  0.00     0.031 C 
ATOM     57  C   UNL A   1      40.137  25.981  29.049  1.00  0.00     0.029 A 
ATOM     58  C   UNL A   1      40.609  27.311  29.388  1.00  0.00     0.049 A 
ATOM     59  H   UNL A   1      42.577  28.018  29.211  1.00  0.00     0.167 HD
ATOM     60  C   UNL A   1      46.307  29.730  27.577  1.00  0.00     0.037 A 
ATOM     61  C   UNL A   1      39.934  28.367  29.902  1.00  0.00     0.037 A 
ATOM     62  C   UNL A   1      46.419  29.648  29.007  1.00  0.00     0.049 A 
ATOM     63  C   UNL A   1      40.931  29.298  30.478  1.00  0.00     0.074 A 
ATOM     64  C   UNL A   1      47.320  29.153  29.921  1.00  0.00     0.029 A 
ATOM     65  N   UNL A   1      45.230  29.817  29.658  1.00  0.00    -0.354 N 
ATOM     66  N   UNL A   1      41.664  29.015  31.517  1.00  0.00    -0.248 NA
ATOM     67  C   UNL A   1      41.364  30.455  29.699  1.00  0.00     0.031 C 
ATOM     68  C   UNL A   1      46.589  28.925  31.127  1.00  0.00     0.029 A 
ATOM     69  C   UNL A   1      45.272  29.330  30.935  1.00  0.00     0.049 A 
ATOM     70  H   UNL A   1      44.436  30.240  29.256  1.00  0.00     0.167 HD
ATOM     71  C   UNL A   1      42.853  29.668  31.276  1.00  0.00     0.074 A 
ATOM     72  C   UNL A   1      42.555  30.669  30.262  1.00  0.00     0.031 C 
ATOM     73  C   UNL A   1      44.040  29.114  31.654  1.00  0.00     0.037 A 
BRANCH  60  74
ATOM     74  C   UNL A   1      46.220  31.071  26.882  1.00  0.00     0.064 A 
ATOM     75  C   UNL A   1      47.353  31.910  26.839  1.00  0.00     0.173 A 
ATOM     76  C   UNL A   1      44.997  31.687  26.537  1.00  0.00     0.173 A 
ATOM     77  F   UNL A   1      48.560  31.446  27.194  1.00  0.00    -0.203 F 
ATOM     78  C   UNL A   1      47.256  33.266  26.503  1.00  0.00     0.198 A 
ATOM     79  C   UNL A   1      44.912  33.024  26.154  1.00  0.00     0.198 A 
ATOM     80  F   UNL A   1      43.824  31.056  26.670  1.00  0.00    -0.203 F 
ATOM     81  F   UNL A   1      48.341  34.049  26.571  1.00  0.00    -0.200 F 
ATOM     82  C   UNL A   1      46.037  33.821  26.157  1.00  0.00     0.200 A 
ATOM     83  F   UNL A   1      43.715  33.550  25.856  1.00  0.00    -0.200 F 
ATOM     84  F   UNL A   1      45.935  35.127  25.877  1.00  0.00    -0.200 F 
ENDBRANCH  60  74
BRANCH  61  85
ATOM     85  C   UNL A   1      38.538  28.797  29.633  1.00  0.00     0.064 A 
ATOM     86  C   UNL A   1      37.676  29.125  30.694  1.00  0.00     0.173 A 
ATOM     87  C   UNL A   1      38.137  29.215  28.349  1.00  0.00     0.173 A 
ATOM     88  F   UNL A   1      37.994  28.784  31.952  1.00  0.00    -0.203 F 
ATOM     89  C   UNL A   1      36.522  29.890  30.494  1.00  0.00     0.198 A 
ATOM     90  C   UNL A   1      36.982  29.972  28.151  1.00  0.00     0.198 A 
ATOM     91  F   UNL A   1      38.911  28.990  27.279  1.00  0.00    -0.203 F 
ATOM     92  F   UNL A   1      35.775  30.260  31.544  1.00  0.00    -0.200 F 
ATOM     93  C   UNL A   1      36.187  30.331  29.225  1.00  0.00     0.200 A 
ATOM     94  F   UNL A   1      36.685  30.419  26.922  1.00  0.00    -0.200 F 
ATOM     95  F   UNL A   1      35.132  31.137  29.044  1.00  0.00    -0.200 F 
ENDBRANCH  61  85
BRANCH  73  96
ATOM     96  C   UNL A   1      44.014  28.121  32.771  1.00  0.00     0.064 A 
ATOM     97  C   UNL A   1      43.925  28.453  34.133  1.00  0.00     0.173 A 
ATOM     98  C   UNL A   1      44.030  26.761  32.434  1.00  0.00     0.173 A 
ATOM     99  F   UNL A   1      43.826  29.730  34.526  1.00  0.00    -0.203 F 
ATOM    100  C   UNL A   1      43.898  27.461  35.113  1.00  0.00     0.198 A 
ATOM    101  C   UNL A   1      43.967  25.774  33.410  1.00  0.00     0.198 A 
ATOM    102  F   UNL A   1      44.078  26.390  31.145  1.00  0.00    -0.203 F 
ATOM    103  F   UNL A   1      43.835  27.798  36.409  1.00  0.00    -0.200 F 
ATOM    104  C   UNL A   1      43.914  26.123  34.750  1.00  0.00     0.200 A 
ATOM    105  F   UNL A   1      43.941  24.484  33.050  1.00  0.00    -0.200 F 
ATOM    106  F   UNL A   1      43.856  25.170  35.690  1.00  0.00    -0.200 F 
ENDBRANCH  73  96
ENDBRANCH  47  48
ENDBRANCH  39  42
ENDBRANCH  37  38
ENDBRANCH  36  37
ENDBRANCH  35  36
ENDBRANCH  34  35
ENDBRANCH   1  34
TORSDOF 18
ENDMDL
MODEL 3
REMARK VINA RESULT:     -12.7      3.262      8.566
REMARK SMILES CC[C@@H](Sc1nnc2ccc3ccccc3n12)C(=O)Nc1cccc(C(=O)NCCCCCCNC(=O)c2ccc(-c3c4nc(c(-c5c(F)c(F)c(F)c(F)c5F)c5ccc([nH]5)c(-c5c(F)c(F)c(F)c(F)c5F)c5nc(c(-c6c(F)c(F)c(F)c(F)c6F)c6ccc3[nH]6)C=C5)C=C4)cc2)c1
REMARK SMILES IDX 30 1 29 2 28 3 26 4 27 5 25 7 21 8 22 9 101 10 23 11 24 12
REMARK SMILES IDX 20 13 18 14 19 15 3 17 2 18 1 19 4 20 5 21 6 22 17 23 7 24
REMARK SMILES IDX 8 25 16 26 9 27 11 28 15 29 10 30 12 31 14 32 13 33 31 34
REMARK SMILES IDX 32 35 33 36 34 37 35 38 36 39 37 41 38 42 39 43 100 44 40 45
REMARK SMILES IDX 99 46 41 47 42 48 43 49 93 50 44 51 98 52 92 53 94 54 45 55
REMARK SMILES IDX 97 56 91 57 90 58 46 60 78 61 58 62 77 63 59 64 62 65 76 66
REMARK SMILES IDX 95 67 60 68 61 69 75 71 96 72 63 73 47 74 48 75 56 76 49 77
REMARK SMILES IDX 50 78 54 79 57 80 51 81 52 82 55 83 53 84 79 85 80 86 88 87
REMARK SMILES IDX 81 88 82 89 86 90 89 91 83 92 84 93 87 94 85 95 64 96 65 97
REMARK SMILES IDX 73 98 66 99 67 100 71 101 74 102 68 103 69 104 72 105 70 106
REMARK H PARENT 28 6 20 16 35 40 94 59 62 70
REMARK Flexibility Score: inf
ROOT
ATOM      1  C   UNL A   1      36.368  30.421  27.634  1.00  0.00     0.021 C 
ENDROOT
BRANCH   1   2
ATOM      2  C   UNL A   1      35.169  29.753  28.272  1.00  0.00     0.116 C 
BRANCH   2   3
ATOM      3  N   UNL A   1      33.889  30.290  27.869  1.00  0.00    -0.352 N 
ATOM      4  C   UNL A   1      32.860  29.740  27.136  1.00  0.00     0.251 C 
ATOM      5  O   UNL A   1      31.875  30.433  26.922  1.00  0.00    -0.269 OA
ATOM      6  H   UNL A   1      33.723  31.214  28.169  1.00  0.00     0.163 HD
BRANCH   4   7
ATOM      7  C   UNL A   1      32.919  28.361  26.563  1.00  0.00     0.041 A 
ATOM      8  C   UNL A   1      32.015  26.142  26.260  1.00  0.00     0.041 A 
ATOM      9  C   UNL A   1      33.177  25.760  25.618  1.00  0.00     0.026 A 
ATOM     10  C   UNL A   1      31.826  27.498  26.486  1.00  0.00     0.040 A 
ATOM     11  C   UNL A   1      34.268  26.627  25.563  1.00  0.00     0.003 A 
ATOM     12  C   UNL A   1      34.163  27.897  26.121  1.00  0.00     0.014 A 
BRANCH   8  13
ATOM     13  N   UNL A   1      30.999  25.282  26.705  1.00  0.00    -0.325 N 
ATOM     14  C   UNL A   1      30.735  23.966  26.406  1.00  0.00     0.237 C 
ATOM     15  O   UNL A   1      30.025  23.390  27.251  1.00  0.00    -0.273 OA
ATOM     16  H   UNL A   1      30.366  25.692  27.338  1.00  0.00     0.169 HD
BRANCH  14  17
ATOM     17  C   UNL A   1      31.272  23.133  25.199  1.00  0.00     0.144 C 
BRANCH  17  18
ATOM     18  C   UNL A   1      31.316  21.637  25.482  1.00  0.00     0.021 C 
ATOM     19  C   UNL A   1      32.481  20.838  24.927  1.00  0.00     0.005 C 
ENDBRANCH  17  18
BRANCH  17  20
ATOM     20  S   UNL A   1      30.654  23.872  23.665  1.00  0.00    -0.072 SA
BRANCH  20  21
ATOM     21  C   UNL A   1      31.722  24.860  22.712  1.00  0.00     0.196 A 
ATOM     22  N   UNL A   1      32.720  24.228  22.112  1.00  0.00    -0.122 NA
ATOM     23  N   UNL A   1      31.898  26.226  22.509  1.00  0.00    -0.270 N 
ATOM     24  N   UNL A   1      33.654  25.136  21.709  1.00  0.00    -0.129 NA
ATOM     25  C   UNL A   1      33.211  26.324  22.042  1.00  0.00     0.161 A 
ATOM     26  C   UNL A   1      31.132  27.391  22.775  1.00  0.00     0.057 A 
ATOM     27  C   UNL A   1      33.866  27.580  22.004  1.00  0.00     0.050 A 
ATOM     28  C   UNL A   1      31.857  28.596  22.916  1.00  0.00    -0.001 A 
ATOM     29  C   UNL A   1      29.760  27.376  22.987  1.00  0.00     0.027 A 
ATOM     30  C   UNL A   1      33.250  28.675  22.467  1.00  0.00     0.014 A 
ATOM     31  C   UNL A   1      31.245  29.703  23.506  1.00  0.00     0.010 A 
ATOM     32  C   UNL A   1      29.153  28.500  23.562  1.00  0.00     0.002 A 
ATOM     33  C   UNL A   1      29.904  29.635  23.875  1.00  0.00     0.001 A 
ENDBRANCH  20  21
ENDBRANCH  17  20
ENDBRANCH  14  17
ENDBRANCH   8  13
ENDBRANCH   4   7
ENDBRANCH   2   3
ENDBRANCH   1   2
BRANCH   1  34
ATOM     34  C   UNL A   1      36.969  31.588  28.408  1.00  0.00     0.002 C 
BRANCH  34  35
ATOM     35  C   UNL A   1      36.285  32.945  28.225  1.00  0.00     0.002 C 
BRANCH  35  36
ATOM     36  C   UNL A   1      35.721  33.609  29.489  1.00  0.00     0.021 C 
BRANCH  36  37
ATOM     37  C   UNL A   1      34.638  32.817  30.222  1.00  0.00     0.116 C 
BRANCH  37  38
ATOM     38  N   UNL A   1      34.860  32.692  31.645  1.00  0.00    -0.352 N 
ATOM     39  C   UNL A   1      35.822  32.141  32.433  1.00  0.00     0.251 C 
ATOM     40  H   UNL A   1      34.140  33.107  32.172  1.00  0.00     0.163 HD
ATOM     41  O   UNL A   1      35.704  32.330  33.646  1.00  0.00    -0.269 OA
BRANCH  39  42
ATOM     42  C   UNL A   1      36.935  31.287  31.951  1.00  0.00     0.039 A 
ATOM     43  C   UNL A   1      36.863  29.920  31.685  1.00  0.00     0.014 A 
ATOM     44  C   UNL A   1      38.176  31.938  31.824  1.00  0.00     0.014 A 
ATOM     45  C   UNL A   1      38.019  29.198  31.427  1.00  0.00     0.010 A 
ATOM     46  C   UNL A   1      39.332  31.229  31.542  1.00  0.00     0.010 A 
ATOM     47  C   UNL A   1      39.256  29.849  31.409  1.00  0.00    -0.014 A 
BRANCH  47  48
ATOM     48  C   UNL A   1      40.445  29.054  31.135  1.00  0.00     0.031 A 
ATOM     49  C   UNL A   1      41.243  28.743  32.350  1.00  0.00     0.074 A 
ATOM     50  C   UNL A   1      40.725  28.564  29.909  1.00  0.00     0.049 A 
ATOM     51  N   UNL A   1      42.463  29.082  32.603  1.00  0.00    -0.248 NA
ATOM     52  C   UNL A   1      40.563  28.086  33.482  1.00  0.00     0.031 C 
ATOM     53  C   UNL A   1      39.851  28.585  28.730  1.00  0.00     0.029 A 
ATOM     54  N   UNL A   1      41.805  27.849  29.472  1.00  0.00    -0.354 N 
ATOM     55  C   UNL A   1      42.774  28.499  33.831  1.00  0.00     0.074 A 
ATOM     56  C   UNL A   1      41.533  28.042  34.397  1.00  0.00     0.031 C 
ATOM     57  C   UNL A   1      40.317  27.711  27.810  1.00  0.00     0.029 A 
ATOM     58  C   UNL A   1      41.594  27.193  28.262  1.00  0.00     0.049 A 
ATOM     59  H   UNL A   1      42.654  27.801  29.968  1.00  0.00     0.167 HD
ATOM     60  C   UNL A   1      44.062  28.186  34.137  1.00  0.00     0.037 A 
ATOM     61  C   UNL A   1      42.394  26.250  27.707  1.00  0.00     0.037 A 
ATOM     62  C   UNL A   1      44.982  28.868  33.270  1.00  0.00     0.049 A 
ATOM     63  C   UNL A   1      43.747  26.415  28.283  1.00  0.00     0.074 A 
ATOM     64  C   UNL A   1      45.570  30.111  33.201  1.00  0.00     0.029 A 
ATOM     65  N   UNL A   1      45.095  28.295  32.035  1.00  0.00    -0.354 N 
ATOM     66  N   UNL A   1      44.500  27.457  28.065  1.00  0.00    -0.248 NA
ATOM     67  C   UNL A   1      44.165  25.559  29.389  1.00  0.00     0.031 C 
ATOM     68  C   UNL A   1      45.945  30.305  31.836  1.00  0.00     0.029 A 
ATOM     69  C   UNL A   1      45.619  29.161  31.115  1.00  0.00     0.049 A 
ATOM     70  H   UNL A   1      44.831  27.368  31.831  1.00  0.00     0.167 HD
ATOM     71  C   UNL A   1      45.203  27.614  29.240  1.00  0.00     0.074 A 
ATOM     72  C   UNL A   1      45.103  26.338  29.934  1.00  0.00     0.031 C 
ATOM     73  C   UNL A   1      45.505  28.858  29.709  1.00  0.00     0.037 A 
BRANCH  60  74
ATOM     74  C   UNL A   1      44.473  26.922  34.861  1.00  0.00     0.064 A 
ATOM     75  C   UNL A   1      45.267  27.009  36.023  1.00  0.00     0.173 A 
ATOM     76  C   UNL A   1      44.379  25.635  34.286  1.00  0.00     0.173 A 
ATOM     77  F   UNL A   1      45.468  28.191  36.626  1.00  0.00    -0.203 F 
ATOM     78  C   UNL A   1      45.936  25.896  36.547  1.00  0.00     0.198 A 
ATOM     79  C   UNL A   1      45.004  24.520  34.840  1.00  0.00     0.198 A 
ATOM     80  F   UNL A   1      43.780  25.428  33.107  1.00  0.00    -0.203 F 
ATOM     81  F   UNL A   1      46.759  26.043  37.594  1.00  0.00    -0.200 F 
ATOM     82  C   UNL A   1      45.800  24.652  35.957  1.00  0.00     0.200 A 
ATOM     83  F   UNL A   1      44.888  23.330  34.232  1.00  0.00    -0.200 F 
ATOM     84  F   UNL A   1      46.472  23.595  36.431  1.00  0.00    -0.200 F 
ENDBRANCH  60  74
BRANCH  61  85
ATOM     85  C   UNL A   1      42.006  25.011  26.986  1.00  0.00     0.064 A 
ATOM     86  C   UNL A   1      42.715  24.599  25.844  1.00  0.00     0.173 A 
ATOM     87  C   UNL A   1      41.172  24.047  27.586  1.00  0.00     0.173 A 
ATOM     88  F   UNL A   1      43.548  25.448  25.225  1.00  0.00    -0.203 F 
ATOM     89  C   UNL A   1      42.652  23.283  25.374  1.00  0.00     0.198 A 
ATOM     90  C   UNL A   1      41.107  22.736  27.113  1.00  0.00     0.198 A 
ATOM     91  F   UNL A   1      40.490  24.327  28.704  1.00  0.00    -0.203 F 
ATOM     92  F   UNL A   1      43.414  22.906  24.338  1.00  0.00    -0.200 F 
ATOM     93  C   UNL A   1      41.864  22.347  26.022  1.00  0.00     0.200 A 
ATOM     94  F   UNL A   1      40.364  21.831  27.767  1.00  0.00    -0.200 F 
ATOM     95  F   UNL A   1      41.872  21.066  25.629  1.00  0.00    -0.200 F 
ENDBRANCH  61  85
BRANCH  73  96
ATOM     96  C   UNL A   1      45.561  29.975  28.717  1.00  0.00     0.064 A 
ATOM     97  C   UNL A   1      44.456  30.746  28.320  1.00  0.00     0.173 A 
ATOM     98  C   UNL A   1      46.812  30.308  28.182  1.00  0.00     0.173 A 
ATOM     99  F   UNL A   1      43.243  30.537  28.848  1.00  0.00    -0.203 F 
ATOM    100  C   UNL A   1      44.598  31.778  27.393  1.00  0.00     0.198 A 
ATOM    101  C   UNL A   1      46.957  31.361  27.286  1.00  0.00     0.198 A 
ATOM    102  F   UNL A   1      47.905  29.626  28.556  1.00  0.00    -0.203 F 
ATOM    103  F   UNL A   1      43.528  32.489  27.009  1.00  0.00    -0.200 F 
ATOM    104  C   UNL A   1      45.849  32.087  26.881  1.00  0.00     0.200 A 
ATOM    105  F   UNL A   1      48.174  31.680  26.827  1.00  0.00    -0.200 F 
ATOM    106  F   UNL A   1      45.991  33.099  26.013  1.00  0.00    -0.200 F 
ENDBRANCH  73  96
ENDBRANCH  47  48
ENDBRANCH  39  42
ENDBRANCH  37  38
ENDBRANCH  36  37
ENDBRANCH  35  36
ENDBRANCH  34  35
ENDBRANCH   1  34
TORSDOF 18
ENDMDL
