MODEL 1
REMARK VINA RESULT:     -12.4      0.000      0.000
REMARK SMILES O=C(NCCCCCCNC(=O)c1ccc(-c2c3nc(c(-c4c(F)c(F)c(F)c(F)c4F)c4ccc([nH]4)c(-c4c(F)c(F)c(F)c(F)c4F)c4nc(c(-c5c(F)c(F)c(F)c(F)c5F)c5ccc2[nH]5)C=C4)C=C3)cc1)c1ccc(N[C@H]2OC[C@@H](O)[C@@H](O)[C@H]2O)cc1
REMARK SMILES IDX 6 1 5 2 4 3 3 4 1 5 2 6 76 8 77 9 91 10 78 11 90 12 79 13
REMARK SMILES IDX 80 14 81 16 82 17 88 18 83 19 86 20 84 21 89 22 87 24 85 26
REMARK SMILES IDX 7 28 8 29 9 30 10 31 11 32 12 34 13 35 14 36 75 37 15 38
REMARK SMILES IDX 74 39 16 40 17 41 18 42 68 43 19 44 73 45 67 46 69 47 20 48
REMARK SMILES IDX 72 49 66 50 65 51 21 53 53 54 33 55 52 56 34 57 37 58 51 59
REMARK SMILES IDX 70 60 35 61 36 62 50 64 71 65 38 66 22 67 23 68 31 69 24 70
REMARK SMILES IDX 25 71 29 72 32 73 26 74 27 75 30 76 28 77 54 78 55 79 63 80
REMARK SMILES IDX 56 81 57 82 61 83 64 84 58 85 59 86 62 87 60 88 39 89 40 90
REMARK SMILES IDX 48 91 41 92 42 93 46 94 49 95 43 96 44 97 47 98 45 99
REMARK H PARENT 3 7 80 15 89 23 87 25 85 27 10 33 69 52 37 63
REMARK Flexibility Score: inf
ROOT
ATOM      1  C   UNL A   1      35.878  20.993  24.999  1.00  0.00     0.002 C 
ENDROOT
BRANCH   1   2
ATOM      2  C   UNL A   1      35.370  21.993  26.039  1.00  0.00     0.021 C 
BRANCH   2   3
ATOM      3  C   UNL A   1      34.223  21.496  26.911  1.00  0.00     0.116 C 
BRANCH   3   4
ATOM      4  N   UNL A   1      33.633  20.267  26.407  1.00  0.00    -0.352 N 
ATOM      5  O   UNL A   1      32.093  19.019  25.311  1.00  0.00    -0.269 OA
ATOM      6  C   UNL A   1      32.580  20.121  25.535  1.00  0.00     0.251 C 
ATOM      7  H   UNL A   1      34.039  19.430  26.732  1.00  0.00     0.163 HD
BRANCH   6   8
ATOM      8  C   UNL A   1      32.028  21.324  24.884  1.00  0.00     0.039 A 
ATOM      9  C   UNL A   1      32.315  21.586  23.547  1.00  0.00     0.016 A 
ATOM     10  C   UNL A   1      31.250  22.215  25.621  1.00  0.00     0.016 A 
ATOM     11  C   UNL A   1      31.918  22.797  22.982  1.00  0.00     0.026 A 
ATOM     12  C   UNL A   1      30.840  23.418  25.034  1.00  0.00     0.026 A 
ATOM     13  C   UNL A   1      31.209  23.753  23.721  1.00  0.00     0.036 A 
BRANCH  13  14
ATOM     14  N   UNL A   1      30.806  24.973  23.195  1.00  0.00    -0.358 N 
ATOM     15  H   UNL A   1      30.024  24.995  22.596  1.00  0.00     0.163 HD
BRANCH  14  16
ATOM     16  C   UNL A   1      31.493  26.222  23.493  1.00  0.00     0.244 C 
ATOM     17  O   UNL A   1      32.899  26.017  23.343  1.00  0.00    -0.353 OA
ATOM     18  C   UNL A   1      31.058  27.306  22.481  1.00  0.00     0.195 C 
ATOM     19  C   UNL A   1      33.671  27.164  23.713  1.00  0.00     0.197 C 
ATOM     20  C   UNL A   1      31.830  28.598  22.792  1.00  0.00     0.178 C 
ATOM     21  C   UNL A   1      33.348  28.353  22.807  1.00  0.00     0.171 C 
BRANCH  18  22
ATOM     22  O   UNL A   1      31.371  26.870  21.135  1.00  0.00    -0.386 OA
ATOM     23  H   UNL A   1      31.060  25.960  21.010  1.00  0.00     0.211 HD
ENDBRANCH  18  22
BRANCH  20  24
ATOM     24  O   UNL A   1      31.507  29.608  21.835  1.00  0.00    -0.387 OA
ATOM     25  H   UNL A   1      30.827  30.195  22.201  1.00  0.00     0.211 HD
ENDBRANCH  20  24
BRANCH  21  26
ATOM     26  O   UNL A   1      33.814  28.084  21.476  1.00  0.00    -0.388 OA
ATOM     27  H   UNL A   1      33.540  28.804  20.886  1.00  0.00     0.211 HD
ENDBRANCH  21  26
ENDBRANCH  14  16
ENDBRANCH  13  14
ENDBRANCH   6   8
ENDBRANCH   3   4
ENDBRANCH   2   3
ENDBRANCH   1   2
BRANCH   1  28
ATOM     28  C   UNL A   1      37.360  21.110  24.630  1.00  0.00     0.002 C 
BRANCH  28  29
ATOM     29  C   UNL A   1      38.224  19.886  24.943  1.00  0.00     0.021 C 
BRANCH  29  30
ATOM     30  C   UNL A   1      39.272  20.082  26.033  1.00  0.00     0.116 C 
BRANCH  30  31
ATOM     31  N   UNL A   1      40.343  19.102  25.970  1.00  0.00    -0.352 N 
ATOM     32  C   UNL A   1      41.700  19.280  26.072  1.00  0.00     0.251 C 
ATOM     33  H   UNL A   1      40.051  18.173  25.834  1.00  0.00     0.163 HD
ATOM     34  O   UNL A   1      42.459  18.339  25.859  1.00  0.00    -0.269 OA
BRANCH  32  35
ATOM     35  C   UNL A   1      42.258  20.608  26.409  1.00  0.00     0.039 A 
ATOM     36  C   UNL A   1      42.619  21.466  25.364  1.00  0.00     0.014 A 
ATOM     37  C   UNL A   1      42.448  21.004  27.735  1.00  0.00     0.014 A 
ATOM     38  C   UNL A   1      43.108  22.743  25.650  1.00  0.00     0.010 A 
ATOM     39  C   UNL A   1      42.878  22.300  28.019  1.00  0.00     0.010 A 
ATOM     40  C   UNL A   1      43.212  23.182  26.979  1.00  0.00    -0.014 A 
BRANCH  40  41
ATOM     41  C   UNL A   1      43.664  24.560  27.299  1.00  0.00     0.031 A 
ATOM     42  C   UNL A   1      42.685  25.578  27.813  1.00  0.00     0.074 A 
ATOM     43  C   UNL A   1      44.943  24.912  27.068  1.00  0.00     0.049 A 
ATOM     44  N   UNL A   1      42.870  26.850  28.068  1.00  0.00    -0.248 NA
ATOM     45  C   UNL A   1      41.310  25.112  28.049  1.00  0.00     0.031 C 
ATOM     46  C   UNL A   1      45.978  24.029  26.530  1.00  0.00     0.029 A 
ATOM     47  N   UNL A   1      45.587  26.113  27.240  1.00  0.00    -0.354 N 
ATOM     48  C   UNL A   1      41.636  27.335  28.483  1.00  0.00     0.074 A 
ATOM     49  C   UNL A   1      40.699  26.235  28.399  1.00  0.00     0.031 C 
ATOM     50  C   UNL A   1      47.130  24.713  26.427  1.00  0.00     0.029 A 
ATOM     51  C   UNL A   1      46.906  26.090  26.858  1.00  0.00     0.049 A 
ATOM     52  H   UNL A   1      45.146  26.913  27.605  1.00  0.00     0.167 HD
ATOM     53  C   UNL A   1      41.320  28.578  28.918  1.00  0.00     0.037 A 
ATOM     54  C   UNL A   1      47.828  27.070  26.847  1.00  0.00     0.037 A 
ATOM     55  C   UNL A   1      42.257  29.666  29.023  1.00  0.00     0.049 A 
ATOM     56  C   UNL A   1      47.452  28.441  27.337  1.00  0.00     0.074 A 
ATOM     57  C   UNL A   1      42.039  30.951  29.489  1.00  0.00     0.029 A 
ATOM     58  N   UNL A   1      43.592  29.594  28.658  1.00  0.00    -0.354 N 
ATOM     59  N   UNL A   1      46.295  28.874  27.775  1.00  0.00    -0.248 NA
ATOM     60  C   UNL A   1      48.512  29.460  27.341  1.00  0.00     0.031 C 
ATOM     61  C   UNL A   1      43.236  31.667  29.374  1.00  0.00     0.029 A 
ATOM     62  C   UNL A   1      44.209  30.815  28.876  1.00  0.00     0.049 A 
ATOM     63  H   UNL A   1      44.038  28.793  28.296  1.00  0.00     0.167 HD
ATOM     64  C   UNL A   1      46.491  30.202  28.129  1.00  0.00     0.074 A 
ATOM     65  C   UNL A   1      47.885  30.501  27.869  1.00  0.00     0.031 C 
ATOM     66  C   UNL A   1      45.598  31.094  28.622  1.00  0.00     0.037 A 
BRANCH  53  67
ATOM     67  C   UNL A   1      39.897  28.827  29.326  1.00  0.00     0.064 A 
ATOM     68  C   UNL A   1      38.935  29.256  28.400  1.00  0.00     0.173 A 
ATOM     69  C   UNL A   1      39.480  28.594  30.645  1.00  0.00     0.173 A 
ATOM     70  F   UNL A   1      39.286  29.505  27.129  1.00  0.00    -0.203 F 
ATOM     71  C   UNL A   1      37.614  29.466  28.784  1.00  0.00     0.198 A 
ATOM     72  C   UNL A   1      38.152  28.778  31.020  1.00  0.00     0.198 A 
ATOM     73  F   UNL A   1      40.359  28.178  31.569  1.00  0.00    -0.203 F 
ATOM     74  F   UNL A   1      36.722  29.919  27.891  1.00  0.00    -0.200 F 
ATOM     75  C   UNL A   1      37.221  29.221  30.091  1.00  0.00     0.200 A 
ATOM     76  F   UNL A   1      37.771  28.529  32.281  1.00  0.00    -0.200 F 
ATOM     77  F   UNL A   1      35.947  29.415  30.458  1.00  0.00    -0.200 F 
ENDBRANCH  53  67
BRANCH  54  78
ATOM     78  C   UNL A   1      49.205  26.788  26.366  1.00  0.00     0.064 A 
ATOM     79  C   UNL A   1      49.557  26.989  25.024  1.00  0.00     0.173 A 
ATOM     80  C   UNL A   1      50.195  26.308  27.236  1.00  0.00     0.173 A 
ATOM     81  F   UNL A   1      48.638  27.427  24.151  1.00  0.00    -0.203 F 
ATOM     82  C   UNL A   1      50.839  26.698  24.565  1.00  0.00     0.198 A 
ATOM     83  C   UNL A   1      51.486  26.044  26.781  1.00  0.00     0.198 A 
ATOM     84  F   UNL A   1      49.912  26.104  28.531  1.00  0.00    -0.203 F 
ATOM     85  F   UNL A   1      51.135  26.855  23.267  1.00  0.00    -0.200 F 
ATOM     86  C   UNL A   1      51.804  26.231  25.444  1.00  0.00     0.200 A 
ATOM     87  F   UNL A   1      52.419  25.605  27.637  1.00  0.00    -0.200 F 
ATOM     88  F   UNL A   1      53.038  25.953  25.003  1.00  0.00    -0.200 F 
ENDBRANCH  54  78
BRANCH  66  89
ATOM     89  C   UNL A   1      46.106  32.469  28.942  1.00  0.00     0.064 A 
ATOM     90  C   UNL A   1      46.069  33.505  27.998  1.00  0.00     0.173 A 
ATOM     91  C   UNL A   1      46.600  32.762  30.222  1.00  0.00     0.173 A 
ATOM     92  F   UNL A   1      45.620  33.269  26.755  1.00  0.00    -0.203 F 
ATOM     93  C   UNL A   1      46.528  34.779  28.316  1.00  0.00     0.198 A 
ATOM     94  C   UNL A   1      47.033  34.044  30.546  1.00  0.00     0.198 A 
ATOM     95  F   UNL A   1      46.651  31.807  31.163  1.00  0.00    -0.203 F 
ATOM     96  F   UNL A   1      46.524  35.743  27.386  1.00  0.00    -0.200 F 
ATOM     97  C   UNL A   1      47.003  35.050  29.591  1.00  0.00     0.200 A 
ATOM     98  F   UNL A   1      47.481  34.308  31.782  1.00  0.00    -0.200 F 
ATOM     99  F   UNL A   1      47.439  36.279  29.898  1.00  0.00    -0.200 F 
ENDBRANCH  66  89
ENDBRANCH  40  41
ENDBRANCH  32  35
ENDBRANCH  30  31
ENDBRANCH  29  30
ENDBRANCH  28  29
ENDBRANCH   1  28
TORSDOF 18
ENDMDL
MODEL 2
REMARK VINA RESULT:     -12.4      5.269     10.503
REMARK SMILES O=C(NCCCCCCNC(=O)c1ccc(-c2c3nc(c(-c4c(F)c(F)c(F)c(F)c4F)c4ccc([nH]4)c(-c4c(F)c(F)c(F)c(F)c4F)c4nc(c(-c5c(F)c(F)c(F)c(F)c5F)c5ccc2[nH]5)C=C4)C=C3)cc1)c1ccc(N[C@H]2OC[C@@H](O)[C@@H](O)[C@H]2O)cc1
REMARK SMILES IDX 6 1 5 2 4 3 3 4 1 5 2 6 76 8 77 9 91 10 78 11 90 12 79 13
REMARK SMILES IDX 80 14 81 16 82 17 88 18 83 19 86 20 84 21 89 22 87 24 85 26
REMARK SMILES IDX 7 28 8 29 9 30 10 31 11 32 12 34 13 35 14 36 75 37 15 38
REMARK SMILES IDX 74 39 16 40 17 41 18 42 68 43 19 44 73 45 67 46 69 47 20 48
REMARK SMILES IDX 72 49 66 50 65 51 21 53 53 54 33 55 52 56 34 57 37 58 51 59
REMARK SMILES IDX 70 60 35 61 36 62 50 64 71 65 38 66 22 67 23 68 31 69 24 70
REMARK SMILES IDX 25 71 29 72 32 73 26 74 27 75 30 76 28 77 54 78 55 79 63 80
REMARK SMILES IDX 56 81 57 82 61 83 64 84 58 85 59 86 62 87 60 88 39 89 40 90
REMARK SMILES IDX 48 91 41 92 42 93 46 94 49 95 43 96 44 97 47 98 45 99
REMARK H PARENT 3 7 80 15 89 23 87 25 85 27 10 33 69 52 37 63
REMARK Flexibility Score: inf
ROOT
ATOM      1  C   UNL A   1      36.840  32.734  29.879  1.00  0.00     0.002 C 
ENDROOT
BRANCH   1   2
ATOM      2  C   UNL A   1      37.741  33.948  29.645  1.00  0.00     0.021 C 
BRANCH   2   3
ATOM      3  C   UNL A   1      38.557  34.392  30.854  1.00  0.00     0.116 C 
BRANCH   3   4
ATOM      4  N   UNL A   1      37.744  35.051  31.863  1.00  0.00    -0.352 N 
ATOM      5  O   UNL A   1      36.565  35.189  33.792  1.00  0.00    -0.269 OA
ATOM      6  C   UNL A   1      37.378  34.584  33.103  1.00  0.00     0.251 C 
ATOM      7  H   UNL A   1      37.412  35.949  31.628  1.00  0.00     0.163 HD
BRANCH   6   8
ATOM      8  C   UNL A   1      37.968  33.321  33.586  1.00  0.00     0.039 A 
ATOM      9  C   UNL A   1      37.308  32.115  33.365  1.00  0.00     0.016 A 
ATOM     10  C   UNL A   1      39.168  33.343  34.294  1.00  0.00     0.016 A 
ATOM     11  C   UNL A   1      37.792  30.947  33.953  1.00  0.00     0.026 A 
ATOM     12  C   UNL A   1      39.653  32.159  34.862  1.00  0.00     0.026 A 
ATOM     13  C   UNL A   1      38.948  30.950  34.745  1.00  0.00     0.036 A 
BRANCH  13  14
ATOM     14  N   UNL A   1      39.454  29.810  35.354  1.00  0.00    -0.358 N 
ATOM     15  H   UNL A   1      38.848  29.255  35.898  1.00  0.00     0.163 HD
BRANCH  14  16
ATOM     16  C   UNL A   1      40.845  29.400  35.223  1.00  0.00     0.244 C 
ATOM     17  O   UNL A   1      41.128  28.416  36.220  1.00  0.00    -0.353 OA
ATOM     18  C   UNL A   1      41.066  28.754  33.837  1.00  0.00     0.195 C 
ATOM     19  C   UNL A   1      42.503  28.021  36.238  1.00  0.00     0.197 C 
ATOM     20  C   UNL A   1      42.529  28.293  33.744  1.00  0.00     0.178 C 
ATOM     21  C   UNL A   1      42.899  27.367  34.914  1.00  0.00     0.171 C 
BRANCH  18  22
ATOM     22  O   UNL A   1      40.191  27.610  33.688  1.00  0.00    -0.386 OA
ATOM     23  H   UNL A   1      40.643  26.920  33.179  1.00  0.00     0.211 HD
ENDBRANCH  18  22
BRANCH  20  24
ATOM     24  O   UNL A   1      42.759  27.628  32.501  1.00  0.00    -0.387 OA
ATOM     25  H   UNL A   1      42.234  28.052  31.805  1.00  0.00     0.211 HD
ENDBRANCH  20  24
BRANCH  21  26
ATOM     26  O   UNL A   1      42.221  26.110  34.777  1.00  0.00    -0.388 OA
ATOM     27  H   UNL A   1      41.339  26.172  35.177  1.00  0.00     0.211 HD
ENDBRANCH  21  26
ENDBRANCH  14  16
ENDBRANCH  13  14
ENDBRANCH   6   8
ENDBRANCH   3   4
ENDBRANCH   2   3
ENDBRANCH   1   2
BRANCH   1  28
ATOM     28  C   UNL A   1      35.416  33.043  30.351  1.00  0.00     0.002 C 
BRANCH  28  29
ATOM     29  C   UNL A   1      34.385  33.287  29.246  1.00  0.00     0.021 C 
BRANCH  29  30
ATOM     30  C   UNL A   1      34.682  32.616  27.909  1.00  0.00     0.116 C 
BRANCH  30  31
ATOM     31  N   UNL A   1      34.005  31.340  27.755  1.00  0.00    -0.352 N 
ATOM     32  C   UNL A   1      34.512  30.066  27.816  1.00  0.00     0.251 C 
ATOM     33  H   UNL A   1      33.039  31.398  27.580  1.00  0.00     0.163 HD
ATOM     34  O   UNL A   1      33.801  29.108  27.526  1.00  0.00    -0.269 OA
BRANCH  32  35
ATOM     35  C   UNL A   1      35.922  29.839  28.203  1.00  0.00     0.039 A 
ATOM     36  C   UNL A   1      36.194  29.377  29.495  1.00  0.00     0.014 A 
ATOM     37  C   UNL A   1      36.972  30.095  27.316  1.00  0.00     0.014 A 
ATOM     38  C   UNL A   1      37.512  29.112  29.875  1.00  0.00     0.010 A 
ATOM     39  C   UNL A   1      38.280  29.771  27.676  1.00  0.00     0.010 A 
ATOM     40  C   UNL A   1      38.563  29.276  28.959  1.00  0.00    -0.014 A 
BRANCH  40  41
ATOM     41  C   UNL A   1      39.960  28.933  29.324  1.00  0.00     0.031 A 
ATOM     42  C   UNL A   1      40.793  29.895  30.123  1.00  0.00     0.074 A 
ATOM     43  C   UNL A   1      40.500  27.781  28.883  1.00  0.00     0.049 A 
ATOM     44  N   UNL A   1      42.054  29.812  30.467  1.00  0.00    -0.248 NA
ATOM     45  C   UNL A   1      40.127  31.126  30.576  1.00  0.00     0.031 C 
ATOM     46  C   UNL A   1      39.810  26.783  28.063  1.00  0.00     0.029 A 
ATOM     47  N   UNL A   1      41.760  27.260  29.048  1.00  0.00    -0.354 N 
ATOM     48  C   UNL A   1      42.333  30.980  31.164  1.00  0.00     0.074 A 
ATOM     49  C   UNL A   1      41.126  31.778  31.153  1.00  0.00     0.031 C 
ATOM     50  C   UNL A   1      40.650  25.768  27.806  1.00  0.00     0.029 A 
ATOM     51  C   UNL A   1      41.947  26.057  28.413  1.00  0.00     0.049 A 
ATOM     52  H   UNL A   1      42.463  27.707  29.573  1.00  0.00     0.167 HD
ATOM     53  C   UNL A   1      43.485  31.343  31.779  1.00  0.00     0.037 A 
ATOM     54  C   UNL A   1      43.042  25.279  28.321  1.00  0.00     0.037 A 
ATOM     55  C   UNL A   1      44.679  30.539  31.808  1.00  0.00     0.049 A 
ATOM     56  C   UNL A   1      44.307  25.703  29.015  1.00  0.00     0.074 A 
ATOM     57  C   UNL A   1      45.882  30.805  32.438  1.00  0.00     0.029 A 
ATOM     58  N   UNL A   1      44.818  29.311  31.182  1.00  0.00    -0.354 N 
ATOM     59  N   UNL A   1      44.543  26.786  29.714  1.00  0.00    -0.248 NA
ATOM     60  C   UNL A   1      45.457  24.793  28.915  1.00  0.00     0.031 C 
ATOM     61  C   UNL A   1      46.762  29.751  32.164  1.00  0.00     0.029 A 
ATOM     62  C   UNL A   1      46.091  28.810  31.400  1.00  0.00     0.049 A 
ATOM     63  H   UNL A   1      44.115  28.860  30.659  1.00  0.00     0.167 HD
ATOM     64  C   UNL A   1      45.854  26.678  30.158  1.00  0.00     0.074 A 
ATOM     65  C   UNL A   1      46.359  25.415  29.661  1.00  0.00     0.031 C 
ATOM     66  C   UNL A   1      46.576  27.547  30.907  1.00  0.00     0.037 A 
BRANCH  53  67
ATOM     67  C   UNL A   1      43.506  32.669  32.482  1.00  0.00     0.064 A 
ATOM     68  C   UNL A   1      43.802  33.856  31.797  1.00  0.00     0.173 A 
ATOM     69  C   UNL A   1      43.185  32.760  33.845  1.00  0.00     0.173 A 
ATOM     70  F   UNL A   1      44.128  33.821  30.496  1.00  0.00    -0.203 F 
ATOM     71  C   UNL A   1      43.800  35.083  32.455  1.00  0.00     0.198 A 
ATOM     72  C   UNL A   1      43.156  33.992  34.493  1.00  0.00     0.198 A 
ATOM     73  F   UNL A   1      42.888  31.655  34.546  1.00  0.00    -0.203 F 
ATOM     74  F   UNL A   1      44.130  36.199  31.789  1.00  0.00    -0.200 F 
ATOM     75  C   UNL A   1      43.471  35.151  33.800  1.00  0.00     0.200 A 
ATOM     76  F   UNL A   1      42.825  34.058  35.791  1.00  0.00    -0.200 F 
ATOM     77  F   UNL A   1      43.461  36.334  34.430  1.00  0.00    -0.200 F 
ENDBRANCH  53  67
BRANCH  54  78
ATOM     78  C   UNL A   1      42.987  24.010  27.553  1.00  0.00     0.064 A 
ATOM     79  C   UNL A   1      43.332  23.973  26.194  1.00  0.00     0.173 A 
ATOM     80  C   UNL A   1      42.586  22.809  28.156  1.00  0.00     0.173 A 
ATOM     81  F   UNL A   1      43.702  25.100  25.567  1.00  0.00    -0.203 F 
ATOM     82  C   UNL A   1      43.255  22.789  25.464  1.00  0.00     0.198 A 
ATOM     83  C   UNL A   1      42.536  21.620  27.432  1.00  0.00     0.198 A 
ATOM     84  F   UNL A   1      42.252  22.789  29.455  1.00  0.00    -0.203 F 
ATOM     85  F   UNL A   1      43.545  22.792  24.155  1.00  0.00    -0.200 F 
ATOM     86  C   UNL A   1      42.862  21.613  26.084  1.00  0.00     0.200 A 
ATOM     87  F   UNL A   1      42.169  20.483  28.038  1.00  0.00    -0.200 F 
ATOM     88  F   UNL A   1      42.790  20.474  25.382  1.00  0.00    -0.200 F 
ENDBRANCH  54  78
BRANCH  66  89
ATOM     89  C   UNL A   1      47.978  27.149  31.261  1.00  0.00     0.064 A 
ATOM     90  C   UNL A   1      49.072  27.533  30.473  1.00  0.00     0.173 A 
ATOM     91  C   UNL A   1      48.232  26.407  32.424  1.00  0.00     0.173 A 
ATOM     92  F   UNL A   1      48.878  28.229  29.342  1.00  0.00    -0.203 F 
ATOM     93  C   UNL A   1      50.368  27.170  30.824  1.00  0.00     0.198 A 
ATOM     94  C   UNL A   1      49.532  26.069  32.787  1.00  0.00     0.198 A 
ATOM     95  F   UNL A   1      47.219  26.020  33.214  1.00  0.00    -0.203 F 
ATOM     96  F   UNL A   1      51.395  27.510  30.034  1.00  0.00    -0.200 F 
ATOM     97  C   UNL A   1      50.598  26.444  31.984  1.00  0.00     0.200 A 
ATOM     98  F   UNL A   1      49.754  25.377  33.914  1.00  0.00    -0.200 F 
ATOM     99  F   UNL A   1      51.848  26.101  32.325  1.00  0.00    -0.200 F 
ENDBRANCH  66  89
ENDBRANCH  40  41
ENDBRANCH  32  35
ENDBRANCH  30  31
ENDBRANCH  29  30
ENDBRANCH  28  29
ENDBRANCH   1  28
TORSDOF 18
ENDMDL
MODEL 3
REMARK VINA RESULT:     -12.3      5.396     11.101
REMARK SMILES O=C(NCCCCCCNC(=O)c1ccc(-c2c3nc(c(-c4c(F)c(F)c(F)c(F)c4F)c4ccc([nH]4)c(-c4c(F)c(F)c(F)c(F)c4F)c4nc(c(-c5c(F)c(F)c(F)c(F)c5F)c5ccc2[nH]5)C=C4)C=C3)cc1)c1ccc(N[C@H]2OC[C@@H](O)[C@@H](O)[C@H]2O)cc1
REMARK SMILES IDX 6 1 5 2 4 3 3 4 1 5 2 6 76 8 77 9 91 10 78 11 90 12 79 13
REMARK SMILES IDX 80 14 81 16 82 17 88 18 83 19 86 20 84 21 89 22 87 24 85 26
REMARK SMILES IDX 7 28 8 29 9 30 10 31 11 32 12 34 13 35 14 36 75 37 15 38
REMARK SMILES IDX 74 39 16 40 17 41 18 42 68 43 19 44 73 45 67 46 69 47 20 48
REMARK SMILES IDX 72 49 66 50 65 51 21 53 53 54 33 55 52 56 34 57 37 58 51 59
REMARK SMILES IDX 70 60 35 61 36 62 50 64 71 65 38 66 22 67 23 68 31 69 24 70
REMARK SMILES IDX 25 71 29 72 32 73 26 74 27 75 30 76 28 77 54 78 55 79 63 80
REMARK SMILES IDX 56 81 57 82 61 83 64 84 58 85 59 86 62 87 60 88 39 89 40 90
REMARK SMILES IDX 48 91 41 92 42 93 46 94 49 95 43 96 44 97 47 98 45 99
REMARK H PARENT 3 7 80 15 89 23 87 25 85 27 10 33 69 52 37 63
REMARK Flexibility Score: inf
ROOT
ATOM      1  C   UNL A   1      32.818  30.186  26.025  1.00  0.00     0.002 C 
ENDROOT
BRANCH   1   2
ATOM      2  C   UNL A   1      32.874  28.875  25.238  1.00  0.00     0.021 C 
BRANCH   2   3
ATOM      3  C   UNL A   1      33.087  29.029  23.736  1.00  0.00     0.116 C 
BRANCH   3   4
ATOM      4  N   UNL A   1      31.869  29.403  23.036  1.00  0.00    -0.352 N 
ATOM      5  O   UNL A   1      30.005  29.034  21.803  1.00  0.00    -0.269 OA
ATOM      6  C   UNL A   1      30.909  28.581  22.496  1.00  0.00     0.251 C 
ATOM      7  H   UNL A   1      31.711  30.370  22.935  1.00  0.00     0.163 HD
BRANCH   6   8
ATOM      8  C   UNL A   1      30.995  27.130  22.748  1.00  0.00     0.039 A 
ATOM      9  C   UNL A   1      30.169  26.538  23.700  1.00  0.00     0.016 A 
ATOM     10  C   UNL A   1      31.931  26.362  22.058  1.00  0.00     0.016 A 
ATOM     11  C   UNL A   1      30.359  25.200  24.041  1.00  0.00     0.026 A 
ATOM     12  C   UNL A   1      32.097  25.013  22.396  1.00  0.00     0.026 A 
ATOM     13  C   UNL A   1      31.350  24.421  23.427  1.00  0.00     0.036 A 
BRANCH  13  14
ATOM     14  N   UNL A   1      31.576  23.089  23.748  1.00  0.00    -0.358 N 
ATOM     15  H   UNL A   1      30.982  22.403  23.364  1.00  0.00     0.163 HD
BRANCH  14  16
ATOM     16  C   UNL A   1      32.654  22.665  24.629  1.00  0.00     0.244 C 
ATOM     17  O   UNL A   1      32.778  23.615  25.690  1.00  0.00    -0.353 OA
ATOM     18  C   UNL A   1      32.305  21.295  25.253  1.00  0.00     0.195 C 
ATOM     19  C   UNL A   1      33.882  23.340  26.558  1.00  0.00     0.197 C 
ATOM     20  C   UNL A   1      33.439  20.895  26.210  1.00  0.00     0.178 C 
ATOM     21  C   UNL A   1      33.702  21.990  27.255  1.00  0.00     0.171 C 
BRANCH  18  22
ATOM     22  O   UNL A   1      31.064  21.399  25.993  1.00  0.00    -0.386 OA
ATOM     23  H   UNL A   1      31.218  21.890  26.815  1.00  0.00     0.211 HD
ENDBRANCH  18  22
BRANCH  20  24
ATOM     24  O   UNL A   1      33.124  19.663  26.861  1.00  0.00    -0.387 OA
ATOM     25  H   UNL A   1      33.460  19.682  27.770  1.00  0.00     0.211 HD
ENDBRANCH  20  24
BRANCH  21  26
ATOM     26  O   UNL A   1      32.601  22.066  28.173  1.00  0.00    -0.388 OA
ATOM     27  H   UNL A   1      32.683  22.869  28.712  1.00  0.00     0.211 HD
ENDBRANCH  21  26
ENDBRANCH  14  16
ENDBRANCH  13  14
ENDBRANCH   6   8
ENDBRANCH   3   4
ENDBRANCH   2   3
ENDBRANCH   1   2
BRANCH   1  28
ATOM     28  C   UNL A   1      31.418  30.761  26.261  1.00  0.00     0.002 C 
BRANCH  28  29
ATOM     29  C   UNL A   1      31.352  32.270  26.514  1.00  0.00     0.021 C 
BRANCH  29  30
ATOM     30  C   UNL A   1      32.547  32.867  27.248  1.00  0.00     0.116 C 
BRANCH  30  31
ATOM     31  N   UNL A   1      32.336  34.250  27.639  1.00  0.00    -0.352 N 
ATOM     32  C   UNL A   1      32.991  35.004  28.581  1.00  0.00     0.251 C 
ATOM     33  H   UNL A   1      31.615  34.716  27.158  1.00  0.00     0.163 HD
ATOM     34  O   UNL A   1      32.579  36.125  28.864  1.00  0.00    -0.269 OA
BRANCH  32  35
ATOM     35  C   UNL A   1      34.178  34.464  29.279  1.00  0.00     0.039 A 
ATOM     36  C   UNL A   1      33.994  33.808  30.500  1.00  0.00     0.014 A 
ATOM     37  C   UNL A   1      35.465  34.616  28.755  1.00  0.00     0.014 A 
ATOM     38  C   UNL A   1      35.090  33.249  31.163  1.00  0.00     0.010 A 
ATOM     39  C   UNL A   1      36.549  34.006  29.385  1.00  0.00     0.010 A 
ATOM     40  C   UNL A   1      36.372  33.315  30.594  1.00  0.00    -0.014 A 
BRANCH  40  41
ATOM     41  C   UNL A   1      37.536  32.667  31.249  1.00  0.00     0.031 A 
ATOM     42  C   UNL A   1      38.251  31.532  30.573  1.00  0.00     0.074 A 
ATOM     43  C   UNL A   1      37.911  33.060  32.482  1.00  0.00     0.049 A 
ATOM     44  N   UNL A   1      39.231  30.786  31.019  1.00  0.00    -0.248 NA
ATOM     45  C   UNL A   1      37.788  31.171  29.224  1.00  0.00     0.031 C 
ATOM     46  C   UNL A   1      37.270  34.119  33.263  1.00  0.00     0.029 A 
ATOM     47  N   UNL A   1      38.912  32.601  33.303  1.00  0.00    -0.354 N 
ATOM     48  C   UNL A   1      39.493  29.865  30.013  1.00  0.00     0.074 A 
ATOM     49  C   UNL A   1      38.538  30.112  28.955  1.00  0.00     0.031 C 
ATOM     50  C   UNL A   1      37.900  34.238  34.443  1.00  0.00     0.029 A 
ATOM     51  C   UNL A   1      38.965  33.241  34.517  1.00  0.00     0.049 A 
ATOM     52  H   UNL A   1      39.533  31.883  33.045  1.00  0.00     0.167 HD
ATOM     53  C   UNL A   1      40.458  28.915  29.968  1.00  0.00     0.037 A 
ATOM     54  C   UNL A   1      39.774  33.041  35.574  1.00  0.00     0.037 A 
ATOM     55  C   UNL A   1      41.422  28.684  31.012  1.00  0.00     0.049 A 
ATOM     56  C   UNL A   1      40.839  31.982  35.497  1.00  0.00     0.074 A 
ATOM     57  C   UNL A   1      42.462  27.772  31.040  1.00  0.00     0.029 A 
ATOM     58  N   UNL A   1      41.465  29.376  32.212  1.00  0.00    -0.354 N 
ATOM     59  N   UNL A   1      41.109  31.151  34.520  1.00  0.00    -0.248 NA
ATOM     60  C   UNL A   1      41.719  31.838  36.665  1.00  0.00     0.031 C 
ATOM     61  C   UNL A   1      43.114  27.888  32.273  1.00  0.00     0.029 A 
ATOM     62  C   UNL A   1      42.506  28.903  32.994  1.00  0.00     0.049 A 
ATOM     63  H   UNL A   1      40.846  30.098  32.472  1.00  0.00     0.167 HD
ATOM     64  C   UNL A   1      42.201  30.404  34.943  1.00  0.00     0.074 A 
ATOM     65  C   UNL A   1      42.554  30.892  36.260  1.00  0.00     0.031 C 
ATOM     66  C   UNL A   1      42.851  29.405  34.299  1.00  0.00     0.037 A 
BRANCH  53  67
ATOM     67  C   UNL A   1      40.526  28.057  28.738  1.00  0.00     0.064 A 
ATOM     68  C   UNL A   1      41.300  28.428  27.628  1.00  0.00     0.173 A 
ATOM     69  C   UNL A   1      39.847  26.830  28.684  1.00  0.00     0.173 A 
ATOM     70  F   UNL A   1      41.958  29.598  27.626  1.00  0.00    -0.203 F 
ATOM     71  C   UNL A   1      41.371  27.616  26.500  1.00  0.00     0.198 A 
ATOM     72  C   UNL A   1      39.944  26.007  27.565  1.00  0.00     0.198 A 
ATOM     73  F   UNL A   1      39.099  26.425  29.721  1.00  0.00    -0.203 F 
ATOM     74  F   UNL A   1      42.081  28.014  25.435  1.00  0.00    -0.200 F 
ATOM     75  C   UNL A   1      40.700  26.404  26.472  1.00  0.00     0.200 A 
ATOM     76  F   UNL A   1      39.304  24.829  27.544  1.00  0.00    -0.200 F 
ATOM     77  F   UNL A   1      40.776  25.618  25.388  1.00  0.00    -0.200 F 
ENDBRANCH  53  67
BRANCH  54  78
ATOM     78  C   UNL A   1      39.618  33.872  36.795  1.00  0.00     0.064 A 
ATOM     79  C   UNL A   1      38.836  33.432  37.872  1.00  0.00     0.173 A 
ATOM     80  C   UNL A   1      40.242  35.123  36.909  1.00  0.00     0.173 A 
ATOM     81  F   UNL A   1      38.202  32.252  37.801  1.00  0.00    -0.203 F 
ATOM     82  C   UNL A   1      38.665  34.222  39.007  1.00  0.00     0.198 A 
ATOM     83  C   UNL A   1      40.093  35.899  38.057  1.00  0.00     0.198 A 
ATOM     84  F   UNL A   1      41.006  35.587  35.910  1.00  0.00    -0.203 F 
ATOM     85  F   UNL A   1      37.874  33.798  40.002  1.00  0.00    -0.200 F 
ATOM     86  C   UNL A   1      39.297  35.452  39.101  1.00  0.00     0.200 A 
ATOM     87  F   UNL A   1      40.717  37.082  38.149  1.00  0.00    -0.200 F 
ATOM     88  F   UNL A   1      39.135  36.210  40.193  1.00  0.00    -0.200 F 
ENDBRANCH  54  78
BRANCH  66  89
ATOM     89  C   UNL A   1      44.029  28.790  34.995  1.00  0.00     0.064 A 
ATOM     90  C   UNL A   1      45.323  29.310  34.848  1.00  0.00     0.173 A 
ATOM     91  C   UNL A   1      43.853  27.691  35.850  1.00  0.00     0.173 A 
ATOM     92  F   UNL A   1      45.543  30.350  34.028  1.00  0.00    -0.203 F 
ATOM     93  C   UNL A   1      46.402  28.738  35.514  1.00  0.00     0.198 A 
ATOM     94  C   UNL A   1      44.931  27.139  36.535  1.00  0.00     0.198 A 
ATOM     95  F   UNL A   1      42.634  27.161  36.028  1.00  0.00    -0.203 F 
ATOM     96  F   UNL A   1      47.637  29.223  35.325  1.00  0.00    -0.200 F 
ATOM     97  C   UNL A   1      46.205  27.658  36.362  1.00  0.00     0.200 A 
ATOM     98  F   UNL A   1      44.737  26.103  37.364  1.00  0.00    -0.200 F 
ATOM     99  F   UNL A   1      47.246  27.113  37.008  1.00  0.00    -0.200 F 
ENDBRANCH  66  89
ENDBRANCH  40  41
ENDBRANCH  32  35
ENDBRANCH  30  31
ENDBRANCH  29  30
ENDBRANCH  28  29
ENDBRANCH   1  28
TORSDOF 18
ENDMDL
