MODEL 1
REMARK VINA RESULT:     -13.6      0.000      0.000
REMARK SMILES Cc1cccc(NC(=O)[C@H]2C=C[C@@H]([NH3+])C2)c1C(=O)NCCCCCCNC(=O)c1ccc(-c2c3nc(c(-c4c(F)c(F)c(F)c(F)c4F)c4ccc([nH]4)c(-c4c(F)c(F)c(F)c(F)c4F)c4nc(c(-c5c(F)c(F)c(F)c(F)c5F)c5ccc2[nH]5)C=C4)C=C3)cc1
REMARK SMILES IDX 22 1 21 2 20 3 19 4 17 5 18 6 16 8 1 9 2 10 3 11 4 12 6 13
REMARK SMILES IDX 5 14 7 15 8 16 9 18 10 19 11 20 15 21 12 22 13 23 14 24
REMARK SMILES IDX 23 28 24 29 25 30 26 31 27 32 28 34 29 35 30 36 91 37 31 38
REMARK SMILES IDX 90 39 32 40 33 41 34 42 84 43 35 44 89 45 83 46 85 47 36 48
REMARK SMILES IDX 88 49 82 50 81 51 37 53 69 54 49 55 68 56 50 57 53 58 67 59
REMARK SMILES IDX 86 60 51 61 52 62 66 64 87 65 54 66 38 67 39 68 47 69 40 70
REMARK SMILES IDX 41 71 45 72 48 73 42 74 43 75 46 76 44 77 70 78 71 79 79 80
REMARK SMILES IDX 72 81 73 82 77 83 80 84 74 85 75 86 78 87 76 88 55 89 56 90
REMARK SMILES IDX 64 91 57 92 58 93 62 94 65 95 59 96 60 97 63 98 61 99
REMARK H PARENT 19 7 7 17 14 25 14 26 14 27 26 33 85 52 53 63
REMARK Flexibility Score: inf
ROOT
ATOM      1  C   UNL A   1      33.807  27.396  25.960  1.00  0.00     0.002 C 
ENDROOT
BRANCH   1   2
ATOM      2  C   UNL A   1      33.583  26.160  25.085  1.00  0.00     0.021 C 
BRANCH   2   3
ATOM      3  C   UNL A   1      34.623  25.035  25.217  1.00  0.00     0.116 C 
BRANCH   3   4
ATOM      4  N   UNL A   1      34.423  24.311  26.452  1.00  0.00    -0.352 N 
ATOM      5  C   UNL A   1      34.067  23.046  26.833  1.00  0.00     0.253 C 
ATOM      6  O   UNL A   1      33.978  22.931  28.063  1.00  0.00    -0.269 OA
ATOM      7  H   UNL A   1      34.587  24.886  27.234  1.00  0.00     0.163 HD
BRANCH   5   8
ATOM      8  C   UNL A   1      33.835  21.807  25.988  1.00  0.00     0.066 A 
ATOM      9  C   UNL A   1      36.245  21.442  25.041  1.00  0.00     0.045 C 
ATOM     10  C   UNL A   1      34.813  21.072  25.262  1.00  0.00    -0.036 A 
ATOM     11  C   UNL A   1      34.442  19.916  24.542  1.00  0.00     0.004 A 
ATOM     12  C   UNL A   1      33.117  19.627  24.312  1.00  0.00     0.002 A 
ATOM     13  C   UNL A   1      32.457  21.423  25.805  1.00  0.00     0.054 A 
ATOM     14  C   UNL A   1      32.154  20.442  24.875  1.00  0.00     0.027 A 
BRANCH  13  15
ATOM     15  N   UNL A   1      31.410  22.029  26.543  1.00  0.00    -0.325 N 
ATOM     16  C   UNL A   1      30.672  23.168  26.525  1.00  0.00     0.231 C 
ATOM     17  H   UNL A   1      31.137  21.452  27.293  1.00  0.00     0.169 HD
ATOM     18  O   UNL A   1      29.810  23.228  27.423  1.00  0.00    -0.274 OA
BRANCH  16  19
ATOM     19  C   UNL A   1      30.789  24.411  25.620  1.00  0.00     0.107 C 
ATOM     20  C   UNL A   1      30.779  24.044  24.165  1.00  0.00    -0.012 C 
ATOM     21  C   UNL A   1      29.875  25.639  25.714  1.00  0.00     0.087 C 
ATOM     22  C   UNL A   1      30.135  24.954  23.425  1.00  0.00     0.033 C 
ATOM     23  C   UNL A   1      29.591  26.074  24.251  1.00  0.00     0.205 C 
BRANCH  23  24
ATOM     24  N   UNL A   1      28.180  26.292  23.963  1.00  0.00    -0.352 N 
ATOM     25  H   UNL A   1      27.853  27.116  24.469  1.00  0.00     0.345 HD
ATOM     26  H   UNL A   1      27.642  25.477  24.258  1.00  0.00     0.345 HD
ATOM     27  H   UNL A   1      28.057  26.438  22.961  1.00  0.00     0.345 HD
ENDBRANCH  23  24
ENDBRANCH  16  19
ENDBRANCH  13  15
ENDBRANCH   5   8
ENDBRANCH   3   4
ENDBRANCH   2   3
ENDBRANCH   1   2
BRANCH   1  28
ATOM     28  C   UNL A   1      32.557  28.029  26.585  1.00  0.00     0.002 C 
BRANCH  28  29
ATOM     29  C   UNL A   1      32.766  29.362  27.306  1.00  0.00     0.021 C 
BRANCH  29  30
ATOM     30  C   UNL A   1      34.177  29.925  27.179  1.00  0.00     0.116 C 
BRANCH  30  31
ATOM     31  N   UNL A   1      34.538  30.845  28.251  1.00  0.00    -0.352 N 
ATOM     32  C   UNL A   1      35.615  30.812  29.111  1.00  0.00     0.251 C 
ATOM     33  H   UNL A   1      33.921  31.602  28.379  1.00  0.00     0.163 HD
ATOM     34  O   UNL A   1      35.725  31.659  29.996  1.00  0.00    -0.269 OA
BRANCH  32  35
ATOM     35  C   UNL A   1      36.698  29.828  28.895  1.00  0.00     0.039 A 
ATOM     36  C   UNL A   1      37.035  28.972  29.951  1.00  0.00     0.014 A 
ATOM     37  C   UNL A   1      37.474  29.851  27.739  1.00  0.00     0.014 A 
ATOM     38  C   UNL A   1      38.264  28.316  29.938  1.00  0.00     0.010 A 
ATOM     39  C   UNL A   1      38.728  29.271  27.759  1.00  0.00     0.010 A 
ATOM     40  C   UNL A   1      39.149  28.559  28.886  1.00  0.00    -0.014 A 
BRANCH  40  41
ATOM     41  C   UNL A   1      40.560  28.193  28.927  1.00  0.00     0.031 A 
ATOM     42  C   UNL A   1      41.026  26.910  28.364  1.00  0.00     0.074 A 
ATOM     43  C   UNL A   1      41.453  29.078  29.422  1.00  0.00     0.049 A 
ATOM     44  N   UNL A   1      42.151  26.351  28.660  1.00  0.00    -0.248 NA
ATOM     45  C   UNL A   1      40.225  26.129  27.430  1.00  0.00     0.031 C 
ATOM     46  C   UNL A   1      42.910  29.021  29.330  1.00  0.00     0.029 A 
ATOM     47  N   UNL A   1      41.204  30.120  30.331  1.00  0.00    -0.354 N 
ATOM     48  C   UNL A   1      42.330  25.279  27.819  1.00  0.00     0.074 A 
ATOM     49  C   UNL A   1      41.087  25.165  27.089  1.00  0.00     0.031 C 
ATOM     50  C   UNL A   1      43.431  29.723  30.348  1.00  0.00     0.029 A 
ATOM     51  C   UNL A   1      42.325  30.130  31.196  1.00  0.00     0.049 A 
ATOM     52  H   UNL A   1      40.419  30.713  30.361  1.00  0.00     0.167 HD
ATOM     53  C   UNL A   1      43.549  24.665  27.765  1.00  0.00     0.037 A 
ATOM     54  C   UNL A   1      42.188  29.824  32.519  1.00  0.00     0.037 A 
ATOM     55  C   UNL A   1      44.473  25.215  28.753  1.00  0.00     0.049 A 
ATOM     56  C   UNL A   1      42.987  28.624  32.980  1.00  0.00     0.074 A 
ATOM     57  C   UNL A   1      45.471  26.173  28.715  1.00  0.00     0.029 A 
ATOM     58  N   UNL A   1      44.226  24.969  30.091  1.00  0.00    -0.354 N 
ATOM     59  N   UNL A   1      43.642  27.826  32.182  1.00  0.00    -0.248 NA
ATOM     60  C   UNL A   1      43.015  28.167  34.371  1.00  0.00     0.031 C 
ATOM     61  C   UNL A   1      45.798  26.525  30.056  1.00  0.00     0.029 A 
ATOM     62  C   UNL A   1      45.001  25.776  30.900  1.00  0.00     0.049 A 
ATOM     63  H   UNL A   1      43.582  24.303  30.424  1.00  0.00     0.167 HD
ATOM     64  C   UNL A   1      44.125  26.769  32.903  1.00  0.00     0.074 A 
ATOM     65  C   UNL A   1      43.709  27.022  34.269  1.00  0.00     0.031 C 
ATOM     66  C   UNL A   1      44.799  25.733  32.335  1.00  0.00     0.037 A 
BRANCH  53  67
ATOM     67  C   UNL A   1      43.969  23.707  26.679  1.00  0.00     0.064 A 
ATOM     68  C   UNL A   1      43.475  22.385  26.655  1.00  0.00     0.173 A 
ATOM     69  C   UNL A   1      44.884  24.015  25.657  1.00  0.00     0.173 A 
ATOM     70  F   UNL A   1      42.524  21.977  27.505  1.00  0.00    -0.203 F 
ATOM     71  C   UNL A   1      43.948  21.423  25.759  1.00  0.00     0.198 A 
ATOM     72  C   UNL A   1      45.406  23.039  24.801  1.00  0.00     0.198 A 
ATOM     73  F   UNL A   1      45.264  25.277  25.421  1.00  0.00    -0.203 F 
ATOM     74  F   UNL A   1      43.442  20.182  25.787  1.00  0.00    -0.200 F 
ATOM     75  C   UNL A   1      44.944  21.739  24.859  1.00  0.00     0.200 A 
ATOM     76  F   UNL A   1      46.359  23.369  23.917  1.00  0.00    -0.200 F 
ATOM     77  F   UNL A   1      45.440  20.804  24.038  1.00  0.00    -0.200 F 
ENDBRANCH  53  67
BRANCH  54  78
ATOM     78  C   UNL A   1      40.863  30.215  33.071  1.00  0.00     0.064 A 
ATOM     79  C   UNL A   1      40.565  31.587  33.202  1.00  0.00     0.173 A 
ATOM     80  C   UNL A   1      39.795  29.314  33.123  1.00  0.00     0.173 A 
ATOM     81  F   UNL A   1      41.554  32.496  33.158  1.00  0.00    -0.203 F 
ATOM     82  C   UNL A   1      39.249  32.040  33.251  1.00  0.00     0.198 A 
ATOM     83  C   UNL A   1      38.478  29.772  33.200  1.00  0.00     0.198 A 
ATOM     84  F   UNL A   1      40.007  27.997  32.988  1.00  0.00    -0.203 F 
ATOM     85  F   UNL A   1      38.995  33.356  33.245  1.00  0.00    -0.200 F 
ATOM     86  C   UNL A   1      38.206  31.131  33.225  1.00  0.00     0.200 A 
ATOM     87  F   UNL A   1      37.468  28.892  33.152  1.00  0.00    -0.200 F 
ATOM     88  F   UNL A   1      36.939  31.565  33.180  1.00  0.00    -0.200 F 
ENDBRANCH  54  78
BRANCH  66  89
ATOM     89  C   UNL A   1      45.333  24.587  33.128  1.00  0.00     0.064 A 
ATOM     90  C   UNL A   1      44.553  23.453  33.399  1.00  0.00     0.173 A 
ATOM     91  C   UNL A   1      46.601  24.649  33.735  1.00  0.00     0.173 A 
ATOM     92  F   UNL A   1      43.321  23.333  32.882  1.00  0.00    -0.203 F 
ATOM     93  C   UNL A   1      45.025  22.428  34.219  1.00  0.00     0.198 A 
ATOM     94  C   UNL A   1      47.052  23.645  34.588  1.00  0.00     0.198 A 
ATOM     95  F   UNL A   1      47.432  25.676  33.498  1.00  0.00    -0.203 F 
ATOM     96  F   UNL A   1      44.270  21.341  34.427  1.00  0.00    -0.200 F 
ATOM     97  C   UNL A   1      46.268  22.531  34.824  1.00  0.00     0.200 A 
ATOM     98  F   UNL A   1      48.250  23.762  35.176  1.00  0.00    -0.200 F 
ATOM     99  F   UNL A   1      46.710  21.557  35.629  1.00  0.00    -0.200 F 
ENDBRANCH  66  89
ENDBRANCH  40  41
ENDBRANCH  32  35
ENDBRANCH  30  31
ENDBRANCH  29  30
ENDBRANCH  28  29
ENDBRANCH   1  28
TORSDOF 16
ENDMDL
MODEL 2
REMARK VINA RESULT:     -13.5      3.727      9.675
REMARK SMILES Cc1cccc(NC(=O)[C@H]2C=C[C@@H]([NH3+])C2)c1C(=O)NCCCCCCNC(=O)c1ccc(-c2c3nc(c(-c4c(F)c(F)c(F)c(F)c4F)c4ccc([nH]4)c(-c4c(F)c(F)c(F)c(F)c4F)c4nc(c(-c5c(F)c(F)c(F)c(F)c5F)c5ccc2[nH]5)C=C4)C=C3)cc1
REMARK SMILES IDX 22 1 21 2 20 3 19 4 17 5 18 6 16 8 1 9 2 10 3 11 4 12 6 13
REMARK SMILES IDX 5 14 7 15 8 16 9 18 10 19 11 20 15 21 12 22 13 23 14 24
REMARK SMILES IDX 23 28 24 29 25 30 26 31 27 32 28 34 29 35 30 36 91 37 31 38
REMARK SMILES IDX 90 39 32 40 33 41 34 42 84 43 35 44 89 45 83 46 85 47 36 48
REMARK SMILES IDX 88 49 82 50 81 51 37 53 69 54 49 55 68 56 50 57 53 58 67 59
REMARK SMILES IDX 86 60 51 61 52 62 66 64 87 65 54 66 38 67 39 68 47 69 40 70
REMARK SMILES IDX 41 71 45 72 48 73 42 74 43 75 46 76 44 77 70 78 71 79 79 80
REMARK SMILES IDX 72 81 73 82 77 83 80 84 74 85 75 86 78 87 76 88 55 89 56 90
REMARK SMILES IDX 64 91 57 92 58 93 62 94 65 95 59 96 60 97 63 98 61 99
REMARK H PARENT 19 7 7 17 14 25 14 26 14 27 26 33 85 52 53 63
REMARK Flexibility Score: inf
ROOT
ATOM      1  C   UNL A   1      35.464  22.806  25.427  1.00  0.00     0.002 C 
ENDROOT
BRANCH   1   2
ATOM      2  C   UNL A   1      34.798  23.441  26.651  1.00  0.00     0.021 C 
BRANCH   2   3
ATOM      3  C   UNL A   1      34.181  22.468  27.670  1.00  0.00     0.116 C 
BRANCH   3   4
ATOM      4  N   UNL A   1      32.739  22.564  27.644  1.00  0.00    -0.352 N 
ATOM      5  C   UNL A   1      31.739  22.456  26.717  1.00  0.00     0.253 C 
ATOM      6  O   UNL A   1      30.621  22.686  27.200  1.00  0.00    -0.269 OA
ATOM      7  H   UNL A   1      32.378  22.761  28.538  1.00  0.00     0.163 HD
BRANCH   5   8
ATOM      8  C   UNL A   1      31.808  22.053  25.255  1.00  0.00     0.066 A 
ATOM      9  C   UNL A   1      33.026  19.750  25.474  1.00  0.00     0.045 C 
ATOM     10  C   UNL A   1      32.313  20.832  24.728  1.00  0.00    -0.036 A 
ATOM     11  C   UNL A   1      32.282  20.593  23.337  1.00  0.00     0.004 A 
ATOM     12  C   UNL A   1      32.015  21.614  22.455  1.00  0.00     0.002 A 
ATOM     13  C   UNL A   1      31.442  23.076  24.306  1.00  0.00     0.054 A 
ATOM     14  C   UNL A   1      31.690  22.858  22.960  1.00  0.00     0.027 A 
BRANCH  13  15
ATOM     15  N   UNL A   1      30.849  24.296  24.716  1.00  0.00    -0.325 N 
ATOM     16  C   UNL A   1      31.225  25.565  25.020  1.00  0.00     0.231 C 
ATOM     17  H   UNL A   1      29.874  24.192  24.807  1.00  0.00     0.169 HD
ATOM     18  O   UNL A   1      30.276  26.316  25.318  1.00  0.00    -0.274 OA
BRANCH  16  19
ATOM     19  C   UNL A   1      32.633  26.183  25.123  1.00  0.00     0.107 C 
ATOM     20  C   UNL A   1      33.118  26.691  23.798  1.00  0.00    -0.012 C 
ATOM     21  C   UNL A   1      33.025  27.280  26.123  1.00  0.00     0.087 C 
ATOM     22  C   UNL A   1      33.842  27.808  23.925  1.00  0.00     0.033 C 
ATOM     23  C   UNL A   1      33.955  28.251  25.348  1.00  0.00     0.205 C 
BRANCH  23  24
ATOM     24  N   UNL A   1      33.589  29.655  25.483  1.00  0.00    -0.352 N 
ATOM     25  H   UNL A   1      34.432  30.230  25.460  1.00  0.00     0.345 HD
ATOM     26  H   UNL A   1      33.106  29.796  26.371  1.00  0.00     0.345 HD
ATOM     27  H   UNL A   1      32.974  29.921  24.715  1.00  0.00     0.345 HD
ENDBRANCH  23  24
ENDBRANCH  16  19
ENDBRANCH  13  15
ENDBRANCH   5   8
ENDBRANCH   3   4
ENDBRANCH   2   3
ENDBRANCH   1   2
BRANCH   1  28
ATOM     28  C   UNL A   1      36.279  21.530  25.676  1.00  0.00     0.002 C 
BRANCH  28  29
ATOM     29  C   UNL A   1      37.791  21.648  25.474  1.00  0.00     0.021 C 
BRANCH  29  30
ATOM     30  C   UNL A   1      38.378  22.983  25.919  1.00  0.00     0.116 C 
BRANCH  30  31
ATOM     31  N   UNL A   1      39.811  22.932  26.183  1.00  0.00    -0.352 N 
ATOM     32  C   UNL A   1      40.659  23.928  26.619  1.00  0.00     0.251 C 
ATOM     33  H   UNL A   1      40.235  22.057  26.027  1.00  0.00     0.163 HD
ATOM     34  O   UNL A   1      41.863  23.706  26.738  1.00  0.00    -0.269 OA
BRANCH  32  35
ATOM     35  C   UNL A   1      40.103  25.227  27.057  1.00  0.00     0.039 A 
ATOM     36  C   UNL A   1      40.558  26.389  26.422  1.00  0.00     0.014 A 
ATOM     37  C   UNL A   1      39.274  25.318  28.173  1.00  0.00     0.014 A 
ATOM     38  C   UNL A   1      40.370  27.626  27.036  1.00  0.00     0.010 A 
ATOM     39  C   UNL A   1      39.159  26.530  28.827  1.00  0.00     0.010 A 
ATOM     40  C   UNL A   1      39.763  27.672  28.292  1.00  0.00    -0.014 A 
BRANCH  40  41
ATOM     41  C   UNL A   1      39.805  28.845  29.158  1.00  0.00     0.031 A 
ATOM     42  C   UNL A   1      38.769  29.893  29.062  1.00  0.00     0.074 A 
ATOM     43  C   UNL A   1      40.764  28.927  30.106  1.00  0.00     0.049 A 
ATOM     44  N   UNL A   1      38.907  31.096  29.510  1.00  0.00    -0.248 NA
ATOM     45  C   UNL A   1      37.486  29.667  28.409  1.00  0.00     0.031 C 
ATOM     46  C   UNL A   1      40.840  29.870  31.219  1.00  0.00     0.029 A 
ATOM     47  N   UNL A   1      42.017  28.290  30.106  1.00  0.00    -0.354 N 
ATOM     48  C   UNL A   1      37.691  31.729  29.415  1.00  0.00     0.074 A 
ATOM     49  C   UNL A   1      36.844  30.805  28.694  1.00  0.00     0.031 C 
ATOM     50  C   UNL A   1      42.125  29.998  31.584  1.00  0.00     0.029 A 
ATOM     51  C   UNL A   1      42.918  29.249  30.627  1.00  0.00     0.049 A 
ATOM     52  H   UNL A   1      42.222  27.375  29.807  1.00  0.00     0.167 HD
ATOM     53  C   UNL A   1      37.509  32.929  30.042  1.00  0.00     0.037 A 
ATOM     54  C   UNL A   1      43.914  29.765  29.848  1.00  0.00     0.037 A 
ATOM     55  C   UNL A   1      38.746  33.413  30.647  1.00  0.00     0.049 A 
ATOM     56  C   UNL A   1      43.854  31.265  29.651  1.00  0.00     0.074 A 
ATOM     57  C   UNL A   1      39.288  33.356  31.920  1.00  0.00     0.029 A 
ATOM     58  N   UNL A   1      39.770  33.821  29.811  1.00  0.00    -0.354 N 
ATOM     59  N   UNL A   1      42.865  32.019  30.044  1.00  0.00    -0.248 NA
ATOM     60  C   UNL A   1      44.860  32.013  28.894  1.00  0.00     0.031 C 
ATOM     61  C   UNL A   1      40.666  33.703  31.830  1.00  0.00     0.029 A 
ATOM     62  C   UNL A   1      40.953  33.975  30.506  1.00  0.00     0.049 A 
ATOM     63  H   UNL A   1      39.668  33.981  28.845  1.00  0.00     0.167 HD
ATOM     64  C   UNL A   1      43.060  33.291  29.580  1.00  0.00     0.074 A 
ATOM     65  C   UNL A   1      44.320  33.243  28.864  1.00  0.00     0.031 C 
ATOM     66  C   UNL A   1      42.162  34.294  29.773  1.00  0.00     0.037 A 
BRANCH  53  67
ATOM     67  C   UNL A   1      36.163  33.564  30.284  1.00  0.00     0.064 A 
ATOM     68  C   UNL A   1      35.403  34.071  29.208  1.00  0.00     0.173 A 
ATOM     69  C   UNL A   1      35.583  33.740  31.553  1.00  0.00     0.173 A 
ATOM     70  F   UNL A   1      35.781  33.890  27.936  1.00  0.00    -0.203 F 
ATOM     71  C   UNL A   1      34.225  34.798  29.398  1.00  0.00     0.198 A 
ATOM     72  C   UNL A   1      34.438  34.519  31.750  1.00  0.00     0.198 A 
ATOM     73  F   UNL A   1      36.074  33.122  32.634  1.00  0.00    -0.203 F 
ATOM     74  F   UNL A   1      33.548  35.258  28.337  1.00  0.00    -0.200 F 
ATOM     75  C   UNL A   1      33.765  35.057  30.672  1.00  0.00     0.200 A 
ATOM     76  F   UNL A   1      33.992  34.744  32.995  1.00  0.00    -0.200 F 
ATOM     77  F   UNL A   1      32.666  35.801  30.859  1.00  0.00    -0.200 F 
ENDBRANCH  53  67
BRANCH  54  78
ATOM     78  C   UNL A   1      44.414  28.801  28.831  1.00  0.00     0.064 A 
ATOM     79  C   UNL A   1      45.163  27.689  29.266  1.00  0.00     0.173 A 
ATOM     80  C   UNL A   1      43.880  28.757  27.539  1.00  0.00     0.173 A 
ATOM     81  F   UNL A   1      45.697  27.680  30.499  1.00  0.00    -0.203 F 
ATOM     82  C   UNL A   1      45.261  26.536  28.492  1.00  0.00     0.198 A 
ATOM     83  C   UNL A   1      44.004  27.608  26.756  1.00  0.00     0.198 A 
ATOM     84  F   UNL A   1      43.144  29.774  27.070  1.00  0.00    -0.203 F 
ATOM     85  F   UNL A   1      45.870  25.449  28.987  1.00  0.00    -0.200 F 
ATOM     86  C   UNL A   1      44.659  26.488  27.247  1.00  0.00     0.200 A 
ATOM     87  F   UNL A   1      43.402  27.555  25.559  1.00  0.00    -0.200 F 
ATOM     88  F   UNL A   1      44.673  25.352  26.538  1.00  0.00    -0.200 F 
ENDBRANCH  54  78
BRANCH  66  89
ATOM     89  C   UNL A   1      42.385  35.683  29.273  1.00  0.00     0.064 A 
ATOM     90  C   UNL A   1      41.828  36.129  28.066  1.00  0.00     0.173 A 
ATOM     91  C   UNL A   1      43.261  36.563  29.935  1.00  0.00     0.173 A 
ATOM     92  F   UNL A   1      41.007  35.337  27.360  1.00  0.00    -0.203 F 
ATOM     93  C   UNL A   1      42.116  37.396  27.559  1.00  0.00     0.198 A 
ATOM     94  C   UNL A   1      43.581  37.810  29.405  1.00  0.00     0.198 A 
ATOM     95  F   UNL A   1      43.807  36.238  31.117  1.00  0.00    -0.203 F 
ATOM     96  F   UNL A   1      41.537  37.805  26.422  1.00  0.00    -0.200 F 
ATOM     97  C   UNL A   1      43.003  38.230  28.221  1.00  0.00     0.200 A 
ATOM     98  F   UNL A   1      44.449  38.603  30.048  1.00  0.00    -0.200 F 
ATOM     99  F   UNL A   1      43.297  39.437  27.720  1.00  0.00    -0.200 F 
ENDBRANCH  66  89
ENDBRANCH  40  41
ENDBRANCH  32  35
ENDBRANCH  30  31
ENDBRANCH  29  30
ENDBRANCH  28  29
ENDBRANCH   1  28
TORSDOF 16
ENDMDL
MODEL 3
REMARK VINA RESULT:     -13.5      1.706      3.242
REMARK SMILES Cc1cccc(NC(=O)[C@H]2C=C[C@@H]([NH3+])C2)c1C(=O)NCCCCCCNC(=O)c1ccc(-c2c3nc(c(-c4c(F)c(F)c(F)c(F)c4F)c4ccc([nH]4)c(-c4c(F)c(F)c(F)c(F)c4F)c4nc(c(-c5c(F)c(F)c(F)c(F)c5F)c5ccc2[nH]5)C=C4)C=C3)cc1
REMARK SMILES IDX 22 1 21 2 20 3 19 4 17 5 18 6 16 8 1 9 2 10 3 11 4 12 6 13
REMARK SMILES IDX 5 14 7 15 8 16 9 18 10 19 11 20 15 21 12 22 13 23 14 24
REMARK SMILES IDX 23 28 24 29 25 30 26 31 27 32 28 34 29 35 30 36 91 37 31 38
REMARK SMILES IDX 90 39 32 40 33 41 34 42 84 43 35 44 89 45 83 46 85 47 36 48
REMARK SMILES IDX 88 49 82 50 81 51 37 53 69 54 49 55 68 56 50 57 53 58 67 59
REMARK SMILES IDX 86 60 51 61 52 62 66 64 87 65 54 66 38 67 39 68 47 69 40 70
REMARK SMILES IDX 41 71 45 72 48 73 42 74 43 75 46 76 44 77 70 78 71 79 79 80
REMARK SMILES IDX 72 81 73 82 77 83 80 84 74 85 75 86 78 87 76 88 55 89 56 90
REMARK SMILES IDX 64 91 57 92 58 93 62 94 65 95 59 96 60 97 63 98 61 99
REMARK H PARENT 19 7 7 17 14 25 14 26 14 27 26 33 85 52 53 63
REMARK Flexibility Score: inf
ROOT
ATOM      1  C   UNL A   1      32.999  28.419  25.460  1.00  0.00     0.002 C 
ENDROOT
BRANCH   1   2
ATOM      2  C   UNL A   1      34.031  28.314  24.334  1.00  0.00     0.021 C 
BRANCH   2   3
ATOM      3  C   UNL A   1      33.598  28.857  22.962  1.00  0.00     0.116 C 
BRANCH   3   4
ATOM      4  N   UNL A   1      33.525  27.782  21.998  1.00  0.00    -0.352 N 
ATOM      5  C   UNL A   1      33.034  26.506  21.947  1.00  0.00     0.253 C 
ATOM      6  O   UNL A   1      33.278  25.950  20.867  1.00  0.00    -0.269 OA
ATOM      7  H   UNL A   1      33.944  28.038  21.145  1.00  0.00     0.163 HD
BRANCH   5   8
ATOM      8  C   UNL A   1      32.216  25.738  22.969  1.00  0.00     0.066 A 
ATOM      9  C   UNL A   1      30.162  27.337  23.204  1.00  0.00     0.045 C 
ATOM     10  C   UNL A   1      30.925  26.078  23.461  1.00  0.00    -0.036 A 
ATOM     11  C   UNL A   1      30.279  25.241  24.396  1.00  0.00     0.004 A 
ATOM     12  C   UNL A   1      30.970  24.240  25.038  1.00  0.00     0.002 A 
ATOM     13  C   UNL A   1      32.883  24.622  23.594  1.00  0.00     0.054 A 
ATOM     14  C   UNL A   1      32.287  24.013  24.686  1.00  0.00     0.027 A 
BRANCH  13  15
ATOM     15  N   UNL A   1      34.133  24.144  23.127  1.00  0.00    -0.325 N 
ATOM     16  C   UNL A   1      35.115  23.293  23.520  1.00  0.00     0.231 C 
ATOM     17  H   UNL A   1      34.354  24.550  22.257  1.00  0.00     0.169 HD
ATOM     18  O   UNL A   1      36.052  23.190  22.706  1.00  0.00    -0.274 OA
BRANCH  16  19
ATOM     19  C   UNL A   1      35.276  22.507  24.836  1.00  0.00     0.107 C 
ATOM     20  C   UNL A   1      35.391  23.419  26.022  1.00  0.00    -0.012 C 
ATOM     21  C   UNL A   1      34.328  21.392  25.299  1.00  0.00     0.087 C 
ATOM     22  C   UNL A   1      34.788  22.913  27.103  1.00  0.00     0.033 C 
ATOM     23  C   UNL A   1      34.153  21.588  26.829  1.00  0.00     0.205 C 
BRANCH  23  24
ATOM     24  N   UNL A   1      32.765  21.578  27.271  1.00  0.00    -0.352 N 
ATOM     25  H   UNL A   1      32.230  22.256  26.727  1.00  0.00     0.345 HD
ATOM     26  H   UNL A   1      32.721  21.825  28.260  1.00  0.00     0.345 HD
ATOM     27  H   UNL A   1      32.372  20.647  27.135  1.00  0.00     0.345 HD
ENDBRANCH  23  24
ENDBRANCH  16  19
ENDBRANCH  13  15
ENDBRANCH   5   8
ENDBRANCH   3   4
ENDBRANCH   2   3
ENDBRANCH   1   2
BRANCH   1  28
ATOM     28  C   UNL A   1      32.271  29.763  25.598  1.00  0.00     0.002 C 
BRANCH  28  29
ATOM     29  C   UNL A   1      32.548  30.550  26.882  1.00  0.00     0.021 C 
BRANCH  29  30
ATOM     30  C   UNL A   1      33.803  30.107  27.625  1.00  0.00     0.116 C 
BRANCH  30  31
ATOM     31  N   UNL A   1      34.445  31.180  28.377  1.00  0.00    -0.352 N 
ATOM     32  C   UNL A   1      35.664  31.192  29.022  1.00  0.00     0.251 C 
ATOM     33  H   UNL A   1      33.932  32.018  28.430  1.00  0.00     0.163 HD
ATOM     34  O   UNL A   1      36.019  32.186  29.653  1.00  0.00    -0.269 OA
BRANCH  32  35
ATOM     35  C   UNL A   1      36.595  30.054  28.855  1.00  0.00     0.039 A 
ATOM     36  C   UNL A   1      36.958  29.325  29.994  1.00  0.00     0.014 A 
ATOM     37  C   UNL A   1      37.222  29.807  27.636  1.00  0.00     0.014 A 
ATOM     38  C   UNL A   1      38.095  28.520  29.960  1.00  0.00     0.010 A 
ATOM     39  C   UNL A   1      38.396  29.078  27.621  1.00  0.00     0.010 A 
ATOM     40  C   UNL A   1      38.868  28.490  28.798  1.00  0.00    -0.014 A 
BRANCH  40  41
ATOM     41  C   UNL A   1      40.223  27.953  28.751  1.00  0.00     0.031 A 
ATOM     42  C   UNL A   1      40.464  26.530  28.437  1.00  0.00     0.074 A 
ATOM     43  C   UNL A   1      41.267  28.793  28.927  1.00  0.00     0.049 A 
ATOM     44  N   UNL A   1      41.554  25.898  28.715  1.00  0.00    -0.248 NA
ATOM     45  C   UNL A   1      39.458  25.689  27.802  1.00  0.00     0.031 C 
ATOM     46  C   UNL A   1      42.681  28.522  28.678  1.00  0.00     0.029 A 
ATOM     47  N   UNL A   1      41.264  30.024  29.605  1.00  0.00    -0.354 N 
ATOM     48  C   UNL A   1      41.495  24.661  28.118  1.00  0.00     0.074 A 
ATOM     49  C   UNL A   1      40.154  24.568  27.585  1.00  0.00     0.031 C 
ATOM     50  C   UNL A   1      43.415  29.342  29.446  1.00  0.00     0.029 A 
ATOM     51  C   UNL A   1      42.493  30.061  30.307  1.00  0.00     0.049 A 
ATOM     52  H   UNL A   1      40.559  30.710  29.595  1.00  0.00     0.167 HD
ATOM     53  C   UNL A   1      42.621  23.891  28.059  1.00  0.00     0.037 A 
ATOM     54  C   UNL A   1      42.517  30.055  31.672  1.00  0.00     0.037 A 
ATOM     55  C   UNL A   1      43.731  24.503  28.782  1.00  0.00     0.049 A 
ATOM     56  C   UNL A   1      43.243  28.880  32.290  1.00  0.00     0.074 A 
ATOM     57  C   UNL A   1      44.810  25.290  28.414  1.00  0.00     0.029 A 
ATOM     58  N   UNL A   1      43.656  24.574  30.161  1.00  0.00    -0.354 N 
ATOM     59  N   UNL A   1      43.688  27.854  31.618  1.00  0.00    -0.248 NA
ATOM     60  C   UNL A   1      43.424  28.721  33.735  1.00  0.00     0.031 C 
ATOM     61  C   UNL A   1      45.362  25.863  29.595  1.00  0.00     0.029 A 
ATOM     62  C   UNL A   1      44.621  25.419  30.673  1.00  0.00     0.049 A 
ATOM     63  H   UNL A   1      43.000  24.085  30.708  1.00  0.00     0.167 HD
ATOM     64  C   UNL A   1      44.155  26.913  32.493  1.00  0.00     0.074 A 
ATOM     65  C   UNL A   1      43.970  27.496  33.808  1.00  0.00     0.031 C 
ATOM     66  C   UNL A   1      44.626  25.701  32.095  1.00  0.00     0.037 A 
BRANCH  53  67
ATOM     67  C   UNL A   1      42.775  22.682  27.171  1.00  0.00     0.064 A 
ATOM     68  C   UNL A   1      42.043  21.502  27.428  1.00  0.00     0.173 A 
ATOM     69  C   UNL A   1      43.655  22.605  26.077  1.00  0.00     0.173 A 
ATOM     70  F   UNL A   1      41.097  21.457  28.375  1.00  0.00    -0.203 F 
ATOM     71  C   UNL A   1      42.263  20.315  26.726  1.00  0.00     0.198 A 
ATOM     72  C   UNL A   1      43.922  21.402  25.415  1.00  0.00     0.198 A 
ATOM     73  F   UNL A   1      44.245  23.700  25.581  1.00  0.00    -0.203 F 
ATOM     74  F   UNL A   1      41.538  19.225  27.017  1.00  0.00    -0.200 F 
ATOM     75  C   UNL A   1      43.232  20.254  25.747  1.00  0.00     0.200 A 
ATOM     76  F   UNL A   1      44.853  21.365  24.451  1.00  0.00    -0.200 F 
ATOM     77  F   UNL A   1      43.484  19.101  25.111  1.00  0.00    -0.200 F 
ENDBRANCH  53  67
BRANCH  54  78
ATOM     78  C   UNL A   1      41.335  30.728  32.276  1.00  0.00     0.064 A 
ATOM     79  C   UNL A   1      41.219  32.127  32.153  1.00  0.00     0.173 A 
ATOM     80  C   UNL A   1      40.188  30.012  32.632  1.00  0.00     0.173 A 
ATOM     81  F   UNL A   1      42.291  32.862  31.812  1.00  0.00    -0.203 F 
ATOM     82  C   UNL A   1      39.984  32.762  32.254  1.00  0.00     0.198 A 
ATOM     83  C   UNL A   1      38.956  30.657  32.759  1.00  0.00     0.198 A 
ATOM     84  F   UNL A   1      40.226  28.677  32.749  1.00  0.00    -0.203 F 
ATOM     85  F   UNL A   1      39.885  34.075  32.005  1.00  0.00    -0.200 F 
ATOM     86  C   UNL A   1      38.849  32.021  32.533  1.00  0.00     0.200 A 
ATOM     87  F   UNL A   1      37.854  29.935  33.007  1.00  0.00    -0.200 F 
ATOM     88  F   UNL A   1      37.647  32.612  32.542  1.00  0.00    -0.200 F 
ENDBRANCH  54  78
BRANCH  66  89
ATOM     89  C   UNL A   1      45.144  24.682  33.054  1.00  0.00     0.064 A 
ATOM     90  C   UNL A   1      46.452  24.741  33.556  1.00  0.00     0.173 A 
ATOM     91  C   UNL A   1      44.379  23.553  33.401  1.00  0.00     0.173 A 
ATOM     92  F   UNL A   1      47.255  25.771  33.246  1.00  0.00    -0.203 F 
ATOM     93  C   UNL A   1      46.960  23.735  34.377  1.00  0.00     0.198 A 
ATOM     94  C   UNL A   1      44.903  22.529  34.186  1.00  0.00     0.198 A 
ATOM     95  F   UNL A   1      43.103  23.432  33.002  1.00  0.00    -0.203 F 
ATOM     96  F   UNL A   1      48.201  23.842  34.871  1.00  0.00    -0.200 F 
ATOM     97  C   UNL A   1      46.191  22.623  34.680  1.00  0.00     0.200 A 
ATOM     98  F   UNL A   1      44.153  21.453  34.461  1.00  0.00    -0.200 F 
ATOM     99  F   UNL A   1      46.688  21.647  35.450  1.00  0.00    -0.200 F 
ENDBRANCH  66  89
ENDBRANCH  40  41
ENDBRANCH  32  35
ENDBRANCH  30  31
ENDBRANCH  29  30
ENDBRANCH  28  29
ENDBRANCH   1  28
TORSDOF 16
ENDMDL
