MODEL 1
REMARK VINA RESULT:     -10.1      0.000      0.000
REMARK SMILES C[C@H](C(=O)NCCCCCCNC(=O)c1ccc(-c2c3nc(c(-c4c(F)c(F)c(F)c(F)c4F)c4ccc([nH]4)c(-c4c(F)c(F)c(F)c(F)c4F)c4nc(c(-c5c(F)c(F)c(F)c(F)c5F)c5ccc2[nH]5)C=C4)C=C3)cc1)c1cccc(C(=O)c2ccccc2)c1
REMARK SMILES IDX 8 1 7 2 6 3 5 4 3 5 4 6 2 8 1 9 78 10 79 11 91 12 80 13
REMARK SMILES IDX 82 14 81 15 83 16 84 17 85 18 86 19 90 20 87 21 89 22 88 23
REMARK SMILES IDX 9 24 10 25 11 26 12 27 13 28 14 30 15 31 16 32 77 33 17 34
REMARK SMILES IDX 76 35 18 36 19 37 20 38 70 39 21 40 75 41 69 42 71 43 22 44
REMARK SMILES IDX 74 45 68 46 67 47 23 49 55 50 35 51 54 52 36 53 39 54 53 55
REMARK SMILES IDX 72 56 37 57 38 58 52 60 73 61 40 62 24 63 25 64 33 65 26 66
REMARK SMILES IDX 27 67 31 68 34 69 28 70 29 71 32 72 30 73 56 74 57 75 65 76
REMARK SMILES IDX 58 77 59 78 63 79 66 80 60 81 61 82 64 83 62 84 41 85 42 86
REMARK SMILES IDX 50 87 43 88 44 89 48 90 51 91 45 92 46 93 49 94 47 95
REMARK H PARENT 5 7 12 29 71 48 39 59
REMARK Flexibility Score: inf
ROOT
ATOM      1  C   UNL A   1      33.485  35.542  28.650  1.00  0.00     0.002 C 
ENDROOT
BRANCH   1   2
ATOM      2  C   UNL A   1      32.788  36.102  29.894  1.00  0.00     0.021 C 
BRANCH   2   3
ATOM      3  C   UNL A   1      33.605  35.992  31.183  1.00  0.00     0.116 C 
BRANCH   3   4
ATOM      4  N   UNL A   1      33.157  34.867  31.984  1.00  0.00    -0.356 N 
ATOM      5  C   UNL A   1      33.830  34.071  32.865  1.00  0.00     0.227 C 
ATOM      6  O   UNL A   1      33.215  33.089  33.290  1.00  0.00    -0.274 OA
ATOM      7  H   UNL A   1      32.206  34.640  31.873  1.00  0.00     0.163 HD
BRANCH   5   8
ATOM      8  C   UNL A   1      35.238  34.428  33.383  1.00  0.00     0.105 C 
ATOM      9  C   UNL A   1      35.292  34.282  34.911  1.00  0.00     0.023 C 
BRANCH   8  10
ATOM     10  C   UNL A   1      36.377  33.635  32.756  1.00  0.00    -0.035 A 
ATOM     11  C   UNL A   1      37.041  34.150  31.631  1.00  0.00     0.004 A 
ATOM     12  C   UNL A   1      36.750  32.373  33.249  1.00  0.00     0.016 A 
ATOM     13  C   UNL A   1      37.987  33.383  30.954  1.00  0.00     0.001 A 
ATOM     14  C   UNL A   1      37.665  31.577  32.545  1.00  0.00     0.023 A 
ATOM     15  C   UNL A   1      38.281  32.094  31.397  1.00  0.00     0.012 A 
BRANCH  14  16
ATOM     16  C   UNL A   1      37.993  30.176  32.940  1.00  0.00     0.193 C 
ATOM     17  O   UNL A   1      37.102  29.336  33.039  1.00  0.00    -0.289 OA
BRANCH  16  18
ATOM     18  C   UNL A   1      39.380  29.743  33.198  1.00  0.00     0.022 A 
ATOM     19  C   UNL A   1      39.783  28.501  32.701  1.00  0.00     0.012 A 
ATOM     20  C   UNL A   1      40.266  30.527  33.946  1.00  0.00     0.012 A 
ATOM     21  C   UNL A   1      41.092  28.067  32.907  1.00  0.00     0.001 A 
ATOM     22  C   UNL A   1      41.576  30.090  34.143  1.00  0.00     0.001 A 
ATOM     23  C   UNL A   1      41.989  28.864  33.618  1.00  0.00     0.000 A 
ENDBRANCH  16  18
ENDBRANCH  14  16
ENDBRANCH   8  10
ENDBRANCH   5   8
ENDBRANCH   3   4
ENDBRANCH   2   3
ENDBRANCH   1   2
BRANCH   1  24
ATOM     24  C   UNL A   1      34.845  34.894  28.914  1.00  0.00     0.002 C 
BRANCH  24  25
ATOM     25  C   UNL A   1      35.056  33.528  28.251  1.00  0.00     0.021 C 
BRANCH  25  26
ATOM     26  C   UNL A   1      35.025  32.337  29.206  1.00  0.00     0.116 C 
BRANCH  26  27
ATOM     27  N   UNL A   1      34.368  31.184  28.608  1.00  0.00    -0.352 N 
ATOM     28  C   UNL A   1      34.919  30.038  28.102  1.00  0.00     0.251 C 
ATOM     29  H   UNL A   1      33.386  31.235  28.564  1.00  0.00     0.163 HD
ATOM     30  O   UNL A   1      34.226  29.264  27.435  1.00  0.00    -0.269 OA
BRANCH  28  31
ATOM     31  C   UNL A   1      36.343  29.719  28.337  1.00  0.00     0.039 A 
ATOM     32  C   UNL A   1      37.277  30.026  27.344  1.00  0.00     0.014 A 
ATOM     33  C   UNL A   1      36.752  29.068  29.506  1.00  0.00     0.014 A 
ATOM     34  C   UNL A   1      38.625  29.710  27.535  1.00  0.00     0.010 A 
ATOM     35  C   UNL A   1      38.105  28.812  29.723  1.00  0.00     0.010 A 
ATOM     36  C   UNL A   1      39.051  29.112  28.732  1.00  0.00    -0.014 A 
BRANCH  36  37
ATOM     37  C   UNL A   1      40.477  28.757  28.940  1.00  0.00     0.031 A 
ATOM     38  C   UNL A   1      41.403  29.727  29.620  1.00  0.00     0.074 A 
ATOM     39  C   UNL A   1      40.949  27.582  28.482  1.00  0.00     0.049 A 
ATOM     40  N   UNL A   1      42.684  29.614  29.871  1.00  0.00    -0.248 NA
ATOM     41  C   UNL A   1      40.818  31.006  30.054  1.00  0.00     0.031 C 
ATOM     42  C   UNL A   1      40.162  26.575  27.769  1.00  0.00     0.029 A 
ATOM     43  N   UNL A   1      42.208  27.038  28.546  1.00  0.00    -0.354 N 
ATOM     44  C   UNL A   1      43.058  30.812  30.467  1.00  0.00     0.074 A 
ATOM     45  C   UNL A   1      41.882  31.653  30.501  1.00  0.00     0.031 C 
ATOM     46  C   UNL A   1      40.949  25.525  27.485  1.00  0.00     0.029 A 
ATOM     47  C   UNL A   1      42.299  25.794  27.970  1.00  0.00     0.049 A 
ATOM     48  H   UNL A   1      42.972  27.496  28.964  1.00  0.00     0.167 HD
ATOM     49  C   UNL A   1      44.268  31.170  30.961  1.00  0.00     0.037 A 
ATOM     50  C   UNL A   1      43.354  24.966  27.854  1.00  0.00     0.037 A 
ATOM     51  C   UNL A   1      45.427  30.315  30.962  1.00  0.00     0.049 A 
ATOM     52  C   UNL A   1      44.682  25.379  28.428  1.00  0.00     0.074 A 
ATOM     53  C   UNL A   1      46.677  30.556  31.506  1.00  0.00     0.029 A 
ATOM     54  N   UNL A   1      45.475  29.054  30.388  1.00  0.00    -0.354 N 
ATOM     55  N   UNL A   1      45.005  26.481  29.059  1.00  0.00    -0.248 NA
ATOM     56  C   UNL A   1      45.790  24.424  28.282  1.00  0.00     0.031 C 
ATOM     57  C   UNL A   1      47.493  29.453  31.228  1.00  0.00     0.029 A 
ATOM     58  C   UNL A   1      46.739  28.510  30.549  1.00  0.00     0.049 A 
ATOM     59  H   UNL A   1      44.722  28.610  29.934  1.00  0.00     0.167 HD
ATOM     60  C   UNL A   1      46.339  26.340  29.415  1.00  0.00     0.074 A 
ATOM     61  C   UNL A   1      46.764  25.040  28.938  1.00  0.00     0.031 C 
ATOM     62  C   UNL A   1      47.140  27.209  30.080  1.00  0.00     0.037 A 
BRANCH  49  63
ATOM     63  C   UNL A   1      44.399  32.547  31.543  1.00  0.00     0.064 A 
ATOM     64  C   UNL A   1      44.302  32.776  32.924  1.00  0.00     0.173 A 
ATOM     65  C   UNL A   1      44.650  33.649  30.711  1.00  0.00     0.173 A 
ATOM     66  F   UNL A   1      44.053  31.759  33.761  1.00  0.00    -0.203 F 
ATOM     67  C   UNL A   1      44.418  34.061  33.447  1.00  0.00     0.198 A 
ATOM     68  C   UNL A   1      44.795  34.929  31.241  1.00  0.00     0.198 A 
ATOM     69  F   UNL A   1      44.759  33.485  29.384  1.00  0.00    -0.203 F 
ATOM     70  F   UNL A   1      44.272  34.263  34.764  1.00  0.00    -0.200 F 
ATOM     71  C   UNL A   1      44.671  35.135  32.607  1.00  0.00     0.200 A 
ATOM     72  F   UNL A   1      45.052  35.963  30.429  1.00  0.00    -0.200 F 
ATOM     73  F   UNL A   1      44.787  36.371  33.113  1.00  0.00    -0.200 F 
ENDBRANCH  49  63
BRANCH  50  74
ATOM     74  C   UNL A   1      43.186  23.639  27.209  1.00  0.00     0.064 A 
ATOM     75  C   UNL A   1      43.647  23.414  25.905  1.00  0.00     0.173 A 
ATOM     76  C   UNL A   1      42.566  22.573  27.877  1.00  0.00     0.173 A 
ATOM     77  F   UNL A   1      44.228  24.410  25.220  1.00  0.00    -0.203 F 
ATOM     78  C   UNL A   1      43.476  22.179  25.283  1.00  0.00     0.198 A 
ATOM     79  C   UNL A   1      42.418  21.331  27.263  1.00  0.00     0.198 A 
ATOM     80  F   UNL A   1      42.113  22.735  29.128  1.00  0.00    -0.203 F 
ATOM     81  F   UNL A   1      43.888  22.005  24.021  1.00  0.00    -0.200 F 
ATOM     82  C   UNL A   1      42.866  21.137  25.964  1.00  0.00     0.200 A 
ATOM     83  F   UNL A   1      41.840  20.321  27.928  1.00  0.00    -0.200 F 
ATOM     84  F   UNL A   1      42.705  19.948  25.367  1.00  0.00    -0.200 F 
ENDBRANCH  50  74
BRANCH  62  85
ATOM     85  C   UNL A   1      48.544  26.763  30.368  1.00  0.00     0.064 A 
ATOM     86  C   UNL A   1      49.613  27.102  29.526  1.00  0.00     0.173 A 
ATOM     87  C   UNL A   1      48.826  26.014  31.522  1.00  0.00     0.173 A 
ATOM     88  F   UNL A   1      49.391  27.803  28.404  1.00  0.00    -0.203 F 
ATOM     89  C   UNL A   1      50.909  26.684  29.813  1.00  0.00     0.198 A 
ATOM     90  C   UNL A   1      50.127  25.623  31.820  1.00  0.00     0.198 A 
ATOM     91  F   UNL A   1      47.839  25.670  32.363  1.00  0.00    -0.203 F 
ATOM     92  F   UNL A   1      51.908  26.977  28.970  1.00  0.00    -0.200 F 
ATOM     93  C   UNL A   1      51.167  25.951  30.963  1.00  0.00     0.200 A 
ATOM     94  F   UNL A   1      50.375  24.924  32.936  1.00  0.00    -0.200 F 
ATOM     95  F   UNL A   1      52.416  25.553  31.239  1.00  0.00    -0.200 F 
ENDBRANCH  62  85
ENDBRANCH  36  37
ENDBRANCH  28  31
ENDBRANCH  26  27
ENDBRANCH  25  26
ENDBRANCH  24  25
ENDBRANCH   1  24
TORSDOF 16
ENDMDL
MODEL 2
REMARK VINA RESULT:     -10.1      4.621      8.602
REMARK SMILES C[C@H](C(=O)NCCCCCCNC(=O)c1ccc(-c2c3nc(c(-c4c(F)c(F)c(F)c(F)c4F)c4ccc([nH]4)c(-c4c(F)c(F)c(F)c(F)c4F)c4nc(c(-c5c(F)c(F)c(F)c(F)c5F)c5ccc2[nH]5)C=C4)C=C3)cc1)c1cccc(C(=O)c2ccccc2)c1
REMARK SMILES IDX 8 1 7 2 6 3 5 4 3 5 4 6 2 8 1 9 78 10 79 11 91 12 80 13
REMARK SMILES IDX 82 14 81 15 83 16 84 17 85 18 86 19 90 20 87 21 89 22 88 23
REMARK SMILES IDX 9 24 10 25 11 26 12 27 13 28 14 30 15 31 16 32 77 33 17 34
REMARK SMILES IDX 76 35 18 36 19 37 20 38 70 39 21 40 75 41 69 42 71 43 22 44
REMARK SMILES IDX 74 45 68 46 67 47 23 49 55 50 35 51 54 52 36 53 39 54 53 55
REMARK SMILES IDX 72 56 37 57 38 58 52 60 73 61 40 62 24 63 25 64 33 65 26 66
REMARK SMILES IDX 27 67 31 68 34 69 28 70 29 71 32 72 30 73 56 74 57 75 65 76
REMARK SMILES IDX 58 77 59 78 63 79 66 80 60 81 61 82 64 83 62 84 41 85 42 86
REMARK SMILES IDX 50 87 43 88 44 89 48 90 51 91 45 92 46 93 49 94 47 95
REMARK H PARENT 5 7 12 29 71 48 39 59
REMARK Flexibility Score: inf
ROOT
ATOM      1  C   UNL A   1      34.208  32.047  28.591  1.00  0.00     0.002 C 
ENDROOT
BRANCH   1   2
ATOM      2  C   UNL A   1      34.134  31.272  27.273  1.00  0.00     0.021 C 
BRANCH   2   3
ATOM      3  C   UNL A   1      34.374  29.766  27.407  1.00  0.00     0.116 C 
BRANCH   3   4
ATOM      4  N   UNL A   1      33.193  29.099  27.925  1.00  0.00    -0.356 N 
ATOM      5  C   UNL A   1      32.437  28.088  27.407  1.00  0.00     0.227 C 
ATOM      6  O   UNL A   1      31.393  27.825  28.012  1.00  0.00    -0.274 OA
ATOM      7  H   UNL A   1      32.885  29.433  28.798  1.00  0.00     0.163 HD
BRANCH   5   8
ATOM      8  C   UNL A   1      32.904  27.250  26.200  1.00  0.00     0.105 C 
ATOM      9  C   UNL A   1      32.453  25.791  26.363  1.00  0.00     0.023 C 
BRANCH   8  10
ATOM     10  C   UNL A   1      32.457  27.770  24.841  1.00  0.00    -0.035 A 
ATOM     11  C   UNL A   1      33.423  28.141  23.890  1.00  0.00     0.004 A 
ATOM     12  C   UNL A   1      31.097  27.936  24.530  1.00  0.00     0.016 A 
ATOM     13  C   UNL A   1      33.044  28.753  22.697  1.00  0.00     0.001 A 
ATOM     14  C   UNL A   1      30.711  28.594  23.353  1.00  0.00     0.023 A 
ATOM     15  C   UNL A   1      31.696  28.998  22.440  1.00  0.00     0.012 A 
BRANCH  14  16
ATOM     16  C   UNL A   1      29.291  28.925  23.036  1.00  0.00     0.193 C 
ATOM     17  O   UNL A   1      28.416  28.071  23.151  1.00  0.00    -0.289 OA
BRANCH  16  18
ATOM     18  C   UNL A   1      28.884  30.276  22.603  1.00  0.00     0.022 A 
ATOM     19  C   UNL A   1      28.435  30.436  21.290  1.00  0.00     0.012 A 
ATOM     20  C   UNL A   1      28.971  31.379  23.460  1.00  0.00     0.012 A 
ATOM     21  C   UNL A   1      28.023  31.693  20.849  1.00  0.00     0.001 A 
ATOM     22  C   UNL A   1      28.550  32.632  23.017  1.00  0.00     0.001 A 
ATOM     23  C   UNL A   1      28.071  32.787  21.714  1.00  0.00     0.000 A 
ENDBRANCH  16  18
ENDBRANCH  14  16
ENDBRANCH   8  10
ENDBRANCH   5   8
ENDBRANCH   3   4
ENDBRANCH   2   3
ENDBRANCH   1   2
BRANCH   1  24
ATOM     24  C   UNL A   1      34.385  33.559  28.437  1.00  0.00     0.002 C 
BRANCH  24  25
ATOM     25  C   UNL A   1      33.129  34.393  28.707  1.00  0.00     0.021 C 
BRANCH  25  26
ATOM     26  C   UNL A   1      33.392  35.807  29.221  1.00  0.00     0.116 C 
BRANCH  26  27
ATOM     27  N   UNL A   1      32.611  36.102  30.412  1.00  0.00    -0.352 N 
ATOM     28  C   UNL A   1      32.766  35.634  31.689  1.00  0.00     0.251 C 
ATOM     29  H   UNL A   1      31.865  36.730  30.282  1.00  0.00     0.163 HD
ATOM     30  O   UNL A   1      31.878  35.819  32.525  1.00  0.00    -0.269 OA
BRANCH  28  31
ATOM     31  C   UNL A   1      33.987  34.896  32.078  1.00  0.00     0.039 A 
ATOM     32  C   UNL A   1      35.197  35.589  32.164  1.00  0.00     0.014 A 
ATOM     33  C   UNL A   1      33.953  33.516  32.303  1.00  0.00     0.014 A 
ATOM     34  C   UNL A   1      36.367  34.908  32.506  1.00  0.00     0.010 A 
ATOM     35  C   UNL A   1      35.109  32.848  32.706  1.00  0.00     0.010 A 
ATOM     36  C   UNL A   1      36.330  33.534  32.793  1.00  0.00    -0.014 A 
BRANCH  36  37
ATOM     37  C   UNL A   1      37.569  32.794  33.141  1.00  0.00     0.031 A 
ATOM     38  C   UNL A   1      38.271  33.072  34.441  1.00  0.00     0.074 A 
ATOM     39  C   UNL A   1      38.085  31.904  32.272  1.00  0.00     0.049 A 
ATOM     40  N   UNL A   1      39.376  32.553  34.915  1.00  0.00    -0.248 NA
ATOM     41  C   UNL A   1      37.664  34.088  35.316  1.00  0.00     0.031 C 
ATOM     42  C   UNL A   1      37.522  31.578  30.962  1.00  0.00     0.029 A 
ATOM     43  N   UNL A   1      39.204  31.114  32.361  1.00  0.00    -0.354 N 
ATOM     44  C   UNL A   1      39.606  33.194  36.125  1.00  0.00     0.074 A 
ATOM     45  C   UNL A   1      38.553  34.170  36.294  1.00  0.00     0.031 C 
ATOM     46  C   UNL A   1      38.282  30.636  30.380  1.00  0.00     0.029 A 
ATOM     47  C   UNL A   1      39.399  30.312  31.263  1.00  0.00     0.049 A 
ATOM     48  H   UNL A   1      39.808  31.121  33.138  1.00  0.00     0.167 HD
ATOM     49  C   UNL A   1      40.595  32.974  37.025  1.00  0.00     0.037 A 
ATOM     50  C   UNL A   1      40.368  29.414  31.004  1.00  0.00     0.037 A 
ATOM     51  C   UNL A   1      41.620  31.974  36.873  1.00  0.00     0.049 A 
ATOM     52  C   UNL A   1      41.444  29.175  32.028  1.00  0.00     0.074 A 
ATOM     53  C   UNL A   1      42.621  31.622  37.762  1.00  0.00     0.029 A 
ATOM     54  N   UNL A   1      41.773  31.167  35.756  1.00  0.00    -0.354 N 
ATOM     55  N   UNL A   1      41.608  29.732  33.203  1.00  0.00    -0.248 NA
ATOM     56  C   UNL A   1      42.465  28.172  31.692  1.00  0.00     0.031 C 
ATOM     57  C   UNL A   1      43.403  30.626  37.166  1.00  0.00     0.029 A 
ATOM     58  C   UNL A   1      42.864  30.329  35.925  1.00  0.00     0.049 A 
ATOM     59  H   UNL A   1      41.193  31.186  34.961  1.00  0.00     0.167 HD
ATOM     60  C   UNL A   1      42.726  29.126  33.760  1.00  0.00     0.074 A 
ATOM     61  C   UNL A   1      43.195  28.151  32.798  1.00  0.00     0.031 C 
ATOM     62  C   UNL A   1      43.309  29.355  34.963  1.00  0.00     0.037 A 
BRANCH  49  63
ATOM     63  C   UNL A   1      40.615  33.833  38.256  1.00  0.00     0.064 A 
ATOM     64  C   UNL A   1      39.849  33.517  39.388  1.00  0.00     0.173 A 
ATOM     65  C   UNL A   1      41.431  34.974  38.313  1.00  0.00     0.173 A 
ATOM     66  F   UNL A   1      39.045  32.443  39.380  1.00  0.00    -0.203 F 
ATOM     67  C   UNL A   1      39.873  34.328  40.520  1.00  0.00     0.198 A 
ATOM     68  C   UNL A   1      41.475  35.766  39.458  1.00  0.00     0.198 A 
ATOM     69  F   UNL A   1      42.189  35.318  37.262  1.00  0.00    -0.203 F 
ATOM     70  F   UNL A   1      39.094  34.034  41.570  1.00  0.00    -0.200 F 
ATOM     71  C   UNL A   1      40.690  35.448  40.556  1.00  0.00     0.200 A 
ATOM     72  F   UNL A   1      42.274  36.841  39.496  1.00  0.00    -0.200 F 
ATOM     73  F   UNL A   1      40.716  36.225  41.648  1.00  0.00    -0.200 F 
ENDBRANCH  49  63
BRANCH  50  74
ATOM     74  C   UNL A   1      40.339  28.637  29.739  1.00  0.00     0.064 A 
ATOM     75  C   UNL A   1      39.615  27.439  29.653  1.00  0.00     0.173 A 
ATOM     76  C   UNL A   1      41.029  29.068  28.597  1.00  0.00     0.173 A 
ATOM     77  F   UNL A   1      38.957  26.977  30.726  1.00  0.00    -0.203 F 
ATOM     78  C   UNL A   1      39.599  26.691  28.478  1.00  0.00     0.198 A 
ATOM     79  C   UNL A   1      40.991  28.331  27.415  1.00  0.00     0.198 A 
ATOM     80  F   UNL A   1      41.732  30.209  28.627  1.00  0.00    -0.203 F 
ATOM     81  F   UNL A   1      38.933  25.529  28.436  1.00  0.00    -0.200 F 
ATOM     82  C   UNL A   1      40.282  27.140  27.358  1.00  0.00     0.200 A 
ATOM     83  F   UNL A   1      41.642  28.774  26.330  1.00  0.00    -0.200 F 
ATOM     84  F   UNL A   1      40.263  26.422  26.227  1.00  0.00    -0.200 F 
ENDBRANCH  50  74
BRANCH  62  85
ATOM     85  C   UNL A   1      44.493  28.506  35.323  1.00  0.00     0.064 A 
ATOM     86  C   UNL A   1      45.804  28.906  35.028  1.00  0.00     0.173 A 
ATOM     87  C   UNL A   1      44.312  27.290  36.001  1.00  0.00     0.173 A 
ATOM     88  F   UNL A   1      46.026  30.052  34.367  1.00  0.00    -0.203 F 
ATOM     89  C   UNL A   1      46.890  28.108  35.375  1.00  0.00     0.198 A 
ATOM     90  C   UNL A   1      45.402  26.509  36.371  1.00  0.00     0.198 A 
ATOM     91  F   UNL A   1      43.078  26.866  36.311  1.00  0.00    -0.203 F 
ATOM     92  F   UNL A   1      48.131  28.487  35.041  1.00  0.00    -0.200 F 
ATOM     93  C   UNL A   1      46.689  26.914  36.052  1.00  0.00     0.200 A 
ATOM     94  F   UNL A   1      45.206  25.360  37.034  1.00  0.00    -0.200 F 
ATOM     95  F   UNL A   1      47.736  26.149  36.388  1.00  0.00    -0.200 F 
ENDBRANCH  62  85
ENDBRANCH  36  37
ENDBRANCH  28  31
ENDBRANCH  26  27
ENDBRANCH  25  26
ENDBRANCH  24  25
ENDBRANCH   1  24
TORSDOF 16
ENDMDL
MODEL 3
REMARK VINA RESULT:     -10.1      4.639      8.336
REMARK SMILES C[C@H](C(=O)NCCCCCCNC(=O)c1ccc(-c2c3nc(c(-c4c(F)c(F)c(F)c(F)c4F)c4ccc([nH]4)c(-c4c(F)c(F)c(F)c(F)c4F)c4nc(c(-c5c(F)c(F)c(F)c(F)c5F)c5ccc2[nH]5)C=C4)C=C3)cc1)c1cccc(C(=O)c2ccccc2)c1
REMARK SMILES IDX 8 1 7 2 6 3 5 4 3 5 4 6 2 8 1 9 78 10 79 11 91 12 80 13
REMARK SMILES IDX 82 14 81 15 83 16 84 17 85 18 86 19 90 20 87 21 89 22 88 23
REMARK SMILES IDX 9 24 10 25 11 26 12 27 13 28 14 30 15 31 16 32 77 33 17 34
REMARK SMILES IDX 76 35 18 36 19 37 20 38 70 39 21 40 75 41 69 42 71 43 22 44
REMARK SMILES IDX 74 45 68 46 67 47 23 49 55 50 35 51 54 52 36 53 39 54 53 55
REMARK SMILES IDX 72 56 37 57 38 58 52 60 73 61 40 62 24 63 25 64 33 65 26 66
REMARK SMILES IDX 27 67 31 68 34 69 28 70 29 71 32 72 30 73 56 74 57 75 65 76
REMARK SMILES IDX 58 77 59 78 63 79 66 80 60 81 61 82 64 83 62 84 41 85 42 86
REMARK SMILES IDX 50 87 43 88 44 89 48 90 51 91 45 92 46 93 49 94 47 95
REMARK H PARENT 5 7 12 29 71 48 39 59
REMARK Flexibility Score: inf
ROOT
ATOM      1  C   UNL A   1      34.421  32.677  29.146  1.00  0.00     0.002 C 
ENDROOT
BRANCH   1   2
ATOM      2  C   UNL A   1      34.811  31.681  28.049  1.00  0.00     0.021 C 
BRANCH   2   3
ATOM      3  C   UNL A   1      33.658  30.817  27.536  1.00  0.00     0.116 C 
BRANCH   3   4
ATOM      4  N   UNL A   1      34.072  30.029  26.390  1.00  0.00    -0.356 N 
ATOM      5  C   UNL A   1      33.390  29.115  25.638  1.00  0.00     0.227 C 
ATOM      6  O   UNL A   1      34.056  28.489  24.808  1.00  0.00    -0.274 OA
ATOM      7  H   UNL A   1      35.002  30.177  26.106  1.00  0.00     0.163 HD
BRANCH   5   8
ATOM      8  C   UNL A   1      31.861  28.945  25.742  1.00  0.00     0.105 C 
ATOM      9  C   UNL A   1      31.151  30.082  24.993  1.00  0.00     0.023 C 
BRANCH   8  10
ATOM     10  C   UNL A   1      31.327  27.605  25.256  1.00  0.00    -0.035 A 
ATOM     11  C   UNL A   1      30.630  27.537  24.039  1.00  0.00     0.004 A 
ATOM     12  C   UNL A   1      31.473  26.436  26.022  1.00  0.00     0.016 A 
ATOM     13  C   UNL A   1      30.009  26.355  23.642  1.00  0.00     0.001 A 
ATOM     14  C   UNL A   1      30.810  25.256  25.654  1.00  0.00     0.023 A 
ATOM     15  C   UNL A   1      30.081  25.226  24.457  1.00  0.00     0.012 A 
BRANCH  14  16
ATOM     16  C   UNL A   1      30.811  24.026  26.500  1.00  0.00     0.193 C 
ATOM     17  O   UNL A   1      29.896  23.820  27.293  1.00  0.00    -0.289 OA
BRANCH  16  18
ATOM     18  C   UNL A   1      31.880  23.013  26.401  1.00  0.00     0.022 A 
ATOM     19  C   UNL A   1      32.755  22.877  27.482  1.00  0.00     0.012 A 
ATOM     20  C   UNL A   1      32.046  22.230  25.254  1.00  0.00     0.012 A 
ATOM     21  C   UNL A   1      33.765  21.918  27.435  1.00  0.00     0.001 A 
ATOM     22  C   UNL A   1      33.053  21.266  25.216  1.00  0.00     0.001 A 
ATOM     23  C   UNL A   1      33.908  21.107  26.308  1.00  0.00     0.000 A 
ENDBRANCH  16  18
ENDBRANCH  14  16
ENDBRANCH   8  10
ENDBRANCH   5   8
ENDBRANCH   3   4
ENDBRANCH   2   3
ENDBRANCH   1   2
BRANCH   1  24
ATOM     24  C   UNL A   1      34.461  34.146  28.722  1.00  0.00     0.002 C 
BRANCH  24  25
ATOM     25  C   UNL A   1      33.146  34.912  28.904  1.00  0.00     0.021 C 
BRANCH  25  26
ATOM     26  C   UNL A   1      33.280  36.265  29.599  1.00  0.00     0.116 C 
BRANCH  26  27
ATOM     27  N   UNL A   1      32.464  36.338  30.801  1.00  0.00    -0.352 N 
ATOM     28  C   UNL A   1      32.616  35.684  31.993  1.00  0.00     0.251 C 
ATOM     29  H   UNL A   1      31.692  36.946  30.750  1.00  0.00     0.163 HD
ATOM     30  O   UNL A   1      31.705  35.699  32.825  1.00  0.00    -0.269 OA
BRANCH  28  31
ATOM     31  C   UNL A   1      33.863  34.949  32.296  1.00  0.00     0.039 A 
ATOM     32  C   UNL A   1      33.778  33.616  32.709  1.00  0.00     0.014 A 
ATOM     33  C   UNL A   1      35.108  35.583  32.228  1.00  0.00     0.014 A 
ATOM     34  C   UNL A   1      34.941  32.910  33.023  1.00  0.00     0.010 A 
ATOM     35  C   UNL A   1      36.272  34.859  32.480  1.00  0.00     0.010 A 
ATOM     36  C   UNL A   1      36.199  33.522  32.899  1.00  0.00    -0.014 A 
BRANCH  36  37
ATOM     37  C   UNL A   1      37.442  32.787  33.246  1.00  0.00     0.031 A 
ATOM     38  C   UNL A   1      38.158  33.086  34.533  1.00  0.00     0.074 A 
ATOM     39  C   UNL A   1      37.948  31.883  32.385  1.00  0.00     0.049 A 
ATOM     40  N   UNL A   1      39.268  32.574  35.002  1.00  0.00    -0.248 NA
ATOM     41  C   UNL A   1      37.561  34.116  35.398  1.00  0.00     0.031 C 
ATOM     42  C   UNL A   1      37.370  31.536  31.087  1.00  0.00     0.029 A 
ATOM     43  N   UNL A   1      39.067  31.094  32.475  1.00  0.00    -0.354 N 
ATOM     44  C   UNL A   1      39.512  33.234  36.200  1.00  0.00     0.074 A 
ATOM     45  C   UNL A   1      38.461  34.214  36.364  1.00  0.00     0.031 C 
ATOM     46  C   UNL A   1      38.123  30.585  30.512  1.00  0.00     0.029 A 
ATOM     47  C   UNL A   1      39.250  30.275  31.388  1.00  0.00     0.049 A 
ATOM     48  H   UNL A   1      39.680  31.113  33.244  1.00  0.00     0.167 HD
ATOM     49  C   UNL A   1      40.511  33.029  37.092  1.00  0.00     0.037 A 
ATOM     50  C   UNL A   1      40.216  29.372  31.132  1.00  0.00     0.037 A 
ATOM     51  C   UNL A   1      41.534  32.026  36.945  1.00  0.00     0.049 A 
ATOM     52  C   UNL A   1      41.303  29.149  32.148  1.00  0.00     0.074 A 
ATOM     53  C   UNL A   1      42.544  31.687  37.828  1.00  0.00     0.029 A 
ATOM     54  N   UNL A   1      41.674  31.201  35.840  1.00  0.00    -0.354 N 
ATOM     55  N   UNL A   1      41.480  29.725  33.312  1.00  0.00    -0.248 NA
ATOM     56  C   UNL A   1      42.320  28.140  31.817  1.00  0.00     0.031 C 
ATOM     57  C   UNL A   1      43.320  30.682  37.240  1.00  0.00     0.029 A 
ATOM     58  C   UNL A   1      42.766  30.365  36.010  1.00  0.00     0.049 A 
ATOM     59  H   UNL A   1      41.085  31.207  35.051  1.00  0.00     0.167 HD
ATOM     60  C   UNL A   1      42.604  29.127  33.866  1.00  0.00     0.074 A 
ATOM     61  C   UNL A   1      43.062  28.136  32.915  1.00  0.00     0.031 C 
ATOM     62  C   UNL A   1      43.200  29.375  35.058  1.00  0.00     0.037 A 
BRANCH  49  63
ATOM     63  C   UNL A   1      40.545  33.907  38.308  1.00  0.00     0.064 A 
ATOM     64  C   UNL A   1      41.297  35.091  38.343  1.00  0.00     0.173 A 
ATOM     65  C   UNL A   1      39.793  33.575  39.446  1.00  0.00     0.173 A 
ATOM     66  F   UNL A   1      42.041  35.448  37.286  1.00  0.00    -0.203 F 
ATOM     67  C   UNL A   1      41.324  35.892  39.482  1.00  0.00     0.198 A 
ATOM     68  C   UNL A   1      39.798  34.394  40.573  1.00  0.00     0.198 A 
ATOM     69  F   UNL A   1      39.049  32.459  39.464  1.00  0.00    -0.203 F 
ATOM     70  F   UNL A   1      42.090  36.990  39.509  1.00  0.00    -0.200 F 
ATOM     71  C   UNL A   1      40.570  35.546  40.593  1.00  0.00     0.200 A 
ATOM     72  F   UNL A   1      39.059  34.065  41.641  1.00  0.00    -0.200 F 
ATOM     73  F   UNL A   1      40.592  36.320  41.687  1.00  0.00    -0.200 F 
ENDBRANCH  49  63
BRANCH  50  74
ATOM     74  C   UNL A   1      40.173  28.575  29.880  1.00  0.00     0.064 A 
ATOM     75  C   UNL A   1      39.521  27.334  29.846  1.00  0.00     0.173 A 
ATOM     76  C   UNL A   1      40.777  29.029  28.699  1.00  0.00     0.173 A 
ATOM     77  F   UNL A   1      38.947  26.849  30.957  1.00  0.00    -0.203 F 
ATOM     78  C   UNL A   1      39.493  26.567  28.683  1.00  0.00     0.198 A 
ATOM     79  C   UNL A   1      40.726  28.273  27.530  1.00  0.00     0.198 A 
ATOM     80  F   UNL A   1      41.408  30.211  28.679  1.00  0.00    -0.203 F 
ATOM     81  F   UNL A   1      38.900  25.367  28.690  1.00  0.00    -0.200 F 
ATOM     82  C   UNL A   1      40.091  27.040  27.524  1.00  0.00     0.200 A 
ATOM     83  F   UNL A   1      41.294  28.737  26.409  1.00  0.00    -0.200 F 
ATOM     84  F   UNL A   1      40.060  26.304  26.405  1.00  0.00    -0.200 F 
ENDBRANCH  50  74
BRANCH  62  85
ATOM     85  C   UNL A   1      44.388  28.531  35.419  1.00  0.00     0.064 A 
ATOM     86  C   UNL A   1      44.248  27.318  36.108  1.00  0.00     0.173 A 
ATOM     87  C   UNL A   1      45.680  28.929  35.040  1.00  0.00     0.173 A 
ATOM     88  F   UNL A   1      43.035  26.904  36.505  1.00  0.00    -0.203 F 
ATOM     89  C   UNL A   1      45.361  26.547  36.430  1.00  0.00     0.198 A 
ATOM     90  C   UNL A   1      46.786  28.141  35.339  1.00  0.00     0.198 A 
ATOM     91  F   UNL A   1      45.865  30.078  34.374  1.00  0.00    -0.203 F 
ATOM     92  F   UNL A   1      45.210  25.415  37.131  1.00  0.00    -0.200 F 
ATOM     93  C   UNL A   1      46.628  26.955  36.039  1.00  0.00     0.200 A 
ATOM     94  F   UNL A   1      48.009  28.532  34.951  1.00  0.00    -0.200 F 
ATOM     95  F   UNL A   1      47.698  26.209  36.347  1.00  0.00    -0.200 F 
ENDBRANCH  62  85
ENDBRANCH  36  37
ENDBRANCH  28  31
ENDBRANCH  26  27
ENDBRANCH  25  26
ENDBRANCH  24  25
ENDBRANCH   1  24
TORSDOF 16
ENDMDL
