MODEL 1
REMARK VINA RESULT:     -12.8      0.000      0.000
REMARK SMILES COc1ccc(C)cc1[C@@H](C)NC(=O)CC1(C(=O)NCCCCCCNC(=O)c2ccc(-c3c4nc(c(-c5c(F)c(F)c(F)c(F)c5F)c5ccc([nH]5)c(-c5c(F)c(F)c(F)c(F)c5F)c5nc(c(-c6c(F)c(F)c(F)c(F)c6F)c6ccc3[nH]6)C=C5)C=C4)cc2)CCCC1
REMARK SMILES IDX 21 1 20 2 19 3 17 4 18 5 16 7 92 8 95 9 93 10 94 11 15 12
REMARK SMILES IDX 13 13 12 14 14 16 10 17 11 18 9 19 3 20 4 21 5 22 8 23 6 24
REMARK SMILES IDX 7 25 2 26 1 27 22 28 23 29 24 30 25 31 26 32 27 33 28 35
REMARK SMILES IDX 29 36 30 37 91 38 31 39 90 40 32 41 33 42 34 43 84 44 35 45
REMARK SMILES IDX 89 46 83 47 85 48 36 49 88 50 82 51 81 52 37 54 69 55 49 56
REMARK SMILES IDX 68 57 50 58 53 59 67 60 86 61 51 62 52 63 66 65 87 66 54 67
REMARK SMILES IDX 38 68 39 69 47 70 40 71 41 72 45 73 48 74 42 75 43 76 46 77
REMARK SMILES IDX 44 78 70 79 71 80 79 81 72 82 73 83 77 84 80 85 74 86 75 87
REMARK SMILES IDX 78 88 76 89 55 90 56 91 64 92 57 93 58 94 62 95 65 96 59 97
REMARK SMILES IDX 60 98 63 99 61 100
REMARK H PARENT 19 6 12 15 26 34 85 53 53 64
REMARK Flexibility Score: inf
ROOT
ATOM      1  C   UNL A   1      36.570  19.624  24.710  1.00  0.00     0.021 C 
ENDROOT
BRANCH   1   2
ATOM      2  C   UNL A   1      35.559  20.616  25.292  1.00  0.00     0.116 C 
BRANCH   2   3
ATOM      3  N   UNL A   1      34.197  20.165  25.124  1.00  0.00    -0.356 N 
ATOM      4  C   UNL A   1      32.997  20.795  25.123  1.00  0.00     0.226 C 
ATOM      5  O   UNL A   1      32.048  20.035  25.345  1.00  0.00    -0.274 OA
ATOM      6  H   UNL A   1      34.125  19.194  24.981  1.00  0.00     0.163 HD
BRANCH   4   7
ATOM      7  C   UNL A   1      32.764  22.329  24.971  1.00  0.00     0.058 C 
ATOM      8  C   UNL A   1      33.571  23.248  25.916  1.00  0.00     0.017 C 
ATOM      9  C   UNL A   1      31.291  22.645  25.338  1.00  0.00     0.017 C 
ATOM     10  C   UNL A   1      32.635  23.757  27.013  1.00  0.00     0.001 C 
ATOM     11  C   UNL A   1      31.280  23.113  26.782  1.00  0.00     0.001 C 
BRANCH   7  12
ATOM     12  C   UNL A   1      33.024  22.794  23.486  1.00  0.00     0.117 C 
BRANCH  12  13
ATOM     13  C   UNL A   1      34.273  23.586  23.143  1.00  0.00     0.221 C 
ATOM     14  N   UNL A   1      34.202  24.929  22.945  1.00  0.00    -0.349 N 
ATOM     15  H   UNL A   1      35.067  25.374  22.796  1.00  0.00     0.164 HD
ATOM     16  O   UNL A   1      35.353  23.019  22.964  1.00  0.00    -0.275 OA
BRANCH  14  17
ATOM     17  C   UNL A   1      33.044  25.814  22.917  1.00  0.00     0.113 C 
ATOM     18  C   UNL A   1      33.305  26.951  21.928  1.00  0.00     0.036 C 
BRANCH  17  19
ATOM     19  C   UNL A   1      32.695  26.393  24.282  1.00  0.00     0.016 A 
ATOM     20  C   UNL A   1      31.377  26.302  24.772  1.00  0.00     0.124 A 
ATOM     21  C   UNL A   1      31.036  26.944  25.966  1.00  0.00     0.047 A 
ATOM     22  C   UNL A   1      31.999  27.631  26.708  1.00  0.00     0.007 A 
ATOM     23  C   UNL A   1      33.650  27.106  25.036  1.00  0.00     0.013 A 
ATOM     24  C   UNL A   1      33.316  27.707  26.256  1.00  0.00    -0.051 A 
ATOM     25  C   UNL A   1      34.337  28.503  27.015  1.00  0.00     0.044 C 
BRANCH  20  26
ATOM     26  O   UNL A   1      30.492  25.593  24.001  1.00  0.00    -0.496 OA
ATOM     27  C   UNL A   1      29.141  26.037  23.969  1.00  0.00     0.278 C 
ENDBRANCH  20  26
ENDBRANCH  17  19
ENDBRANCH  14  17
ENDBRANCH  12  13
ENDBRANCH   7  12
ENDBRANCH   4   7
ENDBRANCH   2   3
ENDBRANCH   1   2
BRANCH   1  28
ATOM     28  C   UNL A   1      38.046  19.969  24.934  1.00  0.00     0.002 C 
BRANCH  28  29
ATOM     29  C   UNL A   1      38.364  21.371  25.478  1.00  0.00     0.002 C 
BRANCH  29  30
ATOM     30  C   UNL A   1      39.630  21.533  26.319  1.00  0.00     0.021 C 
BRANCH  30  31
ATOM     31  C   UNL A   1      39.957  22.969  26.696  1.00  0.00     0.116 C 
BRANCH  31  32
ATOM     32  N   UNL A   1      41.277  23.432  26.288  1.00  0.00    -0.352 N 
ATOM     33  C   UNL A   1      41.699  24.745  26.125  1.00  0.00     0.251 C 
ATOM     34  H   UNL A   1      41.947  22.733  26.106  1.00  0.00     0.163 HD
ATOM     35  O   UNL A   1      42.822  25.010  25.734  1.00  0.00    -0.269 OA
BRANCH  33  36
ATOM     36  C   UNL A   1      40.777  25.820  26.562  1.00  0.00     0.039 A 
ATOM     37  C   UNL A   1      40.999  27.104  26.062  1.00  0.00     0.014 A 
ATOM     38  C   UNL A   1      39.939  25.614  27.658  1.00  0.00     0.014 A 
ATOM     39  C   UNL A   1      40.589  28.201  26.815  1.00  0.00     0.010 A 
ATOM     40  C   UNL A   1      39.607  26.700  28.449  1.00  0.00     0.010 A 
ATOM     41  C   UNL A   1      39.997  27.989  28.064  1.00  0.00    -0.014 A 
BRANCH  41  42
ATOM     42  C   UNL A   1      39.881  29.055  29.056  1.00  0.00     0.031 A 
ATOM     43  C   UNL A   1      38.815  30.070  28.951  1.00  0.00     0.074 A 
ATOM     44  C   UNL A   1      40.775  29.172  30.065  1.00  0.00     0.049 A 
ATOM     45  N   UNL A   1      38.986  31.319  29.240  1.00  0.00    -0.248 NA
ATOM     46  C   UNL A   1      37.471  29.756  28.485  1.00  0.00     0.031 C 
ATOM     47  C   UNL A   1      40.693  30.084  31.203  1.00  0.00     0.029 A 
ATOM     48  N   UNL A   1      42.056  28.607  30.160  1.00  0.00    -0.354 N 
ATOM     49  C   UNL A   1      37.747  31.913  29.247  1.00  0.00     0.074 A 
ATOM     50  C   UNL A   1      36.845  30.917  28.707  1.00  0.00     0.031 C 
ATOM     51  C   UNL A   1      41.922  30.257  31.711  1.00  0.00     0.029 A 
ATOM     52  C   UNL A   1      42.854  29.544  30.859  1.00  0.00     0.049 A 
ATOM     53  H   UNL A   1      42.343  27.733  29.811  1.00  0.00     0.167 HD
ATOM     54  C   UNL A   1      37.572  33.133  29.833  1.00  0.00     0.037 A 
ATOM     55  C   UNL A   1      44.007  30.053  30.339  1.00  0.00     0.037 A 
ATOM     56  C   UNL A   1      38.799  33.633  30.441  1.00  0.00     0.049 A 
ATOM     57  C   UNL A   1      44.017  31.554  30.201  1.00  0.00     0.074 A 
ATOM     58  C   UNL A   1      39.267  33.588  31.744  1.00  0.00     0.029 A 
ATOM     59  N   UNL A   1      39.876  34.013  29.648  1.00  0.00    -0.354 N 
ATOM     60  N   UNL A   1      42.951  32.294  30.313  1.00  0.00    -0.248 NA
ATOM     61  C   UNL A   1      45.201  32.327  29.832  1.00  0.00     0.031 C 
ATOM     62  C   UNL A   1      40.638  33.927  31.735  1.00  0.00     0.029 A 
ATOM     63  C   UNL A   1      41.009  34.176  30.426  1.00  0.00     0.049 A 
ATOM     64  H   UNL A   1      39.839  34.148  28.675  1.00  0.00     0.167 HD
ATOM     65  C   UNL A   1      43.256  33.579  29.950  1.00  0.00     0.074 A 
ATOM     66  C   UNL A   1      44.684  33.561  29.705  1.00  0.00     0.031 C 
ATOM     67  C   UNL A   1      42.289  34.535  29.840  1.00  0.00     0.037 A 
BRANCH  54  68
ATOM     68  C   UNL A   1      36.201  33.692  30.125  1.00  0.00     0.064 A 
ATOM     69  C   UNL A   1      35.373  34.194  29.099  1.00  0.00     0.173 A 
ATOM     70  C   UNL A   1      35.673  33.803  31.424  1.00  0.00     0.173 A 
ATOM     71  F   UNL A   1      35.690  34.051  27.806  1.00  0.00    -0.203 F 
ATOM     72  C   UNL A   1      34.185  34.879  29.364  1.00  0.00     0.198 A 
ATOM     73  C   UNL A   1      34.512  34.536  31.695  1.00  0.00     0.198 A 
ATOM     74  F   UNL A   1      36.263  33.190  32.461  1.00  0.00    -0.203 F 
ATOM     75  F   UNL A   1      33.451  35.354  28.349  1.00  0.00    -0.200 F 
ATOM     76  C   UNL A   1      33.778  35.088  30.665  1.00  0.00     0.200 A 
ATOM     77  F   UNL A   1      34.120  34.714  32.965  1.00  0.00    -0.200 F 
ATOM     78  F   UNL A   1      32.674  35.802  30.923  1.00  0.00    -0.200 F 
ENDBRANCH  54  68
BRANCH  55  79
ATOM     79  C   UNL A   1      44.677  29.119  29.400  1.00  0.00     0.064 A 
ATOM     80  C   UNL A   1      45.393  28.037  29.943  1.00  0.00     0.173 A 
ATOM     81  C   UNL A   1      44.281  29.039  28.060  1.00  0.00     0.173 A 
ATOM     82  F   UNL A   1      45.799  28.075  31.222  1.00  0.00    -0.203 F 
ATOM     83  C   UNL A   1      45.569  26.860  29.222  1.00  0.00     0.198 A 
ATOM     84  C   UNL A   1      44.479  27.865  27.335  1.00  0.00     0.198 A 
ATOM     85  F   UNL A   1      43.594  30.041  27.494  1.00  0.00    -0.203 F 
ATOM     86  F   UNL A   1      46.130  25.794  29.811  1.00  0.00    -0.200 F 
ATOM     87  C   UNL A   1      45.078  26.764  27.931  1.00  0.00     0.200 A 
ATOM     88  F   UNL A   1      43.998  27.766  26.088  1.00  0.00    -0.200 F 
ATOM     89  F   UNL A   1      45.145  25.595  27.276  1.00  0.00    -0.200 F 
ENDBRANCH  55  79
BRANCH  67  90
ATOM     90  C   UNL A   1      42.487  35.913  29.268  1.00  0.00     0.064 A 
ATOM     91  C   UNL A   1      41.910  36.349  28.064  1.00  0.00     0.173 A 
ATOM     92  C   UNL A   1      43.193  36.896  30.000  1.00  0.00     0.173 A 
ATOM     93  F   UNL A   1      41.112  35.546  27.346  1.00  0.00    -0.203 F 
ATOM     94  C   UNL A   1      42.095  37.648  27.584  1.00  0.00     0.198 A 
ATOM     95  C   UNL A   1      43.332  38.206  29.545  1.00  0.00     0.198 A 
ATOM     96  F   UNL A   1      43.752  36.612  31.186  1.00  0.00    -0.203 F 
ATOM     97  F   UNL A   1      41.566  38.002  26.404  1.00  0.00    -0.200 F 
ATOM     98  C   UNL A   1      42.801  38.577  28.327  1.00  0.00     0.200 A 
ATOM     99  F   UNL A   1      43.971  39.109  30.301  1.00  0.00    -0.200 F 
ATOM    100  F   UNL A   1      42.949  39.831  27.879  1.00  0.00    -0.200 F 
ENDBRANCH  67  90
ENDBRANCH  41  42
ENDBRANCH  33  36
ENDBRANCH  31  32
ENDBRANCH  30  31
ENDBRANCH  29  30
ENDBRANCH  28  29
ENDBRANCH   1  28
TORSDOF 18
ENDMDL
MODEL 2
REMARK VINA RESULT:     -12.2      3.501      9.548
REMARK SMILES COc1ccc(C)cc1[C@@H](C)NC(=O)CC1(C(=O)NCCCCCCNC(=O)c2ccc(-c3c4nc(c(-c5c(F)c(F)c(F)c(F)c5F)c5ccc([nH]5)c(-c5c(F)c(F)c(F)c(F)c5F)c5nc(c(-c6c(F)c(F)c(F)c(F)c6F)c6ccc3[nH]6)C=C5)C=C4)cc2)CCCC1
REMARK SMILES IDX 21 1 20 2 19 3 17 4 18 5 16 7 92 8 95 9 93 10 94 11 15 12
REMARK SMILES IDX 13 13 12 14 14 16 10 17 11 18 9 19 3 20 4 21 5 22 8 23 6 24
REMARK SMILES IDX 7 25 2 26 1 27 22 28 23 29 24 30 25 31 26 32 27 33 28 35
REMARK SMILES IDX 29 36 30 37 91 38 31 39 90 40 32 41 33 42 34 43 84 44 35 45
REMARK SMILES IDX 89 46 83 47 85 48 36 49 88 50 82 51 81 52 37 54 69 55 49 56
REMARK SMILES IDX 68 57 50 58 53 59 67 60 86 61 51 62 52 63 66 65 87 66 54 67
REMARK SMILES IDX 38 68 39 69 47 70 40 71 41 72 45 73 48 74 42 75 43 76 46 77
REMARK SMILES IDX 44 78 70 79 71 80 79 81 72 82 73 83 77 84 80 85 74 86 75 87
REMARK SMILES IDX 78 88 76 89 55 90 56 91 64 92 57 93 58 94 62 95 65 96 59 97
REMARK SMILES IDX 60 98 63 99 61 100
REMARK H PARENT 19 6 12 15 26 34 85 53 53 64
REMARK Flexibility Score: inf
ROOT
ATOM      1  C   UNL A   1      32.750  27.677  26.153  1.00  0.00     0.021 C 
ENDROOT
BRANCH   1   2
ATOM      2  C   UNL A   1      34.103  27.293  25.544  1.00  0.00     0.116 C 
BRANCH   2   3
ATOM      3  N   UNL A   1      33.954  26.472  24.365  1.00  0.00    -0.356 N 
ATOM      4  C   UNL A   1      34.321  25.204  24.056  1.00  0.00     0.226 C 
ATOM      5  O   UNL A   1      34.373  24.996  22.838  1.00  0.00    -0.274 OA
ATOM      6  H   UNL A   1      33.486  26.930  23.630  1.00  0.00     0.163 HD
BRANCH   4   7
ATOM      7  C   UNL A   1      34.751  24.100  25.068  1.00  0.00     0.058 C 
ATOM      8  C   UNL A   1      36.098  24.315  25.795  1.00  0.00     0.017 C 
ATOM      9  C   UNL A   1      34.974  22.776  24.290  1.00  0.00     0.017 C 
ATOM     10  C   UNL A   1      37.142  23.392  25.166  1.00  0.00     0.001 C 
ATOM     11  C   UNL A   1      36.463  22.658  24.024  1.00  0.00     0.001 C 
BRANCH   7  12
ATOM     12  C   UNL A   1      33.632  23.864  26.153  1.00  0.00     0.117 C 
BRANCH  12  13
ATOM     13  C   UNL A   1      33.442  22.487  26.765  1.00  0.00     0.221 C 
ATOM     14  N   UNL A   1      32.474  21.655  26.298  1.00  0.00    -0.349 N 
ATOM     15  H   UNL A   1      32.465  20.758  26.703  1.00  0.00     0.164 HD
ATOM     16  O   UNL A   1      34.108  22.129  27.740  1.00  0.00    -0.275 OA
BRANCH  14  17
ATOM     17  C   UNL A   1      31.444  21.885  25.292  1.00  0.00     0.113 C 
ATOM     18  C   UNL A   1      31.992  21.504  23.916  1.00  0.00     0.036 C 
BRANCH  17  19
ATOM     19  C   UNL A   1      30.941  23.322  25.263  1.00  0.00     0.016 A 
ATOM     20  C   UNL A   1      30.223  23.842  26.359  1.00  0.00     0.124 A 
ATOM     21  C   UNL A   1      29.656  25.117  26.274  1.00  0.00     0.047 A 
ATOM     22  C   UNL A   1      29.838  25.904  25.135  1.00  0.00     0.007 A 
ATOM     23  C   UNL A   1      31.098  24.125  24.115  1.00  0.00     0.013 A 
ATOM     24  C   UNL A   1      30.570  25.421  24.052  1.00  0.00    -0.051 A 
ATOM     25  C   UNL A   1      30.708  26.237  22.800  1.00  0.00     0.044 C 
BRANCH  20  26
ATOM     26  O   UNL A   1      30.104  23.019  27.450  1.00  0.00    -0.496 OA
ATOM     27  C   UNL A   1      28.839  22.414  27.687  1.00  0.00     0.278 C 
ENDBRANCH  20  26
ENDBRANCH  17  19
ENDBRANCH  14  17
ENDBRANCH  12  13
ENDBRANCH   7  12
ENDBRANCH   4   7
ENDBRANCH   2   3
ENDBRANCH   1   2
BRANCH   1  28
ATOM     28  C   UNL A   1      31.951  28.735  25.384  1.00  0.00     0.002 C 
BRANCH  28  29
ATOM     29  C   UNL A   1      32.007  30.178  25.912  1.00  0.00     0.002 C 
BRANCH  29  30
ATOM     30  C   UNL A   1      32.594  30.397  27.307  1.00  0.00     0.021 C 
BRANCH  30  31
ATOM     31  C   UNL A   1      34.010  30.950  27.314  1.00  0.00     0.116 C 
BRANCH  31  32
ATOM     32  N   UNL A   1      34.396  31.647  28.535  1.00  0.00    -0.352 N 
ATOM     33  C   UNL A   1      35.331  31.243  29.479  1.00  0.00     0.251 C 
ATOM     34  H   UNL A   1      33.942  32.503  28.710  1.00  0.00     0.163 HD
ATOM     35  O   UNL A   1      35.539  31.892  30.489  1.00  0.00    -0.269 OA
BRANCH  33  36
ATOM     36  C   UNL A   1      36.160  30.057  29.158  1.00  0.00     0.039 A 
ATOM     37  C   UNL A   1      36.717  29.351  30.225  1.00  0.00     0.014 A 
ATOM     38  C   UNL A   1      36.613  29.857  27.854  1.00  0.00     0.014 A 
ATOM     39  C   UNL A   1      37.897  28.641  30.021  1.00  0.00     0.010 A 
ATOM     40  C   UNL A   1      37.829  29.224  27.667  1.00  0.00     0.010 A 
ATOM     41  C   UNL A   1      38.508  28.679  28.764  1.00  0.00    -0.014 A 
BRANCH  41  42
ATOM     42  C   UNL A   1      39.900  28.283  28.568  1.00  0.00     0.031 A 
ATOM     43  C   UNL A   1      40.248  26.886  28.242  1.00  0.00     0.074 A 
ATOM     44  C   UNL A   1      40.909  29.170  28.730  1.00  0.00     0.049 A 
ATOM     45  N   UNL A   1      41.290  26.281  28.712  1.00  0.00    -0.248 NA
ATOM     46  C   UNL A   1      39.429  26.051  27.375  1.00  0.00     0.031 C 
ATOM     47  C   UNL A   1      42.320  28.955  28.418  1.00  0.00     0.029 A 
ATOM     48  N   UNL A   1      40.883  30.403  29.400  1.00  0.00    -0.354 N 
ATOM     49  C   UNL A   1      41.420  25.095  28.030  1.00  0.00     0.074 A 
ATOM     50  C   UNL A   1      40.203  24.967  27.256  1.00  0.00     0.031 C 
ATOM     51  C   UNL A   1      43.059  29.825  29.122  1.00  0.00     0.029 A 
ATOM     52  C   UNL A   1      42.160  30.566  29.987  1.00  0.00     0.049 A 
ATOM     53  H   UNL A   1      40.127  31.031  29.451  1.00  0.00     0.167 HD
ATOM     54  C   UNL A   1      42.595  24.403  28.072  1.00  0.00     0.037 A 
ATOM     55  C   UNL A   1      42.329  30.767  31.325  1.00  0.00     0.037 A 
ATOM     56  C   UNL A   1      43.615  25.094  28.850  1.00  0.00     0.049 A 
ATOM     57  C   UNL A   1      43.179  29.726  32.007  1.00  0.00     0.074 A 
ATOM     58  C   UNL A   1      44.654  25.929  28.474  1.00  0.00     0.029 A 
ATOM     59  N   UNL A   1      43.483  25.226  30.228  1.00  0.00    -0.354 N 
ATOM     60  N   UNL A   1      43.515  28.595  31.455  1.00  0.00    -0.248 NA
ATOM     61  C   UNL A   1      43.634  29.831  33.392  1.00  0.00     0.031 C 
ATOM     62  C   UNL A   1      45.141  26.581  29.628  1.00  0.00     0.029 A 
ATOM     63  C   UNL A   1      44.397  26.147  30.710  1.00  0.00     0.049 A 
ATOM     64  H   UNL A   1      42.834  24.736  30.781  1.00  0.00     0.167 HD
ATOM     65  C   UNL A   1      44.120  27.800  32.391  1.00  0.00     0.074 A 
ATOM     66  C   UNL A   1      44.216  28.633  33.573  1.00  0.00     0.031 C 
ATOM     67  C   UNL A   1      44.447  26.503  32.119  1.00  0.00     0.037 A 
BRANCH  54  68
ATOM     68  C   UNL A   1      42.889  23.266  27.123  1.00  0.00     0.064 A 
ATOM     69  C   UNL A   1      42.340  21.980  27.317  1.00  0.00     0.173 A 
ATOM     70  C   UNL A   1      43.757  23.383  26.023  1.00  0.00     0.173 A 
ATOM     71  F   UNL A   1      41.409  21.747  28.250  1.00  0.00    -0.203 F 
ATOM     72  C   UNL A   1      42.741  20.875  26.563  1.00  0.00     0.198 A 
ATOM     73  C   UNL A   1      44.200  22.268  25.303  1.00  0.00     0.198 A 
ATOM     74  F   UNL A   1      44.187  24.585  25.611  1.00  0.00    -0.203 F 
ATOM     75  F   UNL A   1      42.201  19.673  26.808  1.00  0.00    -0.200 F 
ATOM     76  C   UNL A   1      43.704  21.012  25.585  1.00  0.00     0.200 A 
ATOM     77  F   UNL A   1      45.123  22.421  24.343  1.00  0.00    -0.200 F 
ATOM     78  F   UNL A   1      44.137  19.940  24.907  1.00  0.00    -0.200 F 
ENDBRANCH  54  68
BRANCH  55  79
ATOM     79  C   UNL A   1      41.173  31.451  31.954  1.00  0.00     0.064 A 
ATOM     80  C   UNL A   1      40.216  30.659  32.614  1.00  0.00     0.173 A 
ATOM     81  C   UNL A   1      41.226  32.814  32.267  1.00  0.00     0.173 A 
ATOM     82  F   UNL A   1      40.124  29.348  32.339  1.00  0.00    -0.203 F 
ATOM     83  C   UNL A   1      39.451  31.176  33.655  1.00  0.00     0.198 A 
ATOM     84  C   UNL A   1      40.442  33.333  33.297  1.00  0.00     0.198 A 
ATOM     85  F   UNL A   1      42.120  33.614  31.670  1.00  0.00    -0.203 F 
ATOM     86  F   UNL A   1      38.649  30.366  34.361  1.00  0.00    -0.200 F 
ATOM     87  C   UNL A   1      39.593  32.505  34.019  1.00  0.00     0.200 A 
ATOM     88  F   UNL A   1      40.583  34.616  33.657  1.00  0.00    -0.200 F 
ATOM     89  F   UNL A   1      38.943  32.976  35.093  1.00  0.00    -0.200 F 
ENDBRANCH  55  79
BRANCH  67  90
ATOM     90  C   UNL A   1      44.933  25.497  33.125  1.00  0.00     0.064 A 
ATOM     91  C   UNL A   1      46.260  25.041  33.196  1.00  0.00     0.173 A 
ATOM     92  C   UNL A   1      44.072  25.038  34.150  1.00  0.00     0.173 A 
ATOM     93  F   UNL A   1      47.199  25.504  32.359  1.00  0.00    -0.203 F 
ATOM     94  C   UNL A   1      46.676  24.128  34.168  1.00  0.00     0.198 A 
ATOM     95  C   UNL A   1      44.503  24.168  35.150  1.00  0.00     0.198 A 
ATOM     96  F   UNL A   1      42.793  25.438  34.215  1.00  0.00    -0.203 F 
ATOM     97  F   UNL A   1      47.940  23.683  34.164  1.00  0.00    -0.200 F 
ATOM     98  C   UNL A   1      45.799  23.696  35.148  1.00  0.00     0.200 A 
ATOM     99  F   UNL A   1      43.658  23.802  36.123  1.00  0.00    -0.200 F 
ATOM    100  F   UNL A   1      46.210  22.845  36.097  1.00  0.00    -0.200 F 
ENDBRANCH  67  90
ENDBRANCH  41  42
ENDBRANCH  33  36
ENDBRANCH  31  32
ENDBRANCH  30  31
ENDBRANCH  29  30
ENDBRANCH  28  29
ENDBRANCH   1  28
TORSDOF 18
ENDMDL
MODEL 3
REMARK VINA RESULT:     -12.2      3.436      9.892
REMARK SMILES COc1ccc(C)cc1[C@@H](C)NC(=O)CC1(C(=O)NCCCCCCNC(=O)c2ccc(-c3c4nc(c(-c5c(F)c(F)c(F)c(F)c5F)c5ccc([nH]5)c(-c5c(F)c(F)c(F)c(F)c5F)c5nc(c(-c6c(F)c(F)c(F)c(F)c6F)c6ccc3[nH]6)C=C5)C=C4)cc2)CCCC1
REMARK SMILES IDX 21 1 20 2 19 3 17 4 18 5 16 7 92 8 95 9 93 10 94 11 15 12
REMARK SMILES IDX 13 13 12 14 14 16 10 17 11 18 9 19 3 20 4 21 5 22 8 23 6 24
REMARK SMILES IDX 7 25 2 26 1 27 22 28 23 29 24 30 25 31 26 32 27 33 28 35
REMARK SMILES IDX 29 36 30 37 91 38 31 39 90 40 32 41 33 42 34 43 84 44 35 45
REMARK SMILES IDX 89 46 83 47 85 48 36 49 88 50 82 51 81 52 37 54 69 55 49 56
REMARK SMILES IDX 68 57 50 58 53 59 67 60 86 61 51 62 52 63 66 65 87 66 54 67
REMARK SMILES IDX 38 68 39 69 47 70 40 71 41 72 45 73 48 74 42 75 43 76 46 77
REMARK SMILES IDX 44 78 70 79 71 80 79 81 72 82 73 83 77 84 80 85 74 86 75 87
REMARK SMILES IDX 78 88 76 89 55 90 56 91 64 92 57 93 58 94 62 95 65 96 59 97
REMARK SMILES IDX 60 98 63 99 61 100
REMARK H PARENT 19 6 12 15 26 34 85 53 53 64
REMARK Flexibility Score: inf
ROOT
ATOM      1  C   UNL A   1      33.250  29.056  24.806  1.00  0.00     0.021 C 
ENDROOT
BRANCH   1   2
ATOM      2  C   UNL A   1      33.799  27.977  25.745  1.00  0.00     0.116 C 
BRANCH   2   3
ATOM      3  N   UNL A   1      32.753  27.341  26.511  1.00  0.00    -0.356 N 
ATOM      4  C   UNL A   1      32.044  26.196  26.355  1.00  0.00     0.226 C 
ATOM      5  O   UNL A   1      30.982  26.191  26.988  1.00  0.00    -0.274 OA
ATOM      6  H   UNL A   1      32.503  27.845  27.318  1.00  0.00     0.163 HD
BRANCH   4   7
ATOM      7  C   UNL A   1      32.409  25.010  25.412  1.00  0.00     0.058 C 
ATOM      8  C   UNL A   1      33.698  25.165  24.574  1.00  0.00     0.017 C 
ATOM      9  C   UNL A   1      31.300  24.874  24.337  1.00  0.00     0.017 C 
ATOM     10  C   UNL A   1      33.304  25.489  23.132  1.00  0.00     0.001 C 
ATOM     11  C   UNL A   1      31.790  25.591  23.092  1.00  0.00     0.001 C 
BRANCH   7  12
ATOM     12  C   UNL A   1      32.500  23.657  26.217  1.00  0.00     0.117 C 
BRANCH  12  13
ATOM     13  C   UNL A   1      31.462  22.570  26.001  1.00  0.00     0.221 C 
ATOM     14  N   UNL A   1      31.653  21.616  25.053  1.00  0.00    -0.349 N 
ATOM     15  H   UNL A   1      30.966  20.911  25.028  1.00  0.00     0.164 HD
ATOM     16  O   UNL A   1      30.398  22.578  26.626  1.00  0.00    -0.275 OA
BRANCH  14  17
ATOM     17  C   UNL A   1      32.715  21.473  24.066  1.00  0.00     0.113 C 
ATOM     18  C   UNL A   1      32.095  21.379  22.670  1.00  0.00     0.036 C 
BRANCH  17  19
ATOM     19  C   UNL A   1      33.608  20.264  24.312  1.00  0.00     0.016 A 
ATOM     20  C   UNL A   1      34.916  20.440  24.808  1.00  0.00     0.124 A 
ATOM     21  C   UNL A   1      35.771  19.339  24.912  1.00  0.00     0.047 A 
ATOM     22  C   UNL A   1      35.328  18.057  24.581  1.00  0.00     0.007 A 
ATOM     23  C   UNL A   1      33.185  18.963  23.966  1.00  0.00     0.013 A 
ATOM     24  C   UNL A   1      34.029  17.856  24.117  1.00  0.00    -0.051 A 
ATOM     25  C   UNL A   1      33.573  16.490  23.695  1.00  0.00     0.044 C 
BRANCH  20  26
ATOM     26  O   UNL A   1      35.272  21.723  25.132  1.00  0.00    -0.496 OA
ATOM     27  C   UNL A   1      36.511  22.212  24.631  1.00  0.00     0.278 C 
ENDBRANCH  20  26
ENDBRANCH  17  19
ENDBRANCH  14  17
ENDBRANCH  12  13
ENDBRANCH   7  12
ENDBRANCH   4   7
ENDBRANCH   2   3
ENDBRANCH   1   2
BRANCH   1  28
ATOM     28  C   UNL A   1      31.928  29.701  25.235  1.00  0.00     0.002 C 
BRANCH  28  29
ATOM     29  C   UNL A   1      32.011  30.896  26.200  1.00  0.00     0.002 C 
BRANCH  29  30
ATOM     30  C   UNL A   1      32.805  30.705  27.493  1.00  0.00     0.021 C 
BRANCH  30  31
ATOM     31  C   UNL A   1      34.197  31.315  27.472  1.00  0.00     0.116 C 
BRANCH  31  32
ATOM     32  N   UNL A   1      34.623  31.929  28.723  1.00  0.00    -0.352 N 
ATOM     33  C   UNL A   1      35.542  31.434  29.639  1.00  0.00     0.251 C 
ATOM     34  H   UNL A   1      34.212  32.797  28.945  1.00  0.00     0.163 HD
ATOM     35  O   UNL A   1      35.786  32.019  30.679  1.00  0.00    -0.269 OA
BRANCH  33  36
ATOM     36  C   UNL A   1      36.311  30.227  29.251  1.00  0.00     0.039 A 
ATOM     37  C   UNL A   1      36.817  29.427  30.278  1.00  0.00     0.014 A 
ATOM     38  C   UNL A   1      36.768  30.084  27.942  1.00  0.00     0.014 A 
ATOM     39  C   UNL A   1      37.961  28.669  30.040  1.00  0.00     0.010 A 
ATOM     40  C   UNL A   1      37.951  29.399  27.725  1.00  0.00     0.010 A 
ATOM     41  C   UNL A   1      38.588  28.752  28.792  1.00  0.00    -0.014 A 
BRANCH  41  42
ATOM     42  C   UNL A   1      39.959  28.295  28.584  1.00  0.00     0.031 A 
ATOM     43  C   UNL A   1      40.245  26.878  28.288  1.00  0.00     0.074 A 
ATOM     44  C   UNL A   1      41.005  29.144  28.708  1.00  0.00     0.049 A 
ATOM     45  N   UNL A   1      41.269  26.242  28.756  1.00  0.00    -0.248 NA
ATOM     46  C   UNL A   1      39.378  26.056  27.455  1.00  0.00     0.031 C 
ATOM     47  C   UNL A   1      42.401  28.864  28.379  1.00  0.00     0.029 A 
ATOM     48  N   UNL A   1      41.041  30.392  29.347  1.00  0.00    -0.354 N 
ATOM     49  C   UNL A   1      41.340  25.036  28.102  1.00  0.00     0.074 A 
ATOM     50  C   UNL A   1      40.105  24.939  27.351  1.00  0.00     0.031 C 
ATOM     51  C   UNL A   1      43.186  29.720  29.049  1.00  0.00     0.029 A 
ATOM     52  C   UNL A   1      42.333  30.517  29.909  1.00  0.00     0.049 A 
ATOM     53  H   UNL A   1      40.311  31.052  29.395  1.00  0.00     0.167 HD
ATOM     54  C   UNL A   1      42.486  24.298  28.141  1.00  0.00     0.037 A 
ATOM     55  C   UNL A   1      42.532  30.744  31.239  1.00  0.00     0.037 A 
ATOM     56  C   UNL A   1      43.547  24.965  28.886  1.00  0.00     0.049 A 
ATOM     57  C   UNL A   1      43.352  29.686  31.934  1.00  0.00     0.074 A 
ATOM     58  C   UNL A   1      44.612  25.748  28.472  1.00  0.00     0.029 A 
ATOM     59  N   UNL A   1      43.444  25.136  30.262  1.00  0.00    -0.354 N 
ATOM     60  N   UNL A   1      43.632  28.530  31.404  1.00  0.00    -0.248 NA
ATOM     61  C   UNL A   1      43.834  29.806  33.308  1.00  0.00     0.031 C 
ATOM     62  C   UNL A   1      45.145  26.407  29.602  1.00  0.00     0.029 A 
ATOM     63  C   UNL A   1      44.402  26.030  30.707  1.00  0.00     0.049 A 
ATOM     64  H   UNL A   1      42.785  24.686  30.838  1.00  0.00     0.167 HD
ATOM     65  C   UNL A   1      44.221  27.733  32.350  1.00  0.00     0.074 A 
ATOM     66  C   UNL A   1      44.370  28.590  33.509  1.00  0.00     0.031 C 
ATOM     67  C   UNL A   1      44.490  26.418  32.105  1.00  0.00     0.037 A 
BRANCH  54  68
ATOM     68  C   UNL A   1      42.718  23.127  27.217  1.00  0.00     0.064 A 
ATOM     69  C   UNL A   1      42.113  21.873  27.446  1.00  0.00     0.173 A 
ATOM     70  C   UNL A   1      43.579  23.179  26.106  1.00  0.00     0.173 A 
ATOM     71  F   UNL A   1      41.182  21.703  28.393  1.00  0.00    -0.203 F 
ATOM     72  C   UNL A   1      42.455  20.733  26.714  1.00  0.00     0.198 A 
ATOM     73  C   UNL A   1      43.963  22.029  25.408  1.00  0.00     0.198 A 
ATOM     74  F   UNL A   1      44.059  24.350  25.662  1.00  0.00    -0.203 F 
ATOM     75  F   UNL A   1      41.864  19.563  26.992  1.00  0.00    -0.200 F 
ATOM     76  C   UNL A   1      43.413  20.803  25.724  1.00  0.00     0.200 A 
ATOM     77  F   UNL A   1      44.882  22.117  24.436  1.00  0.00    -0.200 F 
ATOM     78  F   UNL A   1      43.789  19.698  25.067  1.00  0.00    -0.200 F 
ENDBRANCH  54  68
BRANCH  55  79
ATOM     79  C   UNL A   1      41.416  31.490  31.870  1.00  0.00     0.064 A 
ATOM     80  C   UNL A   1      40.436  30.753  32.560  1.00  0.00     0.173 A 
ATOM     81  C   UNL A   1      41.531  32.855  32.153  1.00  0.00     0.173 A 
ATOM     82  F   UNL A   1      40.285  29.442  32.314  1.00  0.00    -0.203 F 
ATOM     83  C   UNL A   1      39.710  31.324  33.600  1.00  0.00     0.198 A 
ATOM     84  C   UNL A   1      40.785  33.428  33.182  1.00  0.00     0.198 A 
ATOM     85  F   UNL A   1      42.449  33.604  31.525  1.00  0.00    -0.203 F 
ATOM     86  F   UNL A   1      38.884  30.564  34.334  1.00  0.00    -0.200 F 
ATOM     87  C   UNL A   1      39.913  32.653  33.933  1.00  0.00     0.200 A 
ATOM     88  F   UNL A   1      40.985  34.712  33.511  1.00  0.00    -0.200 F 
ATOM     89  F   UNL A   1      39.299  33.174  35.006  1.00  0.00    -0.200 F 
ENDBRANCH  55  79
BRANCH  67  90
ATOM     90  C   UNL A   1      44.952  25.418  33.128  1.00  0.00     0.064 A 
ATOM     91  C   UNL A   1      46.281  24.977  33.246  1.00  0.00     0.173 A 
ATOM     92  C   UNL A   1      44.061  24.949  34.122  1.00  0.00     0.173 A 
ATOM     93  F   UNL A   1      47.244  25.452  32.442  1.00  0.00    -0.203 F 
ATOM     94  C   UNL A   1      46.673  24.069  34.232  1.00  0.00     0.198 A 
ATOM     95  C   UNL A   1      44.467  24.084  35.137  1.00  0.00     0.198 A 
ATOM     96  F   UNL A   1      42.777  25.334  34.142  1.00  0.00    -0.203 F 
ATOM     97  F   UNL A   1      47.942  23.639  34.272  1.00  0.00    -0.200 F 
ATOM     98  C   UNL A   1      45.768  23.627  35.180  1.00  0.00     0.200 A 
ATOM     99  F   UNL A   1      43.593  23.708  36.080  1.00  0.00    -0.200 F 
ATOM    100  F   UNL A   1      46.155  22.781  36.144  1.00  0.00    -0.200 F 
ENDBRANCH  67  90
ENDBRANCH  41  42
ENDBRANCH  33  36
ENDBRANCH  31  32
ENDBRANCH  30  31
ENDBRANCH  29  30
ENDBRANCH  28  29
ENDBRANCH   1  28
TORSDOF 18
ENDMDL
