MODEL 1
REMARK VINA RESULT:     -11.1      0.000      0.000
REMARK SMILES C#CCN(CC(=O)NCCCCCCNC(=O)c1ccc(-c2c3nc(c(-c4c(F)c(F)c(F)c(F)c4F)c4ccc([nH]4)c(-c4c(F)c(F)c(F)c(F)c4F)c4nc(c(-c5c(F)c(F)c(F)c(F)c5F)c5ccc2[nH]5)C=C4)C=C3)cc1)S(=O)(=O)c1c(C)cc(C)cc1C
REMARK SMILES IDX 11 1 10 2 9 3 8 4 6 5 7 6 5 8 4 9 3 10 2 11 1 12 81 13 82 14
REMARK SMILES IDX 83 15 84 16 85 17 91 18 86 19 87 20 90 21 92 22 88 23 89 24
REMARK SMILES IDX 12 25 13 26 14 27 15 28 16 29 17 31 18 32 19 33 80 34 20 35
REMARK SMILES IDX 79 36 21 37 22 38 23 39 73 40 24 41 78 42 72 43 74 44 25 45
REMARK SMILES IDX 77 46 71 47 70 48 26 50 58 51 38 52 57 53 39 54 42 55 56 56
REMARK SMILES IDX 75 57 40 58 41 59 55 61 76 62 43 63 27 64 28 65 36 66 29 67
REMARK SMILES IDX 30 68 34 69 37 70 31 71 32 72 35 73 33 74 59 75 60 76 68 77
REMARK SMILES IDX 61 78 62 79 66 80 69 81 63 82 64 83 67 84 65 85 44 86 45 87
REMARK SMILES IDX 53 88 46 89 47 90 51 91 54 92 48 93 49 94 52 95 50 96
REMARK H PARENT 8 7 15 30 74 49 42 60
REMARK Flexibility Score: inf
ROOT
ATOM      1  C   UNL A   1      34.829  21.112  25.437  1.00  0.00     0.002 C 
ENDROOT
BRANCH   1   2
ATOM      2  C   UNL A   1      33.475  20.640  24.913  1.00  0.00     0.021 C 
BRANCH   2   3
ATOM      3  C   UNL A   1      32.484  21.759  24.556  1.00  0.00     0.116 C 
BRANCH   3   4
ATOM      4  N   UNL A   1      31.745  22.193  25.733  1.00  0.00    -0.355 N 
ATOM      5  C   UNL A   1      31.878  23.277  26.554  1.00  0.00     0.235 C 
ATOM      6  O   UNL A   1      31.083  23.378  27.493  1.00  0.00    -0.274 OA
ATOM      7  H   UNL A   1      31.009  21.589  25.985  1.00  0.00     0.163 HD
BRANCH   5   8
ATOM      8  C   UNL A   1      32.892  24.379  26.286  1.00  0.00     0.203 C 
BRANCH   8   9
ATOM      9  N   UNL A   1      32.617  25.463  25.285  1.00  0.00    -0.177 NA
BRANCH   9  10
ATOM     10  C   UNL A   1      33.721  25.500  24.287  1.00  0.00     0.192 C 
BRANCH  10  11
ATOM     11  C   UNL A   1      33.320  25.689  22.833  1.00  0.00    -0.090 C 
ATOM     12  C   UNL A   1      32.976  25.852  21.586  1.00  0.00     0.005 C 
ENDBRANCH  10  11
ENDBRANCH   9  10
BRANCH   9  13
ATOM     13  S   UNL A   1      32.177  26.997  25.914  1.00  0.00     0.244 S 
ATOM     14  O   UNL A   1      31.451  26.709  27.135  1.00  0.00    -0.207 OA
ATOM     15  O   UNL A   1      33.345  27.850  25.945  1.00  0.00    -0.207 OA
BRANCH  13  16
ATOM     16  C   UNL A   1      31.095  27.853  24.765  1.00  0.00     0.088 A 
ATOM     17  C   UNL A   1      30.140  27.075  24.059  1.00  0.00    -0.031 A 
ATOM     18  C   UNL A   1      31.028  29.264  24.695  1.00  0.00    -0.031 A 
ATOM     19  C   UNL A   1      29.954  25.588  24.240  1.00  0.00     0.046 C 
ATOM     20  C   UNL A   1      29.255  27.708  23.168  1.00  0.00     0.008 A 
ATOM     21  C   UNL A   1      30.132  29.858  23.780  1.00  0.00     0.008 A 
ATOM     22  C   UNL A   1      31.797  30.211  25.577  1.00  0.00     0.046 C 
ATOM     23  C   UNL A   1      29.254  29.093  23.008  1.00  0.00    -0.051 A 
ATOM     24  C   UNL A   1      28.251  29.735  22.096  1.00  0.00     0.044 C 
ENDBRANCH  13  16
ENDBRANCH   9  13
ENDBRANCH   8   9
ENDBRANCH   5   8
ENDBRANCH   3   4
ENDBRANCH   2   3
ENDBRANCH   1   2
BRANCH   1  25
ATOM     25  C   UNL A   1      35.802  21.612  24.364  1.00  0.00     0.002 C 
BRANCH  25  26
ATOM     26  C   UNL A   1      36.044  23.126  24.321  1.00  0.00     0.021 C 
BRANCH  26  27
ATOM     27  C   UNL A   1      37.038  23.673  25.346  1.00  0.00     0.116 C 
BRANCH  27  28
ATOM     28  N   UNL A   1      38.023  22.681  25.745  1.00  0.00    -0.352 N 
ATOM     29  C   UNL A   1      39.246  22.840  26.343  1.00  0.00     0.251 C 
ATOM     30  H   UNL A   1      37.771  21.748  25.555  1.00  0.00     0.163 HD
ATOM     31  O   UNL A   1      40.018  21.889  26.424  1.00  0.00    -0.269 OA
BRANCH  29  32
ATOM     32  C   UNL A   1      39.654  24.154  26.883  1.00  0.00     0.039 A 
ATOM     33  C   UNL A   1      39.349  24.455  28.214  1.00  0.00     0.014 A 
ATOM     34  C   UNL A   1      40.280  25.106  26.073  1.00  0.00     0.014 A 
ATOM     35  C   UNL A   1      39.716  25.692  28.749  1.00  0.00     0.010 A 
ATOM     36  C   UNL A   1      40.691  26.320  26.622  1.00  0.00     0.010 A 
ATOM     37  C   UNL A   1      40.408  26.627  27.961  1.00  0.00    -0.014 A 
BRANCH  37  38
ATOM     38  C   UNL A   1      40.830  27.934  28.520  1.00  0.00     0.031 A 
ATOM     39  C   UNL A   1      42.269  28.173  28.878  1.00  0.00     0.074 A 
ATOM     40  C   UNL A   1      39.907  28.885  28.762  1.00  0.00     0.049 A 
ATOM     41  N   UNL A   1      42.821  29.216  29.445  1.00  0.00    -0.248 NA
ATOM     42  C   UNL A   1      43.211  27.083  28.580  1.00  0.00     0.031 C 
ATOM     43  C   UNL A   1      38.475  28.758  28.495  1.00  0.00     0.029 A 
ATOM     44  N   UNL A   1      40.037  30.141  29.299  1.00  0.00    -0.354 N 
ATOM     45  C   UNL A   1      44.165  28.901  29.590  1.00  0.00     0.074 A 
ATOM     46  C   UNL A   1      44.341  27.557  29.084  1.00  0.00     0.031 C 
ATOM     47  C   UNL A   1      37.858  29.894  28.860  1.00  0.00     0.029 A 
ATOM     48  C   UNL A   1      38.847  30.817  29.410  1.00  0.00     0.049 A 
ATOM     49  H   UNL A   1      40.901  30.521  29.579  1.00  0.00     0.167 HD
ATOM     50  C   UNL A   1      45.164  29.670  30.084  1.00  0.00     0.037 A 
ATOM     51  C   UNL A   1      38.585  32.041  29.904  1.00  0.00     0.037 A 
ATOM     52  C   UNL A   1      44.994  31.020  30.553  1.00  0.00     0.049 A 
ATOM     53  C   UNL A   1      39.715  32.884  30.426  1.00  0.00     0.074 A 
ATOM     54  C   UNL A   1      45.955  31.903  31.013  1.00  0.00     0.029 A 
ATOM     55  N   UNL A   1      43.777  31.684  30.617  1.00  0.00    -0.354 N 
ATOM     56  N   UNL A   1      40.991  32.597  30.506  1.00  0.00    -0.248 NA
ATOM     57  C   UNL A   1      39.369  34.225  30.919  1.00  0.00     0.031 C 
ATOM     58  C   UNL A   1      45.316  33.092  31.385  1.00  0.00     0.029 A 
ATOM     59  C   UNL A   1      43.962  32.961  31.121  1.00  0.00     0.049 A 
ATOM     60  H   UNL A   1      42.911  31.303  30.344  1.00  0.00     0.167 HD
ATOM     61  C   UNL A   1      41.603  33.724  31.033  1.00  0.00     0.074 A 
ATOM     62  C   UNL A   1      40.561  34.706  31.246  1.00  0.00     0.031 C 
ATOM     63  C   UNL A   1      42.913  33.927  31.317  1.00  0.00     0.037 A 
BRANCH  50  64
ATOM     64  C   UNL A   1      46.537  29.069  30.139  1.00  0.00     0.064 A 
ATOM     65  C   UNL A   1      47.426  29.173  29.059  1.00  0.00     0.173 A 
ATOM     66  C   UNL A   1      46.980  28.410  31.295  1.00  0.00     0.173 A 
ATOM     67  F   UNL A   1      47.045  29.783  27.927  1.00  0.00    -0.203 F 
ATOM     68  C   UNL A   1      48.701  28.617  29.126  1.00  0.00     0.198 A 
ATOM     69  C   UNL A   1      48.264  27.877  31.367  1.00  0.00     0.198 A 
ATOM     70  F   UNL A   1      46.169  28.289  32.357  1.00  0.00    -0.203 F 
ATOM     71  F   UNL A   1      49.519  28.690  28.066  1.00  0.00    -0.200 F 
ATOM     72  C   UNL A   1      49.120  27.974  30.281  1.00  0.00     0.200 A 
ATOM     73  F   UNL A   1      48.672  27.265  32.488  1.00  0.00    -0.200 F 
ATOM     74  F   UNL A   1      50.349  27.443  30.345  1.00  0.00    -0.200 F 
ENDBRANCH  50  64
BRANCH  51  75
ATOM     75  C   UNL A   1      37.192  32.555  29.899  1.00  0.00     0.064 A 
ATOM     76  C   UNL A   1      36.723  33.345  28.841  1.00  0.00     0.173 A 
ATOM     77  C   UNL A   1      36.302  32.262  30.942  1.00  0.00     0.173 A 
ATOM     78  F   UNL A   1      37.547  33.668  27.832  1.00  0.00    -0.203 F 
ATOM     79  C   UNL A   1      35.420  33.835  28.833  1.00  0.00     0.198 A 
ATOM     80  C   UNL A   1      34.991  32.735  30.922  1.00  0.00     0.198 A 
ATOM     81  F   UNL A   1      36.703  31.506  31.974  1.00  0.00    -0.203 F 
ATOM     82  F   UNL A   1      35.007  34.618  27.826  1.00  0.00    -0.200 F 
ATOM     83  C   UNL A   1      34.553  33.525  29.870  1.00  0.00     0.200 A 
ATOM     84  F   UNL A   1      34.154  32.423  31.920  1.00  0.00    -0.200 F 
ATOM     85  F   UNL A   1      33.297  33.993  29.860  1.00  0.00    -0.200 F 
ENDBRANCH  51  75
BRANCH  63  86
ATOM     86  C   UNL A   1      43.296  35.271  31.859  1.00  0.00     0.064 A 
ATOM     87  C   UNL A   1      43.266  35.541  33.235  1.00  0.00     0.173 A 
ATOM     88  C   UNL A   1      43.737  36.285  30.995  1.00  0.00     0.173 A 
ATOM     89  F   UNL A   1      42.835  34.607  34.096  1.00  0.00    -0.203 F 
ATOM     90  C   UNL A   1      43.648  36.787  33.725  1.00  0.00     0.198 A 
ATOM     91  C   UNL A   1      44.139  37.521  31.492  1.00  0.00     0.198 A 
ATOM     92  F   UNL A   1      43.787  36.072  29.672  1.00  0.00    -0.203 F 
ATOM     93  F   UNL A   1      43.576  37.037  35.040  1.00  0.00    -0.200 F 
ATOM     94  C   UNL A   1      44.090  37.773  32.855  1.00  0.00     0.200 A 
ATOM     95  F   UNL A   1      44.573  38.470  30.652  1.00  0.00    -0.200 F 
ATOM     96  F   UNL A   1      44.462  38.969  33.330  1.00  0.00    -0.200 F 
ENDBRANCH  63  86
ENDBRANCH  37  38
ENDBRANCH  29  32
ENDBRANCH  27  28
ENDBRANCH  26  27
ENDBRANCH  25  26
ENDBRANCH   1  25
TORSDOF 18
ENDMDL
MODEL 2
REMARK VINA RESULT:     -11.1      1.447      2.480
REMARK SMILES C#CCN(CC(=O)NCCCCCCNC(=O)c1ccc(-c2c3nc(c(-c4c(F)c(F)c(F)c(F)c4F)c4ccc([nH]4)c(-c4c(F)c(F)c(F)c(F)c4F)c4nc(c(-c5c(F)c(F)c(F)c(F)c5F)c5ccc2[nH]5)C=C4)C=C3)cc1)S(=O)(=O)c1c(C)cc(C)cc1C
REMARK SMILES IDX 11 1 10 2 9 3 8 4 6 5 7 6 5 8 4 9 3 10 2 11 1 12 81 13 82 14
REMARK SMILES IDX 83 15 84 16 85 17 91 18 86 19 87 20 90 21 92 22 88 23 89 24
REMARK SMILES IDX 12 25 13 26 14 27 15 28 16 29 17 31 18 32 19 33 80 34 20 35
REMARK SMILES IDX 79 36 21 37 22 38 23 39 73 40 24 41 78 42 72 43 74 44 25 45
REMARK SMILES IDX 77 46 71 47 70 48 26 50 58 51 38 52 57 53 39 54 42 55 56 56
REMARK SMILES IDX 75 57 40 58 41 59 55 61 76 62 43 63 27 64 28 65 36 66 29 67
REMARK SMILES IDX 30 68 34 69 37 70 31 71 32 72 35 73 33 74 59 75 60 76 68 77
REMARK SMILES IDX 61 78 62 79 66 80 69 81 63 82 64 83 67 84 65 85 44 86 45 87
REMARK SMILES IDX 53 88 46 89 47 90 51 91 54 92 48 93 49 94 52 95 50 96
REMARK H PARENT 8 7 15 30 74 49 42 60
REMARK Flexibility Score: inf
ROOT
ATOM      1  C   UNL A   1      34.145  21.143  26.056  1.00  0.00     0.002 C 
ENDROOT
BRANCH   1   2
ATOM      2  C   UNL A   1      33.675  20.483  24.761  1.00  0.00     0.021 C 
BRANCH   2   3
ATOM      3  C   UNL A   1      32.688  21.311  23.925  1.00  0.00     0.116 C 
BRANCH   3   4
ATOM      4  N   UNL A   1      33.385  22.334  23.159  1.00  0.00    -0.355 N 
ATOM      5  C   UNL A   1      33.008  23.573  22.722  1.00  0.00     0.235 C 
ATOM      6  O   UNL A   1      33.837  24.224  22.080  1.00  0.00    -0.274 OA
ATOM      7  H   UNL A   1      34.304  22.085  22.908  1.00  0.00     0.163 HD
BRANCH   5   8
ATOM      8  C   UNL A   1      31.663  24.186  23.081  1.00  0.00     0.203 C 
BRANCH   8   9
ATOM      9  N   UNL A   1      31.546  25.231  24.152  1.00  0.00    -0.177 NA
BRANCH   9  10
ATOM     10  C   UNL A   1      30.618  24.747  25.211  1.00  0.00     0.192 C 
BRANCH  10  11
ATOM     11  C   UNL A   1      31.224  23.881  26.304  1.00  0.00    -0.090 C 
ATOM     12  C   UNL A   1      31.743  23.138  27.241  1.00  0.00     0.005 C 
ENDBRANCH  10  11
ENDBRANCH   9  10
BRANCH   9  13
ATOM     13  S   UNL A   1      31.249  26.837  23.629  1.00  0.00     0.244 S 
ATOM     14  O   UNL A   1      31.952  26.958  22.367  1.00  0.00    -0.207 OA
ATOM     15  O   UNL A   1      29.828  27.105  23.701  1.00  0.00    -0.207 OA
BRANCH  13  16
ATOM     16  C   UNL A   1      31.930  28.010  24.805  1.00  0.00     0.088 A 
ATOM     17  C   UNL A   1      33.128  27.647  25.476  1.00  0.00    -0.031 A 
ATOM     18  C   UNL A   1      31.438  29.331  24.930  1.00  0.00    -0.031 A 
ATOM     19  C   UNL A   1      33.879  26.360  25.236  1.00  0.00     0.046 C 
ATOM     20  C   UNL A   1      33.710  28.546  26.387  1.00  0.00     0.008 A 
ATOM     21  C   UNL A   1      32.048  30.197  25.864  1.00  0.00     0.008 A 
ATOM     22  C   UNL A   1      30.343  29.929  24.089  1.00  0.00     0.046 C 
ATOM     23  C   UNL A   1      33.171  29.813  26.600  1.00  0.00    -0.051 A 
ATOM     24  C   UNL A   1      33.858  30.767  27.532  1.00  0.00     0.044 C 
ENDBRANCH  13  16
ENDBRANCH   9  13
ENDBRANCH   8   9
ENDBRANCH   5   8
ENDBRANCH   3   4
ENDBRANCH   2   3
ENDBRANCH   1   2
BRANCH   1  25
ATOM     25  C   UNL A   1      35.562  21.724  26.010  1.00  0.00     0.002 C 
BRANCH  25  26
ATOM     26  C   UNL A   1      35.668  23.254  26.042  1.00  0.00     0.021 C 
BRANCH  26  27
ATOM     27  C   UNL A   1      36.987  23.843  25.542  1.00  0.00     0.116 C 
BRANCH  27  28
ATOM     28  N   UNL A   1      38.095  22.913  25.677  1.00  0.00    -0.352 N 
ATOM     29  C   UNL A   1      39.361  23.109  26.168  1.00  0.00     0.251 C 
ATOM     30  H   UNL A   1      37.907  21.997  25.368  1.00  0.00     0.163 HD
ATOM     31  O   UNL A   1      40.218  22.243  26.019  1.00  0.00    -0.269 OA
BRANCH  29  32
ATOM     32  C   UNL A   1      39.710  24.364  26.867  1.00  0.00     0.039 A 
ATOM     33  C   UNL A   1      39.316  24.521  28.198  1.00  0.00     0.014 A 
ATOM     34  C   UNL A   1      40.369  25.402  26.201  1.00  0.00     0.014 A 
ATOM     35  C   UNL A   1      39.626  25.699  28.881  1.00  0.00     0.010 A 
ATOM     36  C   UNL A   1      40.724  26.556  26.898  1.00  0.00     0.010 A 
ATOM     37  C   UNL A   1      40.351  26.718  28.242  1.00  0.00    -0.014 A 
BRANCH  37  38
ATOM     38  C   UNL A   1      40.712  27.964  28.959  1.00  0.00     0.031 A 
ATOM     39  C   UNL A   1      42.088  28.128  29.541  1.00  0.00     0.074 A 
ATOM     40  C   UNL A   1      39.785  28.924  29.139  1.00  0.00     0.049 A 
ATOM     41  N   UNL A   1      42.572  29.106  30.264  1.00  0.00    -0.248 NA
ATOM     42  C   UNL A   1      43.040  27.034  29.297  1.00  0.00     0.031 C 
ATOM     43  C   UNL A   1      38.405  28.865  28.657  1.00  0.00     0.029 A 
ATOM     44  N   UNL A   1      39.861  30.130  29.789  1.00  0.00    -0.354 N 
ATOM     45  C   UNL A   1      43.873  28.736  30.577  1.00  0.00     0.074 A 
ATOM     46  C   UNL A   1      44.093  27.430  29.996  1.00  0.00     0.031 C 
ATOM     47  C   UNL A   1      37.766  29.990  29.018  1.00  0.00     0.029 A 
ATOM     48  C   UNL A   1      38.683  30.835  29.779  1.00  0.00     0.049 A 
ATOM     49  H   UNL A   1      40.681  30.459  30.221  1.00  0.00     0.167 HD
ATOM     50  C   UNL A   1      44.804  29.433  31.272  1.00  0.00     0.037 A 
ATOM     51  C   UNL A   1      38.376  32.026  30.326  1.00  0.00     0.037 A 
ATOM     52  C   UNL A   1      44.595  30.747  31.818  1.00  0.00     0.049 A 
ATOM     53  C   UNL A   1      39.435  32.789  31.073  1.00  0.00     0.074 A 
ATOM     54  C   UNL A   1      45.497  31.560  32.483  1.00  0.00     0.029 A 
ATOM     55  N   UNL A   1      43.397  31.444  31.757  1.00  0.00    -0.354 N 
ATOM     56  N   UNL A   1      40.678  32.455  31.314  1.00  0.00    -0.248 NA
ATOM     57  C   UNL A   1      39.048  34.099  31.617  1.00  0.00     0.031 C 
ATOM     58  C   UNL A   1      44.835  32.738  32.851  1.00  0.00     0.029 A 
ATOM     59  C   UNL A   1      43.532  32.672  32.384  1.00  0.00     0.049 A 
ATOM     60  H   UNL A   1      42.573  31.115  31.331  1.00  0.00     0.167 HD
ATOM     61  C   UNL A   1      41.230  33.518  32.014  1.00  0.00     0.074 A 
ATOM     62  C   UNL A   1      40.189  34.514  32.151  1.00  0.00     0.031 C 
ATOM     63  C   UNL A   1      42.487  33.655  32.502  1.00  0.00     0.037 A 
BRANCH  50  64
ATOM     64  C   UNL A   1      46.140  28.784  31.478  1.00  0.00     0.064 A 
ATOM     65  C   UNL A   1      47.207  29.006  30.594  1.00  0.00     0.173 A 
ATOM     66  C   UNL A   1      46.367  27.957  32.588  1.00  0.00     0.173 A 
ATOM     67  F   UNL A   1      47.036  29.779  29.512  1.00  0.00    -0.203 F 
ATOM     68  C   UNL A   1      48.445  28.404  30.801  1.00  0.00     0.198 A 
ATOM     69  C   UNL A   1      47.614  27.377  32.805  1.00  0.00     0.198 A 
ATOM     70  F   UNL A   1      45.381  27.718  33.465  1.00  0.00    -0.203 F 
ATOM     71  F   UNL A   1      49.437  28.596  29.920  1.00  0.00    -0.200 F 
ATOM     72  C   UNL A   1      48.649  27.594  31.908  1.00  0.00     0.200 A 
ATOM     73  F   UNL A   1      47.813  26.602  33.882  1.00  0.00    -0.200 F 
ATOM     74  F   UNL A   1      49.843  27.018  32.108  1.00  0.00    -0.200 F 
ENDBRANCH  50  64
BRANCH  51  75
ATOM     75  C   UNL A   1      37.010  32.585  30.159  1.00  0.00     0.064 A 
ATOM     76  C   UNL A   1      36.660  33.285  28.997  1.00  0.00     0.173 A 
ATOM     77  C   UNL A   1      36.030  32.424  31.149  1.00  0.00     0.173 A 
ATOM     78  F   UNL A   1      37.572  33.481  28.034  1.00  0.00    -0.203 F 
ATOM     79  C   UNL A   1      35.382  33.816  28.837  1.00  0.00     0.198 A 
ATOM     80  C   UNL A   1      34.746  32.936  30.978  1.00  0.00     0.198 A 
ATOM     81  F   UNL A   1      36.317  31.756  32.276  1.00  0.00    -0.203 F 
ATOM     82  F   UNL A   1      35.083  34.512  27.732  1.00  0.00    -0.200 F 
ATOM     83  C   UNL A   1      34.425  33.637  29.824  1.00  0.00     0.200 A 
ATOM     84  F   UNL A   1      33.821  32.750  31.928  1.00  0.00    -0.200 F 
ATOM     85  F   UNL A   1      33.194  34.144  29.668  1.00  0.00    -0.200 F 
ENDBRANCH  51  75
BRANCH  63  86
ATOM     86  C   UNL A   1      42.814  34.941  33.199  1.00  0.00     0.064 A 
ATOM     87  C   UNL A   1      43.340  36.038  32.503  1.00  0.00     0.173 A 
ATOM     88  C   UNL A   1      42.559  35.088  34.570  1.00  0.00     0.173 A 
ATOM     89  F   UNL A   1      43.615  35.936  31.193  1.00  0.00    -0.203 F 
ATOM     90  C   UNL A   1      43.617  37.234  33.159  1.00  0.00     0.198 A 
ATOM     91  C   UNL A   1      42.816  36.293  35.219  1.00  0.00     0.198 A 
ATOM     92  F   UNL A   1      42.053  34.068  35.278  1.00  0.00    -0.203 F 
ATOM     93  F   UNL A   1      44.155  38.258  32.483  1.00  0.00    -0.200 F 
ATOM     94  C   UNL A   1      43.350  37.362  34.514  1.00  0.00     0.200 A 
ATOM     95  F   UNL A   1      42.551  36.419  36.526  1.00  0.00    -0.200 F 
ATOM     96  F   UNL A   1      43.612  38.516  35.143  1.00  0.00    -0.200 F 
ENDBRANCH  63  86
ENDBRANCH  37  38
ENDBRANCH  29  32
ENDBRANCH  27  28
ENDBRANCH  26  27
ENDBRANCH  25  26
ENDBRANCH   1  25
TORSDOF 18
ENDMDL
MODEL 3
REMARK VINA RESULT:     -11.0      1.375      2.510
REMARK SMILES C#CCN(CC(=O)NCCCCCCNC(=O)c1ccc(-c2c3nc(c(-c4c(F)c(F)c(F)c(F)c4F)c4ccc([nH]4)c(-c4c(F)c(F)c(F)c(F)c4F)c4nc(c(-c5c(F)c(F)c(F)c(F)c5F)c5ccc2[nH]5)C=C4)C=C3)cc1)S(=O)(=O)c1c(C)cc(C)cc1C
REMARK SMILES IDX 11 1 10 2 9 3 8 4 6 5 7 6 5 8 4 9 3 10 2 11 1 12 81 13 82 14
REMARK SMILES IDX 83 15 84 16 85 17 91 18 86 19 87 20 90 21 92 22 88 23 89 24
REMARK SMILES IDX 12 25 13 26 14 27 15 28 16 29 17 31 18 32 19 33 80 34 20 35
REMARK SMILES IDX 79 36 21 37 22 38 23 39 73 40 24 41 78 42 72 43 74 44 25 45
REMARK SMILES IDX 77 46 71 47 70 48 26 50 58 51 38 52 57 53 39 54 42 55 56 56
REMARK SMILES IDX 75 57 40 58 41 59 55 61 76 62 43 63 27 64 28 65 36 66 29 67
REMARK SMILES IDX 30 68 34 69 37 70 31 71 32 72 35 73 33 74 59 75 60 76 68 77
REMARK SMILES IDX 61 78 62 79 66 80 69 81 63 82 64 83 67 84 65 85 44 86 45 87
REMARK SMILES IDX 53 88 46 89 47 90 51 91 54 92 48 93 49 94 52 95 50 96
REMARK H PARENT 8 7 15 30 74 49 42 60
REMARK Flexibility Score: inf
ROOT
ATOM      1  C   UNL A   1      33.610  21.344  26.729  1.00  0.00     0.002 C 
ENDROOT
BRANCH   1   2
ATOM      2  C   UNL A   1      33.306  20.445  25.534  1.00  0.00     0.021 C 
BRANCH   2   3
ATOM      3  C   UNL A   1      32.867  21.177  24.258  1.00  0.00     0.116 C 
BRANCH   3   4
ATOM      4  N   UNL A   1      33.981  21.900  23.663  1.00  0.00    -0.355 N 
ATOM      5  C   UNL A   1      34.036  22.975  22.820  1.00  0.00     0.235 C 
ATOM      6  O   UNL A   1      35.155  23.372  22.481  1.00  0.00    -0.274 OA
ATOM      7  H   UNL A   1      34.865  21.546  23.916  1.00  0.00     0.163 HD
BRANCH   5   8
ATOM      8  C   UNL A   1      32.789  23.728  22.383  1.00  0.00     0.203 C 
BRANCH   8   9
ATOM      9  N   UNL A   1      32.223  24.844  23.213  1.00  0.00    -0.177 NA
BRANCH   9  10
ATOM     10  C   UNL A   1      30.900  24.430  23.754  1.00  0.00     0.192 C 
BRANCH  10  11
ATOM     11  C   UNL A   1      30.854  24.046  25.224  1.00  0.00    -0.090 C 
ATOM     12  C   UNL A   1      30.815  23.716  26.485  1.00  0.00     0.005 C 
ENDBRANCH  10  11
ENDBRANCH   9  10
BRANCH   9  13
ATOM     13  S   UNL A   1      32.247  26.410  22.512  1.00  0.00     0.244 S 
ATOM     14  O   UNL A   1      33.557  26.532  21.907  1.00  0.00    -0.207 OA
ATOM     15  O   UNL A   1      31.054  26.589  21.712  1.00  0.00    -0.207 OA
BRANCH  13  16
ATOM     16  C   UNL A   1      32.057  27.662  23.785  1.00  0.00     0.088 A 
ATOM     17  C   UNL A   1      32.870  27.549  24.944  1.00  0.00    -0.031 A 
ATOM     18  C   UNL A   1      31.294  28.836  23.585  1.00  0.00    -0.031 A 
ATOM     19  C   UNL A   1      33.903  26.469  25.154  1.00  0.00     0.046 C 
ATOM     20  C   UNL A   1      32.774  28.523  25.954  1.00  0.00     0.008 A 
ATOM     21  C   UNL A   1      31.217  29.783  24.630  1.00  0.00     0.008 A 
ATOM     22  C   UNL A   1      30.596  29.206  22.305  1.00  0.00     0.046 C 
ATOM     23  C   UNL A   1      31.941  29.631  25.816  1.00  0.00    -0.051 A 
ATOM     24  C   UNL A   1      31.914  30.680  26.888  1.00  0.00     0.044 C 
ENDBRANCH  13  16
ENDBRANCH   9  13
ENDBRANCH   8   9
ENDBRANCH   5   8
ENDBRANCH   3   4
ENDBRANCH   2   3
ENDBRANCH   1   2
BRANCH   1  25
ATOM     25  C   UNL A   1      35.064  21.818  26.831  1.00  0.00     0.002 C 
BRANCH  25  26
ATOM     26  C   UNL A   1      35.319  23.296  26.511  1.00  0.00     0.021 C 
BRANCH  26  27
ATOM     27  C   UNL A   1      36.573  23.596  25.689  1.00  0.00     0.116 C 
BRANCH  27  28
ATOM     28  N   UNL A   1      37.632  22.629  25.924  1.00  0.00    -0.352 N 
ATOM     29  C   UNL A   1      38.916  22.814  26.370  1.00  0.00     0.251 C 
ATOM     30  H   UNL A   1      37.390  21.694  25.733  1.00  0.00     0.163 HD
ATOM     31  O   UNL A   1      39.723  21.890  26.318  1.00  0.00    -0.269 OA
BRANCH  29  32
ATOM     32  C   UNL A   1      39.345  24.124  26.903  1.00  0.00     0.039 A 
ATOM     33  C   UNL A   1      39.042  24.439  28.231  1.00  0.00     0.014 A 
ATOM     34  C   UNL A   1      39.989  25.060  26.088  1.00  0.00     0.014 A 
ATOM     35  C   UNL A   1      39.429  25.672  28.759  1.00  0.00     0.010 A 
ATOM     36  C   UNL A   1      40.420  26.270  26.631  1.00  0.00     0.010 A 
ATOM     37  C   UNL A   1      40.140  26.589  27.968  1.00  0.00    -0.014 A 
BRANCH  37  38
ATOM     38  C   UNL A   1      40.582  27.892  28.520  1.00  0.00     0.031 A 
ATOM     39  C   UNL A   1      42.022  28.103  28.896  1.00  0.00     0.074 A 
ATOM     40  C   UNL A   1      39.678  28.866  28.740  1.00  0.00     0.049 A 
ATOM     41  N   UNL A   1      42.589  29.139  29.461  1.00  0.00    -0.248 NA
ATOM     42  C   UNL A   1      42.943  26.989  28.623  1.00  0.00     0.031 C 
ATOM     43  C   UNL A   1      38.247  28.769  28.454  1.00  0.00     0.029 A 
ATOM     44  N   UNL A   1      39.829  30.124  29.266  1.00  0.00    -0.354 N 
ATOM     45  C   UNL A   1      43.923  28.795  29.628  1.00  0.00     0.074 A 
ATOM     46  C   UNL A   1      44.076  27.442  29.138  1.00  0.00     0.031 C 
ATOM     47  C   UNL A   1      37.652  29.922  28.798  1.00  0.00     0.029 A 
ATOM     48  C   UNL A   1      38.653  30.828  29.353  1.00  0.00     0.049 A 
ATOM     49  H   UNL A   1      40.697  30.487  29.555  1.00  0.00     0.167 HD
ATOM     50  C   UNL A   1      44.932  29.547  30.129  1.00  0.00     0.037 A 
ATOM     51  C   UNL A   1      38.411  32.063  29.832  1.00  0.00     0.037 A 
ATOM     52  C   UNL A   1      44.786  30.904  30.582  1.00  0.00     0.049 A 
ATOM     53  C   UNL A   1      39.553  32.885  30.361  1.00  0.00     0.074 A 
ATOM     54  C   UNL A   1      45.760  31.770  31.048  1.00  0.00     0.029 A 
ATOM     55  N   UNL A   1      43.584  31.596  30.622  1.00  0.00    -0.354 N 
ATOM     56  N   UNL A   1      40.821  32.570  30.462  1.00  0.00    -0.248 NA
ATOM     57  C   UNL A   1      39.230  34.239  30.837  1.00  0.00     0.031 C 
ATOM     58  C   UNL A   1      45.143  32.977  31.399  1.00  0.00     0.029 A 
ATOM     59  C   UNL A   1      43.790  32.873  31.117  1.00  0.00     0.049 A 
ATOM     60  H   UNL A   1      42.713  31.233  30.341  1.00  0.00     0.167 HD
ATOM     61  C   UNL A   1      41.451  33.689  30.988  1.00  0.00     0.074 A 
ATOM     62  C   UNL A   1      40.428  34.696  31.176  1.00  0.00     0.031 C 
ATOM     63  C   UNL A   1      42.760  33.865  31.288  1.00  0.00     0.037 A 
BRANCH  50  64
ATOM     64  C   UNL A   1      46.290  28.916  30.209  1.00  0.00     0.064 A 
ATOM     65  C   UNL A   1      46.711  28.224  31.354  1.00  0.00     0.173 A 
ATOM     66  C   UNL A   1      47.169  28.976  29.117  1.00  0.00     0.173 A 
ATOM     67  F   UNL A   1      45.912  28.149  32.429  1.00  0.00    -0.203 F 
ATOM     68  C   UNL A   1      47.972  27.636  31.413  1.00  0.00     0.198 A 
ATOM     69  C   UNL A   1      48.419  28.365  29.170  1.00  0.00     0.198 A 
ATOM     70  F   UNL A   1      46.811  29.621  27.997  1.00  0.00    -0.203 F 
ATOM     71  F   UNL A   1      48.370  27.017  32.533  1.00  0.00    -0.200 F 
ATOM     72  C   UNL A   1      48.822  27.703  30.319  1.00  0.00     0.200 A 
ATOM     73  F   UNL A   1      49.236  28.422  28.109  1.00  0.00    -0.200 F 
ATOM     74  F   UNL A   1      50.034  27.133  30.376  1.00  0.00    -0.200 F 
ENDBRANCH  50  64
BRANCH  51  75
ATOM     75  C   UNL A   1      37.030  32.608  29.801  1.00  0.00     0.064 A 
ATOM     76  C   UNL A   1      36.174  32.451  30.899  1.00  0.00     0.173 A 
ATOM     77  C   UNL A   1      36.543  33.300  28.684  1.00  0.00     0.173 A 
ATOM     78  F   UNL A   1      36.592  31.777  31.981  1.00  0.00    -0.203 F 
ATOM     79  C   UNL A   1      34.876  32.954  30.875  1.00  0.00     0.198 A 
ATOM     80  C   UNL A   1      35.252  33.823  28.669  1.00  0.00     0.198 A 
ATOM     81  F   UNL A   1      37.328  33.480  27.611  1.00  0.00    -0.203 F 
ATOM     82  F   UNL A   1      34.065  32.760  31.924  1.00  0.00    -0.200 F 
ATOM     83  C   UNL A   1      34.418  33.645  29.763  1.00  0.00     0.200 A 
ATOM     84  F   UNL A   1      34.817  34.499  27.599  1.00  0.00    -0.200 F 
ATOM     85  F   UNL A   1      33.170  34.133  29.742  1.00  0.00    -0.200 F 
ENDBRANCH  51  75
BRANCH  63  86
ATOM     86  C   UNL A   1      43.166  35.206  31.822  1.00  0.00     0.064 A 
ATOM     87  C   UNL A   1      43.106  35.496  33.193  1.00  0.00     0.173 A 
ATOM     88  C   UNL A   1      43.659  36.194  30.958  1.00  0.00     0.173 A 
ATOM     89  F   UNL A   1      42.626  34.586  34.054  1.00  0.00    -0.203 F 
ATOM     90  C   UNL A   1      43.509  36.737  33.678  1.00  0.00     0.198 A 
ATOM     91  C   UNL A   1      44.082  37.426  31.449  1.00  0.00     0.198 A 
ATOM     92  F   UNL A   1      43.739  35.961  29.640  1.00  0.00    -0.203 F 
ATOM     93  F   UNL A   1      43.408  37.008  34.987  1.00  0.00    -0.200 F 
ATOM     94  C   UNL A   1      44.002  37.698  32.807  1.00  0.00     0.200 A 
ATOM     95  F   UNL A   1      44.565  38.351  30.609  1.00  0.00    -0.200 F 
ATOM     96  F   UNL A   1      44.394  38.890  33.276  1.00  0.00    -0.200 F 
ENDBRANCH  63  86
ENDBRANCH  37  38
ENDBRANCH  29  32
ENDBRANCH  27  28
ENDBRANCH  26  27
ENDBRANCH  25  26
ENDBRANCH   1  25
TORSDOF 18
ENDMDL
