MODEL 1
REMARK VINA RESULT:     -11.5      0.000      0.000
REMARK SMILES CC(=O)Nc1c(C)nn([C@H](C)C(=O)NCCCCCCNC(=O)c2ccc(-c3c4nc(c(-c5c(F)c(F)c(F)c(F)c5F)c5ccc([nH]5)c(-c5c(F)c(F)c(F)c(F)c5F)c5nc(c(-c6c(F)c(F)c(F)c(F)c6F)c6ccc3[nH]6)C=C5)C=C4)cc2)c1C
REMARK SMILES IDX 17 1 16 2 15 3 14 4 12 5 13 6 10 8 11 9 9 10 5 11 6 12 87 13
REMARK SMILES IDX 7 14 8 15 88 16 4 17 1 18 2 19 3 20 18 22 19 23 20 24 21 25
REMARK SMILES IDX 22 26 23 28 24 29 25 30 86 31 26 32 85 33 27 34 28 35 29 36
REMARK SMILES IDX 79 37 30 38 84 39 78 40 80 41 31 42 83 43 77 44 76 45 32 47
REMARK SMILES IDX 64 48 44 49 63 50 45 51 48 52 62 53 81 54 46 55 47 56 61 58
REMARK SMILES IDX 82 59 49 60 33 61 34 62 42 63 35 64 36 65 40 66 43 67 37 68
REMARK SMILES IDX 38 69 41 70 39 71 65 72 66 73 74 74 67 75 68 76 72 77 75 78
REMARK SMILES IDX 69 79 70 80 73 81 71 82 50 83 51 84 59 85 52 86 53 87 57 88
REMARK SMILES IDX 60 89 54 90 55 91 58 92 56 93
REMARK H PARENT 14 7 4 21 21 27 80 46 48 57
REMARK Flexibility Score: inf
ROOT
ATOM      1  C   UNL A   1      40.437  20.999  27.320  1.00  0.00     0.002 C 
ENDROOT
BRANCH   1   2
ATOM      2  C   UNL A   1      40.020  21.732  26.045  1.00  0.00     0.021 C 
BRANCH   2   3
ATOM      3  C   UNL A   1      38.648  22.388  26.105  1.00  0.00     0.116 C 
BRANCH   3   4
ATOM      4  N   UNL A   1      37.552  21.473  25.894  1.00  0.00    -0.354 N 
ATOM      5  C   UNL A   1      36.466  21.591  25.069  1.00  0.00     0.244 C 
ATOM      6  O   UNL A   1      35.719  20.606  25.006  1.00  0.00    -0.273 OA
ATOM      7  H   UNL A   1      37.591  20.641  26.420  1.00  0.00     0.163 HD
BRANCH   5   8
ATOM      8  C   UNL A   1      36.086  22.903  24.371  1.00  0.00     0.193 C 
ATOM      9  C   UNL A   1      36.661  22.922  22.958  1.00  0.00     0.044 C 
BRANCH   8  10
ATOM     10  N   UNL A   1      34.681  23.269  24.561  1.00  0.00    -0.255 N 
ATOM     11  C   UNL A   1      32.749  24.069  25.245  1.00  0.00     0.085 A 
ATOM     12  C   UNL A   1      32.744  23.828  23.854  1.00  0.00     0.083 A 
ATOM     13  C   UNL A   1      33.926  23.500  25.701  1.00  0.00     0.060 A 
ATOM     14  C   UNL A   1      31.667  24.073  22.865  1.00  0.00     0.071 C 
ATOM     15  N   UNL A   1      33.927  23.367  23.441  1.00  0.00    -0.175 NA
ATOM     16  C   UNL A   1      34.310  23.099  27.085  1.00  0.00     0.069 C 
BRANCH  11  17
ATOM     17  N   UNL A   1      31.723  24.600  26.000  1.00  0.00    -0.323 N 
ATOM     18  C   UNL A   1      30.477  22.476  26.263  1.00  0.00     0.114 C 
ATOM     19  C   UNL A   1      30.569  23.975  26.389  1.00  0.00     0.221 C 
ATOM     20  O   UNL A   1      29.666  24.620  26.923  1.00  0.00    -0.275 OA
ATOM     21  H   UNL A   1      31.832  25.534  26.290  1.00  0.00     0.170 HD
ENDBRANCH  11  17
ENDBRANCH   8  10
ENDBRANCH   5   8
ENDBRANCH   3   4
ENDBRANCH   2   3
ENDBRANCH   1   2
BRANCH   1  22
ATOM     22  C   UNL A   1      41.858  20.414  27.330  1.00  0.00     0.002 C 
BRANCH  22  23
ATOM     23  C   UNL A   1      42.194  19.395  26.231  1.00  0.00     0.021 C 
BRANCH  23  24
ATOM     24  C   UNL A   1      43.604  18.835  26.308  1.00  0.00     0.116 C 
BRANCH  24  25
ATOM     25  N   UNL A   1      44.283  18.840  25.017  1.00  0.00    -0.352 N 
ATOM     26  C   UNL A   1      44.550  19.917  24.195  1.00  0.00     0.251 C 
ATOM     27  H   UNL A   1      44.592  17.964  24.691  1.00  0.00     0.163 HD
ATOM     28  O   UNL A   1      44.810  19.760  23.014  1.00  0.00    -0.269 OA
BRANCH  26  29
ATOM     29  C   UNL A   1      44.500  21.273  24.772  1.00  0.00     0.039 A 
ATOM     30  C   UNL A   1      43.567  22.209  24.319  1.00  0.00     0.014 A 
ATOM     31  C   UNL A   1      45.386  21.592  25.797  1.00  0.00     0.014 A 
ATOM     32  C   UNL A   1      43.481  23.437  24.968  1.00  0.00     0.010 A 
ATOM     33  C   UNL A   1      45.197  22.737  26.533  1.00  0.00     0.010 A 
ATOM     34  C   UNL A   1      44.282  23.687  26.095  1.00  0.00    -0.014 A 
BRANCH  34  35
ATOM     35  C   UNL A   1      44.099  24.910  26.869  1.00  0.00     0.031 A 
ATOM     36  C   UNL A   1      45.097  25.985  26.605  1.00  0.00     0.074 A 
ATOM     37  C   UNL A   1      43.018  25.152  27.643  1.00  0.00     0.049 A 
ATOM     38  N   UNL A   1      45.958  26.478  27.433  1.00  0.00    -0.248 NA
ATOM     39  C   UNL A   1      45.225  26.506  25.234  1.00  0.00     0.031 C 
ATOM     40  C   UNL A   1      41.792  24.363  27.798  1.00  0.00     0.029 A 
ATOM     41  N   UNL A   1      42.759  26.250  28.402  1.00  0.00    -0.354 N 
ATOM     42  C   UNL A   1      46.638  27.481  26.745  1.00  0.00     0.074 A 
ATOM     43  C   UNL A   1      46.240  27.364  25.366  1.00  0.00     0.031 C 
ATOM     44  C   UNL A   1      40.840  25.116  28.394  1.00  0.00     0.029 A 
ATOM     45  C   UNL A   1      41.442  26.366  28.821  1.00  0.00     0.049 A 
ATOM     46  H   UNL A   1      43.451  26.911  28.636  1.00  0.00     0.167 HD
ATOM     47  C   UNL A   1      47.322  28.452  27.414  1.00  0.00     0.037 A 
ATOM     48  C   UNL A   1      40.884  27.431  29.446  1.00  0.00     0.037 A 
ATOM     49  C   UNL A   1      47.588  28.053  28.774  1.00  0.00     0.049 A 
ATOM     50  C   UNL A   1      41.994  28.214  30.050  1.00  0.00     0.074 A 
ATOM     51  C   UNL A   1      48.254  26.988  29.353  1.00  0.00     0.029 A 
ATOM     52  N   UNL A   1      46.817  28.586  29.779  1.00  0.00    -0.354 N 
ATOM     53  N   UNL A   1      42.719  27.789  31.047  1.00  0.00    -0.248 NA
ATOM     54  C   UNL A   1      42.598  29.258  29.235  1.00  0.00     0.031 C 
ATOM     55  C   UNL A   1      47.448  26.621  30.473  1.00  0.00     0.029 A 
ATOM     56  C   UNL A   1      46.394  27.531  30.547  1.00  0.00     0.049 A 
ATOM     57  H   UNL A   1      46.608  29.537  29.920  1.00  0.00     0.167 HD
ATOM     58  C   UNL A   1      44.011  28.180  30.732  1.00  0.00     0.074 A 
ATOM     59  C   UNL A   1      43.864  29.149  29.648  1.00  0.00     0.031 C 
ATOM     60  C   UNL A   1      45.094  27.474  31.171  1.00  0.00     0.037 A 
BRANCH  47  61
ATOM     61  C   UNL A   1      47.438  29.891  26.967  1.00  0.00     0.064 A 
ATOM     62  C   UNL A   1      48.688  30.539  27.064  1.00  0.00     0.173 A 
ATOM     63  C   UNL A   1      46.330  30.740  26.760  1.00  0.00     0.173 A 
ATOM     64  F   UNL A   1      49.811  29.834  27.263  1.00  0.00    -0.203 F 
ATOM     65  C   UNL A   1      48.800  31.932  27.063  1.00  0.00     0.198 A 
ATOM     66  C   UNL A   1      46.454  32.127  26.707  1.00  0.00     0.198 A 
ATOM     67  F   UNL A   1      45.075  30.278  26.715  1.00  0.00    -0.203 F 
ATOM     68  F   UNL A   1      49.988  32.503  27.303  1.00  0.00    -0.200 F 
ATOM     69  C   UNL A   1      47.682  32.725  26.898  1.00  0.00     0.200 A 
ATOM     70  F   UNL A   1      45.353  32.879  26.560  1.00  0.00    -0.200 F 
ATOM     71  F   UNL A   1      47.773  34.059  26.972  1.00  0.00    -0.200 F 
ENDBRANCH  47  61
BRANCH  48  72
ATOM     72  C   UNL A   1      39.510  27.967  29.306  1.00  0.00     0.064 A 
ATOM     73  C   UNL A   1      38.674  28.115  30.425  1.00  0.00     0.173 A 
ATOM     74  C   UNL A   1      39.088  28.606  28.124  1.00  0.00     0.173 A 
ATOM     75  F   UNL A   1      39.021  27.572  31.602  1.00  0.00    -0.203 F 
ATOM     76  C   UNL A   1      37.508  28.885  30.374  1.00  0.00     0.198 A 
ATOM     77  C   UNL A   1      37.920  29.368  28.071  1.00  0.00     0.198 A 
ATOM     78  F   UNL A   1      39.850  28.588  27.020  1.00  0.00    -0.203 F 
ATOM     79  F   UNL A   1      36.773  29.060  31.481  1.00  0.00    -0.200 F 
ATOM     80  C   UNL A   1      37.138  29.521  29.201  1.00  0.00     0.200 A 
ATOM     81  F   UNL A   1      37.594  30.007  26.938  1.00  0.00    -0.200 F 
ATOM     82  F   UNL A   1      36.057  30.313  29.168  1.00  0.00    -0.200 F 
ENDBRANCH  48  72
BRANCH  60  83
ATOM     83  C   UNL A   1      44.882  26.394  32.195  1.00  0.00     0.064 A 
ATOM     84  C   UNL A   1      44.786  26.627  33.579  1.00  0.00     0.173 A 
ATOM     85  C   UNL A   1      44.604  25.097  31.743  1.00  0.00     0.173 A 
ATOM     86  F   UNL A   1      44.933  27.856  34.086  1.00  0.00    -0.203 F 
ATOM     87  C   UNL A   1      44.468  25.600  34.466  1.00  0.00     0.198 A 
ATOM     88  C   UNL A   1      44.249  24.082  32.627  1.00  0.00     0.198 A 
ATOM     89  F   UNL A   1      44.625  24.825  30.429  1.00  0.00    -0.203 F 
ATOM     90  F   UNL A   1      44.392  25.847  35.782  1.00  0.00    -0.200 F 
ATOM     91  C   UNL A   1      44.192  24.330  33.988  1.00  0.00     0.200 A 
ATOM     92  F   UNL A   1      43.933  22.869  32.154  1.00  0.00    -0.200 F 
ATOM     93  F   UNL A   1      43.844  23.352  34.836  1.00  0.00    -0.200 F 
ENDBRANCH  60  83
ENDBRANCH  34  35
ENDBRANCH  26  29
ENDBRANCH  24  25
ENDBRANCH  23  24
ENDBRANCH  22  23
ENDBRANCH   1  22
TORSDOF 15
ENDMDL
MODEL 2
REMARK VINA RESULT:     -11.5      4.075      7.434
REMARK SMILES CC(=O)Nc1c(C)nn([C@H](C)C(=O)NCCCCCCNC(=O)c2ccc(-c3c4nc(c(-c5c(F)c(F)c(F)c(F)c5F)c5ccc([nH]5)c(-c5c(F)c(F)c(F)c(F)c5F)c5nc(c(-c6c(F)c(F)c(F)c(F)c6F)c6ccc3[nH]6)C=C5)C=C4)cc2)c1C
REMARK SMILES IDX 17 1 16 2 15 3 14 4 12 5 13 6 10 8 11 9 9 10 5 11 6 12 87 13
REMARK SMILES IDX 7 14 8 15 88 16 4 17 1 18 2 19 3 20 18 22 19 23 20 24 21 25
REMARK SMILES IDX 22 26 23 28 24 29 25 30 86 31 26 32 85 33 27 34 28 35 29 36
REMARK SMILES IDX 79 37 30 38 84 39 78 40 80 41 31 42 83 43 77 44 76 45 32 47
REMARK SMILES IDX 64 48 44 49 63 50 45 51 48 52 62 53 81 54 46 55 47 56 61 58
REMARK SMILES IDX 82 59 49 60 33 61 34 62 42 63 35 64 36 65 40 66 43 67 37 68
REMARK SMILES IDX 38 69 41 70 39 71 65 72 66 73 74 74 67 75 68 76 72 77 75 78
REMARK SMILES IDX 69 79 70 80 73 81 71 82 50 83 51 84 59 85 52 86 53 87 57 88
REMARK SMILES IDX 60 89 54 90 55 91 58 92 56 93
REMARK H PARENT 14 7 4 21 21 27 80 46 48 57
REMARK Flexibility Score: inf
ROOT
ATOM      1  C   UNL A   1      46.317  23.689  25.883  1.00  0.00     0.002 C 
ENDROOT
BRANCH   1   2
ATOM      2  C   UNL A   1      45.712  23.650  27.287  1.00  0.00     0.021 C 
BRANCH   2   3
ATOM      3  C   UNL A   1      46.546  24.336  28.361  1.00  0.00     0.116 C 
BRANCH   3   4
ATOM      4  N   UNL A   1      45.763  24.933  29.416  1.00  0.00    -0.354 N 
ATOM      5  C   UNL A   1      45.513  26.255  29.673  1.00  0.00     0.244 C 
ATOM      6  O   UNL A   1      44.722  26.491  30.595  1.00  0.00    -0.273 OA
ATOM      7  H   UNL A   1      45.347  24.298  30.043  1.00  0.00     0.163 HD
BRANCH   5   8
ATOM      8  C   UNL A   1      46.267  27.398  28.982  1.00  0.00     0.193 C 
ATOM      9  C   UNL A   1      47.740  27.358  29.379  1.00  0.00     0.044 C 
BRANCH   8  10
ATOM     10  N   UNL A   1      45.926  27.539  27.565  1.00  0.00    -0.255 N 
ATOM     11  C   UNL A   1      45.913  27.793  25.380  1.00  0.00     0.085 A 
ATOM     12  C   UNL A   1      44.787  27.065  25.822  1.00  0.00     0.083 A 
ATOM     13  C   UNL A   1      46.507  28.266  26.537  1.00  0.00     0.060 A 
ATOM     14  C   UNL A   1      43.691  26.460  25.027  1.00  0.00     0.071 C 
ATOM     15  N   UNL A   1      44.814  26.892  27.145  1.00  0.00    -0.175 NA
ATOM     16  C   UNL A   1      47.480  29.383  26.712  1.00  0.00     0.069 C 
BRANCH  11  17
ATOM     17  N   UNL A   1      46.240  28.105  24.076  1.00  0.00    -0.323 N 
ATOM     18  C   UNL A   1      48.173  26.563  23.924  1.00  0.00     0.114 C 
ATOM     19  C   UNL A   1      47.343  27.696  23.376  1.00  0.00     0.221 C 
ATOM     20  O   UNL A   1      47.590  28.182  22.272  1.00  0.00    -0.275 OA
ATOM     21  H   UNL A   1      45.609  28.687  23.594  1.00  0.00     0.170 HD
ENDBRANCH  11  17
ENDBRANCH   8  10
ENDBRANCH   5   8
ENDBRANCH   3   4
ENDBRANCH   2   3
ENDBRANCH   1   2
BRANCH   1  22
ATOM     22  C   UNL A   1      45.623  22.818  24.823  1.00  0.00     0.002 C 
BRANCH  22  23
ATOM     23  C   UNL A   1      44.295  22.163  25.228  1.00  0.00     0.021 C 
BRANCH  23  24
ATOM     24  C   UNL A   1      43.072  23.033  24.994  1.00  0.00     0.116 C 
BRANCH  24  25
ATOM     25  N   UNL A   1      41.844  22.425  25.494  1.00  0.00    -0.352 N 
ATOM     26  C   UNL A   1      41.027  22.863  26.518  1.00  0.00     0.251 C 
ATOM     27  H   UNL A   1      41.560  21.597  25.043  1.00  0.00     0.163 HD
ATOM     28  O   UNL A   1      40.236  22.110  27.060  1.00  0.00    -0.269 OA
BRANCH  26  29
ATOM     29  C   UNL A   1      41.140  24.266  26.957  1.00  0.00     0.039 A 
ATOM     30  C   UNL A   1      40.405  25.273  26.327  1.00  0.00     0.014 A 
ATOM     31  C   UNL A   1      41.976  24.562  28.031  1.00  0.00     0.014 A 
ATOM     32  C   UNL A   1      40.456  26.564  26.845  1.00  0.00     0.010 A 
ATOM     33  C   UNL A   1      41.905  25.794  28.632  1.00  0.00     0.010 A 
ATOM     34  C   UNL A   1      41.189  26.815  28.018  1.00  0.00    -0.014 A 
BRANCH  34  35
ATOM     35  C   UNL A   1      41.133  28.128  28.651  1.00  0.00     0.031 A 
ATOM     36  C   UNL A   1      42.211  29.075  28.247  1.00  0.00     0.074 A 
ATOM     37  C   UNL A   1      40.100  28.549  29.413  1.00  0.00     0.049 A 
ATOM     38  N   UNL A   1      43.135  29.579  28.997  1.00  0.00    -0.248 NA
ATOM     39  C   UNL A   1      42.343  29.426  26.824  1.00  0.00     0.031 C 
ATOM     40  C   UNL A   1      38.816  27.893  29.681  1.00  0.00     0.029 A 
ATOM     41  N   UNL A   1      39.958  29.743  30.047  1.00  0.00    -0.354 N 
ATOM     42  C   UNL A   1      43.878  30.435  28.186  1.00  0.00     0.074 A 
ATOM     43  C   UNL A   1      43.431  30.200  26.838  1.00  0.00     0.031 C 
ATOM     44  C   UNL A   1      37.950  28.789  30.205  1.00  0.00     0.029 A 
ATOM     45  C   UNL A   1      38.668  30.021  30.475  1.00  0.00     0.049 A 
ATOM     46  H   UNL A   1      40.710  30.363  30.191  1.00  0.00     0.167 HD
ATOM     47  C   UNL A   1      44.661  31.411  28.728  1.00  0.00     0.037 A 
ATOM     48  C   UNL A   1      38.221  31.195  30.986  1.00  0.00     0.037 A 
ATOM     49  C   UNL A   1      44.932  31.145  30.119  1.00  0.00     0.049 A 
ATOM     50  C   UNL A   1      39.411  31.939  31.474  1.00  0.00     0.074 A 
ATOM     51  C   UNL A   1      45.520  30.097  30.803  1.00  0.00     0.029 A 
ATOM     52  N   UNL A   1      44.238  31.852  31.071  1.00  0.00    -0.354 N 
ATOM     53  N   UNL A   1      40.125  31.566  32.500  1.00  0.00    -0.248 NA
ATOM     54  C   UNL A   1      40.078  32.828  30.535  1.00  0.00     0.031 C 
ATOM     55  C   UNL A   1      44.719  29.929  31.972  1.00  0.00     0.029 A 
ATOM     56  C   UNL A   1      43.749  30.931  31.962  1.00  0.00     0.049 A 
ATOM     57  H   UNL A   1      44.115  32.828  31.107  1.00  0.00     0.167 HD
ATOM     58  C   UNL A   1      41.436  31.804  32.118  1.00  0.00     0.074 A 
ATOM     59  C   UNL A   1      41.342  32.655  30.933  1.00  0.00     0.031 C 
ATOM     60  C   UNL A   1      42.468  31.059  32.613  1.00  0.00     0.037 A 
BRANCH  47  61
ATOM     61  C   UNL A   1      44.886  32.775  28.118  1.00  0.00     0.064 A 
ATOM     62  C   UNL A   1      46.208  33.205  27.871  1.00  0.00     0.173 A 
ATOM     63  C   UNL A   1      43.902  33.784  28.068  1.00  0.00     0.173 A 
ATOM     64  F   UNL A   1      47.227  32.334  27.895  1.00  0.00    -0.203 F 
ATOM     65  C   UNL A   1      46.526  34.555  27.700  1.00  0.00     0.198 A 
ATOM     66  C   UNL A   1      44.218  35.124  27.844  1.00  0.00     0.198 A 
ATOM     67  F   UNL A   1      42.616  33.542  28.346  1.00  0.00    -0.203 F 
ATOM     68  F   UNL A   1      47.810  34.930  27.615  1.00  0.00    -0.200 F 
ATOM     69  C   UNL A   1      45.533  35.515  27.699  1.00  0.00     0.200 A 
ATOM     70  F   UNL A   1      43.240  36.041  27.862  1.00  0.00    -0.200 F 
ATOM     71  F   UNL A   1      45.839  36.815  27.612  1.00  0.00    -0.200 F 
ENDBRANCH  47  61
BRANCH  48  72
ATOM     72  C   UNL A   1      36.894  31.830  30.812  1.00  0.00     0.064 A 
ATOM     73  C   UNL A   1      36.001  31.944  31.889  1.00  0.00     0.173 A 
ATOM     74  C   UNL A   1      36.588  32.588  29.664  1.00  0.00     0.173 A 
ATOM     75  F   UNL A   1      36.238  31.288  33.035  1.00  0.00    -0.203 F 
ATOM     76  C   UNL A   1      34.889  32.792  31.836  1.00  0.00     0.198 A 
ATOM     77  C   UNL A   1      35.475  33.428  29.608  1.00  0.00     0.198 A 
ATOM     78  F   UNL A   1      37.416  32.607  28.609  1.00  0.00    -0.203 F 
ATOM     79  F   UNL A   1      34.098  32.927  32.909  1.00  0.00    -0.200 F 
ATOM     80  C   UNL A   1      34.635  33.542  30.700  1.00  0.00     0.200 A 
ATOM     81  F   UNL A   1      35.261  34.175  28.516  1.00  0.00    -0.200 F 
ATOM     82  F   UNL A   1      33.608  34.405  30.671  1.00  0.00    -0.200 F 
ENDBRANCH  48  72
BRANCH  60  83
ATOM     83  C   UNL A   1      42.194  30.124  33.758  1.00  0.00     0.064 A 
ATOM     84  C   UNL A   1      41.754  28.796  33.606  1.00  0.00     0.173 A 
ATOM     85  C   UNL A   1      42.545  30.538  35.050  1.00  0.00     0.173 A 
ATOM     86  F   UNL A   1      41.497  28.287  32.396  1.00  0.00    -0.203 F 
ATOM     87  C   UNL A   1      41.634  27.942  34.701  1.00  0.00     0.198 A 
ATOM     88  C   UNL A   1      42.461  29.672  36.137  1.00  0.00     0.198 A 
ATOM     89  F   UNL A   1      43.024  31.775  35.252  1.00  0.00    -0.203 F 
ATOM     90  F   UNL A   1      41.203  26.684  34.528  1.00  0.00    -0.200 F 
ATOM     91  C   UNL A   1      41.996  28.378  35.964  1.00  0.00     0.200 A 
ATOM     92  F   UNL A   1      42.860  30.083  37.348  1.00  0.00    -0.200 F 
ATOM     93  F   UNL A   1      41.922  27.545  37.012  1.00  0.00    -0.200 F 
ENDBRANCH  60  83
ENDBRANCH  34  35
ENDBRANCH  26  29
ENDBRANCH  24  25
ENDBRANCH  23  24
ENDBRANCH  22  23
ENDBRANCH   1  22
TORSDOF 15
ENDMDL
MODEL 3
REMARK VINA RESULT:     -11.5      1.794      2.739
REMARK SMILES CC(=O)Nc1c(C)nn([C@H](C)C(=O)NCCCCCCNC(=O)c2ccc(-c3c4nc(c(-c5c(F)c(F)c(F)c(F)c5F)c5ccc([nH]5)c(-c5c(F)c(F)c(F)c(F)c5F)c5nc(c(-c6c(F)c(F)c(F)c(F)c6F)c6ccc3[nH]6)C=C5)C=C4)cc2)c1C
REMARK SMILES IDX 17 1 16 2 15 3 14 4 12 5 13 6 10 8 11 9 9 10 5 11 6 12 87 13
REMARK SMILES IDX 7 14 8 15 88 16 4 17 1 18 2 19 3 20 18 22 19 23 20 24 21 25
REMARK SMILES IDX 22 26 23 28 24 29 25 30 86 31 26 32 85 33 27 34 28 35 29 36
REMARK SMILES IDX 79 37 30 38 84 39 78 40 80 41 31 42 83 43 77 44 76 45 32 47
REMARK SMILES IDX 64 48 44 49 63 50 45 51 48 52 62 53 81 54 46 55 47 56 61 58
REMARK SMILES IDX 82 59 49 60 33 61 34 62 42 63 35 64 36 65 40 66 43 67 37 68
REMARK SMILES IDX 38 69 41 70 39 71 65 72 66 73 74 74 67 75 68 76 72 77 75 78
REMARK SMILES IDX 69 79 70 80 73 81 71 82 50 83 51 84 59 85 52 86 53 87 57 88
REMARK SMILES IDX 60 89 54 90 55 91 58 92 56 93
REMARK H PARENT 14 7 4 21 21 27 80 46 48 57
REMARK Flexibility Score: inf
ROOT
ATOM      1  C   UNL A   1      40.602  21.630  27.678  1.00  0.00     0.002 C 
ENDROOT
BRANCH   1   2
ATOM      2  C   UNL A   1      40.043  22.252  26.397  1.00  0.00     0.021 C 
BRANCH   2   3
ATOM      3  C   UNL A   1      38.524  22.338  26.341  1.00  0.00     0.116 C 
BRANCH   3   4
ATOM      4  N   UNL A   1      37.999  22.541  25.012  1.00  0.00    -0.354 N 
ATOM      5  C   UNL A   1      36.708  22.453  24.563  1.00  0.00     0.244 C 
ATOM      6  O   UNL A   1      36.518  22.774  23.384  1.00  0.00    -0.273 OA
ATOM      7  H   UNL A   1      38.666  22.778  24.328  1.00  0.00     0.163 HD
BRANCH   5   8
ATOM      8  C   UNL A   1      35.572  21.850  25.400  1.00  0.00     0.193 C 
ATOM      9  C   UNL A   1      34.530  22.921  25.703  1.00  0.00     0.044 C 
BRANCH   8  10
ATOM     10  N   UNL A   1      35.118  20.550  24.901  1.00  0.00    -0.255 N 
ATOM     11  C   UNL A   1      34.733  18.419  24.517  1.00  0.00     0.085 A 
ATOM     12  C   UNL A   1      33.648  19.222  24.103  1.00  0.00     0.083 A 
ATOM     13  C   UNL A   1      35.743  19.314  24.822  1.00  0.00     0.060 A 
ATOM     14  C   UNL A   1      32.350  18.813  23.515  1.00  0.00     0.071 C 
ATOM     15  N   UNL A   1      33.877  20.511  24.363  1.00  0.00    -0.175 NA
ATOM     16  C   UNL A   1      37.210  19.081  24.944  1.00  0.00     0.069 C 
BRANCH  11  17
ATOM     17  N   UNL A   1      34.816  17.042  24.458  1.00  0.00    -0.323 N 
ATOM     18  C   UNL A   1      32.947  16.608  26.025  1.00  0.00     0.114 C 
ATOM     19  C   UNL A   1      34.133  16.136  25.223  1.00  0.00     0.221 C 
ATOM     20  O   UNL A   1      34.426  14.941  25.174  1.00  0.00    -0.275 OA
ATOM     21  H   UNL A   1      35.437  16.670  23.792  1.00  0.00     0.170 HD
ENDBRANCH  11  17
ENDBRANCH   8  10
ENDBRANCH   5   8
ENDBRANCH   3   4
ENDBRANCH   2   3
ENDBRANCH   1   2
BRANCH   1  22
ATOM     22  C   UNL A   1      42.102  21.294  27.667  1.00  0.00     0.002 C 
BRANCH  22  23
ATOM     23  C   UNL A   1      42.494  19.897  27.163  1.00  0.00     0.021 C 
BRANCH  23  24
ATOM     24  C   UNL A   1      42.430  19.737  25.654  1.00  0.00     0.116 C 
BRANCH  24  25
ATOM     25  N   UNL A   1      43.742  19.524  25.054  1.00  0.00    -0.352 N 
ATOM     26  C   UNL A   1      44.656  20.471  24.634  1.00  0.00     0.251 C 
ATOM     27  H   UNL A   1      44.012  18.584  24.934  1.00  0.00     0.163 HD
ATOM     28  O   UNL A   1      45.549  20.184  23.856  1.00  0.00    -0.269 OA
BRANCH  26  29
ATOM     29  C   UNL A   1      44.523  21.850  25.140  1.00  0.00     0.039 A 
ATOM     30  C   UNL A   1      43.559  22.713  24.614  1.00  0.00     0.014 A 
ATOM     31  C   UNL A   1      45.361  22.263  26.171  1.00  0.00     0.014 A 
ATOM     32  C   UNL A   1      43.394  23.966  25.196  1.00  0.00     0.010 A 
ATOM     33  C   UNL A   1      45.094  23.432  26.842  1.00  0.00     0.010 A 
ATOM     34  C   UNL A   1      44.148  24.312  26.330  1.00  0.00    -0.014 A 
BRANCH  34  35
ATOM     35  C   UNL A   1      43.882  25.562  27.036  1.00  0.00     0.031 A 
ATOM     36  C   UNL A   1      44.806  26.685  26.709  1.00  0.00     0.074 A 
ATOM     37  C   UNL A   1      42.786  25.774  27.797  1.00  0.00     0.049 A 
ATOM     38  N   UNL A   1      45.631  27.279  27.507  1.00  0.00    -0.248 NA
ATOM     39  C   UNL A   1      44.901  27.136  25.312  1.00  0.00     0.031 C 
ATOM     40  C   UNL A   1      41.616  24.914  27.999  1.00  0.00     0.029 A 
ATOM     41  N   UNL A   1      42.453  26.892  28.494  1.00  0.00    -0.354 N 
ATOM     42  C   UNL A   1      46.243  28.286  26.762  1.00  0.00     0.074 A 
ATOM     43  C   UNL A   1      45.856  28.065  25.393  1.00  0.00     0.031 C 
ATOM     44  C   UNL A   1      40.615  25.634  28.554  1.00  0.00     0.029 A 
ATOM     45  C   UNL A   1      41.130  26.943  28.909  1.00  0.00     0.049 A 
ATOM     46  H   UNL A   1      43.099  27.610  28.689  1.00  0.00     0.167 HD
ATOM     47  C   UNL A   1      46.860  29.336  27.375  1.00  0.00     0.037 A 
ATOM     48  C   UNL A   1      40.501  28.002  29.475  1.00  0.00     0.037 A 
ATOM     49  C   UNL A   1      47.150  29.033  28.754  1.00  0.00     0.049 A 
ATOM     50  C   UNL A   1      41.556  28.890  30.031  1.00  0.00     0.074 A 
ATOM     51  C   UNL A   1      47.884  28.049  29.390  1.00  0.00     0.029 A 
ATOM     52  N   UNL A   1      46.343  29.568  29.730  1.00  0.00    -0.354 N 
ATOM     53  N   UNL A   1      42.305  28.571  31.049  1.00  0.00    -0.248 NA
ATOM     54  C   UNL A   1      42.090  29.925  29.158  1.00  0.00     0.031 C 
ATOM     55  C   UNL A   1      47.103  27.691  30.531  1.00  0.00     0.029 A 
ATOM     56  C   UNL A   1      45.991  28.532  30.556  1.00  0.00     0.049 A 
ATOM     57  H   UNL A   1      46.071  30.510  29.817  1.00  0.00     0.167 HD
ATOM     58  C   UNL A   1      43.569  29.029  30.710  1.00  0.00     0.074 A 
ATOM     59  C   UNL A   1      43.360  29.924  29.573  1.00  0.00     0.031 C 
ATOM     60  C   UNL A   1      44.697  28.423  31.185  1.00  0.00     0.037 A 
BRANCH  47  61
ATOM     61  C   UNL A   1      46.879  30.752  26.848  1.00  0.00     0.064 A 
ATOM     62  C   UNL A   1      48.083  31.487  26.905  1.00  0.00     0.173 A 
ATOM     63  C   UNL A   1      45.717  31.512  26.596  1.00  0.00     0.173 A 
ATOM     64  F   UNL A   1      49.251  30.871  27.141  1.00  0.00    -0.203 F 
ATOM     65  C   UNL A   1      48.102  32.882  26.826  1.00  0.00     0.198 A 
ATOM     66  C   UNL A   1      45.748  32.900  26.465  1.00  0.00     0.198 A 
ATOM     67  F   UNL A   1      44.496  30.966  26.580  1.00  0.00    -0.203 F 
ATOM     68  F   UNL A   1      49.249  33.544  27.031  1.00  0.00    -0.200 F 
ATOM     69  C   UNL A   1      46.933  33.589  26.619  1.00  0.00     0.200 A 
ATOM     70  F   UNL A   1      44.600  33.567  26.279  1.00  0.00    -0.200 F 
ATOM     71  F   UNL A   1      46.935  34.927  26.619  1.00  0.00    -0.200 F 
ENDBRANCH  47  61
BRANCH  48  72
ATOM     72  C   UNL A   1      39.095  28.436  29.308  1.00  0.00     0.064 A 
ATOM     73  C   UNL A   1      38.251  28.595  30.420  1.00  0.00     0.173 A 
ATOM     74  C   UNL A   1      38.632  28.973  28.091  1.00  0.00     0.173 A 
ATOM     75  F   UNL A   1      38.633  28.148  31.625  1.00  0.00    -0.203 F 
ATOM     76  C   UNL A   1      37.036  29.281  30.327  1.00  0.00     0.198 A 
ATOM     77  C   UNL A   1      37.415  29.652  27.997  1.00  0.00     0.198 A 
ATOM     78  F   UNL A   1      39.394  28.939  26.988  1.00  0.00    -0.203 F 
ATOM     79  F   UNL A   1      36.290  29.473  31.424  1.00  0.00    -0.200 F 
ATOM     80  C   UNL A   1      36.625  29.819  29.119  1.00  0.00     0.200 A 
ATOM     81  F   UNL A   1      37.048  30.198  26.829  1.00  0.00    -0.200 F 
ATOM     82  F   UNL A   1      35.493  30.534  29.043  1.00  0.00    -0.200 F 
ENDBRANCH  48  72
BRANCH  60  83
ATOM     83  C   UNL A   1      44.556  27.391  32.269  1.00  0.00     0.064 A 
ATOM     84  C   UNL A   1      44.358  26.018  32.032  1.00  0.00     0.173 A 
ATOM     85  C   UNL A   1      44.791  27.785  33.593  1.00  0.00     0.173 A 
ATOM     86  F   UNL A   1      44.230  25.542  30.788  1.00  0.00    -0.203 F 
ATOM     87  C   UNL A   1      44.356  25.095  33.076  1.00  0.00     0.198 A 
ATOM     88  C   UNL A   1      44.826  26.857  34.630  1.00  0.00     0.198 A 
ATOM     89  F   UNL A   1      45.041  29.073  33.876  1.00  0.00    -0.203 F 
ATOM     90  F   UNL A   1      44.155  23.794  32.823  1.00  0.00    -0.200 F 
ATOM     91  C   UNL A   1      44.598  25.514  34.374  1.00  0.00     0.200 A 
ATOM     92  F   UNL A   1      45.112  27.260  35.875  1.00  0.00    -0.200 F 
ATOM     93  F   UNL A   1      44.639  24.622  35.373  1.00  0.00    -0.200 F 
ENDBRANCH  60  83
ENDBRANCH  34  35
ENDBRANCH  26  29
ENDBRANCH  24  25
ENDBRANCH  23  24
ENDBRANCH  22  23
ENDBRANCH   1  22
TORSDOF 15
ENDMDL
