MODEL 1
REMARK VINA RESULT:     -14.1      0.000      0.000
REMARK SMILES O=C(CCc1cn(-c2ccc(Br)cc2)nc1-c1ccccc1)NCCCCCCNC(=O)c1ccc(-c2c3nc(c(-c4c(F)c(F)c(F)c(F)c4F)c4ccc([nH]4)c(-c4c(F)c(F)c(F)c(F)c4F)c4nc(c(-c5c(F)c(F)c(F)c(F)c5F)c5ccc2[nH]5)C=C4)C=C3)cc1
REMARK SMILES IDX 26 1 25 2 24 3 23 4 1 5 2 6 3 8 4 9 5 10 6 11 16 12 7 13
REMARK SMILES IDX 15 14 17 15 18 16 22 17 19 18 21 19 20 20 8 21 9 22 14 23
REMARK SMILES IDX 10 24 13 25 11 26 12 27 27 28 28 29 29 30 30 31 31 32 32 34
REMARK SMILES IDX 33 35 34 36 95 37 35 38 94 39 36 40 37 41 38 42 88 43 39 44
REMARK SMILES IDX 93 45 87 46 89 47 40 48 92 49 86 50 85 51 41 53 73 54 53 55
REMARK SMILES IDX 72 56 54 57 57 58 71 59 90 60 55 61 56 62 70 64 91 65 58 66
REMARK SMILES IDX 42 67 43 68 51 69 44 70 45 71 49 72 52 73 46 74 47 75 50 76
REMARK SMILES IDX 48 77 74 78 75 79 83 80 76 81 77 82 81 83 84 84 78 85 79 86
REMARK SMILES IDX 82 87 80 88 59 89 60 90 68 91 61 92 62 93 66 94 69 95 63 96
REMARK SMILES IDX 64 97 67 98 65 99
REMARK H PARENT 23 7 30 33 89 52 57 63
REMARK Flexibility Score: inf
ROOT
ATOM      1  C   UNL A   1      33.306  27.732  26.022  1.00  0.00     0.002 C 
ENDROOT
BRANCH   1   2
ATOM      2  C   UNL A   1      32.275  26.684  26.484  1.00  0.00     0.021 C 
BRANCH   2   3
ATOM      3  C   UNL A   1      32.654  25.027  26.712  1.00  0.00     0.116 C 
BRANCH   3   4
ATOM      4  N   UNL A   1      34.262  23.831  26.170  1.00  0.00    -0.356 N 
ATOM      5  O   UNL A   1      36.563  24.278  25.804  1.00  0.00    -0.275 OA
ATOM      6  C   UNL A   1      35.524  23.697  25.498  1.00  0.00     0.220 C 
ATOM      7  H   UNL A   1      34.071  22.944  26.551  1.00  0.00     0.163 HD
BRANCH   6   8
ATOM      8  C   UNL A   1      35.514  22.714  24.294  1.00  0.00     0.105 C 
BRANCH   8   9
ATOM      9  C   UNL A   1      34.660  22.955  23.030  1.00  0.00     0.049 C 
BRANCH   9  10
ATOM     10  C   UNL A   1      33.330  23.651  23.196  1.00  0.00    -0.001 A 
ATOM     11  C   UNL A   1      32.988  24.980  22.977  1.00  0.00     0.119 A 
ATOM     12  C   UNL A   1      32.088  23.065  23.529  1.00  0.00     0.096 A 
ATOM     13  N   UNL A   1      31.649  25.116  23.292  1.00  0.00    -0.240 N 
ATOM     14  N   UNL A   1      31.131  23.960  23.744  1.00  0.00    -0.168 NA
BRANCH  12  15
ATOM     15  C   UNL A   1      31.858  21.651  23.633  1.00  0.00     0.002 A 
ATOM     16  C   UNL A   1      31.845  20.711  22.077  1.00  0.00     0.010 A 
ATOM     17  C   UNL A   1      32.343  20.874  25.202  1.00  0.00     0.010 A 
ATOM     18  C   UNL A   1      32.409  18.981  22.103  1.00  0.00     0.001 A 
ATOM     19  C   UNL A   1      32.839  19.133  25.214  1.00  0.00     0.001 A 
ATOM     20  C   UNL A   1      32.940  18.209  23.650  1.00  0.00     0.000 A 
ENDBRANCH  12  15
BRANCH  13  21
ATOM     21  C   UNL A   1      30.780  26.219  23.118  1.00  0.00     0.065 A 
ATOM     22  C   UNL A   1      29.483  26.201  23.639  1.00  0.00     0.029 A 
ATOM     23  C   UNL A   1      31.288  27.384  22.518  1.00  0.00     0.029 A 
ATOM     24  C   UNL A   1      28.710  27.369  23.582  1.00  0.00     0.018 A 
ATOM     25  C   UNL A   1      30.493  28.524  22.415  1.00  0.00     0.018 A 
ATOM     26  C   UNL A   1      29.213  28.516  22.962  1.00  0.00     0.018 A 
ATOM     27  Br  UNL A   1      28.159  30.084  22.887  1.00  0.00    -0.051 Br
ENDBRANCH  13  21
ENDBRANCH   9  10
ENDBRANCH   8   9
ENDBRANCH   6   8
ENDBRANCH   3   4
ENDBRANCH   2   3
ENDBRANCH   1   2
BRANCH   1  28
ATOM     28  C   UNL A   1      32.853  29.157  25.656  1.00  0.00     0.002 C 
BRANCH  28  29
ATOM     29  C   UNL A   1      32.805  30.226  26.745  1.00  0.00     0.021 C 
BRANCH  29  30
ATOM     30  C   UNL A   1      34.165  30.613  27.275  1.00  0.00     0.116 C 
BRANCH  30  31
ATOM     31  N   UNL A   1      34.096  31.575  28.383  1.00  0.00    -0.352 N 
ATOM     32  C   UNL A   1      34.957  31.704  29.461  1.00  0.00     0.251 C 
ATOM     33  H   UNL A   1      33.342  32.207  28.357  1.00  0.00     0.163 HD
ATOM     34  O   UNL A   1      34.626  32.269  30.495  1.00  0.00    -0.269 OA
BRANCH  32  35
ATOM     35  C   UNL A   1      36.321  31.183  29.301  1.00  0.00     0.039 A 
ATOM     36  C   UNL A   1      37.467  31.979  29.236  1.00  0.00     0.014 A 
ATOM     37  C   UNL A   1      36.421  29.805  29.343  1.00  0.00     0.014 A 
ATOM     38  C   UNL A   1      38.704  31.335  29.206  1.00  0.00     0.010 A 
ATOM     39  C   UNL A   1      37.586  29.291  29.797  1.00  0.00     0.010 A 
ATOM     40  C   UNL A   1      38.738  29.959  29.465  1.00  0.00    -0.014 A 
BRANCH  40  41
ATOM     41  C   UNL A   1      39.944  29.167  29.589  1.00  0.00     0.031 A 
ATOM     42  C   UNL A   1      40.312  28.945  31.001  1.00  0.00     0.074 A 
ATOM     43  C   UNL A   1      40.505  28.518  28.539  1.00  0.00     0.049 A 
ATOM     44  N   UNL A   1      41.254  29.541  31.644  1.00  0.00    -0.248 NA
ATOM     45  C   UNL A   1      39.396  28.177  31.861  1.00  0.00     0.031 C 
ATOM     46  C   UNL A   1      40.047  28.418  27.145  1.00  0.00     0.029 A 
ATOM     47  N   UNL A   1      41.620  27.732  28.531  1.00  0.00    -0.354 N 
ATOM     48  C   UNL A   1      41.218  29.017  32.927  1.00  0.00     0.074 A 
ATOM     49  C   UNL A   1      39.928  28.398  33.065  1.00  0.00     0.031 C 
ATOM     50  C   UNL A   1      40.735  27.447  26.498  1.00  0.00     0.029 A 
ATOM     51  C   UNL A   1      41.784  26.962  27.371  1.00  0.00     0.049 A 
ATOM     52  H   UNL A   1      42.260  27.708  29.280  1.00  0.00     0.167 HD
ATOM     53  C   UNL A   1      42.377  28.871  33.626  1.00  0.00     0.037 A 
ATOM     54  C   UNL A   1      42.709  25.976  27.210  1.00  0.00     0.037 A 
ATOM     55  C   UNL A   1      43.432  29.651  33.017  1.00  0.00     0.049 A 
ATOM     56  C   UNL A   1      43.786  26.244  28.211  1.00  0.00     0.074 A 
ATOM     57  C   UNL A   1      43.590  30.994  32.727  1.00  0.00     0.029 A 
ATOM     58  N   UNL A   1      44.317  28.989  32.197  1.00  0.00    -0.354 N 
ATOM     59  N   UNL A   1      44.543  27.310  28.165  1.00  0.00    -0.248 NA
ATOM     60  C   UNL A   1      43.605  25.655  29.533  1.00  0.00     0.031 C 
ATOM     61  C   UNL A   1      44.159  31.022  31.418  1.00  0.00     0.029 A 
ATOM     62  C   UNL A   1      44.432  29.709  31.034  1.00  0.00     0.049 A 
ATOM     63  H   UNL A   1      44.783  28.148  32.407  1.00  0.00     0.167 HD
ATOM     64  C   UNL A   1      44.568  27.779  29.472  1.00  0.00     0.074 A 
ATOM     65  C   UNL A   1      43.980  26.703  30.275  1.00  0.00     0.031 C 
ATOM     66  C   UNL A   1      44.747  29.103  29.759  1.00  0.00     0.037 A 
BRANCH  53  67
ATOM     67  C   UNL A   1      42.670  27.717  34.554  1.00  0.00     0.064 A 
ATOM     68  C   UNL A   1      43.158  26.520  33.995  1.00  0.00     0.173 A 
ATOM     69  C   UNL A   1      42.213  27.621  35.887  1.00  0.00     0.173 A 
ATOM     70  F   UNL A   1      43.615  26.491  32.734  1.00  0.00    -0.203 F 
ATOM     71  C   UNL A   1      43.094  25.305  34.680  1.00  0.00     0.198 A 
ATOM     72  C   UNL A   1      42.198  26.416  36.585  1.00  0.00     0.198 A 
ATOM     73  F   UNL A   1      41.660  28.649  36.537  1.00  0.00    -0.203 F 
ATOM     74  F   UNL A   1      43.440  24.171  34.056  1.00  0.00    -0.200 F 
ATOM     75  C   UNL A   1      42.604  25.253  35.971  1.00  0.00     0.200 A 
ATOM     76  F   UNL A   1      41.703  26.386  37.830  1.00  0.00    -0.200 F 
ATOM     77  F   UNL A   1      42.477  24.080  36.607  1.00  0.00    -0.200 F 
ENDBRANCH  53  67
BRANCH  54  78
ATOM     78  C   UNL A   1      42.505  24.641  26.580  1.00  0.00     0.064 A 
ATOM     79  C   UNL A   1      43.294  24.192  25.503  1.00  0.00     0.173 A 
ATOM     80  C   UNL A   1      41.706  23.660  27.204  1.00  0.00     0.173 A 
ATOM     81  F   UNL A   1      44.131  25.038  24.883  1.00  0.00    -0.203 F 
ATOM     82  C   UNL A   1      43.287  22.852  25.088  1.00  0.00     0.198 A 
ATOM     83  C   UNL A   1      41.699  22.326  26.790  1.00  0.00     0.198 A 
ATOM     84  F   UNL A   1      40.984  23.956  28.293  1.00  0.00    -0.203 F 
ATOM     85  F   UNL A   1      44.090  22.452  24.091  1.00  0.00    -0.200 F 
ATOM     86  C   UNL A   1      42.496  21.919  25.738  1.00  0.00     0.200 A 
ATOM     87  F   UNL A   1      40.961  21.429  27.459  1.00  0.00    -0.200 F 
ATOM     88  F   UNL A   1      42.530  20.627  25.381  1.00  0.00    -0.200 F 
ENDBRANCH  54  78
BRANCH  66  89
ATOM     89  C   UNL A   1      45.113  30.045  28.640  1.00  0.00     0.064 A 
ATOM     90  C   UNL A   1      44.184  30.729  27.836  1.00  0.00     0.173 A 
ATOM     91  C   UNL A   1      46.460  30.405  28.504  1.00  0.00     0.173 A 
ATOM     92  F   UNL A   1      42.870  30.520  27.969  1.00  0.00    -0.203 F 
ATOM     93  C   UNL A   1      44.591  31.702  26.919  1.00  0.00     0.198 A 
ATOM     94  C   UNL A   1      46.861  31.398  27.616  1.00  0.00     0.198 A 
ATOM     95  F   UNL A   1      47.387  29.829  29.285  1.00  0.00    -0.203 F 
ATOM     96  F   UNL A   1      43.684  32.341  26.166  1.00  0.00    -0.200 F 
ATOM     97  C   UNL A   1      45.930  32.040  26.817  1.00  0.00     0.200 A 
ATOM     98  F   UNL A   1      48.151  31.757  27.560  1.00  0.00    -0.200 F 
ATOM     99  F   UNL A   1      46.321  33.003  25.969  1.00  0.00    -0.200 F 
ENDBRANCH  66  89
ENDBRANCH  40  41
ENDBRANCH  32  35
ENDBRANCH  30  31
ENDBRANCH  29  30
ENDBRANCH  28  29
ENDBRANCH   1  28
TORSDOF 17
ENDMDL
MODEL 2
REMARK VINA RESULT:     -13.8      2.236      4.066
REMARK SMILES O=C(CCc1cn(-c2ccc(Br)cc2)nc1-c1ccccc1)NCCCCCCNC(=O)c1ccc(-c2c3nc(c(-c4c(F)c(F)c(F)c(F)c4F)c4ccc([nH]4)c(-c4c(F)c(F)c(F)c(F)c4F)c4nc(c(-c5c(F)c(F)c(F)c(F)c5F)c5ccc2[nH]5)C=C4)C=C3)cc1
REMARK SMILES IDX 26 1 25 2 24 3 23 4 1 5 2 6 3 8 4 9 5 10 6 11 16 12 7 13
REMARK SMILES IDX 15 14 17 15 18 16 22 17 19 18 21 19 20 20 8 21 9 22 14 23
REMARK SMILES IDX 10 24 13 25 11 26 12 27 27 28 28 29 29 30 30 31 31 32 32 34
REMARK SMILES IDX 33 35 34 36 95 37 35 38 94 39 36 40 37 41 38 42 88 43 39 44
REMARK SMILES IDX 93 45 87 46 89 47 40 48 92 49 86 50 85 51 41 53 73 54 53 55
REMARK SMILES IDX 72 56 54 57 57 58 71 59 90 60 55 61 56 62 70 64 91 65 58 66
REMARK SMILES IDX 42 67 43 68 51 69 44 70 45 71 49 72 52 73 46 74 47 75 50 76
REMARK SMILES IDX 48 77 74 78 75 79 83 80 76 81 77 82 81 83 84 84 78 85 79 86
REMARK SMILES IDX 82 87 80 88 59 89 60 90 68 91 61 92 62 93 66 94 69 95 63 96
REMARK SMILES IDX 64 97 67 98 65 99
REMARK H PARENT 23 7 30 33 89 52 57 63
REMARK Flexibility Score: inf
ROOT
ATOM      1  C   UNL A   1      31.339  27.741  26.125  1.00  0.00     0.002 C 
ENDROOT
BRANCH   1   2
ATOM      2  C   UNL A   1      31.165  28.470  24.779  1.00  0.00     0.021 C 
BRANCH   2   3
ATOM      3  C   UNL A   1      32.258  28.300  23.469  1.00  0.00     0.116 C 
BRANCH   3   4
ATOM      4  N   UNL A   1      33.205  26.677  22.586  1.00  0.00    -0.356 N 
ATOM      5  O   UNL A   1      33.023  25.659  20.451  1.00  0.00    -0.275 OA
ATOM      6  C   UNL A   1      33.155  25.573  21.670  1.00  0.00     0.220 C 
ATOM      7  H   UNL A   1      34.108  26.655  22.976  1.00  0.00     0.163 HD
BRANCH   6   8
ATOM      8  C   UNL A   1      33.293  24.174  22.334  1.00  0.00     0.105 C 
BRANCH   8   9
ATOM      9  C   UNL A   1      34.461  23.813  23.277  1.00  0.00     0.049 C 
BRANCH   9  10
ATOM     10  C   UNL A   1      34.455  22.446  23.921  1.00  0.00    -0.001 A 
ATOM     11  C   UNL A   1      33.535  21.412  23.805  1.00  0.00     0.119 A 
ATOM     12  C   UNL A   1      35.462  21.873  24.730  1.00  0.00     0.096 A 
ATOM     13  N   UNL A   1      33.976  20.379  24.610  1.00  0.00    -0.240 N 
ATOM     14  N   UNL A   1      35.100  20.714  25.268  1.00  0.00    -0.168 NA
BRANCH  12  15
ATOM     15  C   UNL A   1      36.750  22.462  24.965  1.00  0.00     0.002 A 
ATOM     16  C   UNL A   1      36.768  24.072  25.809  1.00  0.00     0.010 A 
ATOM     17  C   UNL A   1      38.145  21.307  25.105  1.00  0.00     0.010 A 
ATOM     18  C   UNL A   1      38.188  24.480  26.873  1.00  0.00     0.001 A 
ATOM     19  C   UNL A   1      39.576  21.761  26.118  1.00  0.00     0.001 A 
ATOM     20  C   UNL A   1      39.562  23.319  27.059  1.00  0.00     0.000 A 
ENDBRANCH  12  15
BRANCH  13  21
ATOM     21  C   UNL A   1      33.485  19.059  24.748  1.00  0.00     0.065 A 
ATOM     22  C   UNL A   1      33.619  18.130  23.712  1.00  0.00     0.029 A 
ATOM     23  C   UNL A   1      32.969  18.663  25.994  1.00  0.00     0.029 A 
ATOM     24  C   UNL A   1      33.263  16.795  23.944  1.00  0.00     0.018 A 
ATOM     25  C   UNL A   1      32.564  17.345  26.198  1.00  0.00     0.018 A 
ATOM     26  C   UNL A   1      32.728  16.413  25.177  1.00  0.00     0.018 A 
ATOM     27  Br  UNL A   1      32.247  14.609  25.477  1.00  0.00    -0.051 Br
ENDBRANCH  13  21
ENDBRANCH   9  10
ENDBRANCH   8   9
ENDBRANCH   6   8
ENDBRANCH   3   4
ENDBRANCH   2   3
ENDBRANCH   1   2
BRANCH   1  28
ATOM     28  C   UNL A   1      32.116  28.408  27.274  1.00  0.00     0.002 C 
BRANCH  28  29
ATOM     29  C   UNL A   1      32.516  29.876  27.149  1.00  0.00     0.021 C 
BRANCH  29  30
ATOM     30  C   UNL A   1      34.001  30.088  26.981  1.00  0.00     0.116 C 
BRANCH  30  31
ATOM     31  N   UNL A   1      34.420  31.467  27.266  1.00  0.00    -0.352 N 
ATOM     32  C   UNL A   1      35.411  31.900  28.132  1.00  0.00     0.251 C 
ATOM     33  H   UNL A   1      33.935  32.173  26.782  1.00  0.00     0.163 HD
ATOM     34  O   UNL A   1      35.439  33.042  28.571  1.00  0.00    -0.269 OA
BRANCH  32  35
ATOM     35  C   UNL A   1      36.476  30.946  28.470  1.00  0.00     0.039 A 
ATOM     36  C   UNL A   1      36.534  29.631  28.005  1.00  0.00     0.014 A 
ATOM     37  C   UNL A   1      37.519  31.482  29.202  1.00  0.00     0.014 A 
ATOM     38  C   UNL A   1      37.669  28.882  28.313  1.00  0.00     0.010 A 
ATOM     39  C   UNL A   1      38.734  30.910  29.042  1.00  0.00     0.010 A 
ATOM     40  C   UNL A   1      38.769  29.549  28.869  1.00  0.00    -0.014 A 
BRANCH  40  41
ATOM     41  C   UNL A   1      40.059  28.946  29.134  1.00  0.00     0.031 A 
ATOM     42  C   UNL A   1      40.293  28.770  30.580  1.00  0.00     0.074 A 
ATOM     43  C   UNL A   1      40.825  28.399  28.159  1.00  0.00     0.049 A 
ATOM     44  N   UNL A   1      41.058  29.495  31.320  1.00  0.00    -0.248 NA
ATOM     45  C   UNL A   1      39.413  27.865  31.337  1.00  0.00     0.031 C 
ATOM     46  C   UNL A   1      40.547  28.244  26.723  1.00  0.00     0.029 A 
ATOM     47  N   UNL A   1      42.040  27.789  28.283  1.00  0.00    -0.354 N 
ATOM     48  C   UNL A   1      40.956  28.959  32.595  1.00  0.00     0.074 A 
ATOM     49  C   UNL A   1      39.766  28.152  32.592  1.00  0.00     0.031 C 
ATOM     50  C   UNL A   1      41.442  27.393  26.165  1.00  0.00     0.029 A 
ATOM     51  C   UNL A   1      42.446  27.063  27.155  1.00  0.00     0.049 A 
ATOM     52  H   UNL A   1      42.587  27.854  29.099  1.00  0.00     0.167 HD
ATOM     53  C   UNL A   1      42.037  28.982  33.422  1.00  0.00     0.037 A 
ATOM     54  C   UNL A   1      43.522  26.229  27.108  1.00  0.00     0.037 A 
ATOM     55  C   UNL A   1      43.025  29.918  32.930  1.00  0.00     0.049 A 
ATOM     56  C   UNL A   1      44.426  26.646  28.222  1.00  0.00     0.074 A 
ATOM     57  C   UNL A   1      43.011  31.271  32.649  1.00  0.00     0.029 A 
ATOM     58  N   UNL A   1      44.086  29.403  32.220  1.00  0.00    -0.354 N 
ATOM     59  N   UNL A   1      45.015  27.815  28.253  1.00  0.00    -0.248 NA
ATOM     60  C   UNL A   1      44.188  26.025  29.519  1.00  0.00     0.031 C 
ATOM     61  C   UNL A   1      43.713  31.397  31.412  1.00  0.00     0.029 A 
ATOM     62  C   UNL A   1      44.222  30.143  31.072  1.00  0.00     0.049 A 
ATOM     63  H   UNL A   1      44.647  28.640  32.488  1.00  0.00     0.167 HD
ATOM     64  C   UNL A   1      44.821  28.270  29.551  1.00  0.00     0.074 A 
ATOM     65  C   UNL A   1      44.316  27.111  30.290  1.00  0.00     0.031 C 
ATOM     66  C   UNL A   1      44.766  29.603  29.845  1.00  0.00     0.037 A 
BRANCH  53  67
ATOM     67  C   UNL A   1      42.394  27.878  34.386  1.00  0.00     0.064 A 
ATOM     68  C   UNL A   1      42.997  26.712  33.872  1.00  0.00     0.173 A 
ATOM     69  C   UNL A   1      41.904  27.773  35.706  1.00  0.00     0.173 A 
ATOM     70  F   UNL A   1      43.495  26.694  32.626  1.00  0.00    -0.203 F 
ATOM     71  C   UNL A   1      43.011  25.512  34.584  1.00  0.00     0.198 A 
ATOM     72  C   UNL A   1      41.965  26.586  36.433  1.00  0.00     0.198 A 
ATOM     73  F   UNL A   1      41.247  28.765  36.314  1.00  0.00    -0.203 F 
ATOM     74  F   UNL A   1      43.469  24.397  33.999  1.00  0.00    -0.200 F 
ATOM     75  C   UNL A   1      42.484  25.447  35.860  1.00  0.00     0.200 A 
ATOM     76  F   UNL A   1      41.433  26.542  37.662  1.00  0.00    -0.200 F 
ATOM     77  F   UNL A   1      42.434  24.283  36.520  1.00  0.00    -0.200 F 
ENDBRANCH  53  67
BRANCH  54  78
ATOM     78  C   UNL A   1      43.593  24.884  26.469  1.00  0.00     0.064 A 
ATOM     79  C   UNL A   1      44.400  24.631  25.344  1.00  0.00     0.173 A 
ATOM     80  C   UNL A   1      43.078  23.745  27.122  1.00  0.00     0.173 A 
ATOM     81  F   UNL A   1      44.984  25.647  24.691  1.00  0.00    -0.203 F 
ATOM     82  C   UNL A   1      44.676  23.326  24.908  1.00  0.00     0.198 A 
ATOM     83  C   UNL A   1      43.353  22.446  26.688  1.00  0.00     0.198 A 
ATOM     84  F   UNL A   1      42.371  23.864  28.254  1.00  0.00    -0.203 F 
ATOM     85  F   UNL A   1      45.491  23.123  23.862  1.00  0.00    -0.200 F 
ATOM     86  C   UNL A   1      44.160  22.234  25.586  1.00  0.00     0.200 A 
ATOM     87  F   UNL A   1      42.880  21.401  27.382  1.00  0.00    -0.200 F 
ATOM     88  F   UNL A   1      44.468  20.986  25.208  1.00  0.00    -0.200 F 
ENDBRANCH  54  78
BRANCH  66  89
ATOM     89  C   UNL A   1      45.110  30.599  28.767  1.00  0.00     0.064 A 
ATOM     90  C   UNL A   1      44.195  31.110  27.829  1.00  0.00     0.173 A 
ATOM     91  C   UNL A   1      46.378  31.195  28.809  1.00  0.00     0.173 A 
ATOM     92  F   UNL A   1      42.934  30.668  27.786  1.00  0.00    -0.203 F 
ATOM     93  C   UNL A   1      44.546  32.143  26.957  1.00  0.00     0.198 A 
ATOM     94  C   UNL A   1      46.715  32.247  27.964  1.00  0.00     0.198 A 
ATOM     95  F   UNL A   1      47.276  30.791  29.722  1.00  0.00    -0.203 F 
ATOM     96  F   UNL A   1      43.652  32.613  26.073  1.00  0.00    -0.200 F 
ATOM     97  C   UNL A   1      45.804  32.715  27.031  1.00  0.00     0.200 A 
ATOM     98  F   UNL A   1      47.916  32.830  28.077  1.00  0.00    -0.200 F 
ATOM     99  F   UNL A   1      46.132  33.736  26.225  1.00  0.00    -0.200 F 
ENDBRANCH  66  89
ENDBRANCH  40  41
ENDBRANCH  32  35
ENDBRANCH  30  31
ENDBRANCH  29  30
ENDBRANCH  28  29
ENDBRANCH   1  28
TORSDOF 17
ENDMDL
MODEL 3
REMARK VINA RESULT:     -13.2      2.487      4.426
REMARK SMILES O=C(CCc1cn(-c2ccc(Br)cc2)nc1-c1ccccc1)NCCCCCCNC(=O)c1ccc(-c2c3nc(c(-c4c(F)c(F)c(F)c(F)c4F)c4ccc([nH]4)c(-c4c(F)c(F)c(F)c(F)c4F)c4nc(c(-c5c(F)c(F)c(F)c(F)c5F)c5ccc2[nH]5)C=C4)C=C3)cc1
REMARK SMILES IDX 26 1 25 2 24 3 23 4 1 5 2 6 3 8 4 9 5 10 6 11 16 12 7 13
REMARK SMILES IDX 15 14 17 15 18 16 22 17 19 18 21 19 20 20 8 21 9 22 14 23
REMARK SMILES IDX 10 24 13 25 11 26 12 27 27 28 28 29 29 30 30 31 31 32 32 34
REMARK SMILES IDX 33 35 34 36 95 37 35 38 94 39 36 40 37 41 38 42 88 43 39 44
REMARK SMILES IDX 93 45 87 46 89 47 40 48 92 49 86 50 85 51 41 53 73 54 53 55
REMARK SMILES IDX 72 56 54 57 57 58 71 59 90 60 55 61 56 62 70 64 91 65 58 66
REMARK SMILES IDX 42 67 43 68 51 69 44 70 45 71 49 72 52 73 46 74 47 75 50 76
REMARK SMILES IDX 48 77 74 78 75 79 83 80 76 81 77 82 81 83 84 84 78 85 79 86
REMARK SMILES IDX 82 87 80 88 59 89 60 90 68 91 61 92 62 93 66 94 69 95 63 96
REMARK SMILES IDX 64 97 67 98 65 99
REMARK H PARENT 23 7 30 33 89 52 57 63
REMARK Flexibility Score: inf
ROOT
ATOM      1  C   UNL A   1      33.997  28.151  26.309  1.00  0.00     0.002 C 
ENDROOT
BRANCH   1   2
ATOM      2  C   UNL A   1      33.472  28.779  25.004  1.00  0.00     0.021 C 
BRANCH   2   3
ATOM      3  C   UNL A   1      33.996  28.289  23.446  1.00  0.00     0.116 C 
BRANCH   3   4
ATOM      4  N   UNL A   1      33.734  26.568  22.314  1.00  0.00    -0.356 N 
ATOM      5  O   UNL A   1      31.941  25.759  20.988  1.00  0.00    -0.275 OA
ATOM      6  C   UNL A   1      32.853  25.564  21.789  1.00  0.00     0.220 C 
ATOM      7  H   UNL A   1      34.630  26.332  21.984  1.00  0.00     0.163 HD
BRANCH   6   8
ATOM      8  C   UNL A   1      33.128  24.125  22.310  1.00  0.00     0.105 C 
BRANCH   8   9
ATOM      9  C   UNL A   1      34.336  23.783  23.209  1.00  0.00     0.049 C 
BRANCH   9  10
ATOM     10  C   UNL A   1      34.370  22.422  23.862  1.00  0.00    -0.001 A 
ATOM     11  C   UNL A   1      33.486  21.356  23.745  1.00  0.00     0.119 A 
ATOM     12  C   UNL A   1      35.387  21.888  24.687  1.00  0.00     0.096 A 
ATOM     13  N   UNL A   1      33.953  20.344  24.562  1.00  0.00    -0.240 N 
ATOM     14  N   UNL A   1      35.058  20.722  25.229  1.00  0.00    -0.168 NA
BRANCH  12  15
ATOM     15  C   UNL A   1      36.652  22.523  24.931  1.00  0.00     0.002 A 
ATOM     16  C   UNL A   1      36.608  24.122  25.795  1.00  0.00     0.010 A 
ATOM     17  C   UNL A   1      38.089  21.420  25.058  1.00  0.00     0.010 A 
ATOM     18  C   UNL A   1      38.010  24.569  26.867  1.00  0.00     0.001 A 
ATOM     19  C   UNL A   1      39.501  21.915  26.078  1.00  0.00     0.001 A 
ATOM     20  C   UNL A   1      39.427  23.459  27.040  1.00  0.00     0.000 A 
ENDBRANCH  12  15
BRANCH  13  21
ATOM     21  C   UNL A   1      33.506  19.009  24.704  1.00  0.00     0.065 A 
ATOM     22  C   UNL A   1      33.802  18.045  23.736  1.00  0.00     0.029 A 
ATOM     23  C   UNL A   1      32.864  18.642  25.899  1.00  0.00     0.029 A 
ATOM     24  C   UNL A   1      33.479  16.705  23.988  1.00  0.00     0.018 A 
ATOM     25  C   UNL A   1      32.494  17.315  26.116  1.00  0.00     0.018 A 
ATOM     26  C   UNL A   1      32.818  16.350  25.167  1.00  0.00     0.018 A 
ATOM     27  Br  UNL A   1      32.381  14.540  25.494  1.00  0.00    -0.051 Br
ENDBRANCH  13  21
ENDBRANCH   9  10
ENDBRANCH   8   9
ENDBRANCH   6   8
ENDBRANCH   3   4
ENDBRANCH   2   3
ENDBRANCH   1   2
BRANCH   1  28
ATOM     28  C   UNL A   1      34.710  29.024  27.357  1.00  0.00     0.002 C 
BRANCH  28  29
ATOM     29  C   UNL A   1      34.453  30.529  27.373  1.00  0.00     0.021 C 
BRANCH  29  30
ATOM     30  C   UNL A   1      35.663  31.347  27.759  1.00  0.00     0.116 C 
BRANCH  30  31
ATOM     31  N   UNL A   1      35.446  32.157  28.965  1.00  0.00    -0.352 N 
ATOM     32  C   UNL A   1      35.805  31.864  30.271  1.00  0.00     0.251 C 
ATOM     33  H   UNL A   1      34.986  33.016  28.829  1.00  0.00     0.163 HD
ATOM     34  O   UNL A   1      35.272  32.406  31.230  1.00  0.00    -0.269 OA
BRANCH  32  35
ATOM     35  C   UNL A   1      36.901  30.907  30.471  1.00  0.00     0.039 A 
ATOM     36  C   UNL A   1      36.757  29.519  30.418  1.00  0.00     0.014 A 
ATOM     37  C   UNL A   1      38.153  31.481  30.597  1.00  0.00     0.014 A 
ATOM     38  C   UNL A   1      37.911  28.742  30.507  1.00  0.00     0.010 A 
ATOM     39  C   UNL A   1      39.208  30.741  30.190  1.00  0.00     0.010 A 
ATOM     40  C   UNL A   1      39.150  29.388  30.418  1.00  0.00    -0.014 A 
BRANCH  40  41
ATOM     41  C   UNL A   1      40.434  28.720  30.373  1.00  0.00     0.031 A 
ATOM     42  C   UNL A   1      40.987  28.503  31.723  1.00  0.00     0.074 A 
ATOM     43  C   UNL A   1      40.926  28.157  29.241  1.00  0.00     0.049 A 
ATOM     44  N   UNL A   1      41.937  29.176  32.273  1.00  0.00    -0.248 NA
ATOM     45  C   UNL A   1      40.260  27.626  32.656  1.00  0.00     0.031 C 
ATOM     46  C   UNL A   1      40.317  28.045  27.908  1.00  0.00     0.029 A 
ATOM     47  N   UNL A   1      42.105  27.489  29.075  1.00  0.00    -0.354 N 
ATOM     48  C   UNL A   1      42.106  28.620  33.532  1.00  0.00     0.074 A 
ATOM     49  C   UNL A   1      40.908  27.870  33.797  1.00  0.00     0.031 C 
ATOM     50  C   UNL A   1      41.015  27.164  27.150  1.00  0.00     0.029 A 
ATOM     51  C   UNL A   1      42.203  26.767  27.878  1.00  0.00     0.049 A 
ATOM     52  H   UNL A   1      42.828  27.511  29.744  1.00  0.00     0.167 HD
ATOM     53  C   UNL A   1      43.348  28.576  34.086  1.00  0.00     0.037 A 
ATOM     54  C   UNL A   1      43.195  25.884  27.575  1.00  0.00     0.037 A 
ATOM     55  C   UNL A   1      44.242  29.473  33.387  1.00  0.00     0.049 A 
ATOM     56  C   UNL A   1      44.351  26.236  28.453  1.00  0.00     0.074 A 
ATOM     57  C   UNL A   1      44.232  30.832  33.129  1.00  0.00     0.029 A 
ATOM     58  N   UNL A   1      45.083  28.924  32.446  1.00  0.00    -0.354 N 
ATOM     59  N   UNL A   1      44.990  27.374  28.358  1.00  0.00    -0.248 NA
ATOM     60  C   UNL A   1      44.388  25.600  29.765  1.00  0.00     0.031 C 
ATOM     61  C   UNL A   1      44.635  30.949  31.764  1.00  0.00     0.029 A 
ATOM     62  C   UNL A   1      44.988  29.680  31.304  1.00  0.00     0.049 A 
ATOM     63  H   UNL A   1      45.651  28.130  32.570  1.00  0.00     0.167 HD
ATOM     64  C   UNL A   1      45.124  27.812  29.669  1.00  0.00     0.074 A 
ATOM     65  C   UNL A   1      44.745  26.663  30.495  1.00  0.00     0.031 C 
ATOM     66  C   UNL A   1      45.206  29.140  29.980  1.00  0.00     0.037 A 
BRANCH  53  67
ATOM     67  C   UNL A   1      43.862  27.436  34.932  1.00  0.00     0.064 A 
ATOM     68  C   UNL A   1      44.484  27.743  36.158  1.00  0.00     0.173 A 
ATOM     69  C   UNL A   1      44.053  26.115  34.470  1.00  0.00     0.173 A 
ATOM     70  F   UNL A   1      44.375  28.970  36.691  1.00  0.00    -0.203 F 
ATOM     71  C   UNL A   1      45.316  26.833  36.812  1.00  0.00     0.198 A 
ATOM     72  C   UNL A   1      44.843  25.193  35.153  1.00  0.00     0.198 A 
ATOM     73  F   UNL A   1      43.585  25.685  33.295  1.00  0.00    -0.203 F 
ATOM     74  F   UNL A   1      45.997  27.218  37.900  1.00  0.00    -0.200 F 
ATOM     75  C   UNL A   1      45.503  25.562  36.303  1.00  0.00     0.200 A 
ATOM     76  F   UNL A   1      45.024  23.972  34.632  1.00  0.00    -0.200 F 
ATOM     77  F   UNL A   1      46.353  24.709  36.890  1.00  0.00    -0.200 F 
ENDBRANCH  53  67
BRANCH  54  78
ATOM     78  C   UNL A   1      43.048  24.550  26.926  1.00  0.00     0.064 A 
ATOM     79  C   UNL A   1      43.486  24.306  25.610  1.00  0.00     0.173 A 
ATOM     80  C   UNL A   1      42.723  23.407  27.685  1.00  0.00     0.173 A 
ATOM     81  F   UNL A   1      43.874  25.326  24.829  1.00  0.00    -0.203 F 
ATOM     82  C   UNL A   1      43.596  23.005  25.095  1.00  0.00     0.198 A 
ATOM     83  C   UNL A   1      42.832  22.113  27.172  1.00  0.00     0.198 A 
ATOM     84  F   UNL A   1      42.381  23.516  28.976  1.00  0.00    -0.203 F 
ATOM     85  F   UNL A   1      44.064  22.810  23.854  1.00  0.00    -0.200 F 
ATOM     86  C   UNL A   1      43.278  21.910  25.880  1.00  0.00     0.200 A 
ATOM     87  F   UNL A   1      42.562  21.062  27.960  1.00  0.00    -0.200 F 
ATOM     88  F   UNL A   1      43.436  20.664  25.411  1.00  0.00    -0.200 F 
ENDBRANCH  54  78
BRANCH  66  89
ATOM     89  C   UNL A   1      45.342  30.140  28.861  1.00  0.00     0.064 A 
ATOM     90  C   UNL A   1      46.559  30.501  28.255  1.00  0.00     0.173 A 
ATOM     91  C   UNL A   1      44.167  30.609  28.257  1.00  0.00     0.173 A 
ATOM     92  F   UNL A   1      47.722  30.019  28.705  1.00  0.00    -0.203 F 
ATOM     93  C   UNL A   1      46.595  31.318  27.122  1.00  0.00     0.198 A 
ATOM     94  C   UNL A   1      44.202  31.394  27.108  1.00  0.00     0.198 A 
ATOM     95  F   UNL A   1      42.972  30.250  28.753  1.00  0.00    -0.203 F 
ATOM     96  F   UNL A   1      47.771  31.645  26.564  1.00  0.00    -0.200 F 
ATOM     97  C   UNL A   1      45.415  31.756  26.547  1.00  0.00     0.200 A 
ATOM     98  F   UNL A   1      43.056  31.770  26.527  1.00  0.00    -0.200 F 
ATOM     99  F   UNL A   1      45.444  32.506  25.434  1.00  0.00    -0.200 F 
ENDBRANCH  66  89
ENDBRANCH  40  41
ENDBRANCH  32  35
ENDBRANCH  30  31
ENDBRANCH  29  30
ENDBRANCH  28  29
ENDBRANCH   1  28
TORSDOF 17
ENDMDL
