MODEL 1
REMARK VINA RESULT:     -12.8      0.000      0.000
REMARK SMILES O=C(NCCCCCCNC(=O)c1cc(S(=O)(=O)N2CCCCC2)c(Cl)cc1Cl)c1ccc(-c2c3nc(c(-c4c(F)c(F)c(F)c(F)c4F)c4ccc([nH]4)c(-c4c(F)c(F)c(F)c(F)c4F)c4nc(c(-c5c(F)c(F)c(F)c(F)c5F)c5ccc2[nH]5)C=C4)C=C3)cc1
REMARK SMILES IDX 6 1 5 2 4 3 3 4 1 5 2 6 30 8 31 9 92 10 32 11 91 12 33 13
REMARK SMILES IDX 34 14 35 15 85 16 36 17 90 18 84 19 86 20 37 21 89 22 83 23
REMARK SMILES IDX 82 24 38 26 70 27 50 28 69 29 51 30 54 31 68 32 87 33 52 34
REMARK SMILES IDX 53 35 67 37 88 38 55 39 39 40 40 41 48 42 41 43 42 44 46 45
REMARK SMILES IDX 49 46 43 47 44 48 47 49 45 50 71 51 72 52 80 53 73 54 74 55
REMARK SMILES IDX 78 56 81 57 75 58 76 59 79 60 77 61 56 62 57 63 65 64 58 65
REMARK SMILES IDX 59 66 63 67 66 68 60 69 61 70 64 71 62 72 7 73 8 74 9 75
REMARK SMILES IDX 10 76 11 77 12 79 13 80 14 81 28 82 15 83 27 84 29 85 25 86
REMARK SMILES IDX 26 87 16 88 17 89 18 90 19 91 20 92 24 93 21 94 23 95 22 96
REMARK H PARENT 3 7 86 25 54 36 10 78
REMARK Flexibility Score: inf
ROOT
ATOM      1  C   UNL A   1      31.421  30.744  26.423  1.00  0.00     0.002 C 
ENDROOT
BRANCH   1   2
ATOM      2  C   UNL A   1      31.404  32.270  26.507  1.00  0.00     0.021 C 
BRANCH   2   3
ATOM      3  C   UNL A   1      32.580  32.903  27.238  1.00  0.00     0.116 C 
BRANCH   3   4
ATOM      4  N   UNL A   1      32.318  34.262  27.680  1.00  0.00    -0.352 N 
ATOM      5  O   UNL A   1      32.525  36.110  28.959  1.00  0.00    -0.269 OA
ATOM      6  C   UNL A   1      32.961  35.009  28.638  1.00  0.00     0.251 C 
ATOM      7  H   UNL A   1      31.570  34.714  27.226  1.00  0.00     0.163 HD
BRANCH   6   8
ATOM      8  C   UNL A   1      34.164  34.472  29.315  1.00  0.00     0.039 A 
ATOM      9  C   UNL A   1      35.436  34.629  28.761  1.00  0.00     0.014 A 
ATOM     10  C   UNL A   1      34.011  33.796  30.530  1.00  0.00     0.014 A 
ATOM     11  C   UNL A   1      36.525  33.978  29.334  1.00  0.00     0.010 A 
ATOM     12  C   UNL A   1      35.121  33.210  31.148  1.00  0.00     0.010 A 
ATOM     13  C   UNL A   1      36.379  33.258  30.532  1.00  0.00    -0.014 A 
BRANCH  13  14
ATOM     14  C   UNL A   1      37.564  32.582  31.120  1.00  0.00     0.031 A 
ATOM     15  C   UNL A   1      38.033  32.910  32.512  1.00  0.00     0.074 A 
ATOM     16  C   UNL A   1      38.192  31.627  30.408  1.00  0.00     0.049 A 
ATOM     17  N   UNL A   1      39.007  32.370  33.203  1.00  0.00    -0.248 NA
ATOM     18  C   UNL A   1      37.328  33.991  33.218  1.00  0.00     0.031 C 
ATOM     19  C   UNL A   1      37.842  31.234  29.042  1.00  0.00     0.029 A 
ATOM     20  N   UNL A   1      39.231  30.797  30.739  1.00  0.00    -0.354 N 
ATOM     21  C   UNL A   1      39.047  33.057  34.409  1.00  0.00     0.074 A 
ATOM     22  C   UNL A   1      38.014  34.070  34.351  1.00  0.00     0.031 C 
ATOM     23  C   UNL A   1      38.614  30.201  28.672  1.00  0.00     0.029 A 
ATOM     24  C   UNL A   1      39.541  29.890  29.756  1.00  0.00     0.049 A 
ATOM     25  H   UNL A   1      39.709  30.847  31.598  1.00  0.00     0.167 HD
ATOM     26  C   UNL A   1      39.866  32.857  35.470  1.00  0.00     0.037 A 
ATOM     27  C   UNL A   1      40.465  28.913  29.731  1.00  0.00     0.037 A 
ATOM     28  C   UNL A   1      40.870  31.828  35.543  1.00  0.00     0.049 A 
ATOM     29  C   UNL A   1      41.342  28.698  30.930  1.00  0.00     0.074 A 
ATOM     30  C   UNL A   1      41.715  31.518  36.596  1.00  0.00     0.029 A 
ATOM     31  N   UNL A   1      41.163  30.938  34.521  1.00  0.00    -0.354 N 
ATOM     32  N   UNL A   1      41.342  29.330  32.078  1.00  0.00    -0.248 NA
ATOM     33  C   UNL A   1      42.350  27.634  30.829  1.00  0.00     0.031 C 
ATOM     34  C   UNL A   1      42.541  30.461  36.198  1.00  0.00     0.029 A 
ATOM     35  C   UNL A   1      42.187  30.088  34.912  1.00  0.00     0.049 A 
ATOM     36  H   UNL A   1      40.712  30.914  33.647  1.00  0.00     0.167 HD
ATOM     37  C   UNL A   1      42.333  28.733  32.842  1.00  0.00     0.074 A 
ATOM     38  C   UNL A   1      42.903  27.673  32.033  1.00  0.00     0.031 C 
ATOM     39  C   UNL A   1      42.739  29.037  34.098  1.00  0.00     0.037 A 
BRANCH  26  40
ATOM     40  C   UNL A   1      39.721  33.781  36.644  1.00  0.00     0.064 A 
ATOM     41  C   UNL A   1      40.363  35.027  36.685  1.00  0.00     0.173 A 
ATOM     42  C   UNL A   1      38.890  33.434  37.720  1.00  0.00     0.173 A 
ATOM     43  F   UNL A   1      41.176  35.400  35.687  1.00  0.00    -0.203 F 
ATOM     44  C   UNL A   1      40.192  35.884  37.770  1.00  0.00     0.198 A 
ATOM     45  C   UNL A   1      38.703  34.303  38.792  1.00  0.00     0.198 A 
ATOM     46  F   UNL A   1      38.248  32.256  37.726  1.00  0.00    -0.203 F 
ATOM     47  F   UNL A   1      40.842  37.055  37.804  1.00  0.00    -0.200 F 
ATOM     48  C   UNL A   1      39.358  35.524  38.818  1.00  0.00     0.200 A 
ATOM     49  F   UNL A   1      37.889  33.958  39.800  1.00  0.00    -0.200 F 
ATOM     50  F   UNL A   1      39.189  36.355  39.858  1.00  0.00    -0.200 F 
ENDBRANCH  26  40
BRANCH  27  51
ATOM     51  C   UNL A   1      40.581  28.043  28.534  1.00  0.00     0.064 A 
ATOM     52  C   UNL A   1      41.367  28.429  27.440  1.00  0.00     0.173 A 
ATOM     53  C   UNL A   1      39.927  26.805  28.468  1.00  0.00     0.173 A 
ATOM     54  F   UNL A   1      41.996  29.613  27.452  1.00  0.00    -0.203 F 
ATOM     55  C   UNL A   1      41.487  27.612  26.319  1.00  0.00     0.198 A 
ATOM     56  C   UNL A   1      40.069  25.977  27.357  1.00  0.00     0.198 A 
ATOM     57  F   UNL A   1      39.168  26.390  29.493  1.00  0.00    -0.203 F 
ATOM     58  F   UNL A   1      42.219  28.018  25.271  1.00  0.00    -0.200 F 
ATOM     59  C   UNL A   1      40.843  26.384  26.280  1.00  0.00     0.200 A 
ATOM     60  F   UNL A   1      39.457  24.785  27.329  1.00  0.00    -0.200 F 
ATOM     61  F   UNL A   1      40.966  25.594  25.205  1.00  0.00    -0.200 F 
ENDBRANCH  27  51
BRANCH  39  62
ATOM     62  C   UNL A   1      43.833  28.196  34.682  1.00  0.00     0.064 A 
ATOM     63  C   UNL A   1      45.181  28.566  34.566  1.00  0.00     0.173 A 
ATOM     64  C   UNL A   1      43.529  27.019  35.381  1.00  0.00     0.173 A 
ATOM     65  F   UNL A   1      45.520  29.675  33.892  1.00  0.00    -0.203 F 
ATOM     66  C   UNL A   1      46.188  27.773  35.107  1.00  0.00     0.198 A 
ATOM     67  C   UNL A   1      44.538  26.240  35.941  1.00  0.00     0.198 A 
ATOM     68  F   UNL A   1      42.255  26.626  35.520  1.00  0.00    -0.203 F 
ATOM     69  F   UNL A   1      47.472  28.120  34.946  1.00  0.00    -0.200 F 
ATOM     70  C   UNL A   1      45.865  26.614  35.798  1.00  0.00     0.200 A 
ATOM     71  F   UNL A   1      44.225  25.124  36.614  1.00  0.00    -0.200 F 
ATOM     72  F   UNL A   1      46.837  25.850  36.317  1.00  0.00    -0.200 F 
ENDBRANCH  39  62
ENDBRANCH  13  14
ENDBRANCH   6   8
ENDBRANCH   3   4
ENDBRANCH   2   3
ENDBRANCH   1   2
BRANCH   1  73
ATOM     73  C   UNL A   1      32.471  30.033  27.281  1.00  0.00     0.002 C 
BRANCH  73  74
ATOM     74  C   UNL A   1      32.739  28.562  26.947  1.00  0.00     0.021 C 
BRANCH  74  75
ATOM     75  C   UNL A   1      34.044  28.275  26.212  1.00  0.00     0.116 C 
BRANCH  75  76
ATOM     76  N   UNL A   1      34.135  28.962  24.936  1.00  0.00    -0.352 N 
ATOM     77  C   UNL A   1      33.626  28.615  23.712  1.00  0.00     0.252 C 
ATOM     78  H   UNL A   1      34.639  29.808  24.954  1.00  0.00     0.163 HD
ATOM     79  O   UNL A   1      33.811  29.325  22.731  1.00  0.00    -0.269 OA
BRANCH  77  80
ATOM     80  C   UNL A   1      32.817  27.391  23.586  1.00  0.00     0.059 A 
ATOM     81  C   UNL A   1      33.470  26.169  23.383  1.00  0.00     0.038 A 
ATOM     82  C   UNL A   1      31.431  27.422  23.670  1.00  0.00     0.055 A 
ATOM     83  C   UNL A   1      32.754  24.966  23.185  1.00  0.00     0.102 A 
ATOM     84  C   UNL A   1      30.719  26.229  23.531  1.00  0.00     0.043 A 
ATOM     85  Cl  UNL A   1      30.533  28.878  23.878  1.00  0.00    -0.083 Cl
ATOM     86  C   UNL A   1      31.365  25.002  23.281  1.00  0.00     0.062 A 
ATOM     87  Cl  UNL A   1      30.276  23.685  23.122  1.00  0.00    -0.083 Cl
BRANCH  83  88
ATOM     88  S   UNL A   1      33.832  23.615  22.749  1.00  0.00     0.244 S 
ATOM     89  O   UNL A   1      33.427  23.261  21.403  1.00  0.00    -0.207 OA
ATOM     90  O   UNL A   1      35.168  24.118  23.000  1.00  0.00    -0.207 OA
BRANCH  88  91
ATOM     91  N   UNL A   1      33.626  22.253  23.718  1.00  0.00    -0.198 NA
ATOM     92  C   UNL A   1      32.587  21.285  23.311  1.00  0.00     0.102 C 
ATOM     93  C   UNL A   1      34.753  21.857  24.591  1.00  0.00     0.102 C 
ATOM     94  C   UNL A   1      32.355  20.175  24.323  1.00  0.00     0.017 C 
ATOM     95  C   UNL A   1      34.438  20.699  25.525  1.00  0.00     0.017 C 
ATOM     96  C   UNL A   1      33.658  19.594  24.839  1.00  0.00     0.003 C 
ENDBRANCH  88  91
ENDBRANCH  83  88
ENDBRANCH  77  80
ENDBRANCH  75  76
ENDBRANCH  74  75
ENDBRANCH  73  74
ENDBRANCH   1  73
TORSDOF 15
ENDMDL
MODEL 2
REMARK VINA RESULT:     -12.6      0.602      7.289
REMARK SMILES O=C(NCCCCCCNC(=O)c1cc(S(=O)(=O)N2CCCCC2)c(Cl)cc1Cl)c1ccc(-c2c3nc(c(-c4c(F)c(F)c(F)c(F)c4F)c4ccc([nH]4)c(-c4c(F)c(F)c(F)c(F)c4F)c4nc(c(-c5c(F)c(F)c(F)c(F)c5F)c5ccc2[nH]5)C=C4)C=C3)cc1
REMARK SMILES IDX 6 1 5 2 4 3 3 4 1 5 2 6 30 8 31 9 92 10 32 11 91 12 33 13
REMARK SMILES IDX 34 14 35 15 85 16 36 17 90 18 84 19 86 20 37 21 89 22 83 23
REMARK SMILES IDX 82 24 38 26 70 27 50 28 69 29 51 30 54 31 68 32 87 33 52 34
REMARK SMILES IDX 53 35 67 37 88 38 55 39 39 40 40 41 48 42 41 43 42 44 46 45
REMARK SMILES IDX 49 46 43 47 44 48 47 49 45 50 71 51 72 52 80 53 73 54 74 55
REMARK SMILES IDX 78 56 81 57 75 58 76 59 79 60 77 61 56 62 57 63 65 64 58 65
REMARK SMILES IDX 59 66 63 67 66 68 60 69 61 70 64 71 62 72 7 73 8 74 9 75
REMARK SMILES IDX 10 76 11 77 12 79 13 80 14 81 28 82 15 83 27 84 29 85 25 86
REMARK SMILES IDX 26 87 16 88 17 89 18 90 19 91 20 92 24 93 21 94 23 95 22 96
REMARK H PARENT 3 7 86 25 54 36 10 78
REMARK Flexibility Score: inf
ROOT
ATOM      1  C   UNL A   1      31.433  30.851  26.368  1.00  0.00     0.002 C 
ENDROOT
BRANCH   1   2
ATOM      2  C   UNL A   1      31.405  32.372  26.516  1.00  0.00     0.021 C 
BRANCH   2   3
ATOM      3  C   UNL A   1      32.579  32.982  27.269  1.00  0.00     0.116 C 
BRANCH   3   4
ATOM      4  N   UNL A   1      32.344  34.354  27.685  1.00  0.00    -0.352 N 
ATOM      5  O   UNL A   1      32.528  36.198  28.974  1.00  0.00    -0.269 OA
ATOM      6  C   UNL A   1      32.938  35.076  28.694  1.00  0.00     0.251 C 
ATOM      7  H   UNL A   1      31.660  34.839  27.169  1.00  0.00     0.163 HD
BRANCH   6   8
ATOM      8  C   UNL A   1      34.052  34.487  29.471  1.00  0.00     0.039 A 
ATOM      9  C   UNL A   1      35.372  34.580  29.027  1.00  0.00     0.014 A 
ATOM     10  C   UNL A   1      33.765  33.829  30.672  1.00  0.00     0.014 A 
ATOM     11  C   UNL A   1      36.376  33.882  29.692  1.00  0.00     0.010 A 
ATOM     12  C   UNL A   1      34.789  33.195  31.383  1.00  0.00     0.010 A 
ATOM     13  C   UNL A   1      36.096  33.179  30.875  1.00  0.00    -0.014 A 
BRANCH  13  14
ATOM     14  C   UNL A   1      37.193  32.451  31.565  1.00  0.00     0.031 A 
ATOM     15  C   UNL A   1      37.950  31.351  30.872  1.00  0.00     0.074 A 
ATOM     16  C   UNL A   1      37.540  32.824  32.812  1.00  0.00     0.049 A 
ATOM     17  N   UNL A   1      38.976  30.658  31.302  1.00  0.00    -0.248 NA
ATOM     18  C   UNL A   1      37.492  30.969  29.528  1.00  0.00     0.031 C 
ATOM     19  C   UNL A   1      36.869  33.863  33.594  1.00  0.00     0.029 A 
ATOM     20  N   UNL A   1      38.555  32.394  33.627  1.00  0.00    -0.354 N 
ATOM     21  C   UNL A   1      39.270  29.746  30.297  1.00  0.00     0.074 A 
ATOM     22  C   UNL A   1      38.302  29.958  29.241  1.00  0.00     0.031 C 
ATOM     23  C   UNL A   1      37.524  34.031  34.753  1.00  0.00     0.029 A 
ATOM     24  C   UNL A   1      38.631  33.082  34.813  1.00  0.00     0.049 A 
ATOM     25  H   UNL A   1      39.168  31.662  33.386  1.00  0.00     0.167 HD
ATOM     26  C   UNL A   1      40.261  28.824  30.255  1.00  0.00     0.037 A 
ATOM     27  C   UNL A   1      39.499  32.964  35.834  1.00  0.00     0.037 A 
ATOM     28  C   UNL A   1      41.246  28.637  31.289  1.00  0.00     0.049 A 
ATOM     29  C   UNL A   1      40.602  31.950  35.750  1.00  0.00     0.074 A 
ATOM     30  C   UNL A   1      42.317  27.760  31.314  1.00  0.00     0.029 A 
ATOM     31  N   UNL A   1      41.282  29.343  32.481  1.00  0.00    -0.354 N 
ATOM     32  N   UNL A   1      40.891  31.122  34.777  1.00  0.00    -0.248 NA
ATOM     33  C   UNL A   1      41.498  31.853  36.910  1.00  0.00     0.031 C 
ATOM     34  C   UNL A   1      42.982  27.913  32.536  1.00  0.00     0.029 A 
ATOM     35  C   UNL A   1      42.347  28.911  33.257  1.00  0.00     0.049 A 
ATOM     36  H   UNL A   1      40.644  30.047  32.740  1.00  0.00     0.167 HD
ATOM     37  C   UNL A   1      42.010  30.418  35.196  1.00  0.00     0.074 A 
ATOM     38  C   UNL A   1      42.360  30.929  36.506  1.00  0.00     0.031 C 
ATOM     39  C   UNL A   1      42.684  29.433  34.555  1.00  0.00     0.037 A 
BRANCH  26  40
ATOM     40  C   UNL A   1      40.328  27.928  29.053  1.00  0.00     0.064 A 
ATOM     41  C   UNL A   1      39.621  26.719  28.995  1.00  0.00     0.173 A 
ATOM     42  C   UNL A   1      41.071  28.310  27.925  1.00  0.00     0.173 A 
ATOM     43  F   UNL A   1      38.905  26.304  30.050  1.00  0.00    -0.203 F 
ATOM     44  C   UNL A   1      39.670  25.915  27.857  1.00  0.00     0.198 A 
ATOM     45  C   UNL A   1      41.100  27.516  26.782  1.00  0.00     0.198 A 
ATOM     46  F   UNL A   1      41.760  29.461  27.928  1.00  0.00    -0.203 F 
ATOM     47  F   UNL A   1      39.014  24.747  27.837  1.00  0.00    -0.200 F 
ATOM     48  C   UNL A   1      40.404  26.317  26.752  1.00  0.00     0.200 A 
ATOM     49  F   UNL A   1      41.801  27.911  25.710  1.00  0.00    -0.200 F 
ATOM     50  F   UNL A   1      40.443  25.545  25.655  1.00  0.00    -0.200 F 
ENDBRANCH  26  40
BRANCH  27  51
ATOM     51  C   UNL A   1      39.373  33.861  37.011  1.00  0.00     0.064 A 
ATOM     52  C   UNL A   1      39.936  35.144  37.000  1.00  0.00     0.173 A 
ATOM     53  C   UNL A   1      38.672  33.461  38.158  1.00  0.00     0.173 A 
ATOM     54  F   UNL A   1      40.630  35.561  35.931  1.00  0.00    -0.203 F 
ATOM     55  C   UNL A   1      39.811  35.992  38.098  1.00  0.00     0.198 A 
ATOM     56  C   UNL A   1      38.526  34.319  39.245  1.00  0.00     0.198 A 
ATOM     57  F   UNL A   1      38.112  32.244  38.213  1.00  0.00    -0.203 F 
ATOM     58  F   UNL A   1      40.386  37.202  38.075  1.00  0.00    -0.200 F 
ATOM     59  C   UNL A   1      39.102  35.582  39.217  1.00  0.00     0.200 A 
ATOM     60  F   UNL A   1      37.828  33.926  40.319  1.00  0.00    -0.200 F 
ATOM     61  F   UNL A   1      38.974  36.401  40.269  1.00  0.00    -0.200 F 
ENDBRANCH  27  51
BRANCH  39  62
ATOM     62  C   UNL A   1      43.882  28.864  35.253  1.00  0.00     0.064 A 
ATOM     63  C   UNL A   1      43.768  27.782  36.138  1.00  0.00     0.173 A 
ATOM     64  C   UNL A   1      45.159  29.394  35.019  1.00  0.00     0.173 A 
ATOM     65  F   UNL A   1      42.565  27.253  36.405  1.00  0.00    -0.203 F 
ATOM     66  C   UNL A   1      44.888  27.267  36.784  1.00  0.00     0.198 A 
ATOM     67  C   UNL A   1      46.281  28.861  35.650  1.00  0.00     0.198 A 
ATOM     68  F   UNL A   1      45.319  30.427  34.179  1.00  0.00    -0.203 F 
ATOM     69  F   UNL A   1      44.752  26.263  37.660  1.00  0.00    -0.200 F 
ATOM     70  C   UNL A   1      46.143  27.804  36.535  1.00  0.00     0.200 A 
ATOM     71  F   UNL A   1      47.493  29.377  35.404  1.00  0.00    -0.200 F 
ATOM     72  F   UNL A   1      47.220  27.308  37.160  1.00  0.00    -0.200 F 
ENDBRANCH  39  62
ENDBRANCH  13  14
ENDBRANCH   6   8
ENDBRANCH   3   4
ENDBRANCH   2   3
ENDBRANCH   1   2
BRANCH   1  73
ATOM     73  C   UNL A   1      32.437  30.106  27.251  1.00  0.00     0.002 C 
BRANCH  73  74
ATOM     74  C   UNL A   1      32.681  28.633  26.908  1.00  0.00     0.021 C 
BRANCH  74  75
ATOM     75  C   UNL A   1      33.998  28.323  26.205  1.00  0.00     0.116 C 
BRANCH  75  76
ATOM     76  N   UNL A   1      34.119  28.986  24.919  1.00  0.00    -0.352 N 
ATOM     77  C   UNL A   1      33.635  28.617  23.691  1.00  0.00     0.252 C 
ATOM     78  H   UNL A   1      34.626  29.830  24.931  1.00  0.00     0.163 HD
ATOM     79  O   UNL A   1      33.843  29.308  22.700  1.00  0.00    -0.269 OA
BRANCH  77  80
ATOM     80  C   UNL A   1      32.823  27.394  23.570  1.00  0.00     0.059 A 
ATOM     81  C   UNL A   1      33.475  26.170  23.373  1.00  0.00     0.038 A 
ATOM     82  C   UNL A   1      31.438  27.428  23.656  1.00  0.00     0.055 A 
ATOM     83  C   UNL A   1      32.756  24.967  23.181  1.00  0.00     0.102 A 
ATOM     84  C   UNL A   1      30.723  26.236  23.522  1.00  0.00     0.043 A 
ATOM     85  Cl  UNL A   1      30.542  28.887  23.857  1.00  0.00    -0.083 Cl
ATOM     86  C   UNL A   1      31.367  25.006  23.277  1.00  0.00     0.062 A 
ATOM     87  Cl  UNL A   1      30.276  23.690  23.125  1.00  0.00    -0.083 Cl
BRANCH  83  88
ATOM     88  S   UNL A   1      33.832  23.613  22.751  1.00  0.00     0.244 S 
ATOM     89  O   UNL A   1      33.481  23.307  21.377  1.00  0.00    -0.207 OA
ATOM     90  O   UNL A   1      35.163  24.086  23.076  1.00  0.00    -0.207 OA
BRANCH  88  91
ATOM     91  N   UNL A   1      33.561  22.226  23.666  1.00  0.00    -0.198 NA
ATOM     92  C   UNL A   1      32.584  21.249  23.143  1.00  0.00     0.102 C 
ATOM     93  C   UNL A   1      34.609  21.827  24.632  1.00  0.00     0.102 C 
ATOM     94  C   UNL A   1      32.279  20.112  24.104  1.00  0.00     0.017 C 
ATOM     95  C   UNL A   1      34.231  20.643  25.507  1.00  0.00     0.017 C 
ATOM     96  C   UNL A   1      33.539  19.541  24.727  1.00  0.00     0.003 C 
ENDBRANCH  88  91
ENDBRANCH  83  88
ENDBRANCH  77  80
ENDBRANCH  75  76
ENDBRANCH  74  75
ENDBRANCH  73  74
ENDBRANCH   1  73
TORSDOF 15
ENDMDL
MODEL 3
REMARK VINA RESULT:     -12.6      1.079      2.049
REMARK SMILES O=C(NCCCCCCNC(=O)c1cc(S(=O)(=O)N2CCCCC2)c(Cl)cc1Cl)c1ccc(-c2c3nc(c(-c4c(F)c(F)c(F)c(F)c4F)c4ccc([nH]4)c(-c4c(F)c(F)c(F)c(F)c4F)c4nc(c(-c5c(F)c(F)c(F)c(F)c5F)c5ccc2[nH]5)C=C4)C=C3)cc1
REMARK SMILES IDX 6 1 5 2 4 3 3 4 1 5 2 6 30 8 31 9 92 10 32 11 91 12 33 13
REMARK SMILES IDX 34 14 35 15 85 16 36 17 90 18 84 19 86 20 37 21 89 22 83 23
REMARK SMILES IDX 82 24 38 26 70 27 50 28 69 29 51 30 54 31 68 32 87 33 52 34
REMARK SMILES IDX 53 35 67 37 88 38 55 39 39 40 40 41 48 42 41 43 42 44 46 45
REMARK SMILES IDX 49 46 43 47 44 48 47 49 45 50 71 51 72 52 80 53 73 54 74 55
REMARK SMILES IDX 78 56 81 57 75 58 76 59 79 60 77 61 56 62 57 63 65 64 58 65
REMARK SMILES IDX 59 66 63 67 66 68 60 69 61 70 64 71 62 72 7 73 8 74 9 75
REMARK SMILES IDX 10 76 11 77 12 79 13 80 14 81 28 82 15 83 27 84 29 85 25 86
REMARK SMILES IDX 26 87 16 88 17 89 18 90 19 91 20 92 24 93 21 94 23 95 22 96
REMARK H PARENT 3 7 86 25 54 36 10 78
REMARK Flexibility Score: inf
ROOT
ATOM      1  C   UNL A   1      31.634  30.762  26.152  1.00  0.00     0.002 C 
ENDROOT
BRANCH   1   2
ATOM      2  C   UNL A   1      31.384  32.144  26.756  1.00  0.00     0.021 C 
BRANCH   2   3
ATOM      3  C   UNL A   1      32.622  32.882  27.247  1.00  0.00     0.116 C 
BRANCH   3   4
ATOM      4  N   UNL A   1      32.342  34.233  27.701  1.00  0.00    -0.352 N 
ATOM      5  O   UNL A   1      32.523  36.071  28.999  1.00  0.00    -0.269 OA
ATOM      6  C   UNL A   1      32.974  34.978  28.670  1.00  0.00     0.251 C 
ATOM      7  H   UNL A   1      31.591  34.682  27.249  1.00  0.00     0.163 HD
BRANCH   6   8
ATOM      8  C   UNL A   1      34.179  34.448  29.346  1.00  0.00     0.039 A 
ATOM      9  C   UNL A   1      35.452  34.623  28.798  1.00  0.00     0.014 A 
ATOM     10  C   UNL A   1      34.030  33.760  30.554  1.00  0.00     0.014 A 
ATOM     11  C   UNL A   1      36.545  33.979  29.369  1.00  0.00     0.010 A 
ATOM     12  C   UNL A   1      35.143  33.180  31.171  1.00  0.00     0.010 A 
ATOM     13  C   UNL A   1      36.403  33.247  30.560  1.00  0.00    -0.014 A 
BRANCH  13  14
ATOM     14  C   UNL A   1      37.593  32.579  31.147  1.00  0.00     0.031 A 
ATOM     15  C   UNL A   1      38.065  32.914  32.536  1.00  0.00     0.074 A 
ATOM     16  C   UNL A   1      38.223  31.624  30.436  1.00  0.00     0.049 A 
ATOM     17  N   UNL A   1      39.044  32.380  33.226  1.00  0.00    -0.248 NA
ATOM     18  C   UNL A   1      37.357  33.993  33.240  1.00  0.00     0.031 C 
ATOM     19  C   UNL A   1      37.871  31.224  29.073  1.00  0.00     0.029 A 
ATOM     20  N   UNL A   1      39.267  30.799  30.767  1.00  0.00    -0.354 N 
ATOM     21  C   UNL A   1      39.085  33.072  34.429  1.00  0.00     0.074 A 
ATOM     22  C   UNL A   1      38.046  34.079  34.371  1.00  0.00     0.031 C 
ATOM     23  C   UNL A   1      38.646  30.193  28.704  1.00  0.00     0.029 A 
ATOM     24  C   UNL A   1      39.577  29.890  29.785  1.00  0.00     0.049 A 
ATOM     25  H   UNL A   1      39.748  30.855  31.624  1.00  0.00     0.167 HD
ATOM     26  C   UNL A   1      39.908  32.879  35.488  1.00  0.00     0.037 A 
ATOM     27  C   UNL A   1      40.506  28.918  29.761  1.00  0.00     0.037 A 
ATOM     28  C   UNL A   1      40.917  31.855  35.561  1.00  0.00     0.049 A 
ATOM     29  C   UNL A   1      41.388  28.711  30.958  1.00  0.00     0.074 A 
ATOM     30  C   UNL A   1      41.767  31.552  36.612  1.00  0.00     0.029 A 
ATOM     31  N   UNL A   1      41.211  30.963  34.542  1.00  0.00    -0.354 N 
ATOM     32  N   UNL A   1      41.389  29.347  32.103  1.00  0.00    -0.248 NA
ATOM     33  C   UNL A   1      42.401  27.651  30.857  1.00  0.00     0.031 C 
ATOM     34  C   UNL A   1      42.596  30.498  36.216  1.00  0.00     0.029 A 
ATOM     35  C   UNL A   1      42.240  30.119  34.932  1.00  0.00     0.049 A 
ATOM     36  H   UNL A   1      40.757  30.933  33.669  1.00  0.00     0.167 HD
ATOM     37  C   UNL A   1      42.385  28.757  32.866  1.00  0.00     0.074 A 
ATOM     38  C   UNL A   1      42.958  27.698  32.059  1.00  0.00     0.031 C 
ATOM     39  C   UNL A   1      42.794  29.067  34.119  1.00  0.00     0.037 A 
BRANCH  26  40
ATOM     40  C   UNL A   1      39.763  33.806  36.660  1.00  0.00     0.064 A 
ATOM     41  C   UNL A   1      40.398  35.055  36.694  1.00  0.00     0.173 A 
ATOM     42  C   UNL A   1      38.937  33.459  37.740  1.00  0.00     0.173 A 
ATOM     43  F   UNL A   1      41.207  35.429  35.691  1.00  0.00    -0.203 F 
ATOM     44  C   UNL A   1      40.227  35.916  37.776  1.00  0.00     0.198 A 
ATOM     45  C   UNL A   1      38.750  34.331  38.809  1.00  0.00     0.198 A 
ATOM     46  F   UNL A   1      38.301  32.278  37.752  1.00  0.00    -0.203 F 
ATOM     47  F   UNL A   1      40.872  37.090  37.804  1.00  0.00    -0.200 F 
ATOM     48  C   UNL A   1      39.399  35.555  38.829  1.00  0.00     0.200 A 
ATOM     49  F   UNL A   1      37.941  33.985  39.821  1.00  0.00    -0.200 F 
ATOM     50  F   UNL A   1      39.230  36.389  39.866  1.00  0.00    -0.200 F 
ENDBRANCH  26  40
BRANCH  27  51
ATOM     51  C   UNL A   1      40.623  28.044  28.566  1.00  0.00     0.064 A 
ATOM     52  C   UNL A   1      39.941  26.822  28.502  1.00  0.00     0.173 A 
ATOM     53  C   UNL A   1      41.399  28.422  27.462  1.00  0.00     0.173 A 
ATOM     54  F   UNL A   1      39.201  26.412  29.542  1.00  0.00    -0.203 F 
ATOM     55  C   UNL A   1      40.039  26.004  27.379  1.00  0.00     0.198 A 
ATOM     56  C   UNL A   1      41.476  27.615  26.329  1.00  0.00     0.198 A 
ATOM     57  F   UNL A   1      42.066  29.585  27.476  1.00  0.00    -0.203 F 
ATOM     58  F   UNL A   1      39.402  24.824  27.354  1.00  0.00    -0.200 F 
ATOM     59  C   UNL A   1      40.801  26.404  26.291  1.00  0.00     0.200 A 
ATOM     60  F   UNL A   1      42.202  28.011  25.275  1.00  0.00    -0.200 F 
ATOM     61  F   UNL A   1      40.888  25.621  25.208  1.00  0.00    -0.200 F 
ENDBRANCH  27  51
BRANCH  39  62
ATOM     62  C   UNL A   1      43.894  28.234  34.703  1.00  0.00     0.064 A 
ATOM     63  C   UNL A   1      43.623  27.048  35.401  1.00  0.00     0.173 A 
ATOM     64  C   UNL A   1      45.234  28.616  34.547  1.00  0.00     0.173 A 
ATOM     65  F   UNL A   1      42.355  26.652  35.589  1.00  0.00    -0.203 F 
ATOM     66  C   UNL A   1      44.653  26.288  35.944  1.00  0.00     0.198 A 
ATOM     67  C   UNL A   1      46.265  27.841  35.072  1.00  0.00     0.198 A 
ATOM     68  F   UNL A   1      45.544  29.742  33.886  1.00  0.00    -0.203 F 
ATOM     69  F   UNL A   1      44.371  25.182  36.646  1.00  0.00    -0.200 F 
ATOM     70  C   UNL A   1      45.973  26.682  35.775  1.00  0.00     0.200 A 
ATOM     71  F   UNL A   1      47.539  28.219  34.903  1.00  0.00    -0.200 F 
ATOM     72  F   UNL A   1      46.964  25.949  36.300  1.00  0.00    -0.200 F 
ENDBRANCH  39  62
ENDBRANCH  13  14
ENDBRANCH   6   8
ENDBRANCH   3   4
ENDBRANCH   2   3
ENDBRANCH   1   2
BRANCH   1  73
ATOM     73  C   UNL A   1      32.627  29.869  26.900  1.00  0.00     0.002 C 
BRANCH  73  74
ATOM     74  C   UNL A   1      33.449  28.902  26.043  1.00  0.00     0.021 C 
BRANCH  74  75
ATOM     75  C   UNL A   1      33.393  27.435  26.457  1.00  0.00     0.116 C 
BRANCH  75  76
ATOM     76  N   UNL A   1      32.047  26.992  26.778  1.00  0.00    -0.352 N 
ATOM     77  C   UNL A   1      31.089  26.436  25.973  1.00  0.00     0.252 C 
ATOM     78  H   UNL A   1      31.784  27.110  27.720  1.00  0.00     0.163 HD
ATOM     79  O   UNL A   1      29.992  26.126  26.423  1.00  0.00    -0.269 OA
BRANCH  77  80
ATOM     80  C   UNL A   1      31.397  26.174  24.557  1.00  0.00     0.059 A 
ATOM     81  C   UNL A   1      31.975  24.947  24.209  1.00  0.00     0.038 A 
ATOM     82  C   UNL A   1      31.120  27.107  23.566  1.00  0.00     0.055 A 
ATOM     83  C   UNL A   1      32.358  24.655  22.879  1.00  0.00     0.102 A 
ATOM     84  C   UNL A   1      31.445  26.804  22.242  1.00  0.00     0.043 A 
ATOM     85  Cl  UNL A   1      30.447  28.659  23.896  1.00  0.00    -0.083 Cl
ATOM     86  C   UNL A   1      32.069  25.591  21.888  1.00  0.00     0.062 A 
ATOM     87  Cl  UNL A   1      32.392  25.462  20.208  1.00  0.00    -0.083 Cl
BRANCH  83  88
ATOM     88  S   UNL A   1      33.250  23.116  22.767  1.00  0.00     0.244 S 
ATOM     89  O   UNL A   1      32.217  22.102  22.861  1.00  0.00    -0.207 OA
ATOM     90  O   UNL A   1      34.043  23.239  21.561  1.00  0.00    -0.207 OA
BRANCH  88  91
ATOM     91  N   UNL A   1      34.322  22.869  24.043  1.00  0.00    -0.198 NA
ATOM     92  C   UNL A   1      34.396  21.507  24.611  1.00  0.00     0.102 C 
ATOM     93  C   UNL A   1      35.434  23.832  24.198  1.00  0.00     0.102 C 
ATOM     94  C   UNL A   1      35.261  21.409  25.857  1.00  0.00     0.017 C 
ATOM     95  C   UNL A   1      36.276  23.614  25.446  1.00  0.00     0.017 C 
ATOM     96  C   UNL A   1      36.576  22.148  25.695  1.00  0.00     0.003 C 
ENDBRANCH  88  91
ENDBRANCH  83  88
ENDBRANCH  77  80
ENDBRANCH  75  76
ENDBRANCH  74  75
ENDBRANCH  73  74
ENDBRANCH   1  73
TORSDOF 15
ENDMDL
