MODEL 1
REMARK VINA RESULT:     -12.3      0.000      0.000
REMARK SMILES O=C(C[C@H]([NH2+]Cc1ccco1)C(=O)NCCCCCCNC(=O)c1ccc(-c2c3nc(c(-c4c(F)c(F)c(F)c(F)c4F)c4ccc([nH]4)c(-c4c(F)c(F)c(F)c(F)c4F)c4nc(c(-c5c(F)c(F)c(F)c(F)c5F)c5ccc2[nH]5)C=C4)C=C3)cc1)Nc1ccc(O)cc1
REMARK SMILES IDX 16 1 15 2 14 3 12 4 13 5 4 7 3 8 2 9 1 10 87 11 88 13 89 14
REMARK SMILES IDX 94 15 90 16 93 17 91 18 92 19 5 21 6 24 7 25 8 26 11 27 9 28
REMARK SMILES IDX 10 29 17 30 18 31 19 32 20 33 21 34 22 35 23 37 24 38 25 39
REMARK SMILES IDX 86 40 26 41 85 42 27 43 28 44 29 45 79 46 30 47 84 48 78 49
REMARK SMILES IDX 80 50 31 51 83 52 77 53 76 54 32 56 64 57 44 58 63 59 45 60
REMARK SMILES IDX 48 61 62 62 81 63 46 64 47 65 61 67 82 68 49 69 33 70 34 71
REMARK SMILES IDX 42 72 35 73 36 74 40 75 43 76 37 77 38 78 41 79 39 80 65 81
REMARK SMILES IDX 66 82 74 83 67 84 68 85 72 86 75 87 69 88 70 89 73 90 71 91
REMARK SMILES IDX 50 92 51 93 59 94 52 95 53 96 57 97 60 98 54 99 55 100
REMARK SMILES IDX 58 101 56 102
REMARK H PARENT 14 6 87 12 92 20 5 22 5 23 21 36 80 55 48 66
REMARK Flexibility Score: inf
ROOT
ATOM      1  C   UNL A   1      32.076  28.433  27.208  1.00  0.00     0.021 C 
ENDROOT
BRANCH   1   2
ATOM      2  C   UNL A   1      31.933  27.675  25.889  1.00  0.00     0.116 C 
BRANCH   2   3
ATOM      3  N   UNL A   1      32.910  28.125  24.912  1.00  0.00    -0.351 N 
ATOM      4  C   UNL A   1      32.921  27.966  23.558  1.00  0.00     0.278 C 
ATOM      5  O   UNL A   1      33.892  28.388  22.925  1.00  0.00    -0.268 OA
ATOM      6  H   UNL A   1      33.678  28.618  25.283  1.00  0.00     0.163 HD
BRANCH   4   7
ATOM      7  C   UNL A   1      31.721  27.341  22.819  1.00  0.00     0.282 C 
BRANCH   7   8
ATOM      8  C   UNL A   1      32.265  26.342  21.782  1.00  0.00     0.175 C 
BRANCH   8   9
ATOM      9  C   UNL A   1      32.756  25.026  22.344  1.00  0.00     0.230 C 
ATOM     10  O   UNL A   1      33.952  24.752  22.323  1.00  0.00    -0.274 OA
ATOM     11  N   UNL A   1      31.740  24.225  22.836  1.00  0.00    -0.326 N 
ATOM     12  H   UNL A   1      30.822  24.571  22.746  1.00  0.00     0.169 HD
BRANCH  11  13
ATOM     13  C   UNL A   1      31.882  22.967  23.451  1.00  0.00     0.041 A 
ATOM     14  C   UNL A   1      31.683  22.902  24.836  1.00  0.00     0.030 A 
ATOM     15  C   UNL A   1      32.223  21.803  22.758  1.00  0.00     0.030 A 
ATOM     16  C   UNL A   1      31.803  21.686  25.512  1.00  0.00     0.048 A 
ATOM     17  C   UNL A   1      32.360  20.588  23.436  1.00  0.00     0.048 A 
ATOM     18  C   UNL A   1      32.144  20.540  24.807  1.00  0.00     0.115 A 
BRANCH  18  19
ATOM     19  O   UNL A   1      32.260  19.374  25.504  1.00  0.00    -0.508 OA
ATOM     20  H   UNL A   1      31.959  19.326  26.391  1.00  0.00     0.293 HD
ENDBRANCH  18  19
ENDBRANCH  11  13
ENDBRANCH   8   9
ENDBRANCH   7   8
BRANCH   7  21
ATOM     21  N   UNL A   1      30.827  28.399  22.300  1.00  0.00    -0.329 N 
ATOM     22  H   UNL A   1      30.830  28.361  21.281  1.00  0.00     0.347 HD
ATOM     23  H   UNL A   1      31.175  29.296  22.639  1.00  0.00     0.347 HD
BRANCH  21  24
ATOM     24  C   UNL A   1      29.449  28.241  22.776  1.00  0.00     0.337 C 
BRANCH  24  25
ATOM     25  C   UNL A   1      28.819  29.567  23.031  1.00  0.00     0.157 A 
ATOM     26  C   UNL A   1      27.556  30.090  22.831  1.00  0.00     0.052 A 
ATOM     27  O   UNL A   1      29.624  30.513  23.598  1.00  0.00    -0.463 OA
ATOM     28  C   UNL A   1      27.593  31.425  23.298  1.00  0.00     0.042 A 
ATOM     29  C   UNL A   1      28.874  31.636  23.750  1.00  0.00     0.195 A 
ENDBRANCH  24  25
ENDBRANCH  21  24
ENDBRANCH   7  21
ENDBRANCH   4   7
ENDBRANCH   2   3
ENDBRANCH   1   2
BRANCH   1  30
ATOM     30  C   UNL A   1      32.500  29.899  27.047  1.00  0.00     0.002 C 
BRANCH  30  31
ATOM     31  C   UNL A   1      31.569  30.759  26.185  1.00  0.00     0.002 C 
BRANCH  31  32
ATOM     32  C   UNL A   1      31.371  32.196  26.671  1.00  0.00     0.021 C 
BRANCH  32  33
ATOM     33  C   UNL A   1      32.607  32.837  27.292  1.00  0.00     0.116 C 
BRANCH  33  34
ATOM     34  N   UNL A   1      32.394  34.236  27.630  1.00  0.00    -0.352 N 
ATOM     35  C   UNL A   1      33.005  35.004  28.588  1.00  0.00     0.251 C 
ATOM     36  H   UNL A   1      31.711  34.700  27.093  1.00  0.00     0.163 HD
ATOM     37  O   UNL A   1      32.570  36.126  28.849  1.00  0.00    -0.269 OA
BRANCH  35  38
ATOM     38  C   UNL A   1      34.172  34.482  29.328  1.00  0.00     0.039 A 
ATOM     39  C   UNL A   1      33.966  33.871  30.569  1.00  0.00     0.014 A 
ATOM     40  C   UNL A   1      35.466  34.599  28.811  1.00  0.00     0.014 A 
ATOM     41  C   UNL A   1      35.048  33.326  31.263  1.00  0.00     0.010 A 
ATOM     42  C   UNL A   1      36.533  33.992  29.469  1.00  0.00     0.010 A 
ATOM     43  C   UNL A   1      36.336  33.351  30.702  1.00  0.00    -0.014 A 
BRANCH  43  44
ATOM     44  C   UNL A   1      37.484  32.703  31.388  1.00  0.00     0.031 A 
ATOM     45  C   UNL A   1      38.189  31.536  30.752  1.00  0.00     0.074 A 
ATOM     46  C   UNL A   1      37.849  33.124  32.615  1.00  0.00     0.049 A 
ATOM     47  N   UNL A   1      39.162  30.799  31.225  1.00  0.00    -0.248 NA
ATOM     48  C   UNL A   1      37.722  31.126  29.418  1.00  0.00     0.031 C 
ATOM     49  C   UNL A   1      37.210  34.209  33.362  1.00  0.00     0.029 A 
ATOM     50  N   UNL A   1      38.837  32.678  33.460  1.00  0.00    -0.354 N 
ATOM     51  C   UNL A   1      39.407  29.830  30.260  1.00  0.00     0.074 A 
ATOM     52  C   UNL A   1      38.455  30.045  29.193  1.00  0.00     0.031 C 
ATOM     53  C   UNL A   1      37.827  34.354  34.544  1.00  0.00     0.029 A 
ATOM     54  C   UNL A   1      38.880  33.349  34.659  1.00  0.00     0.049 A 
ATOM     55  H   UNL A   1      39.455  31.949  33.228  1.00  0.00     0.167 HD
ATOM     56  C   UNL A   1      40.355  28.863  30.258  1.00  0.00     0.037 A 
ATOM     57  C   UNL A   1      39.669  33.163  35.735  1.00  0.00     0.037 A 
ATOM     58  C   UNL A   1      41.325  28.676  31.305  1.00  0.00     0.049 A 
ATOM     59  C   UNL A   1      40.721  32.088  35.697  1.00  0.00     0.074 A 
ATOM     60  C   UNL A   1      42.376  27.777  31.354  1.00  0.00     0.029 A 
ATOM     61  N   UNL A   1      41.359  29.397  32.489  1.00  0.00    -0.354 N 
ATOM     62  N   UNL A   1      41.000  31.235  34.742  1.00  0.00    -0.248 NA
ATOM     63  C   UNL A   1      41.576  31.955  36.886  1.00  0.00     0.031 C 
ATOM     64  C   UNL A   1      43.012  27.915  32.591  1.00  0.00     0.029 A 
ATOM     65  C   UNL A   1      42.396  28.942  33.287  1.00  0.00     0.049 A 
ATOM     66  H   UNL A   1      40.739  30.124  32.727  1.00  0.00     0.167 HD
ATOM     67  C   UNL A   1      42.077  30.488  35.198  1.00  0.00     0.074 A 
ATOM     68  C   UNL A   1      42.414  30.999  36.509  1.00  0.00     0.031 C 
ATOM     69  C   UNL A   1      42.729  29.469  34.587  1.00  0.00     0.037 A 
BRANCH  56  70
ATOM     70  C   UNL A   1      40.401  27.925  29.086  1.00  0.00     0.064 A 
ATOM     71  C   UNL A   1      39.638  26.750  29.052  1.00  0.00     0.173 A 
ATOM     72  C   UNL A   1      41.164  28.246  27.952  1.00  0.00     0.173 A 
ATOM     73  F   UNL A   1      38.899  26.392  30.113  1.00  0.00    -0.203 F 
ATOM     74  C   UNL A   1      39.649  25.920  27.933  1.00  0.00     0.198 A 
ATOM     75  C   UNL A   1      41.149  27.430  26.824  1.00  0.00     0.198 A 
ATOM     76  F   UNL A   1      41.907  29.362  27.930  1.00  0.00    -0.203 F 
ATOM     77  F   UNL A   1      38.940  24.783  27.936  1.00  0.00    -0.200 F 
ATOM     78  C   UNL A   1      40.397  26.266  26.816  1.00  0.00     0.200 A 
ATOM     79  F   UNL A   1      41.860  27.774  25.741  1.00  0.00    -0.200 F 
ATOM     80  F   UNL A   1      40.393  25.476  25.734  1.00  0.00    -0.200 F 
ENDBRANCH  56  70
BRANCH  57  81
ATOM     81  C   UNL A   1      39.499  34.018  36.941  1.00  0.00     0.064 A 
ATOM     82  C   UNL A   1      40.129  35.268  37.036  1.00  0.00     0.173 A 
ATOM     83  C   UNL A   1      38.730  33.592  38.033  1.00  0.00     0.173 A 
ATOM     84  F   UNL A   1      40.893  35.712  36.027  1.00  0.00    -0.203 F 
ATOM     85  C   UNL A   1      40.021  36.043  38.189  1.00  0.00     0.198 A 
ATOM     86  C   UNL A   1      38.596  34.382  39.172  1.00  0.00     0.198 A 
ATOM     87  F   UNL A   1      38.103  32.407  37.991  1.00  0.00    -0.203 F 
ATOM     88  F   UNL A   1      40.682  37.205  38.277  1.00  0.00    -0.200 F 
ATOM     89  C   UNL A   1      39.251  35.602  39.255  1.00  0.00     0.200 A 
ATOM     90  F   UNL A   1      37.838  33.959  40.194  1.00  0.00    -0.200 F 
ATOM     91  F   UNL A   1      39.149  36.346  40.365  1.00  0.00    -0.200 F 
ENDBRANCH  57  81
BRANCH  69  92
ATOM     92  C   UNL A   1      43.899  28.865  35.307  1.00  0.00     0.064 A 
ATOM     93  C   UNL A   1      43.741  27.811  36.220  1.00  0.00     0.173 A 
ATOM     94  C   UNL A   1      45.202  29.320  35.047  1.00  0.00     0.173 A 
ATOM     95  F   UNL A   1      42.516  27.351  36.513  1.00  0.00    -0.203 F 
ATOM     96  C   UNL A   1      44.841  27.254  36.866  1.00  0.00     0.198 A 
ATOM     97  C   UNL A   1      46.301  28.737  35.670  1.00  0.00     0.198 A 
ATOM     98  F   UNL A   1      45.409  30.319  34.177  1.00  0.00    -0.203 F 
ATOM     99  F   UNL A   1      44.663  26.282  37.771  1.00  0.00    -0.200 F 
ATOM    100  C   UNL A   1      46.121  27.711  36.585  1.00  0.00     0.200 A 
ATOM    101  F   UNL A   1      47.537  29.170  35.385  1.00  0.00    -0.200 F 
ATOM    102  F   UNL A   1      47.179  27.167  37.201  1.00  0.00    -0.200 F 
ENDBRANCH  69  92
ENDBRANCH  43  44
ENDBRANCH  35  38
ENDBRANCH  33  34
ENDBRANCH  32  33
ENDBRANCH  31  32
ENDBRANCH  30  31
ENDBRANCH   1  30
TORSDOF 20
ENDMDL
MODEL 2
REMARK VINA RESULT:     -12.2      5.359     10.159
REMARK SMILES O=C(C[C@H]([NH2+]Cc1ccco1)C(=O)NCCCCCCNC(=O)c1ccc(-c2c3nc(c(-c4c(F)c(F)c(F)c(F)c4F)c4ccc([nH]4)c(-c4c(F)c(F)c(F)c(F)c4F)c4nc(c(-c5c(F)c(F)c(F)c(F)c5F)c5ccc2[nH]5)C=C4)C=C3)cc1)Nc1ccc(O)cc1
REMARK SMILES IDX 16 1 15 2 14 3 12 4 13 5 4 7 3 8 2 9 1 10 87 11 88 13 89 14
REMARK SMILES IDX 94 15 90 16 93 17 91 18 92 19 5 21 6 24 7 25 8 26 11 27 9 28
REMARK SMILES IDX 10 29 17 30 18 31 19 32 20 33 21 34 22 35 23 37 24 38 25 39
REMARK SMILES IDX 86 40 26 41 85 42 27 43 28 44 29 45 79 46 30 47 84 48 78 49
REMARK SMILES IDX 80 50 31 51 83 52 77 53 76 54 32 56 64 57 44 58 63 59 45 60
REMARK SMILES IDX 48 61 62 62 81 63 46 64 47 65 61 67 82 68 49 69 33 70 34 71
REMARK SMILES IDX 42 72 35 73 36 74 40 75 43 76 37 77 38 78 41 79 39 80 65 81
REMARK SMILES IDX 66 82 74 83 67 84 68 85 72 86 75 87 69 88 70 89 73 90 71 91
REMARK SMILES IDX 50 92 51 93 59 94 52 95 53 96 57 97 60 98 54 99 55 100
REMARK SMILES IDX 58 101 56 102
REMARK H PARENT 14 6 87 12 92 20 5 22 5 23 21 36 80 55 48 66
REMARK Flexibility Score: inf
ROOT
ATOM      1  C   UNL A   1      35.783  22.572  23.867  1.00  0.00     0.021 C 
ENDROOT
BRANCH   1   2
ATOM      2  C   UNL A   1      34.814  23.435  24.674  1.00  0.00     0.116 C 
BRANCH   2   3
ATOM      3  N   UNL A   1      34.603  22.890  26.005  1.00  0.00    -0.351 N 
ATOM      4  C   UNL A   1      33.477  22.354  26.556  1.00  0.00     0.278 C 
ATOM      5  O   UNL A   1      33.512  22.000  27.737  1.00  0.00    -0.268 OA
ATOM      6  H   UNL A   1      35.391  22.911  26.596  1.00  0.00     0.163 HD
BRANCH   4   7
ATOM      7  C   UNL A   1      32.208  22.124  25.711  1.00  0.00     0.282 C 
BRANCH   7   8
ATOM      8  C   UNL A   1      31.053  22.910  26.358  1.00  0.00     0.175 C 
BRANCH   8   9
ATOM      9  C   UNL A   1      30.921  24.350  25.916  1.00  0.00     0.230 C 
ATOM     10  O   UNL A   1      31.138  25.262  26.708  1.00  0.00    -0.274 OA
ATOM     11  N   UNL A   1      30.533  24.486  24.594  1.00  0.00    -0.326 N 
ATOM     12  H   UNL A   1      30.359  23.654  24.098  1.00  0.00     0.169 HD
BRANCH  11  13
ATOM     13  C   UNL A   1      30.361  25.691  23.887  1.00  0.00     0.041 A 
ATOM     14  C   UNL A   1      31.409  26.103  23.055  1.00  0.00     0.030 A 
ATOM     15  C   UNL A   1      29.219  26.489  23.988  1.00  0.00     0.030 A 
ATOM     16  C   UNL A   1      31.305  27.286  22.319  1.00  0.00     0.048 A 
ATOM     17  C   UNL A   1      29.120  27.682  23.266  1.00  0.00     0.048 A 
ATOM     18  C   UNL A   1      30.163  28.067  22.433  1.00  0.00     0.115 A 
BRANCH  18  19
ATOM     19  O   UNL A   1      30.104  29.218  21.706  1.00  0.00    -0.508 OA
ATOM     20  H   UNL A   1      30.430  30.019  22.068  1.00  0.00     0.293 HD
ENDBRANCH  18  19
ENDBRANCH  11  13
ENDBRANCH   8   9
ENDBRANCH   7   8
BRANCH   7  21
ATOM     21  N   UNL A   1      31.980  20.677  25.507  1.00  0.00    -0.329 N 
ATOM     22  H   UNL A   1      30.994  20.526  25.294  1.00  0.00     0.347 HD
ATOM     23  H   UNL A   1      32.253  20.193  26.363  1.00  0.00     0.347 HD
BRANCH  21  24
ATOM     24  C   UNL A   1      32.789  20.139  24.408  1.00  0.00     0.337 C 
BRANCH  24  25
ATOM     25  C   UNL A   1      33.139  18.712  24.655  1.00  0.00     0.157 A 
ATOM     26  C   UNL A   1      34.200  17.903  24.296  1.00  0.00     0.052 A 
ATOM     27  O   UNL A   1      32.251  17.998  25.407  1.00  0.00    -0.463 OA
ATOM     28  C   UNL A   1      33.944  16.630  24.856  1.00  0.00     0.042 A 
ATOM     29  C   UNL A   1      32.744  16.738  25.519  1.00  0.00     0.195 A 
ENDBRANCH  24  25
ENDBRANCH  21  24
ENDBRANCH   7  21
ENDBRANCH   4   7
ENDBRANCH   2   3
ENDBRANCH   1   2
BRANCH   1  30
ATOM     30  C   UNL A   1      36.888  21.917  24.706  1.00  0.00     0.002 C 
BRANCH  30  31
ATOM     31  C   UNL A   1      36.695  20.423  24.992  1.00  0.00     0.002 C 
BRANCH  31  32
ATOM     32  C   UNL A   1      37.971  19.580  24.950  1.00  0.00     0.021 C 
BRANCH  32  33
ATOM     33  C   UNL A   1      39.130  20.132  25.772  1.00  0.00     0.116 C 
BRANCH  33  34
ATOM     34  N   UNL A   1      40.217  19.174  25.908  1.00  0.00    -0.352 N 
ATOM     35  C   UNL A   1      41.554  19.397  26.117  1.00  0.00     0.251 C 
ATOM     36  H   UNL A   1      39.955  18.228  25.840  1.00  0.00     0.163 HD
ATOM     37  O   UNL A   1      42.356  18.468  26.030  1.00  0.00    -0.269 OA
BRANCH  35  38
ATOM     38  C   UNL A   1      42.043  20.757  26.424  1.00  0.00     0.039 A 
ATOM     39  C   UNL A   1      42.317  21.630  25.367  1.00  0.00     0.014 A 
ATOM     40  C   UNL A   1      42.241  21.173  27.744  1.00  0.00     0.014 A 
ATOM     41  C   UNL A   1      42.732  22.936  25.634  1.00  0.00     0.010 A 
ATOM     42  C   UNL A   1      42.585  22.496  28.011  1.00  0.00     0.010 A 
ATOM     43  C   UNL A   1      42.836  23.391  26.959  1.00  0.00    -0.014 A 
BRANCH  43  44
ATOM     44  C   UNL A   1      43.196  24.801  27.261  1.00  0.00     0.031 A 
ATOM     45  C   UNL A   1      44.602  25.288  27.047  1.00  0.00     0.074 A 
ATOM     46  C   UNL A   1      42.270  25.624  27.791  1.00  0.00     0.049 A 
ATOM     47  N   UNL A   1      45.123  26.459  27.316  1.00  0.00    -0.248 NA
ATOM     48  C   UNL A   1      45.559  24.325  26.479  1.00  0.00     0.031 C 
ATOM     49  C   UNL A   1      40.886  25.256  28.098  1.00  0.00     0.029 A 
ATOM     50  N   UNL A   1      42.357  26.938  28.184  1.00  0.00    -0.354 N 
ATOM     51  C   UNL A   1      46.465  26.366  26.970  1.00  0.00     0.074 A 
ATOM     52  C   UNL A   1      46.691  25.013  26.513  1.00  0.00     0.031 C 
ATOM     53  C   UNL A   1      40.252  26.318  28.617  1.00  0.00     0.029 A 
ATOM     54  C   UNL A   1      41.190  27.432  28.717  1.00  0.00     0.049 A 
ATOM     55  H   UNL A   1      43.176  27.475  28.091  1.00  0.00     0.167 HD
ATOM     56  C   UNL A   1      47.416  27.329  27.015  1.00  0.00     0.037 A 
ATOM     57  C   UNL A   1      40.914  28.641  29.243  1.00  0.00     0.037 A 
ATOM     58  C   UNL A   1      47.178  28.684  27.437  1.00  0.00     0.049 A 
ATOM     59  C   UNL A   1      41.989  29.694  29.266  1.00  0.00     0.074 A 
ATOM     60  C   UNL A   1      48.058  29.753  27.438  1.00  0.00     0.029 A 
ATOM     61  N   UNL A   1      45.975  29.157  27.939  1.00  0.00    -0.354 N 
ATOM     62  N   UNL A   1      43.231  29.619  28.856  1.00  0.00    -0.248 NA
ATOM     63  C   UNL A   1      41.620  31.006  29.819  1.00  0.00     0.031 C 
ATOM     64  C   UNL A   1      47.404  30.857  27.991  1.00  0.00     0.029 A 
ATOM     65  C   UNL A   1      46.099  30.494  28.279  1.00  0.00     0.049 A 
ATOM     66  H   UNL A   1      45.154  28.622  28.038  1.00  0.00     0.167 HD
ATOM     67  C   UNL A   1      43.781  30.875  29.070  1.00  0.00     0.074 A 
ATOM     68  C   UNL A   1      42.733  31.700  29.631  1.00  0.00     0.031 C 
ATOM     69  C   UNL A   1      45.042  31.308  28.825  1.00  0.00     0.037 A 
BRANCH  56  70
ATOM     70  C   UNL A   1      48.809  26.962  26.593  1.00  0.00     0.064 A 
ATOM     71  C   UNL A   1      49.757  26.487  27.511  1.00  0.00     0.173 A 
ATOM     72  C   UNL A   1      49.177  27.017  25.239  1.00  0.00     0.173 A 
ATOM     73  F   UNL A   1      49.460  26.423  28.817  1.00  0.00    -0.203 F 
ATOM     74  C   UNL A   1      51.027  26.097  27.092  1.00  0.00     0.198 A 
ATOM     75  C   UNL A   1      50.437  26.599  24.821  1.00  0.00     0.198 A 
ATOM     76  F   UNL A   1      48.306  27.458  24.319  1.00  0.00    -0.203 F 
ATOM     77  F   UNL A   1      51.929  25.681  27.993  1.00  0.00    -0.200 F 
ATOM     78  C   UNL A   1      51.363  26.144  25.747  1.00  0.00     0.200 A 
ATOM     79  F   UNL A   1      50.754  26.631  23.519  1.00  0.00    -0.200 F 
ATOM     80  F   UNL A   1      52.579  25.752  25.344  1.00  0.00    -0.200 F 
ENDBRANCH  56  70
BRANCH  57  81
ATOM     81  C   UNL A   1      39.559  28.926  29.788  1.00  0.00     0.064 A 
ATOM     82  C   UNL A   1      38.541  29.434  28.967  1.00  0.00     0.173 A 
ATOM     83  C   UNL A   1      39.262  28.725  31.143  1.00  0.00     0.173 A 
ATOM     84  F   UNL A   1      38.781  29.665  27.668  1.00  0.00    -0.203 F 
ATOM     85  C   UNL A   1      37.290  29.759  29.488  1.00  0.00     0.198 A 
ATOM     86  C   UNL A   1      38.001  29.019  31.656  1.00  0.00     0.198 A 
ATOM     87  F   UNL A   1      40.198  28.236  31.971  1.00  0.00    -0.203 F 
ATOM     88  F   UNL A   1      36.356  30.300  28.694  1.00  0.00    -0.200 F 
ATOM     89  C   UNL A   1      37.019  29.547  30.832  1.00  0.00     0.200 A 
ATOM     90  F   UNL A   1      37.738  28.797  32.952  1.00  0.00    -0.200 F 
ATOM     91  F   UNL A   1      35.817  29.862  31.333  1.00  0.00    -0.200 F 
ENDBRANCH  57  81
BRANCH  69  92
ATOM     92  C   UNL A   1      45.350  32.747  29.120  1.00  0.00     0.064 A 
ATOM     93  C   UNL A   1      45.883  33.150  30.354  1.00  0.00     0.173 A 
ATOM     94  C   UNL A   1      45.149  33.730  28.139  1.00  0.00     0.173 A 
ATOM     95  F   UNL A   1      46.081  32.251  31.329  1.00  0.00    -0.203 F 
ATOM     96  C   UNL A   1      46.177  34.488  30.603  1.00  0.00     0.198 A 
ATOM     97  C   UNL A   1      45.475  35.061  28.380  1.00  0.00     0.198 A 
ATOM     98  F   UNL A   1      44.649  33.396  26.939  1.00  0.00    -0.203 F 
ATOM     99  F   UNL A   1      46.638  34.858  31.806  1.00  0.00    -0.200 F 
ATOM    100  C   UNL A   1      45.981  35.441  29.614  1.00  0.00     0.200 A 
ATOM    101  F   UNL A   1      45.299  35.977  27.417  1.00  0.00    -0.200 F 
ATOM    102  F   UNL A   1      46.273  36.727  29.853  1.00  0.00    -0.200 F 
ENDBRANCH  69  92
ENDBRANCH  43  44
ENDBRANCH  35  38
ENDBRANCH  33  34
ENDBRANCH  32  33
ENDBRANCH  31  32
ENDBRANCH  30  31
ENDBRANCH   1  30
TORSDOF 20
ENDMDL
MODEL 3
REMARK VINA RESULT:     -12.2      1.146      4.618
REMARK SMILES O=C(C[C@H]([NH2+]Cc1ccco1)C(=O)NCCCCCCNC(=O)c1ccc(-c2c3nc(c(-c4c(F)c(F)c(F)c(F)c4F)c4ccc([nH]4)c(-c4c(F)c(F)c(F)c(F)c4F)c4nc(c(-c5c(F)c(F)c(F)c(F)c5F)c5ccc2[nH]5)C=C4)C=C3)cc1)Nc1ccc(O)cc1
REMARK SMILES IDX 16 1 15 2 14 3 12 4 13 5 4 7 3 8 2 9 1 10 87 11 88 13 89 14
REMARK SMILES IDX 94 15 90 16 93 17 91 18 92 19 5 21 6 24 7 25 8 26 11 27 9 28
REMARK SMILES IDX 10 29 17 30 18 31 19 32 20 33 21 34 22 35 23 37 24 38 25 39
REMARK SMILES IDX 86 40 26 41 85 42 27 43 28 44 29 45 79 46 30 47 84 48 78 49
REMARK SMILES IDX 80 50 31 51 83 52 77 53 76 54 32 56 64 57 44 58 63 59 45 60
REMARK SMILES IDX 48 61 62 62 81 63 46 64 47 65 61 67 82 68 49 69 33 70 34 71
REMARK SMILES IDX 42 72 35 73 36 74 40 75 43 76 37 77 38 78 41 79 39 80 65 81
REMARK SMILES IDX 66 82 74 83 67 84 68 85 72 86 75 87 69 88 70 89 73 90 71 91
REMARK SMILES IDX 50 92 51 93 59 94 52 95 53 96 57 97 60 98 54 99 55 100
REMARK SMILES IDX 58 101 56 102
REMARK H PARENT 14 6 87 12 92 20 5 22 5 23 21 36 80 55 48 66
REMARK Flexibility Score: inf
ROOT
ATOM      1  C   UNL A   1      32.914  28.810  27.320  1.00  0.00     0.021 C 
ENDROOT
BRANCH   1   2
ATOM      2  C   UNL A   1      32.656  27.645  26.365  1.00  0.00     0.116 C 
BRANCH   2   3
ATOM      3  N   UNL A   1      31.466  26.904  26.745  1.00  0.00    -0.351 N 
ATOM      4  C   UNL A   1      30.687  26.070  25.999  1.00  0.00     0.278 C 
ATOM      5  O   UNL A   1      29.680  25.585  26.520  1.00  0.00    -0.268 OA
ATOM      6  H   UNL A   1      31.180  27.020  27.680  1.00  0.00     0.163 HD
BRANCH   4   7
ATOM      7  C   UNL A   1      31.087  25.678  24.563  1.00  0.00     0.282 C 
BRANCH   7   8
ATOM      8  C   UNL A   1      30.012  26.219  23.603  1.00  0.00     0.175 C 
BRANCH   8   9
ATOM      9  C   UNL A   1      30.113  27.693  23.281  1.00  0.00     0.230 C 
ATOM     10  O   UNL A   1      31.212  28.228  23.166  1.00  0.00    -0.274 OA
ATOM     11  N   UNL A   1      28.882  28.314  23.157  1.00  0.00    -0.326 N 
ATOM     12  H   UNL A   1      28.088  27.756  23.316  1.00  0.00     0.169 HD
BRANCH  11  13
ATOM     13  C   UNL A   1      28.648  29.664  22.828  1.00  0.00     0.041 A 
ATOM     14  C   UNL A   1      28.219  29.942  21.525  1.00  0.00     0.030 A 
ATOM     15  C   UNL A   1      28.839  30.720  23.722  1.00  0.00     0.030 A 
ATOM     16  C   UNL A   1      27.963  31.258  21.130  1.00  0.00     0.048 A 
ATOM     17  C   UNL A   1      28.601  32.039  23.324  1.00  0.00     0.048 A 
ATOM     18  C   UNL A   1      28.159  32.295  22.032  1.00  0.00     0.115 A 
BRANCH  18  19
ATOM     19  O   UNL A   1      27.907  33.564  21.606  1.00  0.00    -0.508 OA
ATOM     20  H   UNL A   1      27.219  33.725  20.989  1.00  0.00     0.293 HD
ENDBRANCH  18  19
ENDBRANCH  11  13
ENDBRANCH   8   9
ENDBRANCH   7   8
BRANCH   7  21
ATOM     21  N   UNL A   1      31.364  24.227  24.482  1.00  0.00    -0.329 N 
ATOM     22  H   UNL A   1      31.399  23.953  23.501  1.00  0.00     0.347 HD
ATOM     23  H   UNL A   1      30.618  23.738  24.978  1.00  0.00     0.347 HD
BRANCH  21  24
ATOM     24  C   UNL A   1      32.637  23.871  25.118  1.00  0.00     0.337 C 
BRANCH  24  25
ATOM     25  C   UNL A   1      32.936  22.423  24.936  1.00  0.00     0.157 A 
ATOM     26  C   UNL A   1      34.098  21.678  24.870  1.00  0.00     0.052 A 
ATOM     27  O   UNL A   1      31.855  21.599  24.809  1.00  0.00    -0.463 OA
ATOM     28  C   UNL A   1      33.704  20.331  24.692  1.00  0.00     0.042 A 
ATOM     29  C   UNL A   1      32.330  20.336  24.656  1.00  0.00     0.195 A 
ENDBRANCH  24  25
ENDBRANCH  21  24
ENDBRANCH   7  21
ENDBRANCH   4   7
ENDBRANCH   2   3
ENDBRANCH   1   2
BRANCH   1  30
ATOM     30  C   UNL A   1      32.936  30.186  26.642  1.00  0.00     0.002 C 
BRANCH  30  31
ATOM     31  C   UNL A   1      31.558  30.783  26.330  1.00  0.00     0.002 C 
BRANCH  31  32
ATOM     32  C   UNL A   1      31.412  32.277  26.629  1.00  0.00     0.021 C 
BRANCH  32  33
ATOM     33  C   UNL A   1      32.645  32.930  27.245  1.00  0.00     0.116 C 
BRANCH  33  34
ATOM     34  N   UNL A   1      32.387  34.294  27.683  1.00  0.00    -0.352 N 
ATOM     35  C   UNL A   1      32.985  35.015  28.685  1.00  0.00     0.251 C 
ATOM     36  H   UNL A   1      31.681  34.768  27.187  1.00  0.00     0.163 HD
ATOM     37  O   UNL A   1      32.515  36.099  29.029  1.00  0.00    -0.269 OA
BRANCH  35  38
ATOM     38  C   UNL A   1      34.180  34.484  29.373  1.00  0.00     0.039 A 
ATOM     39  C   UNL A   1      34.029  33.899  30.633  1.00  0.00     0.014 A 
ATOM     40  C   UNL A   1      35.447  34.570  28.788  1.00  0.00     0.014 A 
ATOM     41  C   UNL A   1      35.136  33.346  31.279  1.00  0.00     0.010 A 
ATOM     42  C   UNL A   1      36.536  33.955  29.400  1.00  0.00     0.010 A 
ATOM     43  C   UNL A   1      36.393  33.338  30.653  1.00  0.00    -0.014 A 
BRANCH  43  44
ATOM     44  C   UNL A   1      37.565  32.682  31.290  1.00  0.00     0.031 A 
ATOM     45  C   UNL A   1      38.227  31.505  30.629  1.00  0.00     0.074 A 
ATOM     46  C   UNL A   1      37.989  33.106  32.497  1.00  0.00     0.049 A 
ATOM     47  N   UNL A   1      39.214  30.760  31.062  1.00  0.00    -0.248 NA
ATOM     48  C   UNL A   1      37.697  31.093  29.320  1.00  0.00     0.031 C 
ATOM     49  C   UNL A   1      37.395  34.201  33.265  1.00  0.00     0.029 A 
ATOM     50  N   UNL A   1      39.009  32.654  33.299  1.00  0.00    -0.354 N 
ATOM     51  C   UNL A   1      39.405  29.784  30.092  1.00  0.00     0.074 A 
ATOM     52  C   UNL A   1      38.408  30.003  29.068  1.00  0.00     0.031 C 
ATOM     53  C   UNL A   1      38.067  34.345  34.418  1.00  0.00     0.029 A 
ATOM     54  C   UNL A   1      39.113  33.330  34.490  1.00  0.00     0.049 A 
ATOM     55  H   UNL A   1      39.609  31.917  33.043  1.00  0.00     0.167 HD
ATOM     56  C   UNL A   1      40.342  28.806  30.052  1.00  0.00     0.037 A 
ATOM     57  C   UNL A   1      39.948  33.142  35.531  1.00  0.00     0.037 A 
ATOM     58  C   UNL A   1      41.356  28.615  31.056  1.00  0.00     0.049 A 
ATOM     59  C   UNL A   1      40.986  32.055  35.452  1.00  0.00     0.074 A 
ATOM     60  C   UNL A   1      42.399  27.705  31.063  1.00  0.00     0.029 A 
ATOM     61  N   UNL A   1      41.451  29.341  32.234  1.00  0.00    -0.354 N 
ATOM     62  N   UNL A   1      41.213  31.195  34.490  1.00  0.00    -0.248 NA
ATOM     63  C   UNL A   1      41.893  31.919  36.601  1.00  0.00     0.031 C 
ATOM     64  C   UNL A   1      43.092  27.843  32.269  1.00  0.00     0.029 A 
ATOM     65  C   UNL A   1      42.518  28.880  32.987  1.00  0.00     0.049 A 
ATOM     66  H   UNL A   1      40.850  30.076  32.495  1.00  0.00     0.167 HD
ATOM     67  C   UNL A   1      42.301  30.439  34.901  1.00  0.00     0.074 A 
ATOM     68  C   UNL A   1      42.703  30.952  36.193  1.00  0.00     0.031 C 
ATOM     69  C   UNL A   1      42.915  29.410  34.267  1.00  0.00     0.037 A 
BRANCH  56  70
ATOM     70  C   UNL A   1      40.326  27.863  28.886  1.00  0.00     0.064 A 
ATOM     71  C   UNL A   1      41.067  28.114  27.722  1.00  0.00     0.173 A 
ATOM     72  C   UNL A   1      39.616  26.654  28.962  1.00  0.00     0.173 A 
ATOM     73  F   UNL A   1      41.755  29.259  27.594  1.00  0.00    -0.203 F 
ATOM     74  C   UNL A   1      41.085  27.200  26.672  1.00  0.00     0.198 A 
ATOM     75  C   UNL A   1      39.661  25.729  27.923  1.00  0.00     0.198 A 
ATOM     76  F   UNL A   1      38.896  26.360  30.055  1.00  0.00    -0.203 F 
ATOM     77  F   UNL A   1      41.772  27.478  25.554  1.00  0.00    -0.200 F 
ATOM     78  C   UNL A   1      40.391  26.004  26.777  1.00  0.00     0.200 A 
ATOM     79  F   UNL A   1      39.001  24.567  28.033  1.00  0.00    -0.200 F 
ATOM     80  F   UNL A   1      40.423  25.117  25.773  1.00  0.00    -0.200 F 
ENDBRANCH  56  70
BRANCH  57  81
ATOM     81  C   UNL A   1      39.842  34.005  36.738  1.00  0.00     0.064 A 
ATOM     82  C   UNL A   1      39.010  33.650  37.811  1.00  0.00     0.173 A 
ATOM     83  C   UNL A   1      40.545  35.214  36.833  1.00  0.00     0.173 A 
ATOM     84  F   UNL A   1      38.299  32.514  37.759  1.00  0.00    -0.203 F 
ATOM     85  C   UNL A   1      38.862  34.486  38.916  1.00  0.00     0.198 A 
ATOM     86  C   UNL A   1      40.423  36.033  37.953  1.00  0.00     0.198 A 
ATOM     87  F   UNL A   1      41.358  35.598  35.838  1.00  0.00    -0.203 F 
ATOM     88  F   UNL A   1      38.015  34.152  39.898  1.00  0.00    -0.200 F 
ATOM     89  C   UNL A   1      39.573  35.676  38.988  1.00  0.00     0.200 A 
ATOM     90  F   UNL A   1      41.123  37.174  38.026  1.00  0.00    -0.200 F 
ATOM     91  F   UNL A   1      39.428  36.481  40.050  1.00  0.00    -0.200 F 
ENDBRANCH  57  81
BRANCH  69  92
ATOM     92  C   UNL A   1      44.110  28.798  34.937  1.00  0.00     0.064 A 
ATOM     93  C   UNL A   1      45.399  29.331  34.780  1.00  0.00     0.173 A 
ATOM     94  C   UNL A   1      43.958  27.687  35.781  1.00  0.00     0.173 A 
ATOM     95  F   UNL A   1      45.600  30.383  33.973  1.00  0.00    -0.203 F 
ATOM     96  C   UNL A   1      46.493  28.758  35.423  1.00  0.00     0.198 A 
ATOM     97  C   UNL A   1      45.048  27.138  36.447  1.00  0.00     0.198 A 
ATOM     98  F   UNL A   1      42.746  27.143  35.971  1.00  0.00    -0.203 F 
ATOM     99  F   UNL A   1      47.722  29.253  35.220  1.00  0.00    -0.200 F 
ATOM    100  C   UNL A   1      46.316  27.668  36.262  1.00  0.00     0.200 A 
ATOM    101  F   UNL A   1      44.872  26.094  37.270  1.00  0.00    -0.200 F 
ATOM    102  F   UNL A   1      47.369  27.124  36.887  1.00  0.00    -0.200 F 
ENDBRANCH  69  92
ENDBRANCH  43  44
ENDBRANCH  35  38
ENDBRANCH  33  34
ENDBRANCH  32  33
ENDBRANCH  31  32
ENDBRANCH  30  31
ENDBRANCH   1  30
TORSDOF 20
ENDMDL
