MODEL 1
REMARK VINA RESULT:     -12.5      0.000      0.000
REMARK SMILES C=CCn1nc(C(=O)NCCCCCCNC(=O)c2ccc(-c3c4nc(c(-c5c(F)c(F)c(F)c(F)c5F)c5ccc([nH]5)c(-c5c(F)c(F)c(F)c(F)c5F)c5nc(c(-c6c(F)c(F)c(F)c(F)c6F)c6ccc3[nH]6)C=C5)C=C4)cc2)c2c1CC[C@@H]([NH+]1CCC(C(C)(C)O)CC1)C2
REMARK SMILES IDX 12 1 11 2 10 3 9 4 7 5 8 6 6 8 4 9 5 10 83 11 82 12 84 13
REMARK SMILES IDX 97 14 85 15 86 16 3 17 2 18 1 19 87 20 88 21 96 22 89 24
REMARK SMILES IDX 95 25 90 26 91 27 92 28 93 29 94 30 13 32 14 33 15 34 16 35
REMARK SMILES IDX 17 36 18 38 19 39 20 40 81 41 21 42 80 43 22 44 23 45 24 46
REMARK SMILES IDX 74 47 25 48 79 49 73 50 75 51 26 52 78 53 72 54 71 55 27 57
REMARK SMILES IDX 59 58 39 59 58 60 40 61 43 62 57 63 76 64 41 65 42 66 56 68
REMARK SMILES IDX 77 69 44 70 28 71 29 72 37 73 30 74 31 75 35 76 38 77 32 78
REMARK SMILES IDX 33 79 36 80 34 81 60 82 61 83 69 84 62 85 63 86 67 87 70 88
REMARK SMILES IDX 64 89 65 90 68 91 66 92 45 93 46 94 54 95 47 96 48 97 52 98
REMARK SMILES IDX 55 99 49 100 50 101 53 102 51 103
REMARK H PARENT 9 7 87 23 94 31 16 37 75 56 43 67
REMARK Flexibility Score: inf
ROOT
ATOM      1  C   UNL A   1      39.396  21.594  25.949  1.00  0.00     0.002 C 
ENDROOT
BRANCH   1   2
ATOM      2  C   UNL A   1      38.843  22.883  26.548  1.00  0.00     0.021 C 
BRANCH   2   3
ATOM      3  C   UNL A   1      37.526  23.363  25.910  1.00  0.00     0.116 C 
BRANCH   3   4
ATOM      4  N   UNL A   1      37.518  23.166  24.477  1.00  0.00    -0.351 N 
ATOM      5  C   UNL A   1      36.558  22.833  23.549  1.00  0.00     0.272 C 
ATOM      6  O   UNL A   1      36.932  22.953  22.376  1.00  0.00    -0.267 OA
ATOM      7  H   UNL A   1      38.404  23.303  24.071  1.00  0.00     0.163 HD
BRANCH   5   8
ATOM      8  C   UNL A   1      35.184  22.383  23.882  1.00  0.00     0.153 A 
ATOM      9  N   UNL A   1      33.719  20.979  24.632  1.00  0.00    -0.265 N 
ATOM     10  N   UNL A   1      35.010  21.096  24.253  1.00  0.00    -0.167 NA
ATOM     11  C   UNL A   1      32.994  22.082  24.280  1.00  0.00     0.043 A 
ATOM     12  C   UNL A   1      33.934  23.051  23.980  1.00  0.00     0.012 A 
ATOM     13  C   UNL A   1      31.523  22.297  24.319  1.00  0.00     0.062 C 
ATOM     14  C   UNL A   1      33.567  24.477  23.868  1.00  0.00     0.105 C 
ATOM     15  C   UNL A   1      31.179  23.784  24.080  1.00  0.00     0.072 C 
ATOM     16  C   UNL A   1      32.220  24.850  24.518  1.00  0.00     0.189 C 
BRANCH   9  17
ATOM     17  C   UNL A   1      33.385  19.760  25.377  1.00  0.00     0.171 C 
BRANCH  17  18
ATOM     18  C   UNL A   1      33.290  18.475  24.613  1.00  0.00    -0.011 C 
ATOM     19  C   UNL A   1      32.528  18.290  23.526  1.00  0.00     0.006 C 
ENDBRANCH  17  18
ENDBRANCH   9  17
BRANCH  16  20
ATOM     20  N   UNL A   1      32.447  25.329  25.896  1.00  0.00    -0.332 N 
ATOM     21  C   UNL A   1      31.348  25.889  26.662  1.00  0.00     0.262 C 
ATOM     22  C   UNL A   1      33.651  26.107  26.126  1.00  0.00     0.262 C 
ATOM     23  H   UNL A   1      32.572  24.395  26.285  1.00  0.00     0.348 HD
ATOM     24  C   UNL A   1      31.028  27.332  26.311  1.00  0.00     0.068 C 
ATOM     25  C   UNL A   1      33.535  27.528  25.612  1.00  0.00     0.068 C 
ATOM     26  C   UNL A   1      32.224  28.263  25.992  1.00  0.00     0.031 C 
BRANCH  26  27
ATOM     27  C   UNL A   1      31.874  29.365  24.926  1.00  0.00     0.062 C 
ATOM     28  C   UNL A   1      30.829  28.913  23.901  1.00  0.00     0.042 C 
ATOM     29  C   UNL A   1      31.407  30.653  25.610  1.00  0.00     0.042 C 
BRANCH  27  30
ATOM     30  O   UNL A   1      33.045  29.703  24.178  1.00  0.00    -0.390 OA
ATOM     31  H   UNL A   1      33.658  28.950  24.178  1.00  0.00     0.211 HD
ENDBRANCH  27  30
ENDBRANCH  26  27
ENDBRANCH  16  20
ENDBRANCH   5   8
ENDBRANCH   3   4
ENDBRANCH   2   3
ENDBRANCH   1   2
BRANCH   1  32
ATOM     32  C   UNL A   1      40.544  20.972  26.760  1.00  0.00     0.002 C 
BRANCH  32  33
ATOM     33  C   UNL A   1      41.273  19.775  26.126  1.00  0.00     0.021 C 
BRANCH  33  34
ATOM     34  C   UNL A   1      42.628  19.491  26.748  1.00  0.00     0.116 C 
BRANCH  34  35
ATOM     35  N   UNL A   1      43.706  19.449  25.751  1.00  0.00    -0.352 N 
ATOM     36  C   UNL A   1      44.233  20.470  24.976  1.00  0.00     0.251 C 
ATOM     37  H   UNL A   1      44.115  18.563  25.611  1.00  0.00     0.163 HD
ATOM     38  O   UNL A   1      44.888  20.239  23.977  1.00  0.00    -0.269 OA
BRANCH  36  39
ATOM     39  C   UNL A   1      43.990  21.857  25.408  1.00  0.00     0.039 A 
ATOM     40  C   UNL A   1      43.069  22.699  24.779  1.00  0.00     0.014 A 
ATOM     41  C   UNL A   1      44.702  22.286  26.518  1.00  0.00     0.014 A 
ATOM     42  C   UNL A   1      42.858  23.962  25.328  1.00  0.00     0.010 A 
ATOM     43  C   UNL A   1      44.263  23.364  27.217  1.00  0.00     0.010 A 
ATOM     44  C   UNL A   1      43.465  24.274  26.555  1.00  0.00    -0.014 A 
BRANCH  44  45
ATOM     45  C   UNL A   1      43.277  25.539  27.233  1.00  0.00     0.031 A 
ATOM     46  C   UNL A   1      44.261  26.572  26.857  1.00  0.00     0.074 A 
ATOM     47  C   UNL A   1      42.180  25.810  27.971  1.00  0.00     0.049 A 
ATOM     48  N   UNL A   1      45.236  27.001  27.582  1.00  0.00    -0.248 NA
ATOM     49  C   UNL A   1      44.275  27.065  25.473  1.00  0.00     0.031 C 
ATOM     50  C   UNL A   1      40.972  25.004  28.194  1.00  0.00     0.029 A 
ATOM     51  N   UNL A   1      41.897  26.951  28.651  1.00  0.00    -0.354 N 
ATOM     52  C   UNL A   1      45.880  27.967  26.822  1.00  0.00     0.074 A 
ATOM     53  C   UNL A   1      45.370  27.829  25.482  1.00  0.00     0.031 C 
ATOM     54  C   UNL A   1      40.015  25.761  28.778  1.00  0.00     0.029 A 
ATOM     55  C   UNL A   1      40.595  27.043  29.126  1.00  0.00     0.049 A 
ATOM     56  H   UNL A   1      42.565  27.659  28.797  1.00  0.00     0.167 HD
ATOM     57  C   UNL A   1      46.597  28.950  27.431  1.00  0.00     0.037 A 
ATOM     58  C   UNL A   1      40.050  28.115  29.753  1.00  0.00     0.037 A 
ATOM     59  C   UNL A   1      46.847  28.620  28.816  1.00  0.00     0.049 A 
ATOM     60  C   UNL A   1      41.183  28.910  30.300  1.00  0.00     0.074 A 
ATOM     61  C   UNL A   1      47.513  27.592  29.458  1.00  0.00     0.029 A 
ATOM     62  N   UNL A   1      46.018  29.172  29.765  1.00  0.00    -0.354 N 
ATOM     63  N   UNL A   1      41.959  28.478  31.257  1.00  0.00    -0.248 NA
ATOM     64  C   UNL A   1      41.760  29.936  29.442  1.00  0.00     0.031 C 
ATOM     65  C   UNL A   1      46.693  27.266  30.582  1.00  0.00     0.029 A 
ATOM     66  C   UNL A   1      45.624  28.162  30.608  1.00  0.00     0.049 A 
ATOM     67  H   UNL A   1      45.756  30.118  29.829  1.00  0.00     0.167 HD
ATOM     68  C   UNL A   1      43.240  28.844  30.868  1.00  0.00     0.074 A 
ATOM     69  C   UNL A   1      43.048  29.798  29.776  1.00  0.00     0.031 C 
ATOM     70  C   UNL A   1      44.332  28.120  31.256  1.00  0.00     0.037 A 
BRANCH  57  71
ATOM     71  C   UNL A   1      46.743  30.356  26.910  1.00  0.00     0.064 A 
ATOM     72  C   UNL A   1      48.009  30.972  26.971  1.00  0.00     0.173 A 
ATOM     73  C   UNL A   1      45.657  31.218  26.647  1.00  0.00     0.173 A 
ATOM     74  F   UNL A   1      49.110  30.246  27.217  1.00  0.00    -0.203 F 
ATOM     75  C   UNL A   1      48.160  32.356  26.876  1.00  0.00     0.198 A 
ATOM     76  C   UNL A   1      45.819  32.593  26.501  1.00  0.00     0.198 A 
ATOM     77  F   UNL A   1      44.389  30.793  26.635  1.00  0.00    -0.203 F 
ATOM     78  F   UNL A   1      49.364  32.908  27.077  1.00  0.00    -0.200 F 
ATOM     79  C   UNL A   1      47.063  33.167  26.652  1.00  0.00     0.200 A 
ATOM     80  F   UNL A   1      44.740  33.364  26.298  1.00  0.00    -0.200 F 
ATOM     81  F   UNL A   1      47.193  34.499  26.633  1.00  0.00    -0.200 F 
ENDBRANCH  57  71
BRANCH  58  82
ATOM     82  C   UNL A   1      38.675  28.653  29.614  1.00  0.00     0.064 A 
ATOM     83  C   UNL A   1      37.883  28.937  30.738  1.00  0.00     0.173 A 
ATOM     84  C   UNL A   1      38.218  29.166  28.383  1.00  0.00     0.173 A 
ATOM     85  F   UNL A   1      38.270  28.529  31.955  1.00  0.00    -0.203 F 
ATOM     86  C   UNL A   1      36.718  29.708  30.641  1.00  0.00     0.198 A 
ATOM     87  C   UNL A   1      37.056  29.934  28.286  1.00  0.00     0.198 A 
ATOM     88  F   UNL A   1      38.944  29.017  27.265  1.00  0.00    -0.203 F 
ATOM     89  F   UNL A   1      36.021  30.011  31.745  1.00  0.00    -0.200 F 
ATOM     90  C   UNL A   1      36.312  30.215  29.416  1.00  0.00     0.200 A 
ATOM     91  F   UNL A   1      36.700  30.454  27.103  1.00  0.00    -0.200 F 
ATOM     92  F   UNL A   1      35.235  31.009  29.332  1.00  0.00    -0.200 F 
ENDBRANCH  58  82
BRANCH  70  93
ATOM     93  C   UNL A   1      44.124  27.041  32.286  1.00  0.00     0.064 A 
ATOM     94  C   UNL A   1      44.023  25.672  31.981  1.00  0.00     0.173 A 
ATOM     95  C   UNL A   1      44.178  27.390  33.641  1.00  0.00     0.173 A 
ATOM     96  F   UNL A   1      44.068  25.243  30.716  1.00  0.00    -0.203 F 
ATOM     97  C   UNL A   1      43.936  24.705  32.982  1.00  0.00     0.198 A 
ATOM     98  C   UNL A   1      44.124  26.422  34.641  1.00  0.00     0.198 A 
ATOM     99  F   UNL A   1      44.334  28.675  33.996  1.00  0.00    -0.203 F 
ATOM    100  F   UNL A   1      43.832  23.407  32.660  1.00  0.00    -0.200 F 
ATOM    101  C   UNL A   1      43.993  25.082  34.313  1.00  0.00     0.200 A 
ATOM    102  F   UNL A   1      44.229  26.787  35.926  1.00  0.00    -0.200 F 
ATOM    103  F   UNL A   1      43.948  24.152  35.278  1.00  0.00    -0.200 F 
ENDBRANCH  70  93
ENDBRANCH  44  45
ENDBRANCH  36  39
ENDBRANCH  34  35
ENDBRANCH  33  34
ENDBRANCH  32  33
ENDBRANCH   1  32
TORSDOF 18
ENDMDL
MODEL 2
REMARK VINA RESULT:     -11.8      2.937      8.953
REMARK SMILES C=CCn1nc(C(=O)NCCCCCCNC(=O)c2ccc(-c3c4nc(c(-c5c(F)c(F)c(F)c(F)c5F)c5ccc([nH]5)c(-c5c(F)c(F)c(F)c(F)c5F)c5nc(c(-c6c(F)c(F)c(F)c(F)c6F)c6ccc3[nH]6)C=C5)C=C4)cc2)c2c1CC[C@@H]([NH+]1CCC(C(C)(C)O)CC1)C2
REMARK SMILES IDX 12 1 11 2 10 3 9 4 7 5 8 6 6 8 4 9 5 10 83 11 82 12 84 13
REMARK SMILES IDX 97 14 85 15 86 16 3 17 2 18 1 19 87 20 88 21 96 22 89 24
REMARK SMILES IDX 95 25 90 26 91 27 92 28 93 29 94 30 13 32 14 33 15 34 16 35
REMARK SMILES IDX 17 36 18 38 19 39 20 40 81 41 21 42 80 43 22 44 23 45 24 46
REMARK SMILES IDX 74 47 25 48 79 49 73 50 75 51 26 52 78 53 72 54 71 55 27 57
REMARK SMILES IDX 59 58 39 59 58 60 40 61 43 62 57 63 76 64 41 65 42 66 56 68
REMARK SMILES IDX 77 69 44 70 28 71 29 72 37 73 30 74 31 75 35 76 38 77 32 78
REMARK SMILES IDX 33 79 36 80 34 81 60 82 61 83 69 84 62 85 63 86 67 87 70 88
REMARK SMILES IDX 64 89 65 90 68 91 66 92 45 93 46 94 54 95 47 96 48 97 52 98
REMARK SMILES IDX 55 99 49 100 50 101 53 102 51 103
REMARK H PARENT 9 7 87 23 94 31 16 37 75 56 43 67
REMARK Flexibility Score: inf
ROOT
ATOM      1  C   UNL A   1      35.970  30.806  27.636  1.00  0.00     0.002 C 
ENDROOT
BRANCH   1   2
ATOM      2  C   UNL A   1      35.413  29.434  28.000  1.00  0.00     0.021 C 
BRANCH   2   3
ATOM      3  C   UNL A   1      34.358  28.897  27.015  1.00  0.00     0.116 C 
BRANCH   3   4
ATOM      4  N   UNL A   1      33.047  28.813  27.621  1.00  0.00    -0.351 N 
ATOM      5  C   UNL A   1      31.881  28.148  27.322  1.00  0.00     0.272 C 
ATOM      6  O   UNL A   1      31.029  28.200  28.218  1.00  0.00    -0.267 OA
ATOM      7  H   UNL A   1      32.972  29.359  28.437  1.00  0.00     0.163 HD
BRANCH   5   8
ATOM      8  C   UNL A   1      31.633  27.408  26.060  1.00  0.00     0.153 A 
ATOM      9  N   UNL A   1      31.447  27.221  23.913  1.00  0.00    -0.265 N 
ATOM     10  N   UNL A   1      31.528  28.120  24.917  1.00  0.00    -0.167 NA
ATOM     11  C   UNL A   1      31.242  25.957  24.390  1.00  0.00     0.043 A 
ATOM     12  C   UNL A   1      31.545  26.027  25.737  1.00  0.00     0.012 A 
ATOM     13  C   UNL A   1      30.898  24.713  23.652  1.00  0.00     0.062 C 
ATOM     14  C   UNL A   1      31.763  24.810  26.546  1.00  0.00     0.105 C 
ATOM     15  C   UNL A   1      31.026  23.476  24.570  1.00  0.00     0.072 C 
ATOM     16  C   UNL A   1      32.057  23.537  25.730  1.00  0.00     0.189 C 
BRANCH   9  17
ATOM     17  C   UNL A   1      31.653  27.757  22.563  1.00  0.00     0.171 C 
BRANCH  17  18
ATOM     18  C   UNL A   1      32.710  28.803  22.377  1.00  0.00    -0.011 C 
ATOM     19  C   UNL A   1      34.028  28.562  22.382  1.00  0.00     0.006 C 
ENDBRANCH  17  18
ENDBRANCH   9  17
BRANCH  16  20
ATOM     20  N   UNL A   1      33.517  23.349  25.607  1.00  0.00    -0.332 N 
ATOM     21  C   UNL A   1      34.109  23.082  24.309  1.00  0.00     0.262 C 
ATOM     22  C   UNL A   1      34.156  22.524  26.617  1.00  0.00     0.262 C 
ATOM     23  H   UNL A   1      33.737  24.329  25.785  1.00  0.00     0.348 HD
ATOM     24  C   UNL A   1      33.978  21.635  23.861  1.00  0.00     0.068 C 
ATOM     25  C   UNL A   1      33.911  21.044  26.403  1.00  0.00     0.068 C 
ATOM     26  C   UNL A   1      34.120  20.544  24.950  1.00  0.00     0.031 C 
BRANCH  26  27
ATOM     27  C   UNL A   1      33.234  19.276  24.665  1.00  0.00     0.062 C 
ATOM     28  C   UNL A   1      32.362  19.410  23.413  1.00  0.00     0.042 C 
ATOM     29  C   UNL A   1      34.103  18.019  24.561  1.00  0.00     0.042 C 
BRANCH  27  30
ATOM     30  O   UNL A   1      32.335  19.059  25.755  1.00  0.00    -0.390 OA
ATOM     31  H   UNL A   1      31.951  19.907  26.031  1.00  0.00     0.211 HD
ENDBRANCH  27  30
ENDBRANCH  26  27
ENDBRANCH  16  20
ENDBRANCH   5   8
ENDBRANCH   3   4
ENDBRANCH   2   3
ENDBRANCH   1   2
BRANCH   1  32
ATOM     32  C   UNL A   1      35.044  31.974  28.008  1.00  0.00     0.002 C 
BRANCH  32  33
ATOM     33  C   UNL A   1      35.664  33.382  28.001  1.00  0.00     0.021 C 
BRANCH  33  34
ATOM     34  C   UNL A   1      36.769  33.564  29.026  1.00  0.00     0.116 C 
BRANCH  34  35
ATOM     35  N   UNL A   1      36.250  33.696  30.394  1.00  0.00    -0.352 N 
ATOM     36  C   UNL A   1      36.300  32.797  31.447  1.00  0.00     0.251 C 
ATOM     37  H   UNL A   1      35.801  34.550  30.593  1.00  0.00     0.163 HD
ATOM     38  O   UNL A   1      35.562  32.901  32.409  1.00  0.00    -0.269 OA
BRANCH  36  39
ATOM     39  C   UNL A   1      37.291  31.710  31.379  1.00  0.00     0.039 A 
ATOM     40  C   UNL A   1      36.945  30.379  31.132  1.00  0.00     0.014 A 
ATOM     41  C   UNL A   1      38.619  32.081  31.531  1.00  0.00     0.014 A 
ATOM     42  C   UNL A   1      37.973  29.449  31.001  1.00  0.00     0.010 A 
ATOM     43  C   UNL A   1      39.599  31.252  31.090  1.00  0.00     0.010 A 
ATOM     44  C   UNL A   1      39.300  29.910  30.979  1.00  0.00    -0.014 A 
BRANCH  44  45
ATOM     45  C   UNL A   1      40.440  29.035  30.805  1.00  0.00     0.031 A 
ATOM     46  C   UNL A   1      41.150  28.719  32.058  1.00  0.00     0.074 A 
ATOM     47  C   UNL A   1      40.695  28.400  29.641  1.00  0.00     0.049 A 
ATOM     48  N   UNL A   1      42.300  29.172  32.422  1.00  0.00    -0.248 NA
ATOM     49  C   UNL A   1      40.445  27.956  33.097  1.00  0.00     0.031 C 
ATOM     50  C   UNL A   1      39.917  28.370  28.394  1.00  0.00     0.029 A 
ATOM     51  N   UNL A   1      41.727  27.565  29.359  1.00  0.00    -0.354 N 
ATOM     52  C   UNL A   1      42.563  28.597  33.658  1.00  0.00     0.074 A 
ATOM     53  C   UNL A   1      41.321  28.019  34.103  1.00  0.00     0.031 C 
ATOM     54  C   UNL A   1      40.395  27.404  27.577  1.00  0.00     0.029 A 
ATOM     55  C   UNL A   1      41.610  26.870  28.162  1.00  0.00     0.049 A 
ATOM     56  H   UNL A   1      42.501  27.460  29.958  1.00  0.00     0.167 HD
ATOM     57  C   UNL A   1      43.847  28.446  34.082  1.00  0.00     0.037 A 
ATOM     58  C   UNL A   1      42.462  25.918  27.707  1.00  0.00     0.037 A 
ATOM     59  C   UNL A   1      44.749  29.240  33.280  1.00  0.00     0.049 A 
ATOM     60  C   UNL A   1      43.756  26.135  28.408  1.00  0.00     0.074 A 
ATOM     61  C   UNL A   1      44.881  30.594  33.030  1.00  0.00     0.029 A 
ATOM     62  N   UNL A   1      45.423  28.610  32.259  1.00  0.00    -0.354 N 
ATOM     63  N   UNL A   1      44.501  27.192  28.219  1.00  0.00    -0.248 NA
ATOM     64  C   UNL A   1      43.957  25.448  29.676  1.00  0.00     0.031 C 
ATOM     65  C   UNL A   1      45.179  30.685  31.635  1.00  0.00     0.029 A 
ATOM     66  C   UNL A   1      45.293  29.388  31.134  1.00  0.00     0.049 A 
ATOM     67  H   UNL A   1      45.909  27.757  32.323  1.00  0.00     0.167 HD
ATOM     68  C   UNL A   1      44.934  27.551  29.488  1.00  0.00     0.074 A 
ATOM     69  C   UNL A   1      44.624  26.401  30.336  1.00  0.00     0.031 C 
ATOM     70  C   UNL A   1      45.226  28.850  29.794  1.00  0.00     0.037 A 
BRANCH  57  71
ATOM     71  C   UNL A   1      44.338  27.315  34.947  1.00  0.00     0.064 A 
ATOM     72  C   UNL A   1      44.140  25.992  34.506  1.00  0.00     0.173 A 
ATOM     73  C   UNL A   1      44.705  27.458  36.302  1.00  0.00     0.173 A 
ATOM     74  F   UNL A   1      43.787  25.741  33.236  1.00  0.00    -0.203 F 
ATOM     75  C   UNL A   1      44.206  24.906  35.380  1.00  0.00     0.198 A 
ATOM     76  C   UNL A   1      44.821  26.367  37.159  1.00  0.00     0.198 A 
ATOM     77  F   UNL A   1      44.853  28.653  36.884  1.00  0.00    -0.203 F 
ATOM     78  F   UNL A   1      43.876  23.682  34.946  1.00  0.00    -0.200 F 
ATOM     79  C   UNL A   1      44.535  25.095  36.709  1.00  0.00     0.200 A 
ATOM     80  F   UNL A   1      45.128  26.573  38.449  1.00  0.00    -0.200 F 
ATOM     81  F   UNL A   1      44.529  24.067  37.567  1.00  0.00    -0.200 F 
ENDBRANCH  57  71
BRANCH  58  82
ATOM     82  C   UNL A   1      42.131  24.667  26.984  1.00  0.00     0.064 A 
ATOM     83  C   UNL A   1      42.859  24.259  25.854  1.00  0.00     0.173 A 
ATOM     84  C   UNL A   1      41.277  23.702  27.557  1.00  0.00     0.173 A 
ATOM     85  F   UNL A   1      43.731  25.098  25.277  1.00  0.00    -0.203 F 
ATOM     86  C   UNL A   1      42.758  22.959  25.344  1.00  0.00     0.198 A 
ATOM     87  C   UNL A   1      41.176  22.406  27.048  1.00  0.00     0.198 A 
ATOM     88  F   UNL A   1      40.600  23.968  28.684  1.00  0.00    -0.203 F 
ATOM     89  F   UNL A   1      43.515  22.588  24.302  1.00  0.00    -0.200 F 
ATOM     90  C   UNL A   1      41.925  22.030  25.949  1.00  0.00     0.200 A 
ATOM     91  F   UNL A   1      40.401  21.507  27.669  1.00  0.00    -0.200 F 
ATOM     92  F   UNL A   1      41.878  20.767  25.503  1.00  0.00    -0.200 F 
ENDBRANCH  58  82
BRANCH  70  93
ATOM     93  C   UNL A   1      45.264  29.843  28.662  1.00  0.00     0.064 A 
ATOM     94  C   UNL A   1      44.179  30.661  28.297  1.00  0.00     0.173 A 
ATOM     95  C   UNL A   1      46.485  30.082  28.022  1.00  0.00     0.173 A 
ATOM     96  F   UNL A   1      43.005  30.570  28.929  1.00  0.00    -0.203 F 
ATOM     97  C   UNL A   1      44.301  31.637  27.309  1.00  0.00     0.198 A 
ATOM     98  C   UNL A   1      46.615  31.080  27.058  1.00  0.00     0.198 A 
ATOM     99  F   UNL A   1      47.572  29.375  28.369  1.00  0.00    -0.203 F 
ATOM    100  F   UNL A   1      43.245  32.396  26.977  1.00  0.00    -0.200 F 
ATOM    101  C   UNL A   1      45.522  31.850  26.694  1.00  0.00     0.200 A 
ATOM    102  F   UNL A   1      47.812  31.314  26.502  1.00  0.00    -0.200 F 
ATOM    103  F   UNL A   1      45.653  32.813  25.771  1.00  0.00    -0.200 F 
ENDBRANCH  70  93
ENDBRANCH  44  45
ENDBRANCH  36  39
ENDBRANCH  34  35
ENDBRANCH  33  34
ENDBRANCH  32  33
ENDBRANCH   1  32
TORSDOF 18
ENDMDL
MODEL 3
REMARK VINA RESULT:     -11.8      2.313      3.094
REMARK SMILES C=CCn1nc(C(=O)NCCCCCCNC(=O)c2ccc(-c3c4nc(c(-c5c(F)c(F)c(F)c(F)c5F)c5ccc([nH]5)c(-c5c(F)c(F)c(F)c(F)c5F)c5nc(c(-c6c(F)c(F)c(F)c(F)c6F)c6ccc3[nH]6)C=C5)C=C4)cc2)c2c1CC[C@@H]([NH+]1CCC(C(C)(C)O)CC1)C2
REMARK SMILES IDX 12 1 11 2 10 3 9 4 7 5 8 6 6 8 4 9 5 10 83 11 82 12 84 13
REMARK SMILES IDX 97 14 85 15 86 16 3 17 2 18 1 19 87 20 88 21 96 22 89 24
REMARK SMILES IDX 95 25 90 26 91 27 92 28 93 29 94 30 13 32 14 33 15 34 16 35
REMARK SMILES IDX 17 36 18 38 19 39 20 40 81 41 21 42 80 43 22 44 23 45 24 46
REMARK SMILES IDX 74 47 25 48 79 49 73 50 75 51 26 52 78 53 72 54 71 55 27 57
REMARK SMILES IDX 59 58 39 59 58 60 40 61 43 62 57 63 76 64 41 65 42 66 56 68
REMARK SMILES IDX 77 69 44 70 28 71 29 72 37 73 30 74 31 75 35 76 38 77 32 78
REMARK SMILES IDX 33 79 36 80 34 81 60 82 61 83 69 84 62 85 63 86 67 87 70 88
REMARK SMILES IDX 64 89 65 90 68 91 66 92 45 93 46 94 54 95 47 96 48 97 52 98
REMARK SMILES IDX 55 99 49 100 50 101 53 102 51 103
REMARK H PARENT 9 7 87 23 94 31 16 37 75 56 43 67
REMARK Flexibility Score: inf
ROOT
ATOM      1  C   UNL A   1      39.463  23.522  27.374  1.00  0.00     0.002 C 
ENDROOT
BRANCH   1   2
ATOM      2  C   UNL A   1      38.629  24.347  26.400  1.00  0.00     0.021 C 
BRANCH   2   3
ATOM      3  C   UNL A   1      37.327  23.664  25.945  1.00  0.00     0.116 C 
BRANCH   3   4
ATOM      4  N   UNL A   1      37.390  23.250  24.560  1.00  0.00    -0.351 N 
ATOM      5  C   UNL A   1      36.459  23.013  23.576  1.00  0.00     0.272 C 
ATOM      6  O   UNL A   1      36.948  22.853  22.451  1.00  0.00    -0.267 OA
ATOM      7  H   UNL A   1      38.313  23.106  24.250  1.00  0.00     0.163 HD
BRANCH   5   8
ATOM      8  C   UNL A   1      34.993  22.962  23.796  1.00  0.00     0.153 A 
ATOM      9  N   UNL A   1      33.183  22.213  24.716  1.00  0.00    -0.265 N 
ATOM     10  N   UNL A   1      34.498  21.958  24.553  1.00  0.00    -0.167 NA
ATOM     11  C   UNL A   1      32.761  23.210  23.882  1.00  0.00     0.043 A 
ATOM     12  C   UNL A   1      33.919  23.820  23.435  1.00  0.00     0.012 A 
ATOM     13  C   UNL A   1      31.379  23.672  23.584  1.00  0.00     0.062 C 
ATOM     14  C   UNL A   1      33.893  25.141  22.774  1.00  0.00     0.105 C 
ATOM     15  C   UNL A   1      31.402  24.997  22.789  1.00  0.00     0.072 C 
ATOM     16  C   UNL A   1      32.604  25.954  23.007  1.00  0.00     0.189 C 
BRANCH   9  17
ATOM     17  C   UNL A   1      32.512  21.439  25.765  1.00  0.00     0.171 C 
BRANCH  17  18
ATOM     18  C   UNL A   1      33.245  21.218  27.053  1.00  0.00    -0.011 C 
ATOM     19  C   UNL A   1      33.675  22.197  27.861  1.00  0.00     0.006 C 
ENDBRANCH  17  18
ENDBRANCH   9  17
BRANCH  16  20
ATOM     20  N   UNL A   1      32.792  26.869  24.151  1.00  0.00    -0.332 N 
ATOM     21  C   UNL A   1      31.743  27.017  25.144  1.00  0.00     0.262 C 
ATOM     22  C   UNL A   1      33.380  28.165  23.861  1.00  0.00     0.262 C 
ATOM     23  H   UNL A   1      33.488  26.280  24.609  1.00  0.00     0.348 HD
ATOM     24  C   UNL A   1      30.615  27.939  24.710  1.00  0.00     0.068 C 
ATOM     25  C   UNL A   1      32.397  29.119  23.212  1.00  0.00     0.068 C 
ATOM     26  C   UNL A   1      31.003  29.191  23.887  1.00  0.00     0.031 C 
BRANCH  26  27
ATOM     27  C   UNL A   1      29.900  29.606  22.846  1.00  0.00     0.062 C 
ATOM     28  C   UNL A   1      28.875  28.501  22.571  1.00  0.00     0.042 C 
ATOM     29  C   UNL A   1      29.181  30.881  23.294  1.00  0.00     0.042 C 
BRANCH  27  30
ATOM     30  O   UNL A   1      30.510  29.904  21.588  1.00  0.00    -0.390 OA
ATOM     31  H   UNL A   1      30.141  29.323  20.903  1.00  0.00     0.211 HD
ENDBRANCH  27  30
ENDBRANCH  26  27
ENDBRANCH  16  20
ENDBRANCH   5   8
ENDBRANCH   3   4
ENDBRANCH   2   3
ENDBRANCH   1   2
BRANCH   1  32
ATOM     32  C   UNL A   1      40.095  22.269  26.748  1.00  0.00     0.002 C 
BRANCH  32  33
ATOM     33  C   UNL A   1      40.906  21.358  27.684  1.00  0.00     0.021 C 
BRANCH  33  34
ATOM     34  C   UNL A   1      42.022  22.080  28.418  1.00  0.00     0.116 C 
BRANCH  34  35
ATOM     35  N   UNL A   1      43.285  22.074  27.667  1.00  0.00    -0.352 N 
ATOM     36  C   UNL A   1      43.894  23.097  26.957  1.00  0.00     0.251 C 
ATOM     37  H   UNL A   1      43.771  21.217  27.668  1.00  0.00     0.163 HD
ATOM     38  O   UNL A   1      44.757  22.871  26.129  1.00  0.00    -0.269 OA
BRANCH  36  39
ATOM     39  C   UNL A   1      43.477  24.479  27.245  1.00  0.00     0.039 A 
ATOM     40  C   UNL A   1      42.510  25.154  26.496  1.00  0.00     0.014 A 
ATOM     41  C   UNL A   1      44.070  25.081  28.345  1.00  0.00     0.014 A 
ATOM     42  C   UNL A   1      42.130  26.427  26.913  1.00  0.00     0.010 A 
ATOM     43  C   UNL A   1      43.476  26.159  28.918  1.00  0.00     0.010 A 
ATOM     44  C   UNL A   1      42.625  26.911  28.135  1.00  0.00    -0.014 A 
BRANCH  44  45
ATOM     45  C   UNL A   1      42.261  28.201  28.682  1.00  0.00     0.031 A 
ATOM     46  C   UNL A   1      43.191  29.288  28.324  1.00  0.00     0.074 A 
ATOM     47  C   UNL A   1      41.071  28.426  29.279  1.00  0.00     0.049 A 
ATOM     48  N   UNL A   1      44.043  29.857  29.106  1.00  0.00    -0.248 NA
ATOM     49  C   UNL A   1      43.317  29.676  26.912  1.00  0.00     0.031 C 
ATOM     50  C   UNL A   1      39.916  27.532  29.444  1.00  0.00     0.029 A 
ATOM     51  N   UNL A   1      40.623  29.583  29.829  1.00  0.00    -0.354 N 
ATOM     52  C   UNL A   1      44.684  30.818  28.339  1.00  0.00     0.074 A 
ATOM     53  C   UNL A   1      44.337  30.535  26.970  1.00  0.00     0.031 C 
ATOM     54  C   UNL A   1      38.842  28.240  29.861  1.00  0.00     0.029 A 
ATOM     55  C   UNL A   1      39.273  29.592  30.159  1.00  0.00     0.049 A 
ATOM     56  H   UNL A   1      41.210  30.358  29.982  1.00  0.00     0.167 HD
ATOM     57  C   UNL A   1      45.248  31.905  28.934  1.00  0.00     0.037 A 
ATOM     58  C   UNL A   1      38.577  30.654  30.635  1.00  0.00     0.037 A 
ATOM     59  C   UNL A   1      45.371  31.702  30.359  1.00  0.00     0.049 A 
ATOM     60  C   UNL A   1      39.574  31.586  31.226  1.00  0.00     0.074 A 
ATOM     61  C   UNL A   1      46.045  30.789  31.150  1.00  0.00     0.029 A 
ATOM     62  N   UNL A   1      44.400  32.245  31.170  1.00  0.00    -0.354 N 
ATOM     63  N   UNL A   1      40.274  31.299  32.291  1.00  0.00    -0.248 NA
ATOM     64  C   UNL A   1      40.155  32.594  30.350  1.00  0.00     0.031 C 
ATOM     65  C   UNL A   1      45.137  30.475  32.207  1.00  0.00     0.029 A 
ATOM     66  C   UNL A   1      44.001  31.269  32.049  1.00  0.00     0.049 A 
ATOM     67  H   UNL A   1      44.056  33.166  31.127  1.00  0.00     0.167 HD
ATOM     68  C   UNL A   1      41.555  31.749  32.006  1.00  0.00     0.074 A 
ATOM     69  C   UNL A   1      41.406  32.599  30.824  1.00  0.00     0.031 C 
ATOM     70  C   UNL A   1      42.654  31.159  32.563  1.00  0.00     0.037 A 
BRANCH  57  71
ATOM     71  C   UNL A   1      45.333  33.275  28.315  1.00  0.00     0.064 A 
ATOM     72  C   UNL A   1      46.599  33.880  28.184  1.00  0.00     0.173 A 
ATOM     73  C   UNL A   1      44.226  34.131  28.134  1.00  0.00     0.173 A 
ATOM     74  F   UNL A   1      47.720  33.159  28.338  1.00  0.00    -0.203 F 
ATOM     75  C   UNL A   1      46.742  35.254  27.988  1.00  0.00     0.198 A 
ATOM     76  C   UNL A   1      44.374  35.493  27.886  1.00  0.00     0.198 A 
ATOM     77  F   UNL A   1      42.965  33.720  28.302  1.00  0.00    -0.203 F 
ATOM     78  F   UNL A   1      47.964  35.804  28.007  1.00  0.00    -0.200 F 
ATOM     79  C   UNL A   1      45.629  36.062  27.850  1.00  0.00     0.200 A 
ATOM     80  F   UNL A   1      43.281  36.263  27.770  1.00  0.00    -0.200 F 
ATOM     81  F   UNL A   1      45.760  37.389  27.735  1.00  0.00    -0.200 F 
ENDBRANCH  57  71
BRANCH  58  82
ATOM     82  C   UNL A   1      37.186  31.053  30.311  1.00  0.00     0.064 A 
ATOM     83  C   UNL A   1      36.320  31.552  31.297  1.00  0.00     0.173 A 
ATOM     84  C   UNL A   1      36.772  31.219  28.974  1.00  0.00     0.173 A 
ATOM     85  F   UNL A   1      36.660  31.479  32.592  1.00  0.00    -0.203 F 
ATOM     86  C   UNL A   1      35.123  32.200  30.965  1.00  0.00     0.198 A 
ATOM     87  C   UNL A   1      35.579  31.865  28.644  1.00  0.00     0.198 A 
ATOM     88  F   UNL A   1      37.564  30.848  27.958  1.00  0.00    -0.203 F 
ATOM     89  F   UNL A   1      34.352  32.719  31.931  1.00  0.00    -0.200 F 
ATOM     90  C   UNL A   1      34.760  32.366  29.638  1.00  0.00     0.200 A 
ATOM     91  F   UNL A   1      35.262  32.057  27.355  1.00  0.00    -0.200 F 
ATOM     92  F   UNL A   1      33.650  33.045  29.317  1.00  0.00    -0.200 F 
ENDBRANCH  58  82
BRANCH  70  93
ATOM     93  C   UNL A   1      42.424  30.145  33.653  1.00  0.00     0.064 A 
ATOM     94  C   UNL A   1      42.261  28.766  33.423  1.00  0.00     0.173 A 
ATOM     95  C   UNL A   1      42.521  30.562  34.985  1.00  0.00     0.173 A 
ATOM     96  F   UNL A   1      42.262  28.271  32.182  1.00  0.00    -0.203 F 
ATOM     97  C   UNL A   1      42.156  27.858  34.475  1.00  0.00     0.198 A 
ATOM     98  C   UNL A   1      42.450  29.650  36.036  1.00  0.00     0.198 A 
ATOM     99  F   UNL A   1      42.737  31.855  35.268  1.00  0.00    -0.203 F 
ATOM    100  F   UNL A   1      41.993  26.551  34.224  1.00  0.00    -0.200 F 
ATOM    101  C   UNL A   1      42.257  28.301  35.782  1.00  0.00     0.200 A 
ATOM    102  F   UNL A   1      42.597  30.077  37.298  1.00  0.00    -0.200 F 
ATOM    103  F   UNL A   1      42.194  27.426  36.796  1.00  0.00    -0.200 F 
ENDBRANCH  70  93
ENDBRANCH  44  45
ENDBRANCH  36  39
ENDBRANCH  34  35
ENDBRANCH  33  34
ENDBRANCH  32  33
ENDBRANCH   1  32
TORSDOF 18
ENDMDL
