MODEL 1
REMARK VINA RESULT:     -11.4      0.000      0.000
REMARK SMILES Cc1nc([C@H](C)[NH2+]CC(=O)NCCCCCCNC(=O)c2ccc(-c3c4nc(c(-c5c(F)c(F)c(F)c(F)c5F)c5ccc([nH]5)c(-c5c(F)c(F)c(F)c(F)c5F)c5nc(c(-c6c(F)c(F)c(F)c(F)c6F)c6ccc3[nH]6)C=C5)C=C4)cc2)cs1
REMARK SMILES IDX 14 1 13 2 12 3 11 4 9 5 10 6 8 8 7 9 5 12 6 13 4 14 1 15
REMARK SMILES IDX 2 16 3 17 85 18 84 19 15 20 16 21 17 22 18 23 19 24 20 26
REMARK SMILES IDX 21 27 22 28 83 29 23 30 82 31 24 32 25 33 26 34 76 35 27 36
REMARK SMILES IDX 81 37 75 38 77 39 28 40 80 41 74 42 73 43 29 45 61 46 41 47
REMARK SMILES IDX 60 48 42 49 45 50 59 51 78 52 43 53 44 54 58 56 79 57 46 58
REMARK SMILES IDX 30 59 31 60 39 61 32 62 33 63 37 64 40 65 34 66 35 67 38 68
REMARK SMILES IDX 36 69 62 70 63 71 71 72 64 73 65 74 69 75 72 76 66 77 67 78
REMARK SMILES IDX 70 79 68 80 47 81 48 82 56 83 49 84 50 85 54 86 57 87 51 88
REMARK SMILES IDX 52 89 55 90 53 91
REMARK H PARENT 11 7 7 10 7 11 18 25 77 44 45 55
REMARK Flexibility Score: inf
ROOT
ATOM      1  C   UNL A   1      33.030  29.937  27.241  1.00  0.00     0.002 C 
ENDROOT
BRANCH   1   2
ATOM      2  C   UNL A   1      34.089  29.271  26.354  1.00  0.00     0.021 C 
BRANCH   2   3
ATOM      3  C   UNL A   1      33.589  28.217  25.353  1.00  0.00     0.116 C 
BRANCH   3   4
ATOM      4  N   UNL A   1      34.169  28.261  24.019  1.00  0.00    -0.351 N 
ATOM      5  C   UNL A   1      33.627  28.044  22.783  1.00  0.00     0.275 C 
ATOM      6  O   UNL A   1      34.292  28.382  21.798  1.00  0.00    -0.269 OA
ATOM      7  H   UNL A   1      35.126  28.490  24.002  1.00  0.00     0.163 HD
BRANCH   5   8
ATOM      8  C   UNL A   1      32.296  27.303  22.600  1.00  0.00     0.362 C 
BRANCH   8   9
ATOM      9  N   UNL A   1      31.295  28.137  21.886  1.00  0.00    -0.331 N 
ATOM     10  H   UNL A   1      31.678  29.073  21.754  1.00  0.00     0.347 HD
ATOM     11  H   UNL A   1      31.094  27.697  20.988  1.00  0.00     0.347 HD
BRANCH   9  12
ATOM     12  C   UNL A   1      30.041  28.237  22.644  1.00  0.00     0.230 C 
ATOM     13  C   UNL A   1      30.213  27.705  24.065  1.00  0.00     0.082 C 
BRANCH  12  14
ATOM     14  C   UNL A   1      29.387  29.605  22.572  1.00  0.00     0.108 A 
ATOM     15  C   UNL A   1      27.972  32.104  20.291  1.00  0.00     0.079 C 
ATOM     16  C   UNL A   1      28.506  31.307  21.428  1.00  0.00     0.090 A 
ATOM     17  N   UNL A   1      28.982  30.085  21.325  1.00  0.00    -0.240 NA
ATOM     18  S   UNL A   1      28.561  31.991  22.998  1.00  0.00    -0.127 S 
ATOM     19  C   UNL A   1      29.220  30.529  23.590  1.00  0.00     0.096 A 
ENDBRANCH  12  14
ENDBRANCH   9  12
ENDBRANCH   8   9
ENDBRANCH   5   8
ENDBRANCH   3   4
ENDBRANCH   2   3
ENDBRANCH   1   2
BRANCH   1  20
ATOM     20  C   UNL A   1      31.844  30.541  26.486  1.00  0.00     0.002 C 
BRANCH  20  21
ATOM     21  C   UNL A   1      31.621  32.040  26.706  1.00  0.00     0.021 C 
BRANCH  21  22
ATOM     22  C   UNL A   1      32.792  32.780  27.347  1.00  0.00     0.116 C 
BRANCH  22  23
ATOM     23  N   UNL A   1      32.475  34.173  27.624  1.00  0.00    -0.352 N 
ATOM     24  C   UNL A   1      32.993  34.988  28.606  1.00  0.00     0.251 C 
ATOM     25  H   UNL A   1      31.804  34.586  27.035  1.00  0.00     0.163 HD
ATOM     26  O   UNL A   1      32.501  36.077  28.851  1.00  0.00    -0.269 OA
BRANCH  24  27
ATOM     27  C   UNL A   1      34.156  34.506  29.383  1.00  0.00     0.039 A 
ATOM     28  C   UNL A   1      33.946  33.918  30.632  1.00  0.00     0.014 A 
ATOM     29  C   UNL A   1      35.442  34.593  28.844  1.00  0.00     0.014 A 
ATOM     30  C   UNL A   1      35.026  33.354  31.315  1.00  0.00     0.010 A 
ATOM     31  C   UNL A   1      36.503  33.970  29.494  1.00  0.00     0.010 A 
ATOM     32  C   UNL A   1      36.306  33.343  30.736  1.00  0.00    -0.014 A 
BRANCH  32  33
ATOM     33  C   UNL A   1      37.455  32.688  31.413  1.00  0.00     0.031 A 
ATOM     34  C   UNL A   1      38.159  31.536  30.753  1.00  0.00     0.074 A 
ATOM     35  C   UNL A   1      37.821  33.086  32.648  1.00  0.00     0.049 A 
ATOM     36  N   UNL A   1      39.132  30.788  31.207  1.00  0.00    -0.248 NA
ATOM     37  C   UNL A   1      37.684  31.155  29.413  1.00  0.00     0.031 C 
ATOM     38  C   UNL A   1      37.183  34.155  33.417  1.00  0.00     0.029 A 
ATOM     39  N   UNL A   1      38.813  32.627  33.480  1.00  0.00    -0.354 N 
ATOM     40  C   UNL A   1      39.377  29.846  30.217  1.00  0.00     0.074 A 
ATOM     41  C   UNL A   1      38.410  30.075  29.165  1.00  0.00     0.031 C 
ATOM     42  C   UNL A   1      37.809  34.283  34.598  1.00  0.00     0.029 A 
ATOM     43  C   UNL A   1      38.871  33.284  34.685  1.00  0.00     0.049 A 
ATOM     44  H   UNL A   1      39.425  31.896  33.235  1.00  0.00     0.167 HD
ATOM     45  C   UNL A   1      40.342  28.896  30.172  1.00  0.00     0.037 A 
ATOM     46  C   UNL A   1      39.685  33.098  35.742  1.00  0.00     0.037 A 
ATOM     47  C   UNL A   1      41.315  28.684  31.210  1.00  0.00     0.049 A 
ATOM     48  C   UNL A   1      40.746  32.031  35.669  1.00  0.00     0.074 A 
ATOM     49  C   UNL A   1      42.362  27.779  31.241  1.00  0.00     0.029 A 
ATOM     50  N   UNL A   1      41.360  29.389  32.404  1.00  0.00    -0.354 N 
ATOM     51  N   UNL A   1      41.013  31.193  34.697  1.00  0.00    -0.248 NA
ATOM     52  C   UNL A   1      41.626  31.893  36.838  1.00  0.00     0.031 C 
ATOM     53  C   UNL A   1      43.014  27.908  32.472  1.00  0.00     0.029 A 
ATOM     54  C   UNL A   1      42.406  28.928  33.186  1.00  0.00     0.049 A 
ATOM     55  H   UNL A   1      40.739  30.111  32.658  1.00  0.00     0.167 HD
ATOM     56  C   UNL A   1      42.106  30.450  35.123  1.00  0.00     0.074 A 
ATOM     57  C   UNL A   1      42.464  30.947  36.435  1.00  0.00     0.031 C 
ATOM     58  C   UNL A   1      42.754  29.444  34.485  1.00  0.00     0.037 A 
BRANCH  45  59
ATOM     59  C   UNL A   1      40.395  28.020  28.952  1.00  0.00     0.064 A 
ATOM     60  C   UNL A   1      39.686  26.810  28.889  1.00  0.00     0.173 A 
ATOM     61  C   UNL A   1      41.136  28.406  27.827  1.00  0.00     0.173 A 
ATOM     62  F   UNL A   1      38.970  26.390  29.943  1.00  0.00    -0.203 F 
ATOM     63  C   UNL A   1      39.745  26.003  27.755  1.00  0.00     0.198 A 
ATOM     64  C   UNL A   1      41.167  27.612  26.683  1.00  0.00     0.198 A 
ATOM     65  F   UNL A   1      41.828  29.555  27.832  1.00  0.00    -0.203 F 
ATOM     66  F   UNL A   1      39.104  24.827  27.739  1.00  0.00    -0.200 F 
ATOM     67  C   UNL A   1      40.480  26.407  26.651  1.00  0.00     0.200 A 
ATOM     68  F   UNL A   1      41.866  28.010  25.611  1.00  0.00    -0.200 F 
ATOM     69  F   UNL A   1      40.531  25.633  25.559  1.00  0.00    -0.200 F 
ENDBRANCH  45  59
BRANCH  46  70
ATOM     70  C   UNL A   1      39.546  33.952  36.950  1.00  0.00     0.064 A 
ATOM     71  C   UNL A   1      38.796  33.523  38.054  1.00  0.00     0.173 A 
ATOM     72  C   UNL A   1      40.146  35.218  37.022  1.00  0.00     0.173 A 
ATOM     73  F   UNL A   1      38.187  32.330  38.026  1.00  0.00    -0.203 F 
ATOM     74  C   UNL A   1      38.630  34.338  39.173  1.00  0.00     0.198 A 
ATOM     75  C   UNL A   1      40.004  36.019  38.155  1.00  0.00     0.198 A 
ATOM     76  F   UNL A   1      40.880  35.674  35.997  1.00  0.00    -0.203 F 
ATOM     77  F   UNL A   1      37.864  33.923  40.192  1.00  0.00    -0.200 F 
ATOM     78  C   UNL A   1      39.237  35.583  39.224  1.00  0.00     0.200 A 
ATOM     79  F   UNL A   1      40.606  37.215  38.206  1.00  0.00    -0.200 F 
ATOM     80  F   UNL A   1      39.078  36.365  40.301  1.00  0.00    -0.200 F 
ENDBRANCH  46  70
BRANCH  58  81
ATOM     81  C   UNL A   1      43.940  28.840  35.181  1.00  0.00     0.064 A 
ATOM     82  C   UNL A   1      43.805  27.764  36.070  1.00  0.00     0.173 A 
ATOM     83  C   UNL A   1      45.233  29.318  34.919  1.00  0.00     0.173 A 
ATOM     84  F   UNL A   1      42.589  27.281  36.365  1.00  0.00    -0.203 F 
ATOM     85  C   UNL A   1      44.918  27.205  36.691  1.00  0.00     0.198 A 
ATOM     86  C   UNL A   1      46.348  28.736  35.518  1.00  0.00     0.198 A 
ATOM     87  F   UNL A   1      45.418  30.341  34.071  1.00  0.00    -0.203 F 
ATOM     88  F   UNL A   1      44.761  26.209  37.574  1.00  0.00    -0.200 F 
ATOM     89  C   UNL A   1      46.188  27.686  36.409  1.00  0.00     0.200 A 
ATOM     90  F   UNL A   1      47.575  29.193  35.233  1.00  0.00    -0.200 F 
ATOM     91  F   UNL A   1      47.259  27.141  37.002  1.00  0.00    -0.200 F 
ENDBRANCH  58  81
ENDBRANCH  32  33
ENDBRANCH  24  27
ENDBRANCH  22  23
ENDBRANCH  21  22
ENDBRANCH  20  21
ENDBRANCH   1  20
TORSDOF 16
ENDMDL
MODEL 2
REMARK VINA RESULT:     -11.2      0.694      7.427
REMARK SMILES Cc1nc([C@H](C)[NH2+]CC(=O)NCCCCCCNC(=O)c2ccc(-c3c4nc(c(-c5c(F)c(F)c(F)c(F)c5F)c5ccc([nH]5)c(-c5c(F)c(F)c(F)c(F)c5F)c5nc(c(-c6c(F)c(F)c(F)c(F)c6F)c6ccc3[nH]6)C=C5)C=C4)cc2)cs1
REMARK SMILES IDX 14 1 13 2 12 3 11 4 9 5 10 6 8 8 7 9 5 12 6 13 4 14 1 15
REMARK SMILES IDX 2 16 3 17 85 18 84 19 15 20 16 21 17 22 18 23 19 24 20 26
REMARK SMILES IDX 21 27 22 28 83 29 23 30 82 31 24 32 25 33 26 34 76 35 27 36
REMARK SMILES IDX 81 37 75 38 77 39 28 40 80 41 74 42 73 43 29 45 61 46 41 47
REMARK SMILES IDX 60 48 42 49 45 50 59 51 78 52 43 53 44 54 58 56 79 57 46 58
REMARK SMILES IDX 30 59 31 60 39 61 32 62 33 63 37 64 40 65 34 66 35 67 38 68
REMARK SMILES IDX 36 69 62 70 63 71 71 72 64 73 65 74 69 75 72 76 66 77 67 78
REMARK SMILES IDX 70 79 68 80 47 81 48 82 56 83 49 84 50 85 54 86 57 87 51 88
REMARK SMILES IDX 52 89 55 90 53 91
REMARK H PARENT 11 7 7 10 7 11 18 25 77 44 45 55
REMARK Flexibility Score: inf
ROOT
ATOM      1  C   UNL A   1      31.807  29.570  27.108  1.00  0.00     0.002 C 
ENDROOT
BRANCH   1   2
ATOM      2  C   UNL A   1      32.097  28.204  26.478  1.00  0.00     0.021 C 
BRANCH   2   3
ATOM      3  C   UNL A   1      33.551  27.927  26.063  1.00  0.00     0.116 C 
BRANCH   3   4
ATOM      4  N   UNL A   1      33.995  28.524  24.812  1.00  0.00    -0.351 N 
ATOM      5  C   UNL A   1      33.414  28.587  23.577  1.00  0.00     0.275 C 
ATOM      6  O   UNL A   1      33.905  29.364  22.752  1.00  0.00    -0.269 OA
ATOM      7  H   UNL A   1      34.874  28.963  24.864  1.00  0.00     0.163 HD
BRANCH   5   8
ATOM      8  C   UNL A   1      32.266  27.652  23.172  1.00  0.00     0.362 C 
BRANCH   8   9
ATOM      9  N   UNL A   1      31.430  28.241  22.095  1.00  0.00    -0.331 N 
ATOM     10  H   UNL A   1      31.712  29.211  21.950  1.00  0.00     0.347 HD
ATOM     11  H   UNL A   1      31.568  27.693  21.246  1.00  0.00     0.347 HD
BRANCH   9  12
ATOM     12  C   UNL A   1      30.003  28.206  22.442  1.00  0.00     0.230 C 
ATOM     13  C   UNL A   1      29.766  27.388  23.709  1.00  0.00     0.082 C 
BRANCH  12  14
ATOM     14  C   UNL A   1      29.340  29.571  22.456  1.00  0.00     0.108 A 
ATOM     15  C   UNL A   1      27.983  32.236  20.332  1.00  0.00     0.079 C 
ATOM     16  C   UNL A   1      28.485  31.354  21.420  1.00  0.00     0.090 A 
ATOM     17  N   UNL A   1      28.975  30.147  21.237  1.00  0.00    -0.240 NA
ATOM     18  S   UNL A   1      28.478  31.911  23.040  1.00  0.00    -0.127 S 
ATOM     19  C   UNL A   1      29.130  30.411  23.537  1.00  0.00     0.096 A 
ENDBRANCH  12  14
ENDBRANCH   9  12
ENDBRANCH   8   9
ENDBRANCH   5   8
ENDBRANCH   3   4
ENDBRANCH   2   3
ENDBRANCH   1   2
BRANCH   1  20
ATOM     20  C   UNL A   1      31.665  30.723  26.112  1.00  0.00     0.002 C 
BRANCH  20  21
ATOM     21  C   UNL A   1      31.435  32.103  26.734  1.00  0.00     0.021 C 
BRANCH  21  22
ATOM     22  C   UNL A   1      32.700  32.822  27.196  1.00  0.00     0.116 C 
BRANCH  22  23
ATOM     23  N   UNL A   1      32.440  34.203  27.576  1.00  0.00    -0.352 N 
ATOM     24  C   UNL A   1      33.004  34.927  28.601  1.00  0.00     0.251 C 
ATOM     25  H   UNL A   1      31.774  34.679  27.029  1.00  0.00     0.163 HD
ATOM     26  O   UNL A   1      32.556  36.014  28.931  1.00  0.00    -0.269 OA
BRANCH  24  27
ATOM     27  C   UNL A   1      34.160  34.351  29.320  1.00  0.00     0.039 A 
ATOM     28  C   UNL A   1      33.937  33.541  30.436  1.00  0.00     0.014 A 
ATOM     29  C   UNL A   1      35.458  34.575  28.852  1.00  0.00     0.014 A 
ATOM     30  C   UNL A   1      35.017  32.899  31.045  1.00  0.00     0.010 A 
ATOM     31  C   UNL A   1      36.522  33.880  29.417  1.00  0.00     0.010 A 
ATOM     32  C   UNL A   1      36.313  33.034  30.519  1.00  0.00    -0.014 A 
BRANCH  32  33
ATOM     33  C   UNL A   1      37.466  32.305  31.109  1.00  0.00     0.031 A 
ATOM     34  C   UNL A   1      37.980  32.687  32.468  1.00  0.00     0.074 A 
ATOM     35  C   UNL A   1      38.089  31.346  30.395  1.00  0.00     0.049 A 
ATOM     36  N   UNL A   1      39.013  32.223  33.125  1.00  0.00    -0.248 NA
ATOM     37  C   UNL A   1      37.253  33.756  33.171  1.00  0.00     0.031 C 
ATOM     38  C   UNL A   1      37.720  30.921  29.044  1.00  0.00     0.029 A 
ATOM     39  N   UNL A   1      39.174  30.562  30.703  1.00  0.00    -0.354 N 
ATOM     40  C   UNL A   1      39.064  32.948  34.308  1.00  0.00     0.074 A 
ATOM     41  C   UNL A   1      37.999  33.926  34.252  1.00  0.00     0.031 C 
ATOM     42  C   UNL A   1      38.550  29.943  28.647  1.00  0.00     0.029 A 
ATOM     43  C   UNL A   1      39.531  29.694  29.700  1.00  0.00     0.049 A 
ATOM     44  H   UNL A   1      39.651  30.618  31.563  1.00  0.00     0.167 HD
ATOM     45  C   UNL A   1      39.902  32.793  35.361  1.00  0.00     0.037 A 
ATOM     46  C   UNL A   1      40.540  28.803  29.636  1.00  0.00     0.037 A 
ATOM     47  C   UNL A   1      40.947  31.806  35.422  1.00  0.00     0.049 A 
ATOM     48  C   UNL A   1      41.461  28.654  30.817  1.00  0.00     0.074 A 
ATOM     49  C   UNL A   1      41.821  31.536  36.461  1.00  0.00     0.029 A 
ATOM     50  N   UNL A   1      41.260  30.925  34.397  1.00  0.00    -0.354 N 
ATOM     51  N   UNL A   1      41.455  29.297  31.960  1.00  0.00    -0.248 NA
ATOM     52  C   UNL A   1      42.523  27.644  30.704  1.00  0.00     0.031 C 
ATOM     53  C   UNL A   1      42.690  30.520  36.049  1.00  0.00     0.029 A 
ATOM     54  C   UNL A   1      42.325  30.122  34.773  1.00  0.00     0.049 A 
ATOM     55  H   UNL A   1      40.794  30.878  33.530  1.00  0.00     0.167 HD
ATOM     56  C   UNL A   1      42.489  28.753  32.710  1.00  0.00     0.074 A 
ATOM     57  C   UNL A   1      43.091  27.715  31.900  1.00  0.00     0.031 C 
ATOM     58  C   UNL A   1      42.904  29.086  33.957  1.00  0.00     0.037 A 
BRANCH  45  59
ATOM     59  C   UNL A   1      39.712  33.708  36.537  1.00  0.00     0.064 A 
ATOM     60  C   UNL A   1      38.896  33.349  37.621  1.00  0.00     0.173 A 
ATOM     61  C   UNL A   1      40.373  34.943  36.596  1.00  0.00     0.173 A 
ATOM     62  F   UNL A   1      38.232  32.183  37.609  1.00  0.00    -0.203 F 
ATOM     63  C   UNL A   1      38.722  34.206  38.705  1.00  0.00     0.198 A 
ATOM     64  C   UNL A   1      40.223  35.785  37.696  1.00  0.00     0.198 A 
ATOM     65  F   UNL A   1      41.170  35.334  35.590  1.00  0.00    -0.203 F 
ATOM     66  F   UNL A   1      37.896  33.864  39.701  1.00  0.00    -0.200 F 
ATOM     67  C   UNL A   1      39.391  35.420  38.744  1.00  0.00     0.200 A 
ATOM     68  F   UNL A   1      40.880  36.952  37.740  1.00  0.00    -0.200 F 
ATOM     69  F   UNL A   1      39.228  36.242  39.790  1.00  0.00    -0.200 F 
ENDBRANCH  45  59
BRANCH  46  70
ATOM     70  C   UNL A   1      40.719  27.967  28.419  1.00  0.00     0.064 A 
ATOM     71  C   UNL A   1      40.127  26.700  28.322  1.00  0.00     0.173 A 
ATOM     72  C   UNL A   1      41.496  28.408  27.338  1.00  0.00     0.173 A 
ATOM     73  F   UNL A   1      39.392  26.225  29.338  1.00  0.00    -0.203 F 
ATOM     74  C   UNL A   1      40.326  25.896  27.201  1.00  0.00     0.198 A 
ATOM     75  C   UNL A   1      41.669  27.615  26.205  1.00  0.00     0.198 A 
ATOM     76  F   UNL A   1      42.080  29.615  27.377  1.00  0.00    -0.203 F 
ATOM     77  F   UNL A   1      39.790  24.668  27.157  1.00  0.00    -0.200 F 
ATOM     78  C   UNL A   1      41.093  26.356  26.141  1.00  0.00     0.200 A 
ATOM     79  F   UNL A   1      42.398  28.070  25.177  1.00  0.00    -0.200 F 
ATOM     80  F   UNL A   1      41.282  25.583  25.063  1.00  0.00    -0.200 F 
ENDBRANCH  46  70
BRANCH  58  81
ATOM     81  C   UNL A   1      44.039  28.293  34.539  1.00  0.00     0.064 A 
ATOM     82  C   UNL A   1      43.828  27.061  35.174  1.00  0.00     0.173 A 
ATOM     83  C   UNL A   1      45.359  28.754  34.419  1.00  0.00     0.173 A 
ATOM     84  F   UNL A   1      42.584  26.585  35.327  1.00  0.00    -0.203 F 
ATOM     85  C   UNL A   1      44.895  26.331  35.691  1.00  0.00     0.198 A 
ATOM     86  C   UNL A   1      46.426  28.007  34.909  1.00  0.00     0.198 A 
ATOM     87  F   UNL A   1      45.615  29.924  33.814  1.00  0.00    -0.203 F 
ATOM     88  F   UNL A   1      44.666  25.179  36.337  1.00  0.00    -0.200 F 
ATOM     89  C   UNL A   1      46.193  26.800  35.551  1.00  0.00     0.200 A 
ATOM     90  F   UNL A   1      47.680  28.456  34.761  1.00  0.00    -0.200 F 
ATOM     91  F   UNL A   1      47.219  26.093  36.042  1.00  0.00    -0.200 F 
ENDBRANCH  58  81
ENDBRANCH  32  33
ENDBRANCH  24  27
ENDBRANCH  22  23
ENDBRANCH  21  22
ENDBRANCH  20  21
ENDBRANCH   1  20
TORSDOF 16
ENDMDL
MODEL 3
REMARK VINA RESULT:     -11.0      3.141      4.211
REMARK SMILES Cc1nc([C@H](C)[NH2+]CC(=O)NCCCCCCNC(=O)c2ccc(-c3c4nc(c(-c5c(F)c(F)c(F)c(F)c5F)c5ccc([nH]5)c(-c5c(F)c(F)c(F)c(F)c5F)c5nc(c(-c6c(F)c(F)c(F)c(F)c6F)c6ccc3[nH]6)C=C5)C=C4)cc2)cs1
REMARK SMILES IDX 14 1 13 2 12 3 11 4 9 5 10 6 8 8 7 9 5 12 6 13 4 14 1 15
REMARK SMILES IDX 2 16 3 17 85 18 84 19 15 20 16 21 17 22 18 23 19 24 20 26
REMARK SMILES IDX 21 27 22 28 83 29 23 30 82 31 24 32 25 33 26 34 76 35 27 36
REMARK SMILES IDX 81 37 75 38 77 39 28 40 80 41 74 42 73 43 29 45 61 46 41 47
REMARK SMILES IDX 60 48 42 49 45 50 59 51 78 52 43 53 44 54 58 56 79 57 46 58
REMARK SMILES IDX 30 59 31 60 39 61 32 62 33 63 37 64 40 65 34 66 35 67 38 68
REMARK SMILES IDX 36 69 62 70 63 71 71 72 64 73 65 74 69 75 72 76 66 77 67 78
REMARK SMILES IDX 70 79 68 80 47 81 48 82 56 83 49 84 50 85 54 86 57 87 51 88
REMARK SMILES IDX 52 89 55 90 53 91
REMARK H PARENT 11 7 7 10 7 11 18 25 77 44 45 55
REMARK Flexibility Score: inf
ROOT
ATOM      1  C   UNL A   1      31.785  29.456  26.947  1.00  0.00     0.002 C 
ENDROOT
BRANCH   1   2
ATOM      2  C   UNL A   1      31.495  28.171  26.163  1.00  0.00     0.021 C 
BRANCH   2   3
ATOM      3  C   UNL A   1      32.281  26.916  26.577  1.00  0.00     0.116 C 
BRANCH   3   4
ATOM      4  N   UNL A   1      31.507  25.699  26.770  1.00  0.00    -0.351 N 
ATOM      5  C   UNL A   1      31.871  24.382  26.785  1.00  0.00     0.275 C 
ATOM      6  O   UNL A   1      31.048  23.565  27.209  1.00  0.00    -0.269 OA
ATOM      7  H   UNL A   1      30.546  25.851  26.918  1.00  0.00     0.163 HD
BRANCH   5   8
ATOM      8  C   UNL A   1      33.203  23.902  26.192  1.00  0.00     0.362 C 
BRANCH   8   9
ATOM      9  N   UNL A   1      33.002  22.823  25.190  1.00  0.00    -0.331 N 
ATOM     10  H   UNL A   1      32.044  22.480  25.261  1.00  0.00     0.347 HD
ATOM     11  H   UNL A   1      33.181  23.210  24.263  1.00  0.00     0.347 HD
BRANCH   9  12
ATOM     12  C   UNL A   1      33.928  21.705  25.412  1.00  0.00     0.230 C 
ATOM     13  C   UNL A   1      34.277  21.566  26.892  1.00  0.00     0.082 C 
BRANCH  12  14
ATOM     14  C   UNL A   1      33.492  20.407  24.755  1.00  0.00     0.108 A 
ATOM     15  C   UNL A   1      34.482  16.940  24.082  1.00  0.00     0.079 C 
ATOM     16  C   UNL A   1      33.845  18.282  24.171  1.00  0.00     0.090 A 
ATOM     17  N   UNL A   1      34.332  19.296  24.854  1.00  0.00    -0.240 NA
ATOM     18  S   UNL A   1      32.392  18.594  23.320  1.00  0.00    -0.127 S 
ATOM     19  C   UNL A   1      32.387  20.183  23.951  1.00  0.00     0.096 A 
ENDBRANCH  12  14
ENDBRANCH   9  12
ENDBRANCH   8   9
ENDBRANCH   5   8
ENDBRANCH   3   4
ENDBRANCH   2   3
ENDBRANCH   1   2
BRANCH   1  20
ATOM     20  C   UNL A   1      31.841  30.729  26.100  1.00  0.00     0.002 C 
BRANCH  20  21
ATOM     21  C   UNL A   1      31.518  32.028  26.844  1.00  0.00     0.021 C 
BRANCH  21  22
ATOM     22  C   UNL A   1      32.728  32.768  27.407  1.00  0.00     0.116 C 
BRANCH  22  23
ATOM     23  N   UNL A   1      32.446  34.176  27.648  1.00  0.00    -0.352 N 
ATOM     24  C   UNL A   1      32.993  35.004  28.602  1.00  0.00     0.251 C 
ATOM     25  H   UNL A   1      31.779  34.588  27.054  1.00  0.00     0.163 HD
ATOM     26  O   UNL A   1      32.529  36.112  28.822  1.00  0.00    -0.269 OA
BRANCH  24  27
ATOM     27  C   UNL A   1      34.151  34.516  29.382  1.00  0.00     0.039 A 
ATOM     28  C   UNL A   1      33.932  33.892  30.613  1.00  0.00     0.014 A 
ATOM     29  C   UNL A   1      35.443  34.634  28.864  1.00  0.00     0.014 A 
ATOM     30  C   UNL A   1      35.010  33.324  31.295  1.00  0.00     0.010 A 
ATOM     31  C   UNL A   1      36.503  34.006  29.511  1.00  0.00     0.010 A 
ATOM     32  C   UNL A   1      36.298  33.345  30.733  1.00  0.00    -0.014 A 
BRANCH  32  33
ATOM     33  C   UNL A   1      37.445  32.686  31.409  1.00  0.00     0.031 A 
ATOM     34  C   UNL A   1      38.148  31.535  30.745  1.00  0.00     0.074 A 
ATOM     35  C   UNL A   1      37.812  33.079  32.645  1.00  0.00     0.049 A 
ATOM     36  N   UNL A   1      39.120  30.784  31.197  1.00  0.00    -0.248 NA
ATOM     37  C   UNL A   1      37.673  31.159  29.404  1.00  0.00     0.031 C 
ATOM     38  C   UNL A   1      37.175  34.146  33.417  1.00  0.00     0.029 A 
ATOM     39  N   UNL A   1      38.803  32.616  33.475  1.00  0.00    -0.354 N 
ATOM     40  C   UNL A   1      39.365  29.845  30.203  1.00  0.00     0.074 A 
ATOM     41  C   UNL A   1      38.398  30.079  29.153  1.00  0.00     0.031 C 
ATOM     42  C   UNL A   1      37.801  34.270  34.599  1.00  0.00     0.029 A 
ATOM     43  C   UNL A   1      38.862  33.269  34.683  1.00  0.00     0.049 A 
ATOM     44  H   UNL A   1      39.414  31.885  33.228  1.00  0.00     0.167 HD
ATOM     45  C   UNL A   1      40.328  28.894  30.156  1.00  0.00     0.037 A 
ATOM     46  C   UNL A   1      39.676  33.078  35.739  1.00  0.00     0.037 A 
ATOM     47  C   UNL A   1      41.301  28.678  31.193  1.00  0.00     0.049 A 
ATOM     48  C   UNL A   1      40.735  32.011  35.663  1.00  0.00     0.074 A 
ATOM     49  C   UNL A   1      42.347  27.772  31.222  1.00  0.00     0.029 A 
ATOM     50  N   UNL A   1      41.346  29.379  32.389  1.00  0.00    -0.354 N 
ATOM     51  N   UNL A   1      41.001  31.175  34.688  1.00  0.00    -0.248 NA
ATOM     52  C   UNL A   1      41.615  31.868  36.832  1.00  0.00     0.031 C 
ATOM     53  C   UNL A   1      42.999  27.896  32.453  1.00  0.00     0.029 A 
ATOM     54  C   UNL A   1      42.392  28.914  33.170  1.00  0.00     0.049 A 
ATOM     55  H   UNL A   1      40.726  30.100  32.646  1.00  0.00     0.167 HD
ATOM     56  C   UNL A   1      42.093  30.430  35.112  1.00  0.00     0.074 A 
ATOM     57  C   UNL A   1      42.451  30.922  36.426  1.00  0.00     0.031 C 
ATOM     58  C   UNL A   1      42.740  29.425  34.471  1.00  0.00     0.037 A 
BRANCH  45  59
ATOM     59  C   UNL A   1      40.380  28.023  28.933  1.00  0.00     0.064 A 
ATOM     60  C   UNL A   1      41.131  28.388  27.805  1.00  0.00     0.173 A 
ATOM     61  C   UNL A   1      39.697  26.799  28.897  1.00  0.00     0.173 A 
ATOM     62  F   UNL A   1      41.795  29.554  27.784  1.00  0.00    -0.203 F 
ATOM     63  C   UNL A   1      41.169  27.576  26.674  1.00  0.00     0.198 A 
ATOM     64  C   UNL A   1      39.763  25.974  27.777  1.00  0.00     0.198 A 
ATOM     65  F   UNL A   1      38.968  26.399  29.950  1.00  0.00    -0.203 F 
ATOM     66  F   UNL A   1      41.849  27.971  25.590  1.00  0.00    -0.200 F 
ATOM     67  C   UNL A   1      40.491  26.366  26.664  1.00  0.00     0.200 A 
ATOM     68  F   UNL A   1      39.117  24.799  27.773  1.00  0.00    -0.200 F 
ATOM     69  F   UNL A   1      40.532  25.583  25.578  1.00  0.00    -0.200 F 
ENDBRANCH  45  59
BRANCH  46  70
ATOM     70  C   UNL A   1      39.537  33.929  36.951  1.00  0.00     0.064 A 
ATOM     71  C   UNL A   1      38.788  33.496  38.053  1.00  0.00     0.173 A 
ATOM     72  C   UNL A   1      40.137  35.195  37.026  1.00  0.00     0.173 A 
ATOM     73  F   UNL A   1      38.179  32.303  38.022  1.00  0.00    -0.203 F 
ATOM     74  C   UNL A   1      38.622  34.307  39.175  1.00  0.00     0.198 A 
ATOM     75  C   UNL A   1      39.995  35.992  38.161  1.00  0.00     0.198 A 
ATOM     76  F   UNL A   1      40.870  35.654  36.001  1.00  0.00    -0.203 F 
ATOM     77  F   UNL A   1      37.858  33.889  40.194  1.00  0.00    -0.200 F 
ATOM     78  C   UNL A   1      39.230  35.552  39.230  1.00  0.00     0.200 A 
ATOM     79  F   UNL A   1      40.597  37.188  38.215  1.00  0.00    -0.200 F 
ATOM     80  F   UNL A   1      39.071  36.331  40.309  1.00  0.00    -0.200 F 
ENDBRANCH  46  70
BRANCH  58  81
ATOM     81  C   UNL A   1      43.925  28.818  35.164  1.00  0.00     0.064 A 
ATOM     82  C   UNL A   1      43.789  27.734  36.044  1.00  0.00     0.173 A 
ATOM     83  C   UNL A   1      45.218  29.300  34.910  1.00  0.00     0.173 A 
ATOM     84  F   UNL A   1      42.574  27.247  36.332  1.00  0.00    -0.203 F 
ATOM     85  C   UNL A   1      44.902  27.171  36.664  1.00  0.00     0.198 A 
ATOM     86  C   UNL A   1      46.332  28.715  35.507  1.00  0.00     0.198 A 
ATOM     87  F   UNL A   1      45.404  30.330  34.072  1.00  0.00    -0.203 F 
ATOM     88  F   UNL A   1      44.744  26.168  37.538  1.00  0.00    -0.200 F 
ATOM     89  C   UNL A   1      46.172  27.657  36.389  1.00  0.00     0.200 A 
ATOM     90  F   UNL A   1      47.559  29.177  35.230  1.00  0.00    -0.200 F 
ATOM     91  F   UNL A   1      47.242  27.109  36.980  1.00  0.00    -0.200 F 
ENDBRANCH  58  81
ENDBRANCH  32  33
ENDBRANCH  24  27
ENDBRANCH  22  23
ENDBRANCH  21  22
ENDBRANCH  20  21
ENDBRANCH   1  20
TORSDOF 16
ENDMDL
