MODEL 1
REMARK VINA RESULT:     -12.7      0.000      0.000
REMARK SMILES COC(=O)c1ccc(C)c2c1[C@H]1C=CC[C@H]1[C@@H](c1ccc(C(=O)NCCCCCCNC(=O)c3ccc(-c4c5nc(c(-c6c(F)c(F)c(F)c(F)c6F)c6ccc([nH]6)c(-c6c(F)c(F)c(F)c(F)c6F)c6nc(c(-c7c(F)c(F)c(F)c(F)c7F)c7ccc4[nH]7)C=C6)C=C5)cc3)cc1)N2
REMARK SMILES IDX 27 1 26 2 25 3 24 4 22 5 23 6 21 8 18 9 19 10 98 11 20 12
REMARK SMILES IDX 97 13 17 14 5 15 6 16 11 17 7 18 10 19 12 20 8 21 99 22
REMARK SMILES IDX 13 23 16 24 9 25 14 27 15 28 3 29 4 30 2 31 1 32 28 33 29 34
REMARK SMILES IDX 30 35 31 36 32 37 33 39 34 40 35 41 96 42 36 43 95 44 37 45
REMARK SMILES IDX 38 46 39 47 89 48 40 49 94 50 88 51 90 52 41 53 93 54 87 55
REMARK SMILES IDX 86 56 42 58 74 59 54 60 73 61 55 62 58 63 72 64 91 65 56 66
REMARK SMILES IDX 57 67 71 69 92 70 59 71 43 72 44 73 52 74 45 75 46 76 50 77
REMARK SMILES IDX 53 78 47 79 48 80 51 81 49 82 75 83 76 84 84 85 77 86 78 87
REMARK SMILES IDX 82 88 85 89 79 90 80 91 83 92 81 93 60 94 61 95 69 96 62 97
REMARK SMILES IDX 63 98 67 99 70 100 64 101 65 102 68 103 66 104
REMARK H PARENT 24 7 99 26 31 38 90 57 58 68
REMARK Flexibility Score: inf
ROOT
ATOM      1  C   UNL A   1      34.617  33.202  28.702  1.00  0.00     0.002 C 
ENDROOT
BRANCH   1   2
ATOM      2  C   UNL A   1      35.565  32.227  27.989  1.00  0.00     0.021 C 
BRANCH   2   3
ATOM      3  C   UNL A   1      34.994  30.810  27.926  1.00  0.00     0.116 C 
BRANCH   3   4
ATOM      4  N   UNL A   1      33.563  30.879  27.772  1.00  0.00    -0.352 N 
ATOM      5  C   UNL A   1      32.695  30.255  26.925  1.00  0.00     0.251 C 
ATOM      6  O   UNL A   1      31.512  30.593  26.998  1.00  0.00    -0.269 OA
ATOM      7  H   UNL A   1      33.126  31.498  28.402  1.00  0.00     0.163 HD
BRANCH   5   8
ATOM      8  C   UNL A   1      33.089  29.179  25.974  1.00  0.00     0.039 A 
ATOM      9  C   UNL A   1      33.771  26.928  24.367  1.00  0.00    -0.025 A 
ATOM     10  C   UNL A   1      33.682  26.836  25.763  1.00  0.00     0.006 A 
ATOM     11  C   UNL A   1      33.564  28.191  23.796  1.00  0.00     0.006 A 
ATOM     12  C   UNL A   1      33.353  27.937  26.552  1.00  0.00     0.014 A 
ATOM     13  C   UNL A   1      33.177  29.285  24.583  1.00  0.00     0.014 A 
BRANCH   9  14
ATOM     14  C   UNL A   1      33.939  25.714  23.448  1.00  0.00     0.114 C 
ATOM     15  C   UNL A   1      32.448  22.820  26.176  1.00  0.00     0.065 A 
ATOM     16  C   UNL A   1      33.316  22.339  27.162  1.00  0.00     0.016 A 
ATOM     17  C   UNL A   1      32.934  23.596  25.101  1.00  0.00    -0.003 A 
ATOM     18  C   UNL A   1      34.676  22.613  27.083  1.00  0.00     0.006 A 
ATOM     19  C   UNL A   1      34.329  23.850  25.013  1.00  0.00     0.042 A 
ATOM     20  C   UNL A   1      31.985  24.177  24.066  1.00  0.00     0.050 C 
ATOM     21  C   UNL A   1      35.197  23.368  26.021  1.00  0.00    -0.028 A 
ATOM     22  N   UNL A   1      34.812  24.711  24.035  1.00  0.00    -0.377 N 
ATOM     23  C   UNL A   1      30.955  25.161  24.574  1.00  0.00    -0.023 C 
ATOM     24  C   UNL A   1      32.655  25.011  22.953  1.00  0.00     0.031 C 
ATOM     25  C   UNL A   1      36.674  23.670  26.070  1.00  0.00     0.046 C 
ATOM     26  H   UNL A   1      35.748  24.643  23.739  1.00  0.00     0.161 HD
ATOM     27  C   UNL A   1      30.709  26.130  23.683  1.00  0.00    -0.030 C 
ATOM     28  C   UNL A   1      31.552  25.964  22.463  1.00  0.00     0.034 C 
BRANCH  15  29
ATOM     29  C   UNL A   1      31.009  22.482  26.298  1.00  0.00     0.338 C 
ATOM     30  O   UNL A   1      30.416  21.706  25.577  1.00  0.00    -0.246 OA
BRANCH  29  31
ATOM     31  O   UNL A   1      30.474  23.230  27.299  1.00  0.00    -0.465 OA
ATOM     32  C   UNL A   1      29.135  22.866  27.635  1.00  0.00     0.282 C 
ENDBRANCH  29  31
ENDBRANCH  15  29
ENDBRANCH   9  14
ENDBRANCH   5   8
ENDBRANCH   3   4
ENDBRANCH   2   3
ENDBRANCH   1   2
BRANCH   1  33
ATOM     33  C   UNL A   1      35.084  34.663  28.669  1.00  0.00     0.002 C 
BRANCH  33  34
ATOM     34  C   UNL A   1      33.955  35.683  28.833  1.00  0.00     0.021 C 
BRANCH  34  35
ATOM     35  C   UNL A   1      32.787  35.150  29.651  1.00  0.00     0.116 C 
BRANCH  35  36
ATOM     36  N   UNL A   1      32.445  36.075  30.719  1.00  0.00    -0.352 N 
ATOM     37  C   UNL A   1      32.840  36.034  32.030  1.00  0.00     0.251 C 
ATOM     38  H   UNL A   1      31.858  36.824  30.470  1.00  0.00     0.163 HD
ATOM     39  O   UNL A   1      32.257  36.681  32.891  1.00  0.00    -0.269 OA
BRANCH  37  40
ATOM     40  C   UNL A   1      33.999  35.196  32.383  1.00  0.00     0.039 A 
ATOM     41  C   UNL A   1      33.793  33.897  32.850  1.00  0.00     0.014 A 
ATOM     42  C   UNL A   1      35.289  35.717  32.242  1.00  0.00     0.014 A 
ATOM     43  C   UNL A   1      34.896  33.101  33.153  1.00  0.00     0.010 A 
ATOM     44  C   UNL A   1      36.385  34.905  32.487  1.00  0.00     0.010 A 
ATOM     45  C   UNL A   1      36.195  33.600  32.964  1.00  0.00    -0.014 A 
BRANCH  45  46
ATOM     46  C   UNL A   1      37.387  32.806  33.327  1.00  0.00     0.031 A 
ATOM     47  C   UNL A   1      38.093  33.101  34.615  1.00  0.00     0.074 A 
ATOM     48  C   UNL A   1      37.859  31.879  32.477  1.00  0.00     0.049 A 
ATOM     49  N   UNL A   1      39.207  32.600  35.083  1.00  0.00    -0.248 NA
ATOM     50  C   UNL A   1      37.474  34.115  35.484  1.00  0.00     0.031 C 
ATOM     51  C   UNL A   1      37.251  31.518  31.198  1.00  0.00     0.029 A 
ATOM     52  N   UNL A   1      38.970  31.081  32.561  1.00  0.00    -0.354 N 
ATOM     53  C   UNL A   1      39.415  33.230  36.302  1.00  0.00     0.074 A 
ATOM     54  C   UNL A   1      38.357  34.202  36.467  1.00  0.00     0.031 C 
ATOM     55  C   UNL A   1      37.987  30.553  30.624  1.00  0.00     0.029 A 
ATOM     56  C   UNL A   1      39.136  30.258  31.477  1.00  0.00     0.049 A 
ATOM     57  H   UNL A   1      39.589  31.097  33.327  1.00  0.00     0.167 HD
ATOM     58  C   UNL A   1      40.387  32.996  37.214  1.00  0.00     0.037 A 
ATOM     59  C   UNL A   1      40.110  29.370  31.207  1.00  0.00     0.037 A 
ATOM     60  C   UNL A   1      41.445  32.037  37.032  1.00  0.00     0.049 A 
ATOM     61  C   UNL A   1      41.224  29.181  32.200  1.00  0.00     0.074 A 
ATOM     62  C   UNL A   1      42.484  31.724  37.889  1.00  0.00     0.029 A 
ATOM     63  N   UNL A   1      41.598  31.237  35.907  1.00  0.00    -0.354 N 
ATOM     64  N   UNL A   1      41.408  29.764  33.360  1.00  0.00    -0.248 NA
ATOM     65  C   UNL A   1      42.264  28.206  31.847  1.00  0.00     0.031 C 
ATOM     66  C   UNL A   1      43.293  30.770  37.262  1.00  0.00     0.029 A 
ATOM     67  C   UNL A   1      42.725  30.442  36.041  1.00  0.00     0.049 A 
ATOM     68  H   UNL A   1      40.995  31.235  35.129  1.00  0.00     0.167 HD
ATOM     69  C   UNL A   1      42.562  29.206  33.892  1.00  0.00     0.074 A 
ATOM     70  C   UNL A   1      43.030  28.229  32.929  1.00  0.00     0.031 C 
ATOM     71  C   UNL A   1      43.176  29.474  35.072  1.00  0.00     0.037 A 
BRANCH  58  72
ATOM     72  C   UNL A   1      40.340  33.793  38.486  1.00  0.00     0.064 A 
ATOM     73  C   UNL A   1      39.533  33.398  39.566  1.00  0.00     0.173 A 
ATOM     74  C   UNL A   1      41.114  34.951  38.638  1.00  0.00     0.173 A 
ATOM     75  F   UNL A   1      38.759  32.306  39.467  1.00  0.00    -0.203 F 
ATOM     76  C   UNL A   1      39.479  34.152  40.736  1.00  0.00     0.198 A 
ATOM     77  C   UNL A   1      41.084  35.683  39.823  1.00  0.00     0.198 A 
ATOM     78  F   UNL A   1      41.903  35.375  37.639  1.00  0.00    -0.203 F 
ATOM     79  F   UNL A   1      38.657  33.786  41.729  1.00  0.00    -0.200 F 
ATOM     80  C   UNL A   1      40.260  35.289  40.866  1.00  0.00     0.200 A 
ATOM     81  F   UNL A   1      41.850  36.776  39.953  1.00  0.00    -0.200 F 
ATOM     82  F   UNL A   1      40.213  36.010  41.994  1.00  0.00    -0.200 F 
ENDBRANCH  58  72
BRANCH  59  83
ATOM     83  C   UNL A   1      40.032  28.554  29.969  1.00  0.00     0.064 A 
ATOM     84  C   UNL A   1      40.626  29.006  28.783  1.00  0.00     0.173 A 
ATOM     85  C   UNL A   1      39.411  27.296  29.952  1.00  0.00     0.173 A 
ATOM     86  F   UNL A   1      41.216  30.210  28.747  1.00  0.00    -0.203 F 
ATOM     87  C   UNL A   1      40.603  28.232  27.626  1.00  0.00     0.198 A 
ATOM     88  C   UNL A   1      39.410  26.512  28.800  1.00  0.00     0.198 A 
ATOM     89  F   UNL A   1      38.833  26.818  31.063  1.00  0.00    -0.203 F 
ATOM     90  F   UNL A   1      41.159  28.697  26.499  1.00  0.00    -0.200 F 
ATOM     91  C   UNL A   1      40.003  26.981  27.638  1.00  0.00     0.200 A 
ATOM     92  F   UNL A   1      38.845  25.297  28.820  1.00  0.00    -0.200 F 
ATOM     93  F   UNL A   1      39.998  26.227  26.530  1.00  0.00    -0.200 F 
ENDBRANCH  59  83
BRANCH  71  94
ATOM     94  C   UNL A   1      44.403  28.675  35.410  1.00  0.00     0.064 A 
ATOM     95  C   UNL A   1      45.689  29.111  35.056  1.00  0.00     0.173 A 
ATOM     96  C   UNL A   1      44.293  27.483  36.143  1.00  0.00     0.173 A 
ATOM     97  F   UNL A   1      45.848  30.237  34.345  1.00  0.00    -0.203 F 
ATOM     98  C   UNL A   1      46.816  28.368  35.399  1.00  0.00     0.198 A 
ATOM     99  C   UNL A   1      45.424  26.762  36.514  1.00  0.00     0.198 A 
ATOM    100  F   UNL A   1      43.088  27.026  36.515  1.00  0.00    -0.203 F 
ATOM    101  F   UNL A   1      48.030  28.778  35.006  1.00  0.00    -0.200 F 
ATOM    102  C   UNL A   1      46.683  27.199  36.135  1.00  0.00     0.200 A 
ATOM    103  F   UNL A   1      45.296  25.643  37.241  1.00  0.00    -0.200 F 
ATOM    104  F   UNL A   1      47.770  26.493  36.474  1.00  0.00    -0.200 F 
ENDBRANCH  71  94
ENDBRANCH  45  46
ENDBRANCH  37  40
ENDBRANCH  35  36
ENDBRANCH  34  35
ENDBRANCH  33  34
ENDBRANCH   1  33
TORSDOF 16
ENDMDL
MODEL 2
REMARK VINA RESULT:     -12.1      6.285     11.884
REMARK SMILES COC(=O)c1ccc(C)c2c1[C@H]1C=CC[C@H]1[C@@H](c1ccc(C(=O)NCCCCCCNC(=O)c3ccc(-c4c5nc(c(-c6c(F)c(F)c(F)c(F)c6F)c6ccc([nH]6)c(-c6c(F)c(F)c(F)c(F)c6F)c6nc(c(-c7c(F)c(F)c(F)c(F)c7F)c7ccc4[nH]7)C=C6)C=C5)cc3)cc1)N2
REMARK SMILES IDX 27 1 26 2 25 3 24 4 22 5 23 6 21 8 18 9 19 10 98 11 20 12
REMARK SMILES IDX 97 13 17 14 5 15 6 16 11 17 7 18 10 19 12 20 8 21 99 22
REMARK SMILES IDX 13 23 16 24 9 25 14 27 15 28 3 29 4 30 2 31 1 32 28 33 29 34
REMARK SMILES IDX 30 35 31 36 32 37 33 39 34 40 35 41 96 42 36 43 95 44 37 45
REMARK SMILES IDX 38 46 39 47 89 48 40 49 94 50 88 51 90 52 41 53 93 54 87 55
REMARK SMILES IDX 86 56 42 58 74 59 54 60 73 61 55 62 58 63 72 64 91 65 56 66
REMARK SMILES IDX 57 67 71 69 92 70 59 71 43 72 44 73 52 74 45 75 46 76 50 77
REMARK SMILES IDX 53 78 47 79 48 80 51 81 49 82 75 83 76 84 84 85 77 86 78 87
REMARK SMILES IDX 82 88 85 89 79 90 80 91 83 92 81 93 60 94 61 95 69 96 62 97
REMARK SMILES IDX 63 98 67 99 70 100 64 101 65 102 68 103 66 104
REMARK H PARENT 24 7 99 26 31 38 90 57 58 68
REMARK Flexibility Score: inf
ROOT
ATOM      1  C   UNL A   1      40.568  21.491  26.813  1.00  0.00     0.002 C 
ENDROOT
BRANCH   1   2
ATOM      2  C   UNL A   1      40.031  22.804  27.402  1.00  0.00     0.021 C 
BRANCH   2   3
ATOM      3  C   UNL A   1      38.935  23.421  26.532  1.00  0.00     0.116 C 
BRANCH   3   4
ATOM      4  N   UNL A   1      38.519  22.461  25.540  1.00  0.00    -0.352 N 
ATOM      5  C   UNL A   1      37.299  22.142  25.020  1.00  0.00     0.251 C 
ATOM      6  O   UNL A   1      37.265  21.203  24.223  1.00  0.00    -0.269 OA
ATOM      7  H   UNL A   1      39.261  21.933  25.163  1.00  0.00     0.163 HD
BRANCH   5   8
ATOM      8  C   UNL A   1      36.044  22.885  25.326  1.00  0.00     0.039 A 
ATOM      9  C   UNL A   1      33.606  24.115  26.133  1.00  0.00    -0.025 A 
ATOM     10  C   UNL A   1      33.925  22.801  26.502  1.00  0.00     0.006 A 
ATOM     11  C   UNL A   1      34.514  24.783  25.302  1.00  0.00     0.006 A 
ATOM     12  C   UNL A   1      35.116  22.195  26.105  1.00  0.00     0.014 A 
ATOM     13  C   UNL A   1      35.737  24.196  24.949  1.00  0.00     0.014 A 
BRANCH   9  14
ATOM     14  C   UNL A   1      32.408  24.886  26.699  1.00  0.00     0.114 C 
ATOM     15  C   UNL A   1      31.937  27.543  23.418  1.00  0.00     0.065 A 
ATOM     16  C   UNL A   1      32.774  28.662  23.355  1.00  0.00     0.016 A 
ATOM     17  C   UNL A   1      31.874  26.752  24.587  1.00  0.00    -0.003 A 
ATOM     18  C   UNL A   1      33.546  29.015  24.456  1.00  0.00     0.006 A 
ATOM     19  C   UNL A   1      32.646  27.134  25.717  1.00  0.00     0.042 A 
ATOM     20  C   UNL A   1      31.019  25.497  24.635  1.00  0.00     0.050 C 
ATOM     21  C   UNL A   1      33.498  28.262  25.639  1.00  0.00    -0.028 A 
ATOM     22  N   UNL A   1      32.694  26.304  26.830  1.00  0.00    -0.377 N 
ATOM     23  C   UNL A   1      31.385  24.394  23.667  1.00  0.00    -0.023 C 
ATOM     24  C   UNL A   1      31.053  24.728  25.974  1.00  0.00     0.031 C 
ATOM     25  C   UNL A   1      34.429  28.686  26.746  1.00  0.00     0.046 C 
ATOM     26  H   UNL A   1      32.922  26.678  27.712  1.00  0.00     0.161 HD
ATOM     27  C   UNL A   1      31.187  23.180  24.196  1.00  0.00    -0.030 C 
ATOM     28  C   UNL A   1      30.691  23.281  25.600  1.00  0.00     0.034 C 
BRANCH  15  29
ATOM     29  C   UNL A   1      31.120  27.222  22.222  1.00  0.00     0.338 C 
ATOM     30  O   UNL A   1      31.518  26.606  21.256  1.00  0.00    -0.246 OA
BRANCH  29  31
ATOM     31  O   UNL A   1      29.893  27.787  22.376  1.00  0.00    -0.465 OA
ATOM     32  C   UNL A   1      29.857  29.179  22.056  1.00  0.00     0.282 C 
ENDBRANCH  29  31
ENDBRANCH  15  29
ENDBRANCH   9  14
ENDBRANCH   5   8
ENDBRANCH   3   4
ENDBRANCH   2   3
ENDBRANCH   1   2
BRANCH   1  33
ATOM     33  C   UNL A   1      41.853  20.987  27.483  1.00  0.00     0.002 C 
BRANCH  33  34
ATOM     34  C   UNL A   1      42.289  19.592  27.028  1.00  0.00     0.021 C 
BRANCH  34  35
ATOM     35  C   UNL A   1      42.215  19.412  25.518  1.00  0.00     0.116 C 
BRANCH  35  36
ATOM     36  N   UNL A   1      43.473  18.893  25.003  1.00  0.00    -0.352 N 
ATOM     37  C   UNL A   1      44.564  19.600  24.570  1.00  0.00     0.251 C 
ATOM     38  H   UNL A   1      43.550  17.913  24.959  1.00  0.00     0.163 HD
ATOM     39  O   UNL A   1      45.434  19.074  23.888  1.00  0.00    -0.269 OA
BRANCH  37  40
ATOM     40  C   UNL A   1      44.675  21.016  24.960  1.00  0.00     0.039 A 
ATOM     41  C   UNL A   1      44.151  22.004  24.123  1.00  0.00     0.014 A 
ATOM     42  C   UNL A   1      45.304  21.349  26.164  1.00  0.00     0.014 A 
ATOM     43  C   UNL A   1      44.233  23.339  24.514  1.00  0.00     0.010 A 
ATOM     44  C   UNL A   1      45.333  22.671  26.578  1.00  0.00     0.010 A 
ATOM     45  C   UNL A   1      44.817  23.675  25.746  1.00  0.00    -0.014 A 
BRANCH  45  46
ATOM     46  C   UNL A   1      44.972  25.082  26.168  1.00  0.00     0.031 A 
ATOM     47  C   UNL A   1      46.324  25.723  26.081  1.00  0.00     0.074 A 
ATOM     48  C   UNL A   1      43.924  25.749  26.680  1.00  0.00     0.049 A 
ATOM     49  N   UNL A   1      46.709  26.906  26.485  1.00  0.00    -0.248 NA
ATOM     50  C   UNL A   1      47.395  24.913  25.478  1.00  0.00     0.031 C 
ATOM     51  C   UNL A   1      42.569  25.218  26.812  1.00  0.00     0.029 A 
ATOM     52  N   UNL A   1      43.844  27.017  27.194  1.00  0.00    -0.354 N 
ATOM     53  C   UNL A   1      48.059  26.984  26.178  1.00  0.00     0.074 A 
ATOM     54  C   UNL A   1      48.446  25.705  25.623  1.00  0.00     0.031 C 
ATOM     55  C   UNL A   1      41.783  26.162  27.355  1.00  0.00     0.029 A 
ATOM     56  C   UNL A   1      42.590  27.346  27.642  1.00  0.00     0.049 A 
ATOM     57  H   UNL A   1      44.612  27.632  27.237  1.00  0.00     0.167 HD
ATOM     58  C   UNL A   1      48.895  28.039  26.319  1.00  0.00     0.037 A 
ATOM     59  C   UNL A   1      42.149  28.479  28.220  1.00  0.00     0.037 A 
ATOM     60  C   UNL A   1      48.503  29.302  26.887  1.00  0.00     0.049 A 
ATOM     61  C   UNL A   1      43.113  29.613  28.439  1.00  0.00     0.074 A 
ATOM     62  C   UNL A   1      49.269  30.436  27.083  1.00  0.00     0.029 A 
ATOM     63  N   UNL A   1      47.229  29.594  27.356  1.00  0.00    -0.354 N 
ATOM     64  N   UNL A   1      44.385  29.690  28.130  1.00  0.00    -0.248 NA
ATOM     65  C   UNL A   1      42.577  30.818  29.084  1.00  0.00     0.031 C 
ATOM     66  C   UNL A   1      48.472  31.398  27.714  1.00  0.00     0.029 A 
ATOM     67  C   UNL A   1      47.191  30.886  27.856  1.00  0.00     0.049 A 
ATOM     68  H   UNL A   1      46.464  28.974  27.336  1.00  0.00     0.167 HD
ATOM     69  C   UNL A   1      44.796  30.961  28.509  1.00  0.00     0.074 A 
ATOM     70  C   UNL A   1      43.631  31.623  29.064  1.00  0.00     0.031 C 
ATOM     71  C   UNL A   1      46.023  31.529  28.403  1.00  0.00     0.037 A 
BRANCH  58  72
ATOM     72  C   UNL A   1      50.309  27.863  25.846  1.00  0.00     0.064 A 
ATOM     73  C   UNL A   1      50.636  27.921  24.482  1.00  0.00     0.173 A 
ATOM     74  C   UNL A   1      51.350  27.648  26.759  1.00  0.00     0.173 A 
ATOM     75  F   UNL A   1      49.675  28.108  23.564  1.00  0.00    -0.203 F 
ATOM     76  C   UNL A   1      51.947  27.737  24.048  1.00  0.00     0.198 A 
ATOM     77  C   UNL A   1      52.666  27.500  26.325  1.00  0.00     0.198 A 
ATOM     78  F   UNL A   1      51.095  27.583  28.075  1.00  0.00    -0.203 F 
ATOM     79  F   UNL A   1      52.224  27.740  22.737  1.00  0.00    -0.200 F 
ATOM     80  C   UNL A   1      52.962  27.535  24.970  1.00  0.00     0.200 A 
ATOM     81  F   UNL A   1      53.648  27.316  27.218  1.00  0.00    -0.200 F 
ATOM     82  F   UNL A   1      54.223  27.365  24.554  1.00  0.00    -0.200 F 
ENDBRANCH  58  72
BRANCH  59  83
ATOM     83  C   UNL A   1      40.713  28.607  28.572  1.00  0.00     0.064 A 
ATOM     84  C   UNL A   1      40.267  28.283  29.861  1.00  0.00     0.173 A 
ATOM     85  C   UNL A   1      39.769  29.096  27.658  1.00  0.00     0.173 A 
ATOM     86  F   UNL A   1      41.129  27.794  30.764  1.00  0.00    -0.203 F 
ATOM     87  C   UNL A   1      38.931  28.442  30.222  1.00  0.00     0.198 A 
ATOM     88  C   UNL A   1      38.438  29.279  28.027  1.00  0.00     0.198 A 
ATOM     89  F   UNL A   1      40.147  29.426  26.414  1.00  0.00    -0.203 F 
ATOM     90  F   UNL A   1      38.526  28.103  31.453  1.00  0.00    -0.200 F 
ATOM     91  C   UNL A   1      38.019  28.949  29.308  1.00  0.00     0.200 A 
ATOM     92  F   UNL A   1      37.564  29.786  27.147  1.00  0.00    -0.200 F 
ATOM     93  F   UNL A   1      36.738  29.122  29.661  1.00  0.00    -0.200 F 
ENDBRANCH  59  83
BRANCH  71  94
ATOM     94  C   UNL A   1      46.167  32.952  28.864  1.00  0.00     0.064 A 
ATOM     95  C   UNL A   1      46.554  33.269  30.175  1.00  0.00     0.173 A 
ATOM     96  C   UNL A   1      45.965  34.012  27.965  1.00  0.00     0.173 A 
ATOM     97  F   UNL A   1      46.748  32.295  31.076  1.00  0.00    -0.203 F 
ATOM     98  C   UNL A   1      46.705  34.595  30.576  1.00  0.00     0.198 A 
ATOM     99  C   UNL A   1      46.152  35.334  28.360  1.00  0.00     0.198 A 
ATOM    100  F   UNL A   1      45.604  33.765  26.697  1.00  0.00    -0.203 F 
ATOM    101  F   UNL A   1      47.025  34.874  31.847  1.00  0.00    -0.200 F 
ATOM    102  C   UNL A   1      46.512  35.625  29.666  1.00  0.00     0.200 A 
ATOM    103  F   UNL A   1      45.984  36.326  27.476  1.00  0.00    -0.200 F 
ATOM    104  F   UNL A   1      46.670  36.898  30.051  1.00  0.00    -0.200 F 
ENDBRANCH  71  94
ENDBRANCH  45  46
ENDBRANCH  37  40
ENDBRANCH  35  36
ENDBRANCH  34  35
ENDBRANCH  33  34
ENDBRANCH   1  33
TORSDOF 16
ENDMDL
MODEL 3
REMARK VINA RESULT:     -12.0      0.430      7.031
REMARK SMILES COC(=O)c1ccc(C)c2c1[C@H]1C=CC[C@H]1[C@@H](c1ccc(C(=O)NCCCCCCNC(=O)c3ccc(-c4c5nc(c(-c6c(F)c(F)c(F)c(F)c6F)c6ccc([nH]6)c(-c6c(F)c(F)c(F)c(F)c6F)c6nc(c(-c7c(F)c(F)c(F)c(F)c7F)c7ccc4[nH]7)C=C6)C=C5)cc3)cc1)N2
REMARK SMILES IDX 27 1 26 2 25 3 24 4 22 5 23 6 21 8 18 9 19 10 98 11 20 12
REMARK SMILES IDX 97 13 17 14 5 15 6 16 11 17 7 18 10 19 12 20 8 21 99 22
REMARK SMILES IDX 13 23 16 24 9 25 14 27 15 28 3 29 4 30 2 31 1 32 28 33 29 34
REMARK SMILES IDX 30 35 31 36 32 37 33 39 34 40 35 41 96 42 36 43 95 44 37 45
REMARK SMILES IDX 38 46 39 47 89 48 40 49 94 50 88 51 90 52 41 53 93 54 87 55
REMARK SMILES IDX 86 56 42 58 74 59 54 60 73 61 55 62 58 63 72 64 91 65 56 66
REMARK SMILES IDX 57 67 71 69 92 70 59 71 43 72 44 73 52 74 45 75 46 76 50 77
REMARK SMILES IDX 53 78 47 79 48 80 51 81 49 82 75 83 76 84 84 85 77 86 78 87
REMARK SMILES IDX 82 88 85 89 79 90 80 91 83 92 81 93 60 94 61 95 69 96 62 97
REMARK SMILES IDX 63 98 67 99 70 100 64 101 65 102 68 103 66 104
REMARK H PARENT 24 7 99 26 31 38 90 57 58 68
REMARK Flexibility Score: inf
ROOT
ATOM      1  C   UNL A   1      34.829  32.911  28.619  1.00  0.00     0.002 C 
ENDROOT
BRANCH   1   2
ATOM      2  C   UNL A   1      35.831  31.911  28.026  1.00  0.00     0.021 C 
BRANCH   2   3
ATOM      3  C   UNL A   1      35.212  30.528  27.817  1.00  0.00     0.116 C 
BRANCH   3   4
ATOM      4  N   UNL A   1      33.782  30.661  27.696  1.00  0.00    -0.352 N 
ATOM      5  C   UNL A   1      32.870  30.092  26.856  1.00  0.00     0.251 C 
ATOM      6  O   UNL A   1      31.705  30.477  26.961  1.00  0.00    -0.269 OA
ATOM      7  H   UNL A   1      33.385  31.284  28.348  1.00  0.00     0.163 HD
BRANCH   5   8
ATOM      8  C   UNL A   1      33.199  29.020  25.875  1.00  0.00     0.039 A 
ATOM      9  C   UNL A   1      33.762  26.778  24.212  1.00  0.00    -0.025 A 
ATOM     10  C   UNL A   1      33.741  26.671  25.610  1.00  0.00     0.006 A 
ATOM     11  C   UNL A   1      33.548  28.050  23.666  1.00  0.00     0.006 A 
ATOM     12  C   UNL A   1      33.470  27.768  26.426  1.00  0.00     0.014 A 
ATOM     13  C   UNL A   1      33.220  29.141  24.482  1.00  0.00     0.014 A 
BRANCH   9  14
ATOM     14  C   UNL A   1      33.864  25.571  23.272  1.00  0.00     0.114 C 
ATOM     15  C   UNL A   1      32.538  22.658  26.065  1.00  0.00     0.065 A 
ATOM     16  C   UNL A   1      33.466  22.164  26.988  1.00  0.00     0.016 A 
ATOM     17  C   UNL A   1      32.957  23.442  24.968  1.00  0.00    -0.003 A 
ATOM     18  C   UNL A   1      34.820  22.432  26.823  1.00  0.00     0.006 A 
ATOM     19  C   UNL A   1      34.345  23.691  24.791  1.00  0.00     0.042 A 
ATOM     20  C   UNL A   1      31.946  24.038  24.003  1.00  0.00     0.050 C 
ATOM     21  C   UNL A   1      35.274  23.195  25.737  1.00  0.00    -0.028 A 
ATOM     22  N   UNL A   1      34.767  24.559  23.792  1.00  0.00    -0.377 N 
ATOM     23  C   UNL A   1      30.956  25.022  24.585  1.00  0.00    -0.023 C 
ATOM     24  C   UNL A   1      32.547  24.879  22.856  1.00  0.00     0.031 C 
ATOM     25  C   UNL A   1      36.753  23.490  25.691  1.00  0.00     0.046 C 
ATOM     26  H   UNL A   1      35.682  24.490  23.435  1.00  0.00     0.161 HD
ATOM     27  C   UNL A   1      30.658  26.000  23.721  1.00  0.00    -0.030 C 
ATOM     28  C   UNL A   1      31.419  25.842  22.447  1.00  0.00     0.034 C 
BRANCH  15  29
ATOM     29  C   UNL A   1      31.108  22.326  26.277  1.00  0.00     0.338 C 
ATOM     30  O   UNL A   1      30.471  21.544  25.602  1.00  0.00    -0.246 OA
BRANCH  29  31
ATOM     31  O   UNL A   1      30.637  23.086  27.301  1.00  0.00    -0.465 OA
ATOM     32  C   UNL A   1      29.243  22.905  27.556  1.00  0.00     0.282 C 
ENDBRANCH  29  31
ENDBRANCH  15  29
ENDBRANCH   9  14
ENDBRANCH   5   8
ENDBRANCH   3   4
ENDBRANCH   2   3
ENDBRANCH   1   2
BRANCH   1  33
ATOM     33  C   UNL A   1      35.132  34.375  28.277  1.00  0.00     0.002 C 
BRANCH  33  34
ATOM     34  C   UNL A   1      34.129  35.373  28.860  1.00  0.00     0.021 C 
BRANCH  34  35
ATOM     35  C   UNL A   1      33.023  34.702  29.663  1.00  0.00     0.116 C 
BRANCH  35  36
ATOM     36  N   UNL A   1      32.539  35.590  30.708  1.00  0.00    -0.352 N 
ATOM     37  C   UNL A   1      32.888  35.604  32.033  1.00  0.00     0.251 C 
ATOM     38  H   UNL A   1      31.878  36.264  30.430  1.00  0.00     0.163 HD
ATOM     39  O   UNL A   1      32.204  36.186  32.865  1.00  0.00    -0.269 OA
BRANCH  37  40
ATOM     40  C   UNL A   1      34.122  34.908  32.436  1.00  0.00     0.039 A 
ATOM     41  C   UNL A   1      34.043  33.623  32.976  1.00  0.00     0.014 A 
ATOM     42  C   UNL A   1      35.354  35.547  32.268  1.00  0.00     0.014 A 
ATOM     43  C   UNL A   1      35.217  32.960  33.326  1.00  0.00     0.010 A 
ATOM     44  C   UNL A   1      36.524  34.864  32.561  1.00  0.00     0.010 A 
ATOM     45  C   UNL A   1      36.461  33.575  33.112  1.00  0.00    -0.014 A 
BRANCH  45  46
ATOM     46  C   UNL A   1      37.724  32.927  33.521  1.00  0.00     0.031 A 
ATOM     47  C   UNL A   1      38.314  31.864  32.645  1.00  0.00     0.074 A 
ATOM     48  C   UNL A   1      38.292  33.246  34.696  1.00  0.00     0.049 A 
ATOM     49  N   UNL A   1      39.354  31.099  32.854  1.00  0.00    -0.248 NA
ATOM     50  C   UNL A   1      37.627  31.613  31.367  1.00  0.00     0.031 C 
ATOM     51  C   UNL A   1      37.798  34.261  35.625  1.00  0.00     0.029 A 
ATOM     52  N   UNL A   1      39.406  32.738  35.311  1.00  0.00    -0.354 N 
ATOM     53  C   UNL A   1      39.449  30.286  31.734  1.00  0.00     0.074 A 
ATOM     54  C   UNL A   1      38.322  30.596  30.883  1.00  0.00     0.031 C 
ATOM     55  C   UNL A   1      38.618  34.315  36.686  1.00  0.00     0.029 A 
ATOM     56  C   UNL A   1      39.670  33.314  36.527  1.00  0.00     0.049 A 
ATOM     57  H   UNL A   1      39.964  32.029  34.917  1.00  0.00     0.167 HD
ATOM     58  C   UNL A   1      40.409  29.381  31.431  1.00  0.00     0.037 A 
ATOM     59  C   UNL A   1      40.652  33.056  37.411  1.00  0.00     0.037 A 
ATOM     60  C   UNL A   1      41.519  29.069  32.293  1.00  0.00     0.049 A 
ATOM     61  C   UNL A   1      41.665  31.991  37.089  1.00  0.00     0.074 A 
ATOM     62  C   UNL A   1      42.545  28.166  32.088  1.00  0.00     0.029 A 
ATOM     63  N   UNL A   1      41.742  29.653  33.534  1.00  0.00    -0.354 N 
ATOM     64  N   UNL A   1      41.764  31.237  36.021  1.00  0.00    -0.248 NA
ATOM     65  C   UNL A   1      42.707  31.747  38.095  1.00  0.00     0.031 C 
ATOM     66  C   UNL A   1      43.362  28.168  33.224  1.00  0.00     0.029 A 
ATOM     67  C   UNL A   1      42.881  29.118  34.112  1.00  0.00     0.049 A 
ATOM     68  H   UNL A   1      41.174  30.347  33.942  1.00  0.00     0.167 HD
ATOM     69  C   UNL A   1      42.894  30.452  36.208  1.00  0.00     0.074 A 
ATOM     70  C   UNL A   1      43.452  30.831  37.491  1.00  0.00     0.031 C 
ATOM     71  C   UNL A   1      43.424  29.508  35.390  1.00  0.00     0.037 A 
BRANCH  58  72
ATOM     72  C   UNL A   1      40.294  28.674  30.112  1.00  0.00     0.064 A 
ATOM     73  C   UNL A   1      39.589  27.466  29.989  1.00  0.00     0.173 A 
ATOM     74  C   UNL A   1      40.878  29.210  28.956  1.00  0.00     0.173 A 
ATOM     75  F   UNL A   1      39.025  26.901  31.067  1.00  0.00    -0.203 F 
ATOM     76  C   UNL A   1      39.503  26.805  28.767  1.00  0.00     0.198 A 
ATOM     77  C   UNL A   1      40.760  28.564  27.727  1.00  0.00     0.198 A 
ATOM     78  F   UNL A   1      41.564  30.362  29.014  1.00  0.00    -0.203 F 
ATOM     79  F   UNL A   1      38.874  25.624  28.688  1.00  0.00    -0.200 F 
ATOM     80  C   UNL A   1      40.081  27.359  27.635  1.00  0.00     0.200 A 
ATOM     81  F   UNL A   1      41.309  29.107  26.631  1.00  0.00    -0.200 F 
ATOM     82  F   UNL A   1      39.992  26.726  26.458  1.00  0.00    -0.200 F 
ENDBRANCH  58  72
BRANCH  59  83
ATOM     83  C   UNL A   1      40.750  33.866  38.651  1.00  0.00     0.064 A 
ATOM     84  C   UNL A   1      40.060  33.478  39.807  1.00  0.00     0.173 A 
ATOM     85  C   UNL A   1      41.563  35.006  38.726  1.00  0.00     0.173 A 
ATOM     86  F   UNL A   1      39.256  32.405  39.778  1.00  0.00    -0.203 F 
ATOM     87  C   UNL A   1      40.178  34.201  40.992  1.00  0.00     0.198 A 
ATOM     88  C   UNL A   1      41.700  35.714  39.918  1.00  0.00     0.198 A 
ATOM     89  F   UNL A   1      42.248  35.415  37.647  1.00  0.00    -0.203 F 
ATOM     90  F   UNL A   1      39.489  33.822  42.077  1.00  0.00    -0.200 F 
ATOM     91  C   UNL A   1      41.006  35.312  41.050  1.00  0.00     0.200 A 
ATOM     92  F   UNL A   1      42.514  36.777  39.974  1.00  0.00    -0.200 F 
ATOM     93  F   UNL A   1      41.135  35.996  42.195  1.00  0.00    -0.200 F 
ENDBRANCH  59  83
BRANCH  71  94
ATOM     94  C   UNL A   1      44.693  28.840  35.838  1.00  0.00     0.064 A 
ATOM     95  C   UNL A   1      44.679  27.651  36.583  1.00  0.00     0.173 A 
ATOM     96  C   UNL A   1      45.940  29.370  35.472  1.00  0.00     0.173 A 
ATOM     97  F   UNL A   1      43.514  27.110  36.969  1.00  0.00    -0.203 F 
ATOM     98  C   UNL A   1      45.867  27.034  36.968  1.00  0.00     0.198 A 
ATOM     99  C   UNL A   1      47.125  28.731  35.828  1.00  0.00     0.198 A 
ATOM    100  F   UNL A   1      46.011  30.499  34.751  1.00  0.00    -0.203 F 
ATOM    101  F   UNL A   1      45.829  25.928  37.723  1.00  0.00    -0.200 F 
ATOM    102  C   UNL A   1      47.088  27.570  36.583  1.00  0.00     0.200 A 
ATOM    103  F   UNL A   1      48.302  29.240  35.439  1.00  0.00    -0.200 F 
ATOM    104  F   UNL A   1      48.229  26.968  36.945  1.00  0.00    -0.200 F 
ENDBRANCH  71  94
ENDBRANCH  45  46
ENDBRANCH  37  40
ENDBRANCH  35  36
ENDBRANCH  34  35
ENDBRANCH  33  34
ENDBRANCH   1  33
TORSDOF 16
ENDMDL
