MODEL 1
REMARK VINA RESULT:     -13.3      0.000      0.000
REMARK SMILES Cc1ccc(C(=O)NCCCCCCNC(=O)c2ccc(-c3c4nc(c(-c5c(F)c(F)c(F)c(F)c5F)c5ccc([nH]5)c(-c5c(F)c(F)c(F)c(F)c5F)c5nc(c(-c6c(F)c(F)c(F)c(F)c6F)c6ccc3[nH]6)C=C5)C=C4)cc2)cc1NC(=O)C(=O)NC[C@@H](c1ccccc1)[NH+]1CC[NH+](C)CC1
REMARK SMILES IDX 10 1 9 2 8 3 6 4 7 5 5 7 1 8 2 9 3 10 82 11 4 12 81 13 83 14
REMARK SMILES IDX 84 15 85 17 86 18 87 19 88 20 89 22 90 23 97 24 98 25 103 26
REMARK SMILES IDX 99 28 102 29 100 30 101 31 91 33 92 34 96 35 93 36 95 37
REMARK SMILES IDX 94 38 11 39 12 40 13 41 14 42 15 43 16 44 17 46 18 47 19 48
REMARK SMILES IDX 80 49 20 50 79 51 21 52 22 53 23 54 73 55 24 56 78 57 72 58
REMARK SMILES IDX 74 59 25 60 77 61 71 62 70 63 26 65 58 66 38 67 57 68 39 69
REMARK SMILES IDX 42 70 56 71 75 72 40 73 41 74 55 76 76 77 43 78 27 79 28 80
REMARK SMILES IDX 36 81 29 82 30 83 34 84 37 85 31 86 32 87 35 88 33 89 59 90
REMARK SMILES IDX 60 91 68 92 61 93 62 94 66 95 69 96 63 97 64 98 67 99 65 100
REMARK SMILES IDX 44 101 45 102 53 103 46 104 47 105 51 106 54 107 48 108
REMARK SMILES IDX 49 109 52 110 50 111
REMARK H PARENT 8 6 83 16 88 21 97 27 100 32 15 45 74 64 42 75
REMARK Flexibility Score: inf
ROOT
ATOM      1  C   UNL A   1      34.260  23.294  26.908  1.00  0.00     0.021 C 
ENDROOT
BRANCH   1   2
ATOM      2  C   UNL A   1      33.305  22.194  27.363  1.00  0.00     0.116 C 
BRANCH   2   3
ATOM      3  N   UNL A   1      33.206  21.026  26.522  1.00  0.00    -0.352 N 
ATOM      4  C   UNL A   1      32.932  20.946  25.171  1.00  0.00     0.251 C 
ATOM      5  O   UNL A   1      32.899  19.832  24.649  1.00  0.00    -0.269 OA
ATOM      6  H   UNL A   1      33.353  20.164  26.976  1.00  0.00     0.163 HD
BRANCH   4   7
ATOM      7  C   UNL A   1      32.630  22.146  24.328  1.00  0.00     0.041 A 
ATOM      8  C   UNL A   1      32.000  25.500  21.654  1.00  0.00     0.046 C 
ATOM      9  C   UNL A   1      32.171  24.360  22.623  1.00  0.00    -0.027 A 
ATOM     10  C   UNL A   1      33.401  23.678  22.611  1.00  0.00     0.006 A 
ATOM     11  C   UNL A   1      31.173  23.945  23.525  1.00  0.00     0.045 A 
ATOM     12  C   UNL A   1      33.621  22.575  23.438  1.00  0.00     0.014 A 
ATOM     13  C   UNL A   1      31.442  22.884  24.408  1.00  0.00     0.040 A 
BRANCH  11  14
ATOM     14  N   UNL A   1      29.932  24.621  23.558  1.00  0.00    -0.318 N 
ATOM     15  C   UNL A   1      29.551  25.731  24.299  1.00  0.00     0.313 C 
ATOM     16  H   UNL A   1      29.234  24.250  22.970  1.00  0.00     0.170 HD
ATOM     17  O   UNL A   1      28.495  26.315  24.077  1.00  0.00    -0.263 OA
BRANCH  15  18
ATOM     18  C   UNL A   1      30.409  26.123  25.520  1.00  0.00     0.309 C 
ATOM     19  O   UNL A   1      30.011  25.897  26.659  1.00  0.00    -0.264 OA
ATOM     20  N   UNL A   1      31.618  26.760  25.374  1.00  0.00    -0.341 N 
ATOM     21  H   UNL A   1      32.303  26.521  26.040  1.00  0.00     0.164 HD
BRANCH  20  22
ATOM     22  C   UNL A   1      32.037  27.747  24.367  1.00  0.00     0.186 C 
BRANCH  22  23
ATOM     23  C   UNL A   1      31.461  29.182  24.717  1.00  0.00     0.235 C 
BRANCH  23  24
ATOM     24  N   UNL A   1      31.003  30.077  23.612  1.00  0.00    -0.318 N 
ATOM     25  C   UNL A   1      29.947  31.055  23.928  1.00  0.00     0.325 C 
ATOM     26  C   UNL A   1      30.650  29.417  22.344  1.00  0.00     0.325 C 
ATOM     27  H   UNL A   1      31.875  30.591  23.488  1.00  0.00     0.349 HD
ATOM     28  C   UNL A   1      28.486  30.545  23.811  1.00  0.00     0.324 C 
ATOM     29  C   UNL A   1      29.271  28.750  22.342  1.00  0.00     0.324 C 
ATOM     30  N   UNL A   1      28.185  29.692  22.649  1.00  0.00    -0.328 N 
ATOM     31  C   UNL A   1      26.944  28.945  22.880  1.00  0.00     0.333 C 
ATOM     32  H   UNL A   1      28.079  30.312  21.845  1.00  0.00     0.348 HD
ENDBRANCH  23  24
BRANCH  23  33
ATOM     33  C   UNL A   1      32.121  29.949  25.888  1.00  0.00     0.011 A 
ATOM     34  C   UNL A   1      33.377  29.511  26.370  1.00  0.00     0.010 A 
ATOM     35  C   UNL A   1      31.636  31.154  26.411  1.00  0.00     0.010 A 
ATOM     36  C   UNL A   1      34.157  30.275  27.238  1.00  0.00     0.001 A 
ATOM     37  C   UNL A   1      32.408  31.916  27.303  1.00  0.00     0.001 A 
ATOM     38  C   UNL A   1      33.675  31.491  27.692  1.00  0.00     0.000 A 
ENDBRANCH  23  33
ENDBRANCH  22  23
ENDBRANCH  20  22
ENDBRANCH  15  18
ENDBRANCH  11  14
ENDBRANCH   4   7
ENDBRANCH   2   3
ENDBRANCH   1   2
BRANCH   1  39
ATOM     39  C   UNL A   1      35.672  22.908  26.466  1.00  0.00     0.002 C 
BRANCH  39  40
ATOM     40  C   UNL A   1      36.476  23.883  25.595  1.00  0.00     0.002 C 
BRANCH  40  41
ATOM     41  C   UNL A   1      37.946  23.572  25.324  1.00  0.00     0.021 C 
BRANCH  41  42
ATOM     42  C   UNL A   1      38.634  22.643  26.309  1.00  0.00     0.116 C 
BRANCH  42  43
ATOM     43  N   UNL A   1      40.084  22.700  26.381  1.00  0.00    -0.352 N 
ATOM     44  C   UNL A   1      40.920  23.799  26.557  1.00  0.00     0.251 C 
ATOM     45  H   UNL A   1      40.543  21.833  26.294  1.00  0.00     0.163 HD
ATOM     46  O   UNL A   1      42.126  23.657  26.457  1.00  0.00    -0.269 OA
BRANCH  44  47
ATOM     47  C   UNL A   1      40.373  25.132  26.955  1.00  0.00     0.039 A 
ATOM     48  C   UNL A   1      40.651  26.264  26.177  1.00  0.00     0.014 A 
ATOM     49  C   UNL A   1      39.660  25.302  28.132  1.00  0.00     0.014 A 
ATOM     50  C   UNL A   1      40.416  27.543  26.697  1.00  0.00     0.010 A 
ATOM     51  C   UNL A   1      39.421  26.544  28.660  1.00  0.00     0.010 A 
ATOM     52  C   UNL A   1      39.886  27.659  27.982  1.00  0.00    -0.014 A 
BRANCH  52  53
ATOM     53  C   UNL A   1      40.006  28.824  28.835  1.00  0.00     0.031 A 
ATOM     54  C   UNL A   1      38.933  29.806  28.994  1.00  0.00     0.074 A 
ATOM     55  C   UNL A   1      41.054  28.818  29.688  1.00  0.00     0.049 A 
ATOM     56  N   UNL A   1      39.154  31.037  29.304  1.00  0.00    -0.248 NA
ATOM     57  C   UNL A   1      37.521  29.475  28.847  1.00  0.00     0.031 C 
ATOM     58  C   UNL A   1      41.274  29.648  30.865  1.00  0.00     0.029 A 
ATOM     59  N   UNL A   1      42.245  28.091  29.547  1.00  0.00    -0.354 N 
ATOM     60  C   UNL A   1      37.951  31.565  29.699  1.00  0.00     0.074 A 
ATOM     61  C   UNL A   1      36.949  30.601  29.292  1.00  0.00     0.031 C 
ATOM     62  C   UNL A   1      42.587  29.635  31.154  1.00  0.00     0.029 A 
ATOM     63  C   UNL A   1      43.253  28.914  30.080  1.00  0.00     0.049 A 
ATOM     64  H   UNL A   1      42.353  27.194  29.156  1.00  0.00     0.167 HD
ATOM     65  C   UNL A   1      37.926  32.666  30.503  1.00  0.00     0.037 A 
ATOM     66  C   UNL A   1      44.207  29.434  29.254  1.00  0.00     0.037 A 
ATOM     67  C   UNL A   1      39.272  33.070  30.903  1.00  0.00     0.049 A 
ATOM     68  C   UNL A   1      44.203  30.943  29.209  1.00  0.00     0.074 A 
ATOM     69  C   UNL A   1      39.996  32.870  32.068  1.00  0.00     0.029 A 
ATOM     70  N   UNL A   1      40.196  33.470  29.941  1.00  0.00    -0.354 N 
ATOM     71  N   UNL A   1      43.193  31.687  29.563  1.00  0.00    -0.248 NA
ATOM     72  C   UNL A   1      45.341  31.729  28.753  1.00  0.00     0.031 C 
ATOM     73  C   UNL A   1      41.358  33.156  31.806  1.00  0.00     0.029 A 
ATOM     74  C   UNL A   1      41.466  33.536  30.482  1.00  0.00     0.049 A 
ATOM     75  H   UNL A   1      39.974  33.677  29.004  1.00  0.00     0.167 HD
ATOM     76  C   UNL A   1      43.510  33.014  29.400  1.00  0.00     0.074 A 
ATOM     77  C   UNL A   1      44.876  32.982  28.910  1.00  0.00     0.031 C 
ATOM     78  C   UNL A   1      42.602  33.999  29.690  1.00  0.00     0.037 A 
BRANCH  65  79
ATOM     79  C   UNL A   1      36.656  33.137  31.163  1.00  0.00     0.064 A 
ATOM     80  C   UNL A   1      35.681  33.880  30.467  1.00  0.00     0.173 A 
ATOM     81  C   UNL A   1      36.370  32.892  32.520  1.00  0.00     0.173 A 
ATOM     82  F   UNL A   1      35.780  34.118  29.155  1.00  0.00    -0.203 F 
ATOM     83  C   UNL A   1      34.565  34.428  31.104  1.00  0.00     0.198 A 
ATOM     84  C   UNL A   1      35.275  33.474  33.166  1.00  0.00     0.198 A 
ATOM     85  F   UNL A   1      37.148  32.078  33.248  1.00  0.00    -0.203 F 
ATOM     86  F   UNL A   1      33.681  35.144  30.394  1.00  0.00    -0.200 F 
ATOM     87  C   UNL A   1      34.378  34.252  32.459  1.00  0.00     0.200 A 
ATOM     88  F   UNL A   1      35.101  33.287  34.482  1.00  0.00    -0.200 F 
ATOM     89  F   UNL A   1      33.334  34.819  33.078  1.00  0.00    -0.200 F 
ENDBRANCH  65  79
BRANCH  66  90
ATOM     90  C   UNL A   1      44.528  28.537  28.106  1.00  0.00     0.064 A 
ATOM     91  C   UNL A   1      45.155  27.302  28.378  1.00  0.00     0.173 A 
ATOM     92  C   UNL A   1      43.912  28.682  26.858  1.00  0.00     0.173 A 
ATOM     93  F   UNL A   1      45.752  27.102  29.565  1.00  0.00    -0.203 F 
ATOM     94  C   UNL A   1      45.069  26.229  27.493  1.00  0.00     0.198 A 
ATOM     95  C   UNL A   1      43.848  27.611  25.962  1.00  0.00     0.198 A 
ATOM     96  F   UNL A   1      43.279  29.821  26.541  1.00  0.00    -0.203 F 
ATOM     97  F   UNL A   1      45.574  25.036  27.837  1.00  0.00    -0.200 F 
ATOM     98  C   UNL A   1      44.396  26.379  26.294  1.00  0.00     0.200 A 
ATOM     99  F   UNL A   1      43.174  27.744  24.811  1.00  0.00    -0.200 F 
ATOM    100  F   UNL A   1      44.242  25.329  25.475  1.00  0.00    -0.200 F 
ENDBRANCH  66  90
BRANCH  78 101
ATOM    101  C   UNL A   1      42.678  35.490  29.386  1.00  0.00     0.064 A 
ATOM    102  C   UNL A   1      43.435  36.429  30.104  1.00  0.00     0.173 A 
ATOM    103  C   UNL A   1      42.037  36.018  28.229  1.00  0.00     0.173 A 
ATOM    104  F   UNL A   1      44.179  36.083  31.157  1.00  0.00    -0.203 F 
ATOM    105  C   UNL A   1      43.509  37.777  29.729  1.00  0.00     0.198 A 
ATOM    106  C   UNL A   1      42.167  37.345  27.820  1.00  0.00     0.198 A 
ATOM    107  F   UNL A   1      41.275  35.261  27.426  1.00  0.00    -0.203 F 
ATOM    108  F   UNL A   1      44.214  38.634  30.482  1.00  0.00    -0.200 F 
ATOM    109  C   UNL A   1      42.893  38.231  28.580  1.00  0.00     0.200 A 
ATOM    110  F   UNL A   1      41.598  37.747  26.675  1.00  0.00    -0.200 F 
ATOM    111  F   UNL A   1      43.013  39.509  28.199  1.00  0.00    -0.200 F 
ENDBRANCH  78 101
ENDBRANCH  52  53
ENDBRANCH  44  47
ENDBRANCH  42  43
ENDBRANCH  41  42
ENDBRANCH  40  41
ENDBRANCH  39  40
ENDBRANCH   1  39
TORSDOF 19
ENDMDL
MODEL 2
REMARK VINA RESULT:     -13.2      1.067      2.290
REMARK SMILES Cc1ccc(C(=O)NCCCCCCNC(=O)c2ccc(-c3c4nc(c(-c5c(F)c(F)c(F)c(F)c5F)c5ccc([nH]5)c(-c5c(F)c(F)c(F)c(F)c5F)c5nc(c(-c6c(F)c(F)c(F)c(F)c6F)c6ccc3[nH]6)C=C5)C=C4)cc2)cc1NC(=O)C(=O)NC[C@@H](c1ccccc1)[NH+]1CC[NH+](C)CC1
REMARK SMILES IDX 10 1 9 2 8 3 6 4 7 5 5 7 1 8 2 9 3 10 82 11 4 12 81 13 83 14
REMARK SMILES IDX 84 15 85 17 86 18 87 19 88 20 89 22 90 23 97 24 98 25 103 26
REMARK SMILES IDX 99 28 102 29 100 30 101 31 91 33 92 34 96 35 93 36 95 37
REMARK SMILES IDX 94 38 11 39 12 40 13 41 14 42 15 43 16 44 17 46 18 47 19 48
REMARK SMILES IDX 80 49 20 50 79 51 21 52 22 53 23 54 73 55 24 56 78 57 72 58
REMARK SMILES IDX 74 59 25 60 77 61 71 62 70 63 26 65 58 66 38 67 57 68 39 69
REMARK SMILES IDX 42 70 56 71 75 72 40 73 41 74 55 76 76 77 43 78 27 79 28 80
REMARK SMILES IDX 36 81 29 82 30 83 34 84 37 85 31 86 32 87 35 88 33 89 59 90
REMARK SMILES IDX 60 91 68 92 61 93 62 94 66 95 69 96 63 97 64 98 67 99 65 100
REMARK SMILES IDX 44 101 45 102 53 103 46 104 47 105 51 106 54 107 48 108
REMARK SMILES IDX 49 109 52 110 50 111
REMARK H PARENT 8 6 83 16 88 21 97 27 100 32 15 45 74 64 42 75
REMARK Flexibility Score: inf
ROOT
ATOM      1  C   UNL A   1      34.236  23.052  26.963  1.00  0.00     0.021 C 
ENDROOT
BRANCH   1   2
ATOM      2  C   UNL A   1      33.408  21.859  27.428  1.00  0.00     0.116 C 
BRANCH   2   3
ATOM      3  N   UNL A   1      33.388  20.702  26.566  1.00  0.00    -0.352 N 
ATOM      4  C   UNL A   1      33.224  20.638  25.197  1.00  0.00     0.251 C 
ATOM      5  O   UNL A   1      33.245  19.532  24.659  1.00  0.00    -0.269 OA
ATOM      6  H   UNL A   1      33.508  19.835  27.019  1.00  0.00     0.163 HD
BRANCH   4   7
ATOM      7  C   UNL A   1      32.978  21.847  24.347  1.00  0.00     0.041 A 
ATOM      8  C   UNL A   1      32.524  25.230  21.674  1.00  0.00     0.046 C 
ATOM      9  C   UNL A   1      32.632  24.079  22.639  1.00  0.00    -0.027 A 
ATOM     10  C   UNL A   1      33.860  23.398  22.703  1.00  0.00     0.006 A 
ATOM     11  C   UNL A   1      31.576  23.654  23.468  1.00  0.00     0.045 A 
ATOM     12  C   UNL A   1      34.026  22.286  23.531  1.00  0.00     0.014 A 
ATOM     13  C   UNL A   1      31.787  22.584  24.356  1.00  0.00     0.040 A 
BRANCH  11  14
ATOM     14  N   UNL A   1      30.335  24.329  23.426  1.00  0.00    -0.318 N 
ATOM     15  C   UNL A   1      29.898  25.421  24.164  1.00  0.00     0.313 C 
ATOM     16  H   UNL A   1      29.684  23.974  22.778  1.00  0.00     0.170 HD
ATOM     17  O   UNL A   1      28.861  26.010  23.879  1.00  0.00    -0.263 OA
BRANCH  15  18
ATOM     18  C   UNL A   1      30.662  25.781  25.456  1.00  0.00     0.309 C 
ATOM     19  O   UNL A   1      30.200  25.487  26.554  1.00  0.00    -0.264 OA
ATOM     20  N   UNL A   1      31.853  26.464  25.419  1.00  0.00    -0.341 N 
ATOM     21  H   UNL A   1      32.503  26.216  26.116  1.00  0.00     0.164 HD
BRANCH  20  22
ATOM     22  C   UNL A   1      32.299  27.513  24.487  1.00  0.00     0.186 C 
BRANCH  22  23
ATOM     23  C   UNL A   1      31.806  28.939  24.973  1.00  0.00     0.235 C 
BRANCH  23  24
ATOM     24  N   UNL A   1      31.673  29.208  26.437  1.00  0.00    -0.318 N 
ATOM     25  C   UNL A   1      31.703  30.616  26.870  1.00  0.00     0.325 C 
ATOM     26  C   UNL A   1      32.562  28.438  27.324  1.00  0.00     0.325 C 
ATOM     27  H   UNL A   1      30.718  28.869  26.547  1.00  0.00     0.349 HD
ATOM     28  C   UNL A   1      33.109  31.225  27.120  1.00  0.00     0.324 C 
ATOM     29  C   UNL A   1      34.001  28.960  27.383  1.00  0.00     0.324 C 
ATOM     30  N   UNL A   1      34.078  30.362  27.816  1.00  0.00    -0.328 N 
ATOM     31  C   UNL A   1      35.441  30.862  27.605  1.00  0.00     0.333 C 
ATOM     32  H   UNL A   1      33.842  30.391  28.808  1.00  0.00     0.348 HD
ENDBRANCH  23  24
BRANCH  23  33
ATOM     33  C   UNL A   1      30.725  29.647  24.122  1.00  0.00     0.011 A 
ATOM     34  C   UNL A   1      30.198  28.979  22.992  1.00  0.00     0.010 A 
ATOM     35  C   UNL A   1      30.107  30.852  24.482  1.00  0.00     0.010 A 
ATOM     36  C   UNL A   1      29.058  29.422  22.322  1.00  0.00     0.001 A 
ATOM     37  C   UNL A   1      28.973  31.313  23.795  1.00  0.00     0.001 A 
ATOM     38  C   UNL A   1      28.434  30.586  22.737  1.00  0.00     0.000 A 
ENDBRANCH  23  33
ENDBRANCH  22  23
ENDBRANCH  20  22
ENDBRANCH  15  18
ENDBRANCH  11  14
ENDBRANCH   4   7
ENDBRANCH   2   3
ENDBRANCH   1   2
BRANCH   1  39
ATOM     39  C   UNL A   1      35.716  22.843  26.645  1.00  0.00     0.002 C 
BRANCH  39  40
ATOM     40  C   UNL A   1      36.451  23.879  25.782  1.00  0.00     0.002 C 
BRANCH  40  41
ATOM     41  C   UNL A   1      37.912  23.622  25.423  1.00  0.00     0.021 C 
BRANCH  41  42
ATOM     42  C   UNL A   1      38.615  22.519  26.196  1.00  0.00     0.116 C 
BRANCH  42  43
ATOM     43  N   UNL A   1      40.068  22.511  26.179  1.00  0.00    -0.352 N 
ATOM     44  C   UNL A   1      40.962  23.551  26.413  1.00  0.00     0.251 C 
ATOM     45  H   UNL A   1      40.480  21.640  25.972  1.00  0.00     0.163 HD
ATOM     46  O   UNL A   1      42.153  23.373  26.220  1.00  0.00    -0.269 OA
BRANCH  44  47
ATOM     47  C   UNL A   1      40.503  24.854  26.982  1.00  0.00     0.039 A 
ATOM     48  C   UNL A   1      40.571  26.020  26.208  1.00  0.00     0.014 A 
ATOM     49  C   UNL A   1      40.086  24.964  28.299  1.00  0.00     0.014 A 
ATOM     50  C   UNL A   1      40.445  27.273  26.820  1.00  0.00     0.010 A 
ATOM     51  C   UNL A   1      39.958  26.180  28.919  1.00  0.00     0.010 A 
ATOM     52  C   UNL A   1      40.231  27.330  28.197  1.00  0.00    -0.014 A 
BRANCH  52  53
ATOM     53  C   UNL A   1      40.530  28.466  29.045  1.00  0.00     0.031 A 
ATOM     54  C   UNL A   1      39.517  29.438  29.457  1.00  0.00     0.074 A 
ATOM     55  C   UNL A   1      41.733  28.437  29.659  1.00  0.00     0.049 A 
ATOM     56  N   UNL A   1      39.801  30.659  29.755  1.00  0.00    -0.248 NA
ATOM     57  C   UNL A   1      38.104  29.106  29.597  1.00  0.00     0.031 C 
ATOM     58  C   UNL A   1      42.197  29.228  30.791  1.00  0.00     0.029 A 
ATOM     59  N   UNL A   1      42.866  27.719  29.248  1.00  0.00    -0.354 N 
ATOM     60  C   UNL A   1      38.709  31.169  30.411  1.00  0.00     0.074 A 
ATOM     61  C   UNL A   1      37.642  30.215  30.190  1.00  0.00     0.031 C 
ATOM     62  C   UNL A   1      43.542  29.210  30.799  1.00  0.00     0.029 A 
ATOM     63  C   UNL A   1      43.966  28.529  29.586  1.00  0.00     0.049 A 
ATOM     64  H   UNL A   1      42.887  26.836  28.813  1.00  0.00     0.167 HD
ATOM     65  C   UNL A   1      38.856  32.242  31.237  1.00  0.00     0.037 A 
ATOM     66  C   UNL A   1      44.727  29.080  28.596  1.00  0.00     0.037 A 
ATOM     67  C   UNL A   1      40.256  32.639  31.361  1.00  0.00     0.049 A 
ATOM     68  C   UNL A   1      44.719  30.589  28.604  1.00  0.00     0.074 A 
ATOM     69  C   UNL A   1      41.208  32.402  32.341  1.00  0.00     0.029 A 
ATOM     70  N   UNL A   1      40.960  33.074  30.241  1.00  0.00    -0.354 N 
ATOM     71  N   UNL A   1      43.807  31.317  29.185  1.00  0.00    -0.248 NA
ATOM     72  C   UNL A   1      45.739  31.395  27.947  1.00  0.00     0.031 C 
ATOM     73  C   UNL A   1      42.486  32.702  31.811  1.00  0.00     0.029 A 
ATOM     74  C   UNL A   1      42.316  33.127  30.506  1.00  0.00     0.049 A 
ATOM     75  H   UNL A   1      40.548  33.311  29.378  1.00  0.00     0.167 HD
ATOM     76  C   UNL A   1      44.086  32.650  29.004  1.00  0.00     0.074 A 
ATOM     77  C   UNL A   1      45.320  32.640  28.238  1.00  0.00     0.031 C 
ATOM     78  C   UNL A   1      43.262  33.621  29.511  1.00  0.00     0.037 A 
BRANCH  65  79
ATOM     79  C   UNL A   1      37.753  32.685  32.164  1.00  0.00     0.064 A 
ATOM     80  C   UNL A   1      36.656  33.446  31.713  1.00  0.00     0.173 A 
ATOM     81  C   UNL A   1      37.757  32.395  33.542  1.00  0.00     0.173 A 
ATOM     82  F   UNL A   1      36.479  33.728  30.417  1.00  0.00    -0.203 F 
ATOM     83  C   UNL A   1      35.699  33.968  32.586  1.00  0.00     0.198 A 
ATOM     84  C   UNL A   1      36.823  32.951  34.422  1.00  0.00     0.198 A 
ATOM     85  F   UNL A   1      38.669  31.561  34.064  1.00  0.00    -0.203 F 
ATOM     86  F   UNL A   1      34.688  34.703  32.101  1.00  0.00    -0.200 F 
ATOM     87  C   UNL A   1      35.799  33.747  33.944  1.00  0.00     0.200 A 
ATOM     88  F   UNL A   1      36.928  32.720  35.738  1.00  0.00    -0.200 F 
ATOM     89  F   UNL A   1      34.909  34.289  34.786  1.00  0.00    -0.200 F 
ENDBRANCH  65  79
BRANCH  66  90
ATOM     90  C   UNL A   1      44.799  28.223  27.377  1.00  0.00     0.064 A 
ATOM     91  C   UNL A   1      45.514  27.008  27.455  1.00  0.00     0.173 A 
ATOM     92  C   UNL A   1      43.902  28.371  26.314  1.00  0.00     0.173 A 
ATOM     93  F   UNL A   1      46.380  26.805  28.462  1.00  0.00    -0.203 F 
ATOM     94  C   UNL A   1      45.258  25.953  26.581  1.00  0.00     0.198 A 
ATOM     95  C   UNL A   1      43.664  27.319  25.425  1.00  0.00     0.198 A 
ATOM     96  F   UNL A   1      43.174  29.490  26.191  1.00  0.00    -0.203 F 
ATOM     97  F   UNL A   1      45.870  24.773  26.760  1.00  0.00    -0.200 F 
ATOM     98  C   UNL A   1      44.317  26.103  25.580  1.00  0.00     0.200 A 
ATOM     99  F   UNL A   1      42.734  27.451  24.468  1.00  0.00    -0.200 F 
ATOM    100  F   UNL A   1      44.009  25.066  24.787  1.00  0.00    -0.200 F 
ENDBRANCH  66  90
BRANCH  78 101
ATOM    101  C   UNL A   1      43.278  35.122  29.248  1.00  0.00     0.064 A 
ATOM    102  C   UNL A   1      43.642  36.108  30.178  1.00  0.00     0.173 A 
ATOM    103  C   UNL A   1      43.015  35.621  27.939  1.00  0.00     0.173 A 
ATOM    104  F   UNL A   1      44.017  35.802  31.422  1.00  0.00    -0.203 F 
ATOM    105  C   UNL A   1      43.694  37.468  29.847  1.00  0.00     0.198 A 
ATOM    106  C   UNL A   1      43.134  36.968  27.597  1.00  0.00     0.198 A 
ATOM    107  F   UNL A   1      42.656  34.819  26.926  1.00  0.00    -0.203 F 
ATOM    108  F   UNL A   1      44.006  38.365  30.794  1.00  0.00    -0.200 F 
ATOM    109  C   UNL A   1      43.459  37.897  28.556  1.00  0.00     0.200 A 
ATOM    110  F   UNL A   1      42.947  37.349  26.325  1.00  0.00    -0.200 F 
ATOM    111  F   UNL A   1      43.564  39.192  28.235  1.00  0.00    -0.200 F 
ENDBRANCH  78 101
ENDBRANCH  52  53
ENDBRANCH  44  47
ENDBRANCH  42  43
ENDBRANCH  41  42
ENDBRANCH  40  41
ENDBRANCH  39  40
ENDBRANCH   1  39
TORSDOF 19
ENDMDL
MODEL 3
REMARK VINA RESULT:     -13.1      1.273      3.047
REMARK SMILES Cc1ccc(C(=O)NCCCCCCNC(=O)c2ccc(-c3c4nc(c(-c5c(F)c(F)c(F)c(F)c5F)c5ccc([nH]5)c(-c5c(F)c(F)c(F)c(F)c5F)c5nc(c(-c6c(F)c(F)c(F)c(F)c6F)c6ccc3[nH]6)C=C5)C=C4)cc2)cc1NC(=O)C(=O)NC[C@@H](c1ccccc1)[NH+]1CC[NH+](C)CC1
REMARK SMILES IDX 10 1 9 2 8 3 6 4 7 5 5 7 1 8 2 9 3 10 82 11 4 12 81 13 83 14
REMARK SMILES IDX 84 15 85 17 86 18 87 19 88 20 89 22 90 23 97 24 98 25 103 26
REMARK SMILES IDX 99 28 102 29 100 30 101 31 91 33 92 34 96 35 93 36 95 37
REMARK SMILES IDX 94 38 11 39 12 40 13 41 14 42 15 43 16 44 17 46 18 47 19 48
REMARK SMILES IDX 80 49 20 50 79 51 21 52 22 53 23 54 73 55 24 56 78 57 72 58
REMARK SMILES IDX 74 59 25 60 77 61 71 62 70 63 26 65 58 66 38 67 57 68 39 69
REMARK SMILES IDX 42 70 56 71 75 72 40 73 41 74 55 76 76 77 43 78 27 79 28 80
REMARK SMILES IDX 36 81 29 82 30 83 34 84 37 85 31 86 32 87 35 88 33 89 59 90
REMARK SMILES IDX 60 91 68 92 61 93 62 94 66 95 69 96 63 97 64 98 67 99 65 100
REMARK SMILES IDX 44 101 45 102 53 103 46 104 47 105 51 106 54 107 48 108
REMARK SMILES IDX 49 109 52 110 50 111
REMARK H PARENT 8 6 83 16 88 21 97 27 100 32 15 45 74 64 42 75
REMARK Flexibility Score: inf
ROOT
ATOM      1  C   UNL A   1      36.269  19.874  24.251  1.00  0.00     0.021 C 
ENDROOT
BRANCH   1   2
ATOM      2  C   UNL A   1      35.764  18.646  25.002  1.00  0.00     0.116 C 
BRANCH   2   3
ATOM      3  N   UNL A   1      34.338  18.421  25.001  1.00  0.00    -0.352 N 
ATOM      4  C   UNL A   1      33.311  19.343  25.046  1.00  0.00     0.251 C 
ATOM      5  O   UNL A   1      32.153  18.925  25.032  1.00  0.00    -0.269 OA
ATOM      6  H   UNL A   1      34.059  17.477  24.965  1.00  0.00     0.163 HD
BRANCH   4   7
ATOM      7  C   UNL A   1      33.543  20.818  25.157  1.00  0.00     0.041 A 
ATOM      8  C   UNL A   1      34.405  25.022  25.769  1.00  0.00     0.046 C 
ATOM      9  C   UNL A   1      34.072  23.579  25.501  1.00  0.00    -0.027 A 
ATOM     10  C   UNL A   1      34.092  22.695  26.594  1.00  0.00     0.006 A 
ATOM     11  C   UNL A   1      33.750  23.076  24.226  1.00  0.00     0.045 A 
ATOM     12  C   UNL A   1      33.850  21.330  26.421  1.00  0.00     0.014 A 
ATOM     13  C   UNL A   1      33.428  21.713  24.085  1.00  0.00     0.040 A 
BRANCH  11  14
ATOM     14  N   UNL A   1      33.716  23.948  23.114  1.00  0.00    -0.318 N 
ATOM     15  C   UNL A   1      32.726  24.837  22.719  1.00  0.00     0.313 C 
ATOM     16  H   UNL A   1      34.513  23.923  22.535  1.00  0.00     0.170 HD
ATOM     17  O   UNL A   1      32.926  25.662  21.834  1.00  0.00    -0.263 OA
BRANCH  15  18
ATOM     18  C   UNL A   1      31.309  24.658  23.304  1.00  0.00     0.309 C 
ATOM     19  O   UNL A   1      30.497  23.921  22.753  1.00  0.00    -0.264 OA
ATOM     20  N   UNL A   1      30.906  25.335  24.429  1.00  0.00    -0.341 N 
ATOM     21  H   UNL A   1      30.289  24.844  25.018  1.00  0.00     0.164 HD
BRANCH  20  22
ATOM     22  C   UNL A   1      31.264  26.689  24.882  1.00  0.00     0.186 C 
BRANCH  22  23
ATOM     23  C   UNL A   1      30.851  27.769  23.797  1.00  0.00     0.235 C 
BRANCH  23  24
ATOM     24  N   UNL A   1      31.619  29.047  23.706  1.00  0.00    -0.318 N 
ATOM     25  C   UNL A   1      33.044  28.954  23.345  1.00  0.00     0.325 C 
ATOM     26  C   UNL A   1      31.496  29.962  24.853  1.00  0.00     0.325 C 
ATOM     27  H   UNL A   1      31.121  29.444  22.909  1.00  0.00     0.349 HD
ATOM     28  C   UNL A   1      34.032  28.712  24.518  1.00  0.00     0.324 C 
ATOM     29  C   UNL A   1      32.341  29.568  26.069  1.00  0.00     0.324 C 
ATOM     30  N   UNL A   1      33.774  29.469  25.754  1.00  0.00    -0.328 N 
ATOM     31  C   UNL A   1      34.477  28.848  26.882  1.00  0.00     0.333 C 
ATOM     32  H   UNL A   1      34.121  30.416  25.600  1.00  0.00     0.348 HD
ENDBRANCH  23  24
BRANCH  23  33
ATOM     33  C   UNL A   1      29.341  27.942  23.502  1.00  0.00     0.011 A 
ATOM     34  C   UNL A   1      28.449  26.910  23.875  1.00  0.00     0.010 A 
ATOM     35  C   UNL A   1      28.764  29.128  23.031  1.00  0.00     0.010 A 
ATOM     36  C   UNL A   1      27.065  27.079  23.883  1.00  0.00     0.001 A 
ATOM     37  C   UNL A   1      27.370  29.295  23.014  1.00  0.00     0.001 A 
ATOM     38  C   UNL A   1      26.525  28.285  23.466  1.00  0.00     0.000 A 
ENDBRANCH  23  33
ENDBRANCH  22  23
ENDBRANCH  20  22
ENDBRANCH  15  18
ENDBRANCH  11  14
ENDBRANCH   4   7
ENDBRANCH   2   3
ENDBRANCH   1   2
BRANCH   1  39
ATOM     39  C   UNL A   1      37.212  20.840  24.969  1.00  0.00     0.002 C 
BRANCH  39  40
ATOM     40  C   UNL A   1      37.327  22.286  24.466  1.00  0.00     0.002 C 
BRANCH  40  41
ATOM     41  C   UNL A   1      37.946  23.331  25.392  1.00  0.00     0.021 C 
BRANCH  41  42
ATOM     42  C   UNL A   1      38.544  22.815  26.690  1.00  0.00     0.116 C 
BRANCH  42  43
ATOM     43  N   UNL A   1      39.991  22.849  26.820  1.00  0.00    -0.352 N 
ATOM     44  C   UNL A   1      40.840  23.940  26.982  1.00  0.00     0.251 C 
ATOM     45  H   UNL A   1      40.436  21.971  26.790  1.00  0.00     0.163 HD
ATOM     46  O   UNL A   1      42.047  23.773  26.938  1.00  0.00    -0.269 OA
BRANCH  44  47
ATOM     47  C   UNL A   1      40.304  25.299  27.298  1.00  0.00     0.039 A 
ATOM     48  C   UNL A   1      40.570  26.374  26.440  1.00  0.00     0.014 A 
ATOM     49  C   UNL A   1      39.614  25.551  28.474  1.00  0.00     0.014 A 
ATOM     50  C   UNL A   1      40.348  27.687  26.876  1.00  0.00     0.010 A 
ATOM     51  C   UNL A   1      39.388  26.828  28.921  1.00  0.00     0.010 A 
ATOM     52  C   UNL A   1      39.843  27.892  28.159  1.00  0.00    -0.014 A 
BRANCH  52  53
ATOM     53  C   UNL A   1      39.982  29.112  28.929  1.00  0.00     0.031 A 
ATOM     54  C   UNL A   1      38.907  30.097  29.057  1.00  0.00     0.074 A 
ATOM     55  C   UNL A   1      41.057  29.169  29.746  1.00  0.00     0.049 A 
ATOM     56  N   UNL A   1      39.129  31.347  29.278  1.00  0.00    -0.248 NA
ATOM     57  C   UNL A   1      37.494  29.749  28.980  1.00  0.00     0.031 C 
ATOM     58  C   UNL A   1      41.309  30.076  30.857  1.00  0.00     0.029 A 
ATOM     59  N   UNL A   1      42.248  28.440  29.613  1.00  0.00    -0.354 N 
ATOM     60  C   UNL A   1      37.935  31.894  29.676  1.00  0.00     0.074 A 
ATOM     61  C   UNL A   1      36.928  30.900  29.367  1.00  0.00     0.031 C 
ATOM     62  C   UNL A   1      42.631  30.089  31.102  1.00  0.00     0.029 A 
ATOM     63  C   UNL A   1      43.267  29.302  30.058  1.00  0.00     0.049 A 
ATOM     64  H   UNL A   1      42.350  27.519  29.279  1.00  0.00     0.167 HD
ATOM     65  C   UNL A   1      37.929  33.046  30.405  1.00  0.00     0.037 A 
ATOM     66  C   UNL A   1      44.189  29.771  29.167  1.00  0.00     0.037 A 
ATOM     67  C   UNL A   1      39.284  33.483  30.733  1.00  0.00     0.049 A 
ATOM     68  C   UNL A   1      44.173  31.273  29.023  1.00  0.00     0.074 A 
ATOM     69  C   UNL A   1      40.048  33.364  31.884  1.00  0.00     0.029 A 
ATOM     70  N   UNL A   1      40.173  33.822  29.716  1.00  0.00    -0.354 N 
ATOM     71  N   UNL A   1      43.169  32.034  29.359  1.00  0.00    -0.248 NA
ATOM     72  C   UNL A   1      45.290  32.033  28.478  1.00  0.00     0.031 C 
ATOM     73  C   UNL A   1      41.397  33.639  31.559  1.00  0.00     0.029 A 
ATOM     74  C   UNL A   1      41.460  33.931  30.209  1.00  0.00     0.049 A 
ATOM     75  H   UNL A   1      39.920  33.965  28.775  1.00  0.00     0.167 HD
ATOM     76  C   UNL A   1      43.471  33.349  29.098  1.00  0.00     0.074 A 
ATOM     77  C   UNL A   1      44.821  33.291  28.566  1.00  0.00     0.031 C 
ATOM     78  C   UNL A   1      42.566  34.346  29.352  1.00  0.00     0.037 A 
BRANCH  65  79
ATOM     79  C   UNL A   1      36.678  33.553  31.074  1.00  0.00     0.064 A 
ATOM     80  C   UNL A   1      36.445  33.385  32.454  1.00  0.00     0.173 A 
ATOM     81  C   UNL A   1      35.647  34.201  30.366  1.00  0.00     0.173 A 
ATOM     82  F   UNL A   1      37.369  32.859  33.265  1.00  0.00    -0.203 F 
ATOM     83  C   UNL A   1      35.234  33.736  33.055  1.00  0.00     0.198 A 
ATOM     84  C   UNL A   1      34.421  34.516  30.958  1.00  0.00     0.198 A 
ATOM     85  F   UNL A   1      35.812  34.546  29.080  1.00  0.00    -0.203 F 
ATOM     86  F   UNL A   1      35.063  33.533  34.370  1.00  0.00    -0.200 F 
ATOM     87  C   UNL A   1      34.210  34.273  32.302  1.00  0.00     0.200 A 
ATOM     88  F   UNL A   1      33.438  35.046  30.216  1.00  0.00    -0.200 F 
ATOM     89  F   UNL A   1      33.033  34.564  32.871  1.00  0.00    -0.200 F 
ENDBRANCH  65  79
BRANCH  66  90
ATOM     90  C   UNL A   1      44.479  28.801  28.072  1.00  0.00     0.064 A 
ATOM     91  C   UNL A   1      45.119  27.587  28.405  1.00  0.00     0.173 A 
ATOM     92  C   UNL A   1      43.827  28.863  26.835  1.00  0.00     0.173 A 
ATOM     93  F   UNL A   1      45.751  27.466  29.584  1.00  0.00    -0.203 F 
ATOM     94  C   UNL A   1      45.010  26.458  27.595  1.00  0.00     0.198 A 
ATOM     95  C   UNL A   1      43.740  27.735  26.014  1.00  0.00     0.198 A 
ATOM     96  F   UNL A   1      43.181  29.977  26.464  1.00  0.00    -0.203 F 
ATOM     97  F   UNL A   1      45.529  25.291  28.002  1.00  0.00    -0.200 F 
ATOM     98  C   UNL A   1      44.302  26.528  26.410  1.00  0.00     0.200 A 
ATOM     99  F   UNL A   1      43.032  27.792  24.877  1.00  0.00    -0.200 F 
ATOM    100  F   UNL A   1      44.127  25.426  25.666  1.00  0.00    -0.200 F 
ENDBRANCH  66  90
BRANCH  78 101
ATOM    101  C   UNL A   1      42.621  35.814  28.947  1.00  0.00     0.064 A 
ATOM    102  C   UNL A   1      41.939  36.386  27.862  1.00  0.00     0.173 A 
ATOM    103  C   UNL A   1      43.319  36.754  29.759  1.00  0.00     0.173 A 
ATOM    104  F   UNL A   1      41.155  35.662  27.058  1.00  0.00    -0.203 F 
ATOM    105  C   UNL A   1      41.986  37.758  27.585  1.00  0.00     0.198 A 
ATOM    106  C   UNL A   1      43.308  38.128  29.520  1.00  0.00     0.198 A 
ATOM    107  F   UNL A   1      44.023  36.383  30.838  1.00  0.00    -0.203 F 
ATOM    108  F   UNL A   1      41.348  38.236  26.506  1.00  0.00    -0.200 F 
ATOM    109  C   UNL A   1      42.653  38.631  28.422  1.00  0.00     0.200 A 
ATOM    110  F   UNL A   1      43.924  38.956  30.375  1.00  0.00    -0.200 F 
ATOM    111  F   UNL A   1      42.647  39.948  28.181  1.00  0.00    -0.200 F 
ENDBRANCH  78 101
ENDBRANCH  52  53
ENDBRANCH  44  47
ENDBRANCH  42  43
ENDBRANCH  41  42
ENDBRANCH  40  41
ENDBRANCH  39  40
ENDBRANCH   1  39
TORSDOF 19
ENDMDL
