MODEL 1
REMARK VINA RESULT:     -12.1      0.000      0.000
REMARK SMILES COc1cc(C(=O)N[C@H]2CCCC[C@H]2C(=O)NCCCCCCNC(=O)c2ccc(-c3c4nc(c(-c5c(F)c(F)c(F)c(F)c5F)c5ccc([nH]5)c(-c5c(F)c(F)c(F)c(F)c5F)c5nc(c(-c6c(F)c(F)c(F)c(F)c6F)c6ccc3[nH]6)C=C5)C=C4)cc2)cc(Cl)c1OC
REMARK SMILES IDX 20 1 19 2 18 3 17 4 15 5 16 6 14 8 9 9 10 10 11 11 13 12
REMARK SMILES IDX 12 13 8 14 6 15 7 16 5 18 3 19 4 20 93 21 91 22 90 23 92 24
REMARK SMILES IDX 2 25 1 26 94 27 95 28 21 29 22 30 23 31 24 32 25 33 26 35
REMARK SMILES IDX 27 36 28 37 89 38 29 39 88 40 30 41 31 42 32 43 82 44 33 45
REMARK SMILES IDX 87 46 81 47 83 48 34 49 86 50 80 51 79 52 35 54 67 55 47 56
REMARK SMILES IDX 66 57 48 58 51 59 65 60 84 61 49 62 50 63 64 65 85 66 52 67
REMARK SMILES IDX 36 68 37 69 45 70 38 71 39 72 43 73 46 74 40 75 41 76 44 77
REMARK SMILES IDX 42 78 68 79 69 80 77 81 70 82 71 83 75 84 78 85 72 86 73 87
REMARK SMILES IDX 76 88 74 89 53 90 54 91 62 92 55 93 56 94 60 95 63 96 57 97
REMARK SMILES IDX 58 98 61 99 59 100
REMARK H PARENT 17 7 8 17 24 34 83 53 51 64
REMARK Flexibility Score: inf
ROOT
ATOM      1  C   UNL A   1      36.976  22.297  24.360  1.00  0.00     0.002 C 
ENDROOT
BRANCH   1   2
ATOM      2  C   UNL A   1      35.945  22.822  23.358  1.00  0.00     0.021 C 
BRANCH   2   3
ATOM      3  C   UNL A   1      35.156  24.017  23.881  1.00  0.00     0.116 C 
BRANCH   3   4
ATOM      4  N   UNL A   1      33.780  23.903  23.453  1.00  0.00    -0.356 N 
ATOM      5  C   UNL A   1      32.922  22.858  23.514  1.00  0.00     0.225 C 
ATOM      6  O   UNL A   1      31.896  22.928  22.832  1.00  0.00    -0.275 OA
ATOM      7  H   UNL A   1      33.405  24.719  23.049  1.00  0.00     0.163 HD
BRANCH   5   8
ATOM      8  C   UNL A   1      33.159  21.661  24.420  1.00  0.00     0.101 C 
ATOM      9  C   UNL A   1      33.037  21.875  25.961  1.00  0.00     0.094 C 
ATOM     10  C   UNL A   1      33.637  20.611  26.586  1.00  0.00     0.026 C 
ATOM     11  C   UNL A   1      32.873  19.355  26.178  1.00  0.00     0.002 C 
ATOM     12  C   UNL A   1      32.541  20.357  23.887  1.00  0.00     0.015 C 
ATOM     13  C   UNL A   1      32.996  19.131  24.678  1.00  0.00     0.001 C 
BRANCH   9  14
ATOM     14  N   UNL A   1      31.704  22.328  26.435  1.00  0.00    -0.349 N 
ATOM     15  C   UNL A   1      30.932  23.467  26.514  1.00  0.00     0.251 C 
ATOM     16  O   UNL A   1      29.890  23.418  27.169  1.00  0.00    -0.269 OA
ATOM     17  H   UNL A   1      31.211  21.567  26.817  1.00  0.00     0.164 HD
BRANCH  15  18
ATOM     18  C   UNL A   1      31.276  24.748  25.865  1.00  0.00     0.045 A 
ATOM     19  C   UNL A   1      30.750  26.519  24.288  1.00  0.00     0.163 A 
ATOM     20  C   UNL A   1      30.480  25.251  24.825  1.00  0.00     0.064 A 
ATOM     21  C   UNL A   1      31.791  27.309  24.831  1.00  0.00     0.179 A 
ATOM     22  C   UNL A   1      32.646  26.738  25.784  1.00  0.00     0.087 A 
ATOM     23  C   UNL A   1      32.422  25.435  26.238  1.00  0.00     0.038 A 
ATOM     24  Cl  UNL A   1      34.014  27.537  26.473  1.00  0.00    -0.080 Cl
BRANCH  19  25
ATOM     25  O   UNL A   1      30.060  27.093  23.249  1.00  0.00    -0.493 OA
ATOM     26  C   UNL A   1      28.707  27.478  23.444  1.00  0.00     0.278 C 
ENDBRANCH  19  25
BRANCH  21  27
ATOM     27  O   UNL A   1      31.932  28.561  24.281  1.00  0.00    -0.491 OA
ATOM     28  C   UNL A   1      31.495  29.669  25.063  1.00  0.00     0.278 C 
ENDBRANCH  21  27
ENDBRANCH  15  18
ENDBRANCH   9  14
ENDBRANCH   5   8
ENDBRANCH   3   4
ENDBRANCH   2   3
ENDBRANCH   1   2
BRANCH   1  29
ATOM     29  C   UNL A   1      36.731  20.856  24.817  1.00  0.00     0.002 C 
BRANCH  29  30
ATOM     30  C   UNL A   1      37.969  19.959  24.763  1.00  0.00     0.021 C 
BRANCH  30  31
ATOM     31  C   UNL A   1      39.053  20.342  25.761  1.00  0.00     0.116 C 
BRANCH  31  32
ATOM     32  N   UNL A   1      40.029  19.274  25.924  1.00  0.00    -0.352 N 
ATOM     33  C   UNL A   1      41.384  19.372  26.082  1.00  0.00     0.251 C 
ATOM     34  H   UNL A   1      39.666  18.360  25.917  1.00  0.00     0.163 HD
ATOM     35  O   UNL A   1      42.103  18.381  25.962  1.00  0.00    -0.269 OA
BRANCH  33  36
ATOM     36  C   UNL A   1      41.977  20.685  26.389  1.00  0.00     0.039 A 
ATOM     37  C   UNL A   1      42.275  21.559  25.344  1.00  0.00     0.014 A 
ATOM     38  C   UNL A   1      42.223  21.050  27.717  1.00  0.00     0.014 A 
ATOM     39  C   UNL A   1      42.777  22.828  25.633  1.00  0.00     0.010 A 
ATOM     40  C   UNL A   1      42.650  22.339  28.006  1.00  0.00     0.010 A 
ATOM     41  C   UNL A   1      42.941  23.237  26.966  1.00  0.00    -0.014 A 
BRANCH  41  42
ATOM     42  C   UNL A   1      43.432  24.594  27.305  1.00  0.00     0.031 A 
ATOM     43  C   UNL A   1      42.482  25.610  27.872  1.00  0.00     0.074 A 
ATOM     44  C   UNL A   1      44.709  24.928  27.038  1.00  0.00     0.049 A 
ATOM     45  N   UNL A   1      42.683  26.875  28.138  1.00  0.00    -0.248 NA
ATOM     46  C   UNL A   1      41.113  25.148  28.155  1.00  0.00     0.031 C 
ATOM     47  C   UNL A   1      45.714  24.036  26.458  1.00  0.00     0.029 A 
ATOM     48  N   UNL A   1      45.377  26.115  27.204  1.00  0.00    -0.354 N 
ATOM     49  C   UNL A   1      41.468  27.359  28.604  1.00  0.00     0.074 A 
ATOM     50  C   UNL A   1      40.520  26.270  28.532  1.00  0.00     0.031 C 
ATOM     51  C   UNL A   1      46.874  24.701  26.334  1.00  0.00     0.029 A 
ATOM     52  C   UNL A   1      46.683  26.077  26.780  1.00  0.00     0.049 A 
ATOM     53  H   UNL A   1      44.959  26.918  27.591  1.00  0.00     0.167 HD
ATOM     54  C   UNL A   1      41.178  28.596  29.073  1.00  0.00     0.037 A 
ATOM     55  C   UNL A   1      47.613  27.050  26.740  1.00  0.00     0.037 A 
ATOM     56  C   UNL A   1      42.132  29.670  29.156  1.00  0.00     0.049 A 
ATOM     57  C   UNL A   1      47.253  28.426  27.237  1.00  0.00     0.074 A 
ATOM     58  C   UNL A   1      41.950  30.949  29.650  1.00  0.00     0.029 A 
ATOM     59  N   UNL A   1      43.450  29.588  28.730  1.00  0.00    -0.354 N 
ATOM     60  N   UNL A   1      46.116  28.860  27.726  1.00  0.00    -0.248 NA
ATOM     61  C   UNL A   1      48.307  29.448  27.178  1.00  0.00     0.031 C 
ATOM     62  C   UNL A   1      43.142  31.658  29.474  1.00  0.00     0.029 A 
ATOM     63  C   UNL A   1      44.086  30.802  28.932  1.00  0.00     0.049 A 
ATOM     64  H   UNL A   1      43.871  28.787  28.342  1.00  0.00     0.167 HD
ATOM     65  C   UNL A   1      46.332  30.186  28.074  1.00  0.00     0.074 A 
ATOM     66  C   UNL A   1      47.709  30.486  27.743  1.00  0.00     0.031 C 
ATOM     67  C   UNL A   1      45.467  31.075  28.622  1.00  0.00     0.037 A 
BRANCH  54  68
ATOM     68  C   UNL A   1      39.773  28.855  29.533  1.00  0.00     0.064 A 
ATOM     69  C   UNL A   1      38.786  29.331  28.655  1.00  0.00     0.173 A 
ATOM     70  C   UNL A   1      39.393  28.582  30.856  1.00  0.00     0.173 A 
ATOM     71  F   UNL A   1      39.097  29.618  27.381  1.00  0.00    -0.203 F 
ATOM     72  C   UNL A   1      37.481  29.548  29.090  1.00  0.00     0.198 A 
ATOM     73  C   UNL A   1      38.080  28.768  31.280  1.00  0.00     0.198 A 
ATOM     74  F   UNL A   1      40.295  28.120  31.737  1.00  0.00    -0.203 F 
ATOM     75  F   UNL A   1      36.570  30.048  28.246  1.00  0.00    -0.200 F 
ATOM     76  C   UNL A   1      37.127  29.258  30.399  1.00  0.00     0.200 A 
ATOM     77  F   UNL A   1      37.737  28.472  32.541  1.00  0.00    -0.200 F 
ATOM     78  F   UNL A   1      35.868  29.455  30.814  1.00  0.00    -0.200 F 
ENDBRANCH  54  68
BRANCH  55  79
ATOM     79  C   UNL A   1      48.977  26.758  26.228  1.00  0.00     0.064 A 
ATOM     80  C   UNL A   1      49.333  27.070  24.907  1.00  0.00     0.173 A 
ATOM     81  C   UNL A   1      49.948  26.146  27.035  1.00  0.00     0.173 A 
ATOM     82  F   UNL A   1      48.436  27.640  24.090  1.00  0.00    -0.203 F 
ATOM     83  C   UNL A   1      50.595  26.754  24.406  1.00  0.00     0.198 A 
ATOM     84  C   UNL A   1      51.219  25.861  26.544  1.00  0.00     0.198 A 
ATOM     85  F   UNL A   1      49.663  25.833  28.309  1.00  0.00    -0.203 F 
ATOM     86  F   UNL A   1      50.888  27.011  23.125  1.00  0.00    -0.200 F 
ATOM     87  C   UNL A   1      51.538  26.153  25.226  1.00  0.00     0.200 A 
ATOM     88  F   UNL A   1      52.134  25.296  27.344  1.00  0.00    -0.200 F 
ATOM     89  F   UNL A   1      52.750  25.848  24.744  1.00  0.00    -0.200 F 
ENDBRANCH  55  79
BRANCH  67  90
ATOM     90  C   UNL A   1      45.996  32.438  28.966  1.00  0.00     0.064 A 
ATOM     91  C   UNL A   1      45.917  33.513  28.070  1.00  0.00     0.173 A 
ATOM     92  C   UNL A   1      46.536  32.680  30.239  1.00  0.00     0.173 A 
ATOM     93  F   UNL A   1      45.423  33.330  26.837  1.00  0.00    -0.203 F 
ATOM     94  C   UNL A   1      46.379  34.777  28.430  1.00  0.00     0.198 A 
ATOM     95  C   UNL A   1      46.965  33.951  30.606  1.00  0.00     0.198 A 
ATOM     96  F   UNL A   1      46.628  31.686  31.136  1.00  0.00    -0.203 F 
ATOM     97  F   UNL A   1      46.335  35.780  27.543  1.00  0.00    -0.200 F 
ATOM     98  C   UNL A   1      46.892  34.997  29.699  1.00  0.00     0.200 A 
ATOM     99  F   UNL A   1      47.444  34.165  31.839  1.00  0.00    -0.200 F 
ATOM    100  F   UNL A   1      47.322  36.218  30.047  1.00  0.00    -0.200 F 
ENDBRANCH  67  90
ENDBRANCH  41  42
ENDBRANCH  33  36
ENDBRANCH  31  32
ENDBRANCH  30  31
ENDBRANCH  29  30
ENDBRANCH   1  29
TORSDOF 17
ENDMDL
MODEL 2
REMARK VINA RESULT:     -11.9      1.279      2.057
REMARK SMILES COc1cc(C(=O)N[C@H]2CCCC[C@H]2C(=O)NCCCCCCNC(=O)c2ccc(-c3c4nc(c(-c5c(F)c(F)c(F)c(F)c5F)c5ccc([nH]5)c(-c5c(F)c(F)c(F)c(F)c5F)c5nc(c(-c6c(F)c(F)c(F)c(F)c6F)c6ccc3[nH]6)C=C5)C=C4)cc2)cc(Cl)c1OC
REMARK SMILES IDX 20 1 19 2 18 3 17 4 15 5 16 6 14 8 9 9 10 10 11 11 13 12
REMARK SMILES IDX 12 13 8 14 6 15 7 16 5 18 3 19 4 20 93 21 91 22 90 23 92 24
REMARK SMILES IDX 2 25 1 26 94 27 95 28 21 29 22 30 23 31 24 32 25 33 26 35
REMARK SMILES IDX 27 36 28 37 89 38 29 39 88 40 30 41 31 42 32 43 82 44 33 45
REMARK SMILES IDX 87 46 81 47 83 48 34 49 86 50 80 51 79 52 35 54 67 55 47 56
REMARK SMILES IDX 66 57 48 58 51 59 65 60 84 61 49 62 50 63 64 65 85 66 52 67
REMARK SMILES IDX 36 68 37 69 45 70 38 71 39 72 43 73 46 74 40 75 41 76 44 77
REMARK SMILES IDX 42 78 68 79 69 80 77 81 70 82 71 83 75 84 78 85 72 86 73 87
REMARK SMILES IDX 76 88 74 89 53 90 54 91 62 92 55 93 56 94 60 95 63 96 57 97
REMARK SMILES IDX 58 98 61 99 59 100
REMARK H PARENT 17 7 8 17 24 34 83 53 51 64
REMARK Flexibility Score: inf
ROOT
ATOM      1  C   UNL A   1      38.839  22.335  26.109  1.00  0.00     0.002 C 
ENDROOT
BRANCH   1   2
ATOM      2  C   UNL A   1      38.194  23.722  26.170  1.00  0.00     0.021 C 
BRANCH   2   3
ATOM      3  C   UNL A   1      36.739  23.726  25.713  1.00  0.00     0.116 C 
BRANCH   3   4
ATOM      4  N   UNL A   1      35.914  23.143  26.746  1.00  0.00    -0.356 N 
ATOM      5  C   UNL A   1      34.652  22.655  26.696  1.00  0.00     0.225 C 
ATOM      6  O   UNL A   1      34.076  22.470  27.771  1.00  0.00    -0.275 OA
ATOM      7  H   UNL A   1      36.339  23.093  27.633  1.00  0.00     0.163 HD
BRANCH   5   8
ATOM      8  C   UNL A   1      33.972  22.289  25.388  1.00  0.00     0.101 C 
ATOM      9  C   UNL A   1      32.629  21.498  25.458  1.00  0.00     0.094 C 
ATOM     10  C   UNL A   1      32.380  21.010  24.026  1.00  0.00     0.026 C 
ATOM     11  C   UNL A   1      32.244  22.170  23.045  1.00  0.00     0.002 C 
ATOM     12  C   UNL A   1      34.019  23.412  24.337  1.00  0.00     0.015 C 
ATOM     13  C   UNL A   1      33.553  22.941  22.960  1.00  0.00     0.001 C 
BRANCH   9  14
ATOM     14  N   UNL A   1      31.522  22.190  26.168  1.00  0.00    -0.349 N 
ATOM     15  C   UNL A   1      31.025  23.455  26.387  1.00  0.00     0.251 C 
ATOM     16  O   UNL A   1      30.128  23.590  27.221  1.00  0.00    -0.269 OA
ATOM     17  H   UNL A   1      30.962  21.528  26.633  1.00  0.00     0.164 HD
BRANCH  15  18
ATOM     18  C   UNL A   1      31.500  24.666  25.687  1.00  0.00     0.045 A 
ATOM     19  C   UNL A   1      31.430  26.155  23.769  1.00  0.00     0.163 A 
ATOM     20  C   UNL A   1      31.061  24.950  24.385  1.00  0.00     0.064 A 
ATOM     21  C   UNL A   1      32.202  27.105  24.481  1.00  0.00     0.179 A 
ATOM     22  C   UNL A   1      32.728  26.747  25.731  1.00  0.00     0.087 A 
ATOM     23  C   UNL A   1      32.430  25.501  26.288  1.00  0.00     0.038 A 
ATOM     24  Cl  UNL A   1      33.761  27.755  26.680  1.00  0.00    -0.080 Cl
BRANCH  19  25
ATOM     25  O   UNL A   1      31.087  26.519  22.491  1.00  0.00    -0.493 OA
ATOM     26  C   UNL A   1      31.766  25.924  21.395  1.00  0.00     0.278 C 
ENDBRANCH  19  25
BRANCH  21  27
ATOM     27  O   UNL A   1      32.455  28.281  23.815  1.00  0.00    -0.491 OA
ATOM     28  C   UNL A   1      33.759  28.448  23.266  1.00  0.00     0.278 C 
ENDBRANCH  21  27
ENDBRANCH  15  18
ENDBRANCH   9  14
ENDBRANCH   5   8
ENDBRANCH   3   4
ENDBRANCH   2   3
ENDBRANCH   1   2
BRANCH   1  29
ATOM     29  C   UNL A   1      38.172  21.375  25.121  1.00  0.00     0.002 C 
BRANCH  29  30
ATOM     30  C   UNL A   1      38.801  19.981  25.074  1.00  0.00     0.021 C 
BRANCH  30  31
ATOM     31  C   UNL A   1      39.560  19.603  26.340  1.00  0.00     0.116 C 
BRANCH  31  32
ATOM     32  N   UNL A   1      40.770  18.855  26.032  1.00  0.00    -0.352 N 
ATOM     33  C   UNL A   1      42.049  19.317  25.897  1.00  0.00     0.251 C 
ATOM     34  H   UNL A   1      40.651  17.886  25.903  1.00  0.00     0.163 HD
ATOM     35  O   UNL A   1      42.923  18.610  25.397  1.00  0.00    -0.269 OA
BRANCH  33  36
ATOM     36  C   UNL A   1      42.370  20.682  26.348  1.00  0.00     0.039 A 
ATOM     37  C   UNL A   1      42.389  20.962  27.715  1.00  0.00     0.014 A 
ATOM     38  C   UNL A   1      42.666  21.679  25.412  1.00  0.00     0.014 A 
ATOM     39  C   UNL A   1      42.754  22.236  28.149  1.00  0.00     0.010 A 
ATOM     40  C   UNL A   1      43.103  22.922  25.848  1.00  0.00     0.010 A 
ATOM     41  C   UNL A   1      43.142  23.215  27.220  1.00  0.00    -0.014 A 
BRANCH  41  42
ATOM     42  C   UNL A   1      43.576  24.565  27.655  1.00  0.00     0.031 A 
ATOM     43  C   UNL A   1      42.546  25.607  27.987  1.00  0.00     0.074 A 
ATOM     44  C   UNL A   1      44.887  24.867  27.685  1.00  0.00     0.049 A 
ATOM     45  N   UNL A   1      42.711  26.871  28.285  1.00  0.00    -0.248 NA
ATOM     46  C   UNL A   1      41.137  25.179  27.952  1.00  0.00     0.031 C 
ATOM     47  C   UNL A   1      45.976  23.947  27.355  1.00  0.00     0.029 A 
ATOM     48  N   UNL A   1      45.528  26.041  27.994  1.00  0.00    -0.354 N 
ATOM     49  C   UNL A   1      41.434  27.386  28.459  1.00  0.00     0.074 A 
ATOM     50  C   UNL A   1      40.502  26.318  28.178  1.00  0.00     0.031 C 
ATOM     51  C   UNL A   1      47.149  24.585  27.496  1.00  0.00     0.029 A 
ATOM     52  C   UNL A   1      46.895  25.969  27.879  1.00  0.00     0.049 A 
ATOM     53  H   UNL A   1      45.052  26.857  28.271  1.00  0.00     0.167 HD
ATOM     54  C   UNL A   1      41.074  28.634  28.843  1.00  0.00     0.037 A 
ATOM     55  C   UNL A   1      47.832  26.921  28.048  1.00  0.00     0.037 A 
ATOM     56  C   UNL A   1      42.010  29.687  29.137  1.00  0.00     0.049 A 
ATOM     57  C   UNL A   1      47.402  28.309  28.443  1.00  0.00     0.074 A 
ATOM     58  C   UNL A   1      41.751  30.975  29.571  1.00  0.00     0.029 A 
ATOM     59  N   UNL A   1      43.388  29.572  29.023  1.00  0.00    -0.354 N 
ATOM     60  N   UNL A   1      46.195  28.773  28.658  1.00  0.00    -0.248 NA
ATOM     61  C   UNL A   1      48.466  29.307  28.622  1.00  0.00     0.031 C 
ATOM     62  C   UNL A   1      42.968  31.656  29.668  1.00  0.00     0.029 A 
ATOM     63  C   UNL A   1      43.991  30.773  29.360  1.00  0.00     0.049 A 
ATOM     64  H   UNL A   1      43.867  28.758  28.745  1.00  0.00     0.167 HD
ATOM     65  C   UNL A   1      46.357  30.098  29.040  1.00  0.00     0.074 A 
ATOM     66  C   UNL A   1      47.780  30.364  29.030  1.00  0.00     0.031 C 
ATOM     67  C   UNL A   1      45.411  31.012  29.372  1.00  0.00     0.037 A 
BRANCH  54  68
ATOM     68  C   UNL A   1      39.608  28.929  28.969  1.00  0.00     0.064 A 
ATOM     69  C   UNL A   1      38.841  29.335  27.866  1.00  0.00     0.173 A 
ATOM     70  C   UNL A   1      38.949  28.761  30.197  1.00  0.00     0.173 A 
ATOM     71  F   UNL A   1      39.422  29.521  26.671  1.00  0.00    -0.203 F 
ATOM     72  C   UNL A   1      37.477  29.586  27.993  1.00  0.00     0.198 A 
ATOM     73  C   UNL A   1      37.579  28.980  30.313  1.00  0.00     0.198 A 
ATOM     74  F   UNL A   1      39.633  28.370  31.284  1.00  0.00    -0.203 F 
ATOM     75  F   UNL A   1      36.776  30.018  26.937  1.00  0.00    -0.200 F 
ATOM     76  C   UNL A   1      36.846  29.400  29.213  1.00  0.00     0.200 A 
ATOM     77  F   UNL A   1      36.969  28.784  31.490  1.00  0.00    -0.200 F 
ATOM     78  F   UNL A   1      35.531  29.630  29.331  1.00  0.00    -0.200 F 
ENDBRANCH  54  68
BRANCH  55  79
ATOM     79  C   UNL A   1      49.271  26.594  27.862  1.00  0.00     0.064 A 
ATOM     80  C   UNL A   1      50.105  26.361  28.965  1.00  0.00     0.173 A 
ATOM     81  C   UNL A   1      49.848  26.526  26.585  1.00  0.00     0.173 A 
ATOM     82  F   UNL A   1      49.607  26.431  30.208  1.00  0.00    -0.203 F 
ATOM     83  C   UNL A   1      51.465  26.104  28.800  1.00  0.00     0.198 A 
ATOM     84  C   UNL A   1      51.199  26.236  26.418  1.00  0.00     0.198 A 
ATOM     85  F   UNL A   1      49.093  26.734  25.495  1.00  0.00    -0.203 F 
ATOM     86  F   UNL A   1      52.249  25.942  29.873  1.00  0.00    -0.200 F 
ATOM     87  C   UNL A   1      52.010  26.037  27.527  1.00  0.00     0.200 A 
ATOM     88  F   UNL A   1      51.719  26.156  25.186  1.00  0.00    -0.200 F 
ATOM     89  F   UNL A   1      53.317  25.791  27.367  1.00  0.00    -0.200 F 
ENDBRANCH  55  79
BRANCH  67  90
ATOM     90  C   UNL A   1      45.881  32.366  29.821  1.00  0.00     0.064 A 
ATOM     91  C   UNL A   1      46.030  33.434  28.927  1.00  0.00     0.173 A 
ATOM     92  C   UNL A   1      46.126  32.607  31.182  1.00  0.00     0.173 A 
ATOM     93  F   UNL A   1      45.822  33.251  27.614  1.00  0.00    -0.203 F 
ATOM     94  C   UNL A   1      46.428  34.691  29.376  1.00  0.00     0.198 A 
ATOM     95  C   UNL A   1      46.490  33.872  31.631  1.00  0.00     0.198 A 
ATOM     96  F   UNL A   1      45.991  31.620  32.080  1.00  0.00    -0.203 F 
ATOM     97  F   UNL A   1      46.609  35.687  28.498  1.00  0.00    -0.200 F 
ATOM     98  C   UNL A   1      46.648  34.911  30.728  1.00  0.00     0.200 A 
ATOM     99  F   UNL A   1      46.685  34.086  32.940  1.00  0.00    -0.200 F 
ATOM    100  F   UNL A   1      47.016  36.126  31.159  1.00  0.00    -0.200 F 
ENDBRANCH  67  90
ENDBRANCH  41  42
ENDBRANCH  33  36
ENDBRANCH  31  32
ENDBRANCH  30  31
ENDBRANCH  29  30
ENDBRANCH   1  29
TORSDOF 17
ENDMDL
MODEL 3
REMARK VINA RESULT:     -11.9      1.670      7.938
REMARK SMILES COc1cc(C(=O)N[C@H]2CCCC[C@H]2C(=O)NCCCCCCNC(=O)c2ccc(-c3c4nc(c(-c5c(F)c(F)c(F)c(F)c5F)c5ccc([nH]5)c(-c5c(F)c(F)c(F)c(F)c5F)c5nc(c(-c6c(F)c(F)c(F)c(F)c6F)c6ccc3[nH]6)C=C5)C=C4)cc2)cc(Cl)c1OC
REMARK SMILES IDX 20 1 19 2 18 3 17 4 15 5 16 6 14 8 9 9 10 10 11 11 13 12
REMARK SMILES IDX 12 13 8 14 6 15 7 16 5 18 3 19 4 20 93 21 91 22 90 23 92 24
REMARK SMILES IDX 2 25 1 26 94 27 95 28 21 29 22 30 23 31 24 32 25 33 26 35
REMARK SMILES IDX 27 36 28 37 89 38 29 39 88 40 30 41 31 42 32 43 82 44 33 45
REMARK SMILES IDX 87 46 81 47 83 48 34 49 86 50 80 51 79 52 35 54 67 55 47 56
REMARK SMILES IDX 66 57 48 58 51 59 65 60 84 61 49 62 50 63 64 65 85 66 52 67
REMARK SMILES IDX 36 68 37 69 45 70 38 71 39 72 43 73 46 74 40 75 41 76 44 77
REMARK SMILES IDX 42 78 68 79 69 80 77 81 70 82 71 83 75 84 78 85 72 86 73 87
REMARK SMILES IDX 76 88 74 89 53 90 54 91 62 92 55 93 56 94 60 95 63 96 57 97
REMARK SMILES IDX 58 98 61 99 59 100
REMARK H PARENT 17 7 8 17 24 34 83 53 51 64
REMARK Flexibility Score: inf
ROOT
ATOM      1  C   UNL A   1      37.357  21.642  25.051  1.00  0.00     0.002 C 
ENDROOT
BRANCH   1   2
ATOM      2  C   UNL A   1      36.472  22.608  24.261  1.00  0.00     0.021 C 
BRANCH   2   3
ATOM      3  C   UNL A   1      36.390  23.996  24.889  1.00  0.00     0.116 C 
BRANCH   3   4
ATOM      4  N   UNL A   1      35.152  24.113  25.623  1.00  0.00    -0.356 N 
ATOM      5  C   UNL A   1      34.172  25.046  25.556  1.00  0.00     0.225 C 
ATOM      6  O   UNL A   1      33.354  25.073  26.480  1.00  0.00    -0.275 OA
ATOM      7  H   UNL A   1      34.993  23.398  26.281  1.00  0.00     0.163 HD
BRANCH   5   8
ATOM      8  C   UNL A   1      34.029  25.993  24.377  1.00  0.00     0.101 C 
ATOM      9  C   UNL A   1      33.415  25.432  23.058  1.00  0.00     0.094 C 
ATOM     10  C   UNL A   1      33.703  26.501  21.998  1.00  0.00     0.026 C 
ATOM     11  C   UNL A   1      33.051  27.836  22.344  1.00  0.00     0.002 C 
ATOM     12  C   UNL A   1      33.553  27.401  24.776  1.00  0.00     0.015 C 
ATOM     13  C   UNL A   1      33.652  28.398  23.623  1.00  0.00     0.001 C 
BRANCH   9  14
ATOM     14  N   UNL A   1      32.027  24.915  23.174  1.00  0.00    -0.349 N 
ATOM     15  C   UNL A   1      31.341  23.730  23.323  1.00  0.00     0.251 C 
ATOM     16  O   UNL A   1      30.115  23.749  23.203  1.00  0.00    -0.269 OA
ATOM     17  H   UNL A   1      31.389  25.663  23.130  1.00  0.00     0.164 HD
BRANCH  15  18
ATOM     18  C   UNL A   1      31.982  22.431  23.615  1.00  0.00     0.045 A 
ATOM     19  C   UNL A   1      33.141  20.953  25.155  1.00  0.00     0.163 A 
ATOM     20  C   UNL A   1      32.629  22.221  24.842  1.00  0.00     0.064 A 
ATOM     21  C   UNL A   1      32.957  19.876  24.256  1.00  0.00     0.179 A 
ATOM     22  C   UNL A   1      32.417  20.138  22.989  1.00  0.00     0.087 A 
ATOM     23  C   UNL A   1      32.002  21.431  22.655  1.00  0.00     0.038 A 
ATOM     24  Cl  UNL A   1      32.215  18.953  21.748  1.00  0.00    -0.080 Cl
BRANCH  19  25
ATOM     25  O   UNL A   1      33.819  20.645  26.308  1.00  0.00    -0.493 OA
ATOM     26  C   UNL A   1      33.752  21.535  27.412  1.00  0.00     0.278 C 
ENDBRANCH  19  25
BRANCH  21  27
ATOM     27  O   UNL A   1      33.435  18.659  24.683  1.00  0.00    -0.491 OA
ATOM     28  C   UNL A   1      32.475  17.691  25.093  1.00  0.00     0.278 C 
ENDBRANCH  21  27
ENDBRANCH  15  18
ENDBRANCH   9  14
ENDBRANCH   5   8
ENDBRANCH   3   4
ENDBRANCH   2   3
ENDBRANCH   1   2
BRANCH   1  29
ATOM     29  C   UNL A   1      37.033  20.163  24.824  1.00  0.00     0.002 C 
BRANCH  29  30
ATOM     30  C   UNL A   1      38.196  19.211  25.110  1.00  0.00     0.021 C 
BRANCH  30  31
ATOM     31  C   UNL A   1      39.400  19.883  25.757  1.00  0.00     0.116 C 
BRANCH  31  32
ATOM     32  N   UNL A   1      40.490  18.941  25.962  1.00  0.00    -0.352 N 
ATOM     33  C   UNL A   1      41.823  19.200  26.125  1.00  0.00     0.251 C 
ATOM     34  H   UNL A   1      40.234  17.991  25.985  1.00  0.00     0.163 HD
ATOM     35  O   UNL A   1      42.653  18.294  26.044  1.00  0.00    -0.269 OA
BRANCH  33  36
ATOM     36  C   UNL A   1      42.259  20.581  26.390  1.00  0.00     0.039 A 
ATOM     37  C   UNL A   1      42.584  21.411  25.317  1.00  0.00     0.014 A 
ATOM     38  C   UNL A   1      42.329  21.055  27.705  1.00  0.00     0.014 A 
ATOM     39  C   UNL A   1      42.936  22.739  25.559  1.00  0.00     0.010 A 
ATOM     40  C   UNL A   1      42.603  22.395  27.938  1.00  0.00     0.010 A 
ATOM     41  C   UNL A   1      42.919  23.248  26.868  1.00  0.00    -0.014 A 
BRANCH  41  42
ATOM     42  C   UNL A   1      43.247  24.666  27.151  1.00  0.00     0.031 A 
ATOM     43  C   UNL A   1      44.646  25.166  26.926  1.00  0.00     0.074 A 
ATOM     44  C   UNL A   1      42.307  25.478  27.670  1.00  0.00     0.049 A 
ATOM     45  N   UNL A   1      45.164  26.334  27.206  1.00  0.00    -0.248 NA
ATOM     46  C   UNL A   1      45.600  24.215  26.331  1.00  0.00     0.031 C 
ATOM     47  C   UNL A   1      40.925  25.096  27.960  1.00  0.00     0.029 A 
ATOM     48  N   UNL A   1      42.377  26.791  28.062  1.00  0.00    -0.354 N 
ATOM     49  C   UNL A   1      46.498  26.253  26.834  1.00  0.00     0.074 A 
ATOM     50  C   UNL A   1      46.728  24.906  26.363  1.00  0.00     0.031 C 
ATOM     51  C   UNL A   1      40.273  26.154  28.467  1.00  0.00     0.029 A 
ATOM     52  C   UNL A   1      41.201  27.274  28.582  1.00  0.00     0.049 A 
ATOM     53  H   UNL A   1      43.193  27.335  27.979  1.00  0.00     0.167 HD
ATOM     54  C   UNL A   1      47.441  27.225  26.862  1.00  0.00     0.037 A 
ATOM     55  C   UNL A   1      40.913  28.480  29.107  1.00  0.00     0.037 A 
ATOM     56  C   UNL A   1      47.200  28.568  27.317  1.00  0.00     0.049 A 
ATOM     57  C   UNL A   1      41.990  29.532  29.156  1.00  0.00     0.074 A 
ATOM     58  C   UNL A   1      48.076  29.638  27.351  1.00  0.00     0.029 A 
ATOM     59  N   UNL A   1      45.991  29.024  27.823  1.00  0.00    -0.354 N 
ATOM     60  N   UNL A   1      43.235  29.463  28.753  1.00  0.00    -0.248 NA
ATOM     61  C   UNL A   1      41.620  30.832  29.732  1.00  0.00     0.031 C 
ATOM     62  C   UNL A   1      47.413  30.727  27.926  1.00  0.00     0.029 A 
ATOM     63  C   UNL A   1      46.105  30.355  28.189  1.00  0.00     0.049 A 
ATOM     64  H   UNL A   1      45.173  28.483  27.909  1.00  0.00     0.167 HD
ATOM     65  C   UNL A   1      43.782  30.718  28.983  1.00  0.00     0.074 A 
ATOM     66  C   UNL A   1      42.732  31.531  29.559  1.00  0.00     0.031 C 
ATOM     67  C   UNL A   1      45.041  31.158  28.736  1.00  0.00     0.037 A 
BRANCH  54  68
ATOM     68  C   UNL A   1      48.821  26.872  26.386  1.00  0.00     0.064 A 
ATOM     69  C   UNL A   1      49.789  26.349  27.257  1.00  0.00     0.173 A 
ATOM     70  C   UNL A   1      49.166  27.014  25.033  1.00  0.00     0.173 A 
ATOM     71  F   UNL A   1      49.515  26.201  28.562  1.00  0.00    -0.203 F 
ATOM     72  C   UNL A   1      51.058  26.007  26.797  1.00  0.00     0.198 A 
ATOM     73  C   UNL A   1      50.425  26.640  24.570  1.00  0.00     0.198 A 
ATOM     74  F   UNL A   1      48.278  27.505  24.155  1.00  0.00    -0.203 F 
ATOM     75  F   UNL A   1      51.980  25.555  27.657  1.00  0.00    -0.200 F 
ATOM     76  C   UNL A   1      51.372  26.144  25.454  1.00  0.00     0.200 A 
ATOM     77  F   UNL A   1      50.721  26.759  23.269  1.00  0.00    -0.200 F 
ATOM     78  F   UNL A   1      52.590  25.803  25.010  1.00  0.00    -0.200 F 
ENDBRANCH  54  68
BRANCH  55  79
ATOM     79  C   UNL A   1      39.545  28.767  29.613  1.00  0.00     0.064 A 
ATOM     80  C   UNL A   1      38.575  29.347  28.782  1.00  0.00     0.173 A 
ATOM     81  C   UNL A   1      39.181  28.489  30.940  1.00  0.00     0.173 A 
ATOM     82  F   UNL A   1      38.878  29.649  27.511  1.00  0.00    -0.203 F 
ATOM     83  C   UNL A   1      37.307  29.665  29.265  1.00  0.00     0.198 A 
ATOM     84  C   UNL A   1      37.903  28.776  31.413  1.00  0.00     0.198 A 
ATOM     85  F   UNL A   1      40.068  27.927  31.776  1.00  0.00    -0.203 F 
ATOM     86  F   UNL A   1      36.420  30.270  28.465  1.00  0.00    -0.200 F 
ATOM     87  C   UNL A   1      36.971  29.375  30.579  1.00  0.00     0.200 A 
ATOM     88  F   UNL A   1      37.577  28.478  32.677  1.00  0.00    -0.200 F 
ATOM     89  F   UNL A   1      35.752  29.681  31.043  1.00  0.00    -0.200 F 
ENDBRANCH  55  79
BRANCH  67  90
ATOM     90  C   UNL A   1      45.340  32.602  29.019  1.00  0.00     0.064 A 
ATOM     91  C   UNL A   1      45.876  33.022  30.244  1.00  0.00     0.173 A 
ATOM     92  C   UNL A   1      45.140  33.569  28.021  1.00  0.00     0.173 A 
ATOM     93  F   UNL A   1      46.072  32.140  31.235  1.00  0.00    -0.203 F 
ATOM     94  C   UNL A   1      46.182  34.363  30.467  1.00  0.00     0.198 A 
ATOM     95  C   UNL A   1      45.480  34.901  28.236  1.00  0.00     0.198 A 
ATOM     96  F   UNL A   1      44.636  33.217  26.829  1.00  0.00    -0.203 F 
ATOM     97  F   UNL A   1      46.652  34.751  31.661  1.00  0.00    -0.200 F 
ATOM     98  C   UNL A   1      45.993  35.298  29.460  1.00  0.00     0.200 A 
ATOM     99  F   UNL A   1      45.312  35.799  27.255  1.00  0.00    -0.200 F 
ATOM    100  F   UNL A   1      46.304  36.585  29.672  1.00  0.00    -0.200 F 
ENDBRANCH  67  90
ENDBRANCH  41  42
ENDBRANCH  33  36
ENDBRANCH  31  32
ENDBRANCH  30  31
ENDBRANCH  29  30
ENDBRANCH   1  29
TORSDOF 17
ENDMDL
