MODEL 1
REMARK VINA RESULT:     -11.7      0.000      0.000
REMARK SMILES CC(C)C[C@H](NC(=O)[C@H](Cc1ccccc1)NC(=O)CNC(=O)C[NH3+])C(=O)NCCCCCCNC(=O)c1ccc(-c2c3nc(c(-c4c(F)c(F)c(F)c(F)c4F)c4ccc([nH]4)c(-c4c(F)c(F)c(F)c(F)c4F)c4nc(c(-c5c(F)c(F)c(F)c(F)c5F)c5ccc2[nH]5)C=C4)C=C3)cc1
REMARK SMILES IDX 29 1 28 2 26 3 27 4 5 6 4 7 2 8 1 9 3 10 6 11 7 12 8 14 9 15
REMARK SMILES IDX 17 16 18 17 19 19 20 20 21 21 22 22 23 24 24 25 25 26 10 30
REMARK SMILES IDX 11 31 12 32 16 33 13 34 15 35 14 36 30 37 31 38 32 39 33 40
REMARK SMILES IDX 34 41 35 42 36 43 37 45 38 46 39 47 100 48 40 49 99 50 41 51
REMARK SMILES IDX 42 52 43 53 93 54 44 55 98 56 92 57 94 58 45 59 97 60 91 61
REMARK SMILES IDX 90 62 46 64 78 65 58 66 77 67 59 68 62 69 76 70 95 71 60 72
REMARK SMILES IDX 61 73 75 75 96 76 63 77 47 78 48 79 56 80 49 81 50 82 54 83
REMARK SMILES IDX 57 84 51 85 52 86 55 87 53 88 79 89 80 90 88 91 81 92 82 93
REMARK SMILES IDX 86 94 89 95 83 96 84 97 87 98 85 99 64 100 65 101 73 102
REMARK SMILES IDX 66 103 67 104 71 105 74 106 68 107 69 108 72 109 70 110
REMARK H PARENT 28 5 6 13 17 18 21 23 25 27 25 28 25 29 35 44 94 63 62 74
REMARK Flexibility Score: inf
ROOT
ATOM      1  C   UNL A   1      32.859  27.601  26.824  1.00  0.00     0.116 C 
ENDROOT
BRANCH   1   2
ATOM      2  N   UNL A   1      33.743  28.175  25.838  1.00  0.00    -0.354 N 
ATOM      3  C   UNL A   1      34.104  27.711  24.611  1.00  0.00     0.242 C 
ATOM      4  O   UNL A   1      34.615  28.531  23.841  1.00  0.00    -0.273 OA
ATOM      5  H   UNL A   1      34.146  29.036  26.092  1.00  0.00     0.163 HD
BRANCH   3   6
ATOM      6  C   UNL A   1      33.822  26.272  24.126  1.00  0.00     0.171 C 
BRANCH   6   7
ATOM      7  C   UNL A   1      34.563  25.132  24.860  1.00  0.00     0.038 C 
BRANCH   7   8
ATOM      8  C   UNL A   1      35.239  24.031  24.022  1.00  0.00    -0.015 C 
ATOM      9  C   UNL A   1      36.564  23.578  24.647  1.00  0.00     0.007 C 
ATOM     10  C   UNL A   1      34.325  22.802  23.910  1.00  0.00     0.007 C 
ENDBRANCH   7   8
ENDBRANCH   6   7
BRANCH   6  11
ATOM     11  N   UNL A   1      33.818  26.100  22.673  1.00  0.00    -0.343 N 
ATOM     12  C   UNL A   1      32.818  26.089  21.750  1.00  0.00     0.243 C 
ATOM     13  H   UNL A   1      34.714  25.967  22.288  1.00  0.00     0.164 HD
ATOM     14  O   UNL A   1      33.205  26.059  20.573  1.00  0.00    -0.273 OA
BRANCH  12  15
ATOM     15  C   UNL A   1      31.294  26.138  22.078  1.00  0.00     0.175 C 
BRANCH  15  16
ATOM     16  N   UNL A   1      30.835  24.774  22.424  1.00  0.00    -0.342 N 
ATOM     17  C   UNL A   1      30.757  24.134  23.620  1.00  0.00     0.240 C 
ATOM     18  H   UNL A   1      30.535  24.238  21.655  1.00  0.00     0.164 HD
ATOM     19  O   UNL A   1      30.501  22.926  23.608  1.00  0.00    -0.273 OA
BRANCH  17  20
ATOM     20  C   UNL A   1      30.789  24.902  24.944  1.00  0.00     0.216 C 
BRANCH  20  21
ATOM     21  N   UNL A   1      30.015  24.328  26.032  1.00  0.00    -0.342 N 
ATOM     22  C   UNL A   1      30.392  23.347  26.904  1.00  0.00     0.275 C 
ATOM     23  H   UNL A   1      29.108  24.692  26.157  1.00  0.00     0.164 HD
ATOM     24  O   UNL A   1      29.561  22.918  27.707  1.00  0.00    -0.268 OA
BRANCH  22  25
ATOM     25  C   UNL A   1      31.812  22.773  26.834  1.00  0.00     0.360 C 
BRANCH  25  26
ATOM     26  N   UNL A   1      31.819  21.504  26.091  1.00  0.00    -0.350 N 
ATOM     27  H   UNL A   1      30.908  21.359  25.658  1.00  0.00     0.344 HD
ATOM     28  H   UNL A   1      32.016  20.735  26.732  1.00  0.00     0.344 HD
ATOM     29  H   UNL A   1      32.538  21.536  25.368  1.00  0.00     0.344 HD
ENDBRANCH  25  26
ENDBRANCH  22  25
ENDBRANCH  20  21
ENDBRANCH  17  20
ENDBRANCH  15  16
BRANCH  15  30
ATOM     30  C   UNL A   1      30.782  27.069  23.188  1.00  0.00     0.070 C 
BRANCH  30  31
ATOM     31  C   UNL A   1      29.766  28.139  22.846  1.00  0.00    -0.045 A 
ATOM     32  C   UNL A   1      28.399  28.063  23.144  1.00  0.00     0.004 A 
ATOM     33  C   UNL A   1      30.233  29.280  22.174  1.00  0.00     0.004 A 
ATOM     34  C   UNL A   1      27.531  29.104  22.814  1.00  0.00     0.000 A 
ATOM     35  C   UNL A   1      29.361  30.311  21.822  1.00  0.00     0.000 A 
ATOM     36  C   UNL A   1      28.011  30.225  22.148  1.00  0.00     0.000 A 
ENDBRANCH  30  31
ENDBRANCH  15  30
ENDBRANCH  12  15
ENDBRANCH   6  11
ENDBRANCH   3   6
ENDBRANCH   1   2
BRANCH   1  37
ATOM     37  C   UNL A   1      31.733  28.530  27.250  1.00  0.00     0.021 C 
BRANCH  37  38
ATOM     38  C   UNL A   1      32.079  30.023  27.243  1.00  0.00     0.002 C 
BRANCH  38  39
ATOM     39  C   UNL A   1      31.344  30.890  26.214  1.00  0.00     0.002 C 
BRANCH  39  40
ATOM     40  C   UNL A   1      31.317  32.395  26.492  1.00  0.00     0.021 C 
BRANCH  40  41
ATOM     41  C   UNL A   1      32.563  32.958  27.161  1.00  0.00     0.116 C 
BRANCH  41  42
ATOM     42  N   UNL A   1      32.371  34.305  27.665  1.00  0.00    -0.352 N 
ATOM     43  C   UNL A   1      33.031  34.953  28.679  1.00  0.00     0.251 C 
ATOM     44  H   UNL A   1      31.669  34.829  27.215  1.00  0.00     0.163 HD
ATOM     45  O   UNL A   1      32.646  36.048  29.067  1.00  0.00    -0.269 OA
BRANCH  43  46
ATOM     46  C   UNL A   1      34.196  34.308  29.321  1.00  0.00     0.039 A 
ATOM     47  C   UNL A   1      33.972  33.434  30.388  1.00  0.00     0.014 A 
ATOM     48  C   UNL A   1      35.498  34.563  28.881  1.00  0.00     0.014 A 
ATOM     49  C   UNL A   1      35.052  32.779  30.981  1.00  0.00     0.010 A 
ATOM     50  C   UNL A   1      36.563  33.848  29.418  1.00  0.00     0.010 A 
ATOM     51  C   UNL A   1      36.353  32.959  30.483  1.00  0.00    -0.014 A 
BRANCH  51  52
ATOM     52  C   UNL A   1      37.509  32.245  31.082  1.00  0.00     0.031 A 
ATOM     53  C   UNL A   1      38.007  32.638  32.446  1.00  0.00     0.074 A 
ATOM     54  C   UNL A   1      38.134  31.278  30.382  1.00  0.00     0.049 A 
ATOM     55  N   UNL A   1      39.042  32.189  33.111  1.00  0.00    -0.248 NA
ATOM     56  C   UNL A   1      37.258  33.693  33.146  1.00  0.00     0.031 C 
ATOM     57  C   UNL A   1      37.767  30.837  29.034  1.00  0.00     0.029 A 
ATOM     58  N   UNL A   1      39.217  30.498  30.702  1.00  0.00    -0.354 N 
ATOM     59  C   UNL A   1      39.067  32.907  34.299  1.00  0.00     0.074 A 
ATOM     60  C   UNL A   1      37.987  33.867  34.238  1.00  0.00     0.031 C 
ATOM     61  C   UNL A   1      38.597  29.854  28.652  1.00  0.00     0.029 A 
ATOM     62  C   UNL A   1      39.580  29.624  29.706  1.00  0.00     0.049 A 
ATOM     63  H   UNL A   1      39.688  30.559  31.564  1.00  0.00     0.167 HD
ATOM     64  C   UNL A   1      39.896  32.758  35.359  1.00  0.00     0.037 A 
ATOM     65  C   UNL A   1      40.601  28.747  29.647  1.00  0.00     0.037 A 
ATOM     66  C   UNL A   1      40.958  31.789  35.422  1.00  0.00     0.049 A 
ATOM     67  C   UNL A   1      41.525  28.623  30.831  1.00  0.00     0.074 A 
ATOM     68  C   UNL A   1      41.837  31.538  36.461  1.00  0.00     0.029 A 
ATOM     69  N   UNL A   1      41.284  30.908  34.401  1.00  0.00    -0.354 N 
ATOM     70  N   UNL A   1      41.504  29.270  31.971  1.00  0.00    -0.248 NA
ATOM     71  C   UNL A   1      42.612  27.639  30.722  1.00  0.00     0.031 C 
ATOM     72  C   UNL A   1      42.723  30.538  36.051  1.00  0.00     0.029 A 
ATOM     73  C   UNL A   1      42.359  30.122  34.781  1.00  0.00     0.049 A 
ATOM     74  H   UNL A   1      40.819  30.850  33.534  1.00  0.00     0.167 HD
ATOM     75  C   UNL A   1      42.543  28.744  32.728  1.00  0.00     0.074 A 
ATOM     76  C   UNL A   1      43.166  27.714  31.923  1.00  0.00     0.031 C 
ATOM     77  C   UNL A   1      42.950  29.085  33.976  1.00  0.00     0.037 A 
BRANCH  64  78
ATOM     78  C   UNL A   1      39.681  33.650  36.547  1.00  0.00     0.064 A 
ATOM     79  C   UNL A   1      40.248  34.933  36.610  1.00  0.00     0.173 A 
ATOM     80  C   UNL A   1      38.853  33.248  37.605  1.00  0.00     0.173 A 
ATOM     81  F   UNL A   1      41.059  35.362  35.630  1.00  0.00    -0.203 F 
ATOM     82  C   UNL A   1      40.009  35.770  37.696  1.00  0.00     0.198 A 
ATOM     83  C   UNL A   1      38.590  34.100  38.674  1.00  0.00     0.198 A 
ATOM     84  F   UNL A   1      38.283  32.033  37.593  1.00  0.00    -0.203 F 
ATOM     85  F   UNL A   1      40.595  36.974  37.753  1.00  0.00    -0.200 F 
ATOM     86  C   UNL A   1      39.172  35.358  38.721  1.00  0.00     0.200 A 
ATOM     87  F   UNL A   1      37.768  33.705  39.656  1.00  0.00    -0.200 F 
ATOM     88  F   UNL A   1      38.928  36.172  39.758  1.00  0.00    -0.200 F 
ENDBRANCH  64  78
BRANCH  65  89
ATOM     89  C   UNL A   1      40.810  27.913  28.432  1.00  0.00     0.064 A 
ATOM     90  C   UNL A   1      41.563  28.386  27.348  1.00  0.00     0.173 A 
ATOM     91  C   UNL A   1      40.223  26.643  28.311  1.00  0.00     0.173 A 
ATOM     92  F   UNL A   1      42.130  29.600  27.406  1.00  0.00    -0.203 F 
ATOM     93  C   UNL A   1      41.684  27.644  26.175  1.00  0.00     0.198 A 
ATOM     94  C   UNL A   1      40.377  25.886  27.151  1.00  0.00     0.198 A 
ATOM     95  F   UNL A   1      39.500  26.137  29.320  1.00  0.00    -0.203 F 
ATOM     96  F   UNL A   1      42.348  28.154  25.129  1.00  0.00    -0.200 F 
ATOM     97  C   UNL A   1      41.094  26.393  26.079  1.00  0.00     0.200 A 
ATOM     98  F   UNL A   1      39.820  24.670  27.070  1.00  0.00    -0.200 F 
ATOM     99  F   UNL A   1      41.204  25.682  24.948  1.00  0.00    -0.200 F 
ENDBRANCH  65  89
BRANCH  77 100
ATOM    100  C   UNL A   1      44.081  28.298  34.572  1.00  0.00     0.064 A 
ATOM    101  C   UNL A   1      45.416  28.715  34.456  1.00  0.00     0.173 A 
ATOM    102  C   UNL A   1      43.820  27.131  35.307  1.00  0.00     0.173 A 
ATOM    103  F   UNL A   1      45.721  29.816  33.753  1.00  0.00    -0.203 F 
ATOM    104  C   UNL A   1      46.448  27.974  35.025  1.00  0.00     0.198 A 
ATOM    105  C   UNL A   1      44.851  26.413  35.905  1.00  0.00     0.198 A 
ATOM    106  F   UNL A   1      42.560  26.694  35.456  1.00  0.00    -0.203 F 
ATOM    107  F   UNL A   1      47.720  28.360  34.854  1.00  0.00    -0.200 F 
ATOM    108  C   UNL A   1      46.165  26.830  35.756  1.00  0.00     0.200 A 
ATOM    109  F   UNL A   1      44.573  25.319  36.626  1.00  0.00    -0.200 F 
ATOM    110  F   UNL A   1      47.159  26.124  36.310  1.00  0.00    -0.200 F 
ENDBRANCH  77 100
ENDBRANCH  51  52
ENDBRANCH  43  46
ENDBRANCH  41  42
ENDBRANCH  40  41
ENDBRANCH  39  40
ENDBRANCH  38  39
ENDBRANCH  37  38
ENDBRANCH   1  37
TORSDOF 24
ENDMDL
MODEL 2
REMARK VINA RESULT:     -11.6      0.477      6.932
REMARK SMILES CC(C)C[C@H](NC(=O)[C@H](Cc1ccccc1)NC(=O)CNC(=O)C[NH3+])C(=O)NCCCCCCNC(=O)c1ccc(-c2c3nc(c(-c4c(F)c(F)c(F)c(F)c4F)c4ccc([nH]4)c(-c4c(F)c(F)c(F)c(F)c4F)c4nc(c(-c5c(F)c(F)c(F)c(F)c5F)c5ccc2[nH]5)C=C4)C=C3)cc1
REMARK SMILES IDX 29 1 28 2 26 3 27 4 5 6 4 7 2 8 1 9 3 10 6 11 7 12 8 14 9 15
REMARK SMILES IDX 17 16 18 17 19 19 20 20 21 21 22 22 23 24 24 25 25 26 10 30
REMARK SMILES IDX 11 31 12 32 16 33 13 34 15 35 14 36 30 37 31 38 32 39 33 40
REMARK SMILES IDX 34 41 35 42 36 43 37 45 38 46 39 47 100 48 40 49 99 50 41 51
REMARK SMILES IDX 42 52 43 53 93 54 44 55 98 56 92 57 94 58 45 59 97 60 91 61
REMARK SMILES IDX 90 62 46 64 78 65 58 66 77 67 59 68 62 69 76 70 95 71 60 72
REMARK SMILES IDX 61 73 75 75 96 76 63 77 47 78 48 79 56 80 49 81 50 82 54 83
REMARK SMILES IDX 57 84 51 85 52 86 55 87 53 88 79 89 80 90 88 91 81 92 82 93
REMARK SMILES IDX 86 94 89 95 83 96 84 97 87 98 85 99 64 100 65 101 73 102
REMARK SMILES IDX 66 103 67 104 71 105 74 106 68 107 69 108 72 109 70 110
REMARK H PARENT 28 5 6 13 17 18 21 23 25 27 25 28 25 29 35 44 94 63 62 74
REMARK Flexibility Score: inf
ROOT
ATOM      1  C   UNL A   1      32.779  27.502  26.850  1.00  0.00     0.116 C 
ENDROOT
BRANCH   1   2
ATOM      2  N   UNL A   1      33.727  28.064  25.919  1.00  0.00    -0.354 N 
ATOM      3  C   UNL A   1      34.133  27.610  24.703  1.00  0.00     0.242 C 
ATOM      4  O   UNL A   1      34.707  28.427  23.974  1.00  0.00    -0.273 OA
ATOM      5  H   UNL A   1      34.144  28.908  26.208  1.00  0.00     0.163 HD
BRANCH   3   6
ATOM      6  C   UNL A   1      33.831  26.190  24.177  1.00  0.00     0.171 C 
BRANCH   6   7
ATOM      7  C   UNL A   1      34.528  25.016  24.903  1.00  0.00     0.038 C 
BRANCH   7   8
ATOM      8  C   UNL A   1      35.380  24.037  24.073  1.00  0.00    -0.015 C 
ATOM      9  C   UNL A   1      36.688  23.682  24.789  1.00  0.00     0.007 C 
ATOM     10  C   UNL A   1      34.609  22.733  23.822  1.00  0.00     0.007 C 
ENDBRANCH   7   8
ENDBRANCH   6   7
BRANCH   6  11
ATOM     11  N   UNL A   1      33.859  26.051  22.721  1.00  0.00    -0.343 N 
ATOM     12  C   UNL A   1      32.883  26.087  21.774  1.00  0.00     0.243 C 
ATOM     13  H   UNL A   1      34.761  25.903  22.355  1.00  0.00     0.164 HD
ATOM     14  O   UNL A   1      33.299  26.073  20.606  1.00  0.00    -0.273 OA
BRANCH  12  15
ATOM     15  C   UNL A   1      31.353  26.168  22.065  1.00  0.00     0.175 C 
BRANCH  15  16
ATOM     16  N   UNL A   1      30.854  24.814  22.389  1.00  0.00    -0.342 N 
ATOM     17  C   UNL A   1      30.749  24.159  23.575  1.00  0.00     0.240 C 
ATOM     18  H   UNL A   1      30.546  24.296  21.611  1.00  0.00     0.164 HD
ATOM     19  O   UNL A   1      30.461  22.959  23.545  1.00  0.00    -0.273 OA
BRANCH  17  20
ATOM     20  C   UNL A   1      30.792  24.909  24.910  1.00  0.00     0.216 C 
BRANCH  20  21
ATOM     21  N   UNL A   1      30.010  24.331  25.990  1.00  0.00    -0.342 N 
ATOM     22  C   UNL A   1      30.385  23.354  26.870  1.00  0.00     0.275 C 
ATOM     23  H   UNL A   1      29.099  24.687  26.103  1.00  0.00     0.164 HD
ATOM     24  O   UNL A   1      29.549  22.921  27.663  1.00  0.00    -0.268 OA
BRANCH  22  25
ATOM     25  C   UNL A   1      31.811  22.794  26.818  1.00  0.00     0.360 C 
BRANCH  25  26
ATOM     26  N   UNL A   1      31.860  21.585  25.982  1.00  0.00    -0.350 N 
ATOM     27  H   UNL A   1      32.730  21.574  25.451  1.00  0.00     0.344 HD
ATOM     28  H   UNL A   1      31.069  21.585  25.338  1.00  0.00     0.344 HD
ATOM     29  H   UNL A   1      31.814  20.758  26.577  1.00  0.00     0.344 HD
ENDBRANCH  25  26
ENDBRANCH  22  25
ENDBRANCH  20  21
ENDBRANCH  17  20
ENDBRANCH  15  16
BRANCH  15  30
ATOM     30  C   UNL A   1      30.836  27.103  23.169  1.00  0.00     0.070 C 
BRANCH  30  31
ATOM     31  C   UNL A   1      29.854  28.200  22.811  1.00  0.00    -0.045 A 
ATOM     32  C   UNL A   1      30.190  29.376  22.127  1.00  0.00     0.004 A 
ATOM     33  C   UNL A   1      28.518  28.022  23.203  1.00  0.00     0.004 A 
ATOM     34  C   UNL A   1      29.220  30.329  21.815  1.00  0.00     0.000 A 
ATOM     35  C   UNL A   1      27.552  28.987  22.912  1.00  0.00     0.000 A 
ATOM     36  C   UNL A   1      27.903  30.137  22.212  1.00  0.00     0.000 A 
ENDBRANCH  30  31
ENDBRANCH  15  30
ENDBRANCH  12  15
ENDBRANCH   6  11
ENDBRANCH   3   6
ENDBRANCH   1   2
BRANCH   1  37
ATOM     37  C   UNL A   1      31.659  28.456  27.232  1.00  0.00     0.021 C 
BRANCH  37  38
ATOM     38  C   UNL A   1      32.046  29.938  27.270  1.00  0.00     0.002 C 
BRANCH  38  39
ATOM     39  C   UNL A   1      31.441  30.831  26.180  1.00  0.00     0.002 C 
BRANCH  39  40
ATOM     40  C   UNL A   1      31.326  32.321  26.511  1.00  0.00     0.021 C 
BRANCH  40  41
ATOM     41  C   UNL A   1      32.507  32.916  27.265  1.00  0.00     0.116 C 
BRANCH  41  42
ATOM     42  N   UNL A   1      32.297  34.302  27.636  1.00  0.00    -0.352 N 
ATOM     43  C   UNL A   1      32.951  35.055  28.580  1.00  0.00     0.251 C 
ATOM     44  H   UNL A   1      31.586  34.770  27.141  1.00  0.00     0.163 HD
ATOM     45  O   UNL A   1      32.551  36.177  28.862  1.00  0.00    -0.269 OA
BRANCH  43  46
ATOM     46  C   UNL A   1      34.126  34.492  29.277  1.00  0.00     0.039 A 
ATOM     47  C   UNL A   1      33.932  33.841  30.498  1.00  0.00     0.014 A 
ATOM     48  C   UNL A   1      35.411  34.607  28.737  1.00  0.00     0.014 A 
ATOM     49  C   UNL A   1      35.020  33.263  31.152  1.00  0.00     0.010 A 
ATOM     50  C   UNL A   1      36.479  33.960  29.349  1.00  0.00     0.010 A 
ATOM     51  C   UNL A   1      36.297  33.294  30.570  1.00  0.00    -0.014 A 
BRANCH  51  52
ATOM     52  C   UNL A   1      37.460  32.655  31.238  1.00  0.00     0.031 A 
ATOM     53  C   UNL A   1      38.165  31.504  30.574  1.00  0.00     0.074 A 
ATOM     54  C   UNL A   1      37.850  33.081  32.455  1.00  0.00     0.049 A 
ATOM     55  N   UNL A   1      39.149  30.766  31.022  1.00  0.00    -0.248 NA
ATOM     56  C   UNL A   1      37.682  31.111  29.240  1.00  0.00     0.031 C 
ATOM     57  C   UNL A   1      37.221  34.163  33.215  1.00  0.00     0.029 A 
ATOM     58  N   UNL A   1      38.865  32.649  33.272  1.00  0.00    -0.354 N 
ATOM     59  C   UNL A   1      39.399  29.827  30.029  1.00  0.00     0.074 A 
ATOM     60  C   UNL A   1      38.421  30.042  28.986  1.00  0.00     0.031 C 
ATOM     61  C   UNL A   1      37.874  34.322  34.378  1.00  0.00     0.029 A 
ATOM     62  C   UNL A   1      38.939  33.328  34.465  1.00  0.00     0.049 A 
ATOM     63  H   UNL A   1      39.481  31.922  33.027  1.00  0.00     0.167 HD
ATOM     64  C   UNL A   1      40.375  28.891  29.979  1.00  0.00     0.037 A 
ATOM     65  C   UNL A   1      39.765  33.156  35.515  1.00  0.00     0.037 A 
ATOM     66  C   UNL A   1      41.357  28.692  31.012  1.00  0.00     0.049 A 
ATOM     67  C   UNL A   1      40.824  32.086  35.441  1.00  0.00     0.074 A 
ATOM     68  C   UNL A   1      42.405  27.789  31.045  1.00  0.00     0.029 A 
ATOM     69  N   UNL A   1      41.411  29.411  32.197  1.00  0.00    -0.354 N 
ATOM     70  N   UNL A   1      41.085  31.242  34.473  1.00  0.00    -0.248 NA
ATOM     71  C   UNL A   1      41.711  31.952  36.606  1.00  0.00     0.031 C 
ATOM     72  C   UNL A   1      43.065  27.930  32.269  1.00  0.00     0.029 A 
ATOM     73  C   UNL A   1      42.467  28.963  32.974  1.00  0.00     0.049 A 
ATOM     74  H   UNL A   1      40.791  30.134  32.449  1.00  0.00     0.167 HD
ATOM     75  C   UNL A   1      42.186  30.507  34.893  1.00  0.00     0.074 A 
ATOM     76  C   UNL A   1      42.554  31.016  36.197  1.00  0.00     0.031 C 
ATOM     77  C   UNL A   1      42.834  29.498  34.258  1.00  0.00     0.037 A 
BRANCH  64  78
ATOM     78  C   UNL A   1      40.445  28.017  28.760  1.00  0.00     0.064 A 
ATOM     79  C   UNL A   1      41.211  28.381  27.642  1.00  0.00     0.173 A 
ATOM     80  C   UNL A   1      39.792  26.776  28.730  1.00  0.00     0.173 A 
ATOM     81  F   UNL A   1      41.845  29.564  27.614  1.00  0.00    -0.203 F 
ATOM     82  C   UNL A   1      41.305  27.545  26.533  1.00  0.00     0.198 A 
ATOM     83  C   UNL A   1      39.915  25.927  27.633  1.00  0.00     0.198 A 
ATOM     84  F   UNL A   1      39.050  26.377  29.774  1.00  0.00    -0.203 F 
ATOM     85  F   UNL A   1      42.009  27.933  25.461  1.00  0.00    -0.200 F 
ATOM     86  C   UNL A   1      40.666  26.314  26.533  1.00  0.00     0.200 A 
ATOM     87  F   UNL A   1      39.309  24.732  27.641  1.00  0.00    -0.200 F 
ATOM     88  F   UNL A   1      40.772  25.502  25.472  1.00  0.00    -0.200 F 
ENDBRANCH  64  78
BRANCH  65  89
ATOM     89  C   UNL A   1      39.635  34.011  36.726  1.00  0.00     0.064 A 
ATOM     90  C   UNL A   1      40.289  35.248  36.813  1.00  0.00     0.173 A 
ATOM     91  C   UNL A   1      38.891  33.588  37.838  1.00  0.00     0.173 A 
ATOM     92  F   UNL A   1      41.027  35.690  35.784  1.00  0.00    -0.203 F 
ATOM     93  C   UNL A   1      40.241  36.009  37.980  1.00  0.00     0.198 A 
ATOM     94  C   UNL A   1      38.813  34.368  38.991  1.00  0.00     0.198 A 
ATOM     95  F   UNL A   1      38.238  32.418  37.807  1.00  0.00    -0.203 F 
ATOM     96  F   UNL A   1      40.936  37.152  38.061  1.00  0.00    -0.200 F 
ATOM     97  C   UNL A   1      39.501  35.569  39.067  1.00  0.00     0.200 A 
ATOM     98  F   UNL A   1      38.082  33.947  40.032  1.00  0.00    -0.200 F 
ATOM     99  F   UNL A   1      39.461  36.296  40.192  1.00  0.00    -0.200 F 
ENDBRANCH  65  89
BRANCH  77 100
ATOM    100  C   UNL A   1      44.042  28.919  34.936  1.00  0.00     0.064 A 
ATOM    101  C   UNL A   1      43.945  27.847  35.836  1.00  0.00     0.173 A 
ATOM    102  C   UNL A   1      45.321  29.420  34.647  1.00  0.00     0.173 A 
ATOM    103  F   UNL A   1      42.745  27.341  36.157  1.00  0.00    -0.203 F 
ATOM    104  C   UNL A   1      45.081  27.321  36.446  1.00  0.00     0.198 A 
ATOM    105  C   UNL A   1      46.457  28.867  35.230  1.00  0.00     0.198 A 
ATOM    106  F   UNL A   1      45.471  30.438  33.786  1.00  0.00    -0.203 F 
ATOM    107  F   UNL A   1      44.959  26.335  37.345  1.00  0.00    -0.200 F 
ATOM    108  C   UNL A   1      46.335  27.824  36.136  1.00  0.00     0.200 A 
ATOM    109  F   UNL A   1      47.669  29.343  34.916  1.00  0.00    -0.200 F 
ATOM    110  F   UNL A   1      47.427  27.310  36.718  1.00  0.00    -0.200 F 
ENDBRANCH  77 100
ENDBRANCH  51  52
ENDBRANCH  43  46
ENDBRANCH  41  42
ENDBRANCH  40  41
ENDBRANCH  39  40
ENDBRANCH  38  39
ENDBRANCH  37  38
ENDBRANCH   1  37
TORSDOF 24
ENDMDL
MODEL 3
REMARK VINA RESULT:     -11.5      1.266      3.413
REMARK SMILES CC(C)C[C@H](NC(=O)[C@H](Cc1ccccc1)NC(=O)CNC(=O)C[NH3+])C(=O)NCCCCCCNC(=O)c1ccc(-c2c3nc(c(-c4c(F)c(F)c(F)c(F)c4F)c4ccc([nH]4)c(-c4c(F)c(F)c(F)c(F)c4F)c4nc(c(-c5c(F)c(F)c(F)c(F)c5F)c5ccc2[nH]5)C=C4)C=C3)cc1
REMARK SMILES IDX 29 1 28 2 26 3 27 4 5 6 4 7 2 8 1 9 3 10 6 11 7 12 8 14 9 15
REMARK SMILES IDX 17 16 18 17 19 19 20 20 21 21 22 22 23 24 24 25 25 26 10 30
REMARK SMILES IDX 11 31 12 32 16 33 13 34 15 35 14 36 30 37 31 38 32 39 33 40
REMARK SMILES IDX 34 41 35 42 36 43 37 45 38 46 39 47 100 48 40 49 99 50 41 51
REMARK SMILES IDX 42 52 43 53 93 54 44 55 98 56 92 57 94 58 45 59 97 60 91 61
REMARK SMILES IDX 90 62 46 64 78 65 58 66 77 67 59 68 62 69 76 70 95 71 60 72
REMARK SMILES IDX 61 73 75 75 96 76 63 77 47 78 48 79 56 80 49 81 50 82 54 83
REMARK SMILES IDX 57 84 51 85 52 86 55 87 53 88 79 89 80 90 88 91 81 92 82 93
REMARK SMILES IDX 86 94 89 95 83 96 84 97 87 98 85 99 64 100 65 101 73 102
REMARK SMILES IDX 66 103 67 104 71 105 74 106 68 107 69 108 72 109 70 110
REMARK H PARENT 28 5 6 13 17 18 21 23 25 27 25 28 25 29 35 44 94 63 62 74
REMARK Flexibility Score: inf
ROOT
ATOM      1  C   UNL A   1      33.609  27.634  26.491  1.00  0.00     0.116 C 
ENDROOT
BRANCH   1   2
ATOM      2  N   UNL A   1      33.864  27.872  25.091  1.00  0.00    -0.354 N 
ATOM      3  C   UNL A   1      33.897  27.001  24.047  1.00  0.00     0.242 C 
ATOM      4  O   UNL A   1      33.823  27.494  22.916  1.00  0.00    -0.273 OA
ATOM      5  H   UNL A   1      34.041  28.811  24.855  1.00  0.00     0.163 HD
BRANCH   3   6
ATOM      6  C   UNL A   1      33.926  25.466  24.216  1.00  0.00     0.171 C 
BRANCH   6   7
ATOM      7  C   UNL A   1      35.317  24.794  24.240  1.00  0.00     0.038 C 
BRANCH   7   8
ATOM      8  C   UNL A   1      35.484  23.469  25.008  1.00  0.00    -0.015 C 
ATOM      9  C   UNL A   1      35.756  22.297  24.058  1.00  0.00     0.007 C 
ATOM     10  C   UNL A   1      36.659  23.562  25.992  1.00  0.00     0.007 C 
ENDBRANCH   7   8
ENDBRANCH   6   7
BRANCH   6  11
ATOM     11  N   UNL A   1      32.959  24.736  23.396  1.00  0.00    -0.343 N 
ATOM     12  C   UNL A   1      31.632  24.477  23.547  1.00  0.00     0.243 C 
ATOM     13  H   UNL A   1      33.345  24.358  22.572  1.00  0.00     0.164 HD
ATOM     14  O   UNL A   1      31.097  23.940  22.567  1.00  0.00    -0.273 OA
BRANCH  12  15
ATOM     15  C   UNL A   1      30.788  24.829  24.811  1.00  0.00     0.175 C 
BRANCH  15  16
ATOM     16  N   UNL A   1      29.468  25.338  24.379  1.00  0.00    -0.342 N 
ATOM     17  C   UNL A   1      29.036  26.600  24.121  1.00  0.00     0.240 C 
ATOM     18  H   UNL A   1      28.783  24.641  24.259  1.00  0.00     0.164 HD
ATOM     19  O   UNL A   1      27.826  26.768  23.946  1.00  0.00    -0.273 OA
BRANCH  17  20
ATOM     20  C   UNL A   1      30.020  27.746  23.863  1.00  0.00     0.216 C 
BRANCH  20  21
ATOM     21  N   UNL A   1      29.908  28.401  22.570  1.00  0.00    -0.342 N 
ATOM     22  C   UNL A   1      29.393  29.637  22.298  1.00  0.00     0.275 C 
ATOM     23  H   UNL A   1      30.245  27.894  21.797  1.00  0.00     0.164 HD
ATOM     24  O   UNL A   1      29.293  29.989  21.121  1.00  0.00    -0.268 OA
BRANCH  22  25
ATOM     25  C   UNL A   1      28.912  30.530  23.448  1.00  0.00     0.360 C 
BRANCH  25  26
ATOM     26  N   UNL A   1      29.245  31.937  23.182  1.00  0.00    -0.350 N 
ATOM     27  H   UNL A   1      29.799  32.306  23.954  1.00  0.00     0.344 HD
ATOM     28  H   UNL A   1      28.386  32.479  23.091  1.00  0.00     0.344 HD
ATOM     29  H   UNL A   1      29.781  32.002  22.316  1.00  0.00     0.344 HD
ENDBRANCH  25  26
ENDBRANCH  22  25
ENDBRANCH  20  21
ENDBRANCH  17  20
ENDBRANCH  15  16
BRANCH  15  30
ATOM     30  C   UNL A   1      30.518  23.750  25.872  1.00  0.00     0.070 C 
BRANCH  30  31
ATOM     31  C   UNL A   1      31.605  22.748  26.202  1.00  0.00    -0.045 A 
ATOM     32  C   UNL A   1      31.850  21.572  25.479  1.00  0.00     0.004 A 
ATOM     33  C   UNL A   1      32.414  23.019  27.316  1.00  0.00     0.004 A 
ATOM     34  C   UNL A   1      32.887  20.711  25.837  1.00  0.00     0.000 A 
ATOM     35  C   UNL A   1      33.437  22.145  27.688  1.00  0.00     0.000 A 
ATOM     36  C   UNL A   1      33.677  20.994  26.944  1.00  0.00     0.000 A 
ENDBRANCH  30  31
ENDBRANCH  15  30
ENDBRANCH  12  15
ENDBRANCH   6  11
ENDBRANCH   3   6
ENDBRANCH   1   2
BRANCH   1  37
ATOM     37  C   UNL A   1      32.699  28.671  27.131  1.00  0.00     0.021 C 
BRANCH  37  38
ATOM     38  C   UNL A   1      32.807  30.084  26.550  1.00  0.00     0.002 C 
BRANCH  38  39
ATOM     39  C   UNL A   1      31.489  30.775  26.180  1.00  0.00     0.002 C 
BRANCH  39  40
ATOM     40  C   UNL A   1      31.324  32.220  26.658  1.00  0.00     0.021 C 
BRANCH  40  41
ATOM     41  C   UNL A   1      32.613  32.933  27.037  1.00  0.00     0.116 C 
BRANCH  41  42
ATOM     42  N   UNL A   1      32.383  34.253  27.593  1.00  0.00    -0.352 N 
ATOM     43  C   UNL A   1      33.017  34.875  28.639  1.00  0.00     0.251 C 
ATOM     44  H   UNL A   1      31.672  34.777  27.158  1.00  0.00     0.163 HD
ATOM     45  O   UNL A   1      32.601  35.943  29.069  1.00  0.00    -0.269 OA
BRANCH  43  46
ATOM     46  C   UNL A   1      34.192  34.234  29.266  1.00  0.00     0.039 A 
ATOM     47  C   UNL A   1      33.982  33.305  30.289  1.00  0.00     0.014 A 
ATOM     48  C   UNL A   1      35.492  34.545  28.855  1.00  0.00     0.014 A 
ATOM     49  C   UNL A   1      35.073  32.654  30.865  1.00  0.00     0.010 A 
ATOM     50  C   UNL A   1      36.570  33.837  29.373  1.00  0.00     0.010 A 
ATOM     51  C   UNL A   1      36.373  32.894  30.393  1.00  0.00    -0.014 A 
BRANCH  51  52
ATOM     52  C   UNL A   1      37.542  32.185  30.972  1.00  0.00     0.031 A 
ATOM     53  C   UNL A   1      38.058  32.577  32.330  1.00  0.00     0.074 A 
ATOM     54  C   UNL A   1      38.162  31.223  30.261  1.00  0.00     0.049 A 
ATOM     55  N   UNL A   1      39.105  32.133  32.978  1.00  0.00    -0.248 NA
ATOM     56  C   UNL A   1      37.314  33.627  33.044  1.00  0.00     0.031 C 
ATOM     57  C   UNL A   1      37.778  30.782  28.919  1.00  0.00     0.029 A 
ATOM     58  N   UNL A   1      39.254  30.448  30.564  1.00  0.00    -0.354 N 
ATOM     59  C   UNL A   1      39.144  32.849  34.168  1.00  0.00     0.074 A 
ATOM     60  C   UNL A   1      38.058  33.803  34.125  1.00  0.00     0.031 C 
ATOM     61  C   UNL A   1      38.608  29.805  28.522  1.00  0.00     0.029 A 
ATOM     62  C   UNL A   1      39.608  29.578  29.560  1.00  0.00     0.049 A 
ATOM     63  H   UNL A   1      39.738  30.510  31.419  1.00  0.00     0.167 HD
ATOM     64  C   UNL A   1      39.989  32.703  35.215  1.00  0.00     0.037 A 
ATOM     65  C   UNL A   1      40.633  28.707  29.484  1.00  0.00     0.037 A 
ATOM     66  C   UNL A   1      41.058  31.739  35.260  1.00  0.00     0.049 A 
ATOM     67  C   UNL A   1      41.575  28.586  30.655  1.00  0.00     0.074 A 
ATOM     68  C   UNL A   1      41.953  31.492  36.285  1.00  0.00     0.029 A 
ATOM     69  N   UNL A   1      41.373  30.863  34.232  1.00  0.00    -0.354 N 
ATOM     70  N   UNL A   1      41.567  29.231  31.796  1.00  0.00    -0.248 NA
ATOM     71  C   UNL A   1      42.665  27.609  30.528  1.00  0.00     0.031 C 
ATOM     72  C   UNL A   1      42.840  30.498  35.860  1.00  0.00     0.029 A 
ATOM     73  C   UNL A   1      42.459  30.082  34.594  1.00  0.00     0.049 A 
ATOM     74  H   UNL A   1      40.896  30.804  33.373  1.00  0.00     0.167 HD
ATOM     75  C   UNL A   1      42.620  28.709  32.536  1.00  0.00     0.074 A 
ATOM     76  C   UNL A   1      43.237  27.685  31.720  1.00  0.00     0.031 C 
ATOM     77  C   UNL A   1      43.043  29.050  33.779  1.00  0.00     0.037 A 
BRANCH  64  78
ATOM     78  C   UNL A   1      39.788  33.591  36.408  1.00  0.00     0.064 A 
ATOM     79  C   UNL A   1      40.427  34.837  36.508  1.00  0.00     0.173 A 
ATOM     80  C   UNL A   1      38.901  33.226  37.431  1.00  0.00     0.173 A 
ATOM     81  F   UNL A   1      41.295  35.229  35.563  1.00  0.00    -0.203 F 
ATOM     82  C   UNL A   1      40.200  35.673  37.598  1.00  0.00     0.198 A 
ATOM     83  C   UNL A   1      38.652  34.079  38.503  1.00  0.00     0.198 A 
ATOM     84  F   UNL A   1      38.261  32.048  37.382  1.00  0.00    -0.203 F 
ATOM     85  F   UNL A   1      40.855  36.839  37.692  1.00  0.00    -0.200 F 
ATOM     86  C   UNL A   1      39.306  35.299  38.588  1.00  0.00     0.200 A 
ATOM     87  F   UNL A   1      37.775  33.722  39.452  1.00  0.00    -0.200 F 
ATOM     88  F   UNL A   1      39.076  36.113  39.628  1.00  0.00    -0.200 F 
ENDBRANCH  64  78
BRANCH  65  89
ATOM     89  C   UNL A   1      40.828  27.877  28.265  1.00  0.00     0.064 A 
ATOM     90  C   UNL A   1      40.264  26.597  28.161  1.00  0.00     0.173 A 
ATOM     91  C   UNL A   1      41.621  28.326  27.198  1.00  0.00     0.173 A 
ATOM     92  F   UNL A   1      39.513  26.113  29.162  1.00  0.00    -0.203 F 
ATOM     93  C   UNL A   1      40.520  25.783  27.060  1.00  0.00     0.198 A 
ATOM     94  C   UNL A   1      41.845  27.525  26.079  1.00  0.00     0.198 A 
ATOM     95  F   UNL A   1      42.177  29.545  27.239  1.00  0.00    -0.203 F 
ATOM     96  F   UNL A   1      40.028  24.537  27.022  1.00  0.00    -0.200 F 
ATOM     97  C   UNL A   1      41.308  26.249  26.018  1.00  0.00     0.200 A 
ATOM     98  F   UNL A   1      42.592  27.987  25.067  1.00  0.00    -0.200 F 
ATOM     99  F   UNL A   1      41.561  25.463  24.962  1.00  0.00    -0.200 F 
ENDBRANCH  65  89
BRANCH  77 100
ATOM    100  C   UNL A   1      44.188  28.269  34.357  1.00  0.00     0.064 A 
ATOM    101  C   UNL A   1      45.500  28.766  34.357  1.00  0.00     0.173 A 
ATOM    102  C   UNL A   1      43.960  27.021  34.957  1.00  0.00     0.173 A 
ATOM    103  F   UNL A   1      45.775  29.948  33.784  1.00  0.00    -0.203 F 
ATOM    104  C   UNL A   1      46.544  28.028  34.906  1.00  0.00     0.198 A 
ATOM    105  C   UNL A   1      45.000  26.302  35.537  1.00  0.00     0.198 A 
ATOM    106  F   UNL A   1      42.722  26.503  34.991  1.00  0.00    -0.203 F 
ATOM    107  F   UNL A   1      47.798  28.497  34.845  1.00  0.00    -0.200 F 
ATOM    108  C   UNL A   1      46.293  26.802  35.504  1.00  0.00     0.200 A 
ATOM    109  F   UNL A   1      44.752  25.127  36.130  1.00  0.00    -0.200 F 
ATOM    110  F   UNL A   1      47.299  26.098  36.040  1.00  0.00    -0.200 F 
ENDBRANCH  77 100
ENDBRANCH  51  52
ENDBRANCH  43  46
ENDBRANCH  41  42
ENDBRANCH  40  41
ENDBRANCH  39  40
ENDBRANCH  38  39
ENDBRANCH  37  38
ENDBRANCH   1  37
TORSDOF 24
ENDMDL
