MODEL 1
REMARK VINA RESULT:     -12.7      0.000      0.000
REMARK SMILES Cc1cc([N+](=O)[O-])c(-c2ccc(C(=O)NCCCCCCNC(=O)c3ccc(-c4c5nc(c(-c6c(F)c(F)c(F)c(F)c6F)c6ccc([nH]6)c(-c6c(F)c(F)c(F)c(F)c6F)c6nc(c(-c7c(F)c(F)c(F)c(F)c7F)c7ccc4[nH]7)C=C6)C=C5)cc3)o2)cc1Cl
REMARK SMILES IDX 18 1 17 2 16 3 15 4 13 5 14 6 12 8 9 9 10 10 88 11 11 12
REMARK SMILES IDX 8 13 1 14 2 15 3 16 90 17 4 18 89 19 91 20 5 21 6 22 7 23
REMARK SMILES IDX 19 24 20 25 21 26 22 27 23 28 24 30 25 31 26 32 87 33 27 34
REMARK SMILES IDX 86 35 28 36 29 37 30 38 80 39 31 40 85 41 79 42 81 43 32 44
REMARK SMILES IDX 84 45 78 46 77 47 33 49 65 50 45 51 64 52 46 53 49 54 63 55
REMARK SMILES IDX 82 56 47 57 48 58 62 60 83 61 50 62 34 63 35 64 43 65 36 66
REMARK SMILES IDX 37 67 41 68 44 69 38 70 39 71 42 72 40 73 66 74 67 75 75 76
REMARK SMILES IDX 68 77 69 78 73 79 76 80 70 81 71 82 74 83 72 84 51 85 52 86
REMARK SMILES IDX 60 87 53 88 54 89 58 90 61 91 55 92 56 93 59 94 57 95
REMARK H PARENT 15 7 22 29 81 48 49 59
REMARK Flexibility Score: inf
ROOT
ATOM      1  C   UNL A   1      32.792  29.959  27.237  1.00  0.00     0.002 C 
ENDROOT
BRANCH   1   2
ATOM      2  C   UNL A   1      32.835  28.426  27.157  1.00  0.00     0.021 C 
BRANCH   2   3
ATOM      3  C   UNL A   1      33.913  27.897  26.210  1.00  0.00     0.116 C 
BRANCH   3   4
ATOM      4  N   UNL A   1      33.744  28.445  24.881  1.00  0.00    -0.349 N 
ATOM      5  C   UNL A   1      32.788  28.215  23.918  1.00  0.00     0.287 C 
ATOM      6  O   UNL A   1      32.885  28.899  22.896  1.00  0.00    -0.266 OA
ATOM      7  H   UNL A   1      34.434  29.096  24.620  1.00  0.00     0.163 HD
BRANCH   5   8
ATOM      8  C   UNL A   1      31.733  27.237  24.115  1.00  0.00     0.192 A 
ATOM      9  C   UNL A   1      30.999  25.160  24.289  1.00  0.00     0.142 A 
ATOM     10  C   UNL A   1      29.887  25.962  24.383  1.00  0.00     0.052 A 
ATOM     11  O   UNL A   1      32.118  25.914  24.150  1.00  0.00    -0.451 OA
ATOM     12  C   UNL A   1      30.363  27.294  24.318  1.00  0.00     0.057 A 
BRANCH   9  13
ATOM     13  C   UNL A   1      31.199  23.726  24.371  1.00  0.00     0.096 A 
ATOM     14  C   UNL A   1      32.486  19.582  24.430  1.00  0.00     0.046 C 
ATOM     15  C   UNL A   1      31.983  20.998  24.389  1.00  0.00    -0.026 A 
ATOM     16  C   UNL A   1      31.695  21.666  25.590  1.00  0.00     0.091 A 
ATOM     17  C   UNL A   1      31.816  21.690  23.178  1.00  0.00     0.045 A 
ATOM     18  C   UNL A   1      31.302  23.018  25.576  1.00  0.00     0.280 A 
ATOM     19  C   UNL A   1      31.426  23.032  23.172  1.00  0.00     0.040 A 
ATOM     20  Cl  UNL A   1      32.128  20.935  21.657  1.00  0.00    -0.084 Cl
BRANCH  18  21
ATOM     21  N   UNL A   1      31.028  23.656  26.862  1.00  0.00     0.063 N 
ATOM     22  O   UNL A   1      31.983  24.104  27.509  1.00  0.00    -0.258 OA
ATOM     23  O   UNL A   1      29.841  23.735  27.207  1.00  0.00    -0.258 OA
ENDBRANCH  18  21
ENDBRANCH   9  13
ENDBRANCH   5   8
ENDBRANCH   3   4
ENDBRANCH   2   3
ENDBRANCH   1   2
BRANCH   1  24
ATOM     24  C   UNL A   1      31.628  30.618  26.484  1.00  0.00     0.002 C 
BRANCH  24  25
ATOM     25  C   UNL A   1      31.444  32.115  26.750  1.00  0.00     0.021 C 
BRANCH  25  26
ATOM     26  C   UNL A   1      32.675  32.809  27.324  1.00  0.00     0.116 C 
BRANCH  26  27
ATOM     27  N   UNL A   1      32.416  34.207  27.633  1.00  0.00    -0.352 N 
ATOM     28  C   UNL A   1      32.985  35.007  28.593  1.00  0.00     0.251 C 
ATOM     29  H   UNL A   1      31.734  34.643  27.073  1.00  0.00     0.163 HD
ATOM     30  O   UNL A   1      32.500  36.102  28.858  1.00  0.00    -0.269 OA
BRANCH  28  31
ATOM     31  C   UNL A   1      34.179  34.536  29.324  1.00  0.00     0.039 A 
ATOM     32  C   UNL A   1      34.026  34.000  30.604  1.00  0.00     0.014 A 
ATOM     33  C   UNL A   1      35.447  34.618  28.741  1.00  0.00     0.014 A 
ATOM     34  C   UNL A   1      35.133  33.473  31.271  1.00  0.00     0.010 A 
ATOM     35  C   UNL A   1      36.539  34.035  29.379  1.00  0.00     0.010 A 
ATOM     36  C   UNL A   1      36.390  33.447  30.645  1.00  0.00    -0.014 A 
BRANCH  36  37
ATOM     37  C   UNL A   1      37.559  32.787  31.277  1.00  0.00     0.031 A 
ATOM     38  C   UNL A   1      38.230  31.626  30.599  1.00  0.00     0.074 A 
ATOM     39  C   UNL A   1      37.965  33.185  32.499  1.00  0.00     0.049 A 
ATOM     40  N   UNL A   1      39.175  30.839  31.046  1.00  0.00    -0.248 NA
ATOM     41  C   UNL A   1      37.759  31.293  29.245  1.00  0.00     0.031 C 
ATOM     42  C   UNL A   1      37.380  34.284  33.269  1.00  0.00     0.029 A 
ATOM     43  N   UNL A   1      38.955  32.698  33.318  1.00  0.00    -0.354 N 
ATOM     44  C   UNL A   1      39.413  29.922  30.032  1.00  0.00     0.074 A 
ATOM     45  C   UNL A   1      38.476  30.212  28.967  1.00  0.00     0.031 C 
ATOM     46  C   UNL A   1      38.027  34.396  34.440  1.00  0.00     0.029 A 
ATOM     47  C   UNL A   1      39.040  33.348  34.526  1.00  0.00     0.049 A 
ATOM     48  H   UNL A   1      39.548  31.955  33.063  1.00  0.00     0.167 HD
ATOM     49  C   UNL A   1      40.346  28.942  29.983  1.00  0.00     0.037 A 
ATOM     50  C   UNL A   1      39.828  33.107  35.592  1.00  0.00     0.037 A 
ATOM     51  C   UNL A   1      41.284  28.662  31.038  1.00  0.00     0.049 A 
ATOM     52  C   UNL A   1      40.809  31.966  35.534  1.00  0.00     0.074 A 
ATOM     53  C   UNL A   1      42.286  27.709  31.072  1.00  0.00     0.029 A 
ATOM     54  N   UNL A   1      41.333  29.337  32.249  1.00  0.00    -0.354 N 
ATOM     55  N   UNL A   1      41.058  31.137  34.551  1.00  0.00    -0.248 NA
ATOM     56  C   UNL A   1      41.615  31.724  36.740  1.00  0.00     0.031 C 
ATOM     57  C   UNL A   1      42.916  27.779  32.318  1.00  0.00     0.029 A 
ATOM     58  C   UNL A   1      42.335  28.805  33.045  1.00  0.00     0.049 A 
ATOM     59  H   UNL A   1      40.744  30.083  32.505  1.00  0.00     0.167 HD
ATOM     60  C   UNL A   1      42.065  30.298  35.006  1.00  0.00     0.074 A 
ATOM     61  C   UNL A   1      42.395  30.727  36.348  1.00  0.00     0.031 C 
ATOM     62  C   UNL A   1      42.660  29.259  34.372  1.00  0.00     0.037 A 
BRANCH  49  63
ATOM     63  C   UNL A   1      40.417  28.105  28.740  1.00  0.00     0.064 A 
ATOM     64  C   UNL A   1      41.200  28.496  27.643  1.00  0.00     0.173 A 
ATOM     65  C   UNL A   1      39.755  26.871  28.667  1.00  0.00     0.173 A 
ATOM     66  F   UNL A   1      41.844  29.673  27.660  1.00  0.00    -0.203 F 
ATOM     67  C   UNL A   1      41.303  27.690  26.513  1.00  0.00     0.198 A 
ATOM     68  C   UNL A   1      39.883  26.054  27.546  1.00  0.00     0.198 A 
ATOM     69  F   UNL A   1      38.999  26.447  29.692  1.00  0.00    -0.203 F 
ATOM     70  F   UNL A   1      42.029  28.100  25.464  1.00  0.00    -0.200 F 
ATOM     71  C   UNL A   1      40.653  26.466  26.469  1.00  0.00     0.200 A 
ATOM     72  F   UNL A   1      39.265  24.865  27.511  1.00  0.00    -0.200 F 
ATOM     73  F   UNL A   1      40.766  25.684  25.386  1.00  0.00    -0.200 F 
ENDBRANCH  49  63
BRANCH  50  74
ATOM     74  C   UNL A   1      39.725  33.951  36.812  1.00  0.00     0.064 A 
ATOM     75  C   UNL A   1      38.921  33.556  37.893  1.00  0.00     0.173 A 
ATOM     76  C   UNL A   1      40.384  35.185  36.909  1.00  0.00     0.173 A 
ATOM     77  F   UNL A   1      38.251  32.396  37.838  1.00  0.00    -0.203 F 
ATOM     78  C   UNL A   1      38.757  34.378  39.005  1.00  0.00     0.198 A 
ATOM     79  C   UNL A   1      40.245  35.990  38.037  1.00  0.00     0.198 A 
ATOM     80  F   UNL A   1      41.166  35.609  35.906  1.00  0.00    -0.203 F 
ATOM     81  F   UNL A   1      37.933  34.005  39.994  1.00  0.00    -0.200 F 
ATOM     82  C   UNL A   1      39.421  35.592  39.078  1.00  0.00     0.200 A 
ATOM     83  F   UNL A   1      40.899  37.158  38.109  1.00  0.00    -0.200 F 
ATOM     84  F   UNL A   1      39.256  36.386  40.146  1.00  0.00    -0.200 F 
ENDBRANCH  50  74
BRANCH  62  85
ATOM     85  C   UNL A   1      43.750  28.535  35.106  1.00  0.00     0.064 A 
ATOM     86  C   UNL A   1      45.089  28.939  35.014  1.00  0.00     0.173 A 
ATOM     87  C   UNL A   1      43.444  27.458  35.953  1.00  0.00     0.173 A 
ATOM     88  F   UNL A   1      45.434  29.952  34.204  1.00  0.00    -0.203 F 
ATOM     89  C   UNL A   1      46.085  28.283  35.732  1.00  0.00     0.198 A 
ATOM     90  C   UNL A   1      44.438  26.823  36.691  1.00  0.00     0.198 A 
ATOM     91  F   UNL A   1      42.177  27.036  36.079  1.00  0.00    -0.203 F 
ATOM     92  F   UNL A   1      47.364  28.662  35.599  1.00  0.00    -0.200 F 
ATOM     93  C   UNL A   1      45.758  27.233  36.576  1.00  0.00     0.200 A 
ATOM     94  F   UNL A   1      44.118  25.817  37.517  1.00  0.00    -0.200 F 
ATOM     95  F   UNL A   1      46.716  26.612  37.277  1.00  0.00    -0.200 F 
ENDBRANCH  62  85
ENDBRANCH  36  37
ENDBRANCH  28  31
ENDBRANCH  26  27
ENDBRANCH  25  26
ENDBRANCH  24  25
ENDBRANCH   1  24
TORSDOF 15
ENDMDL
MODEL 2
REMARK VINA RESULT:     -12.6      1.659      2.231
REMARK SMILES Cc1cc([N+](=O)[O-])c(-c2ccc(C(=O)NCCCCCCNC(=O)c3ccc(-c4c5nc(c(-c6c(F)c(F)c(F)c(F)c6F)c6ccc([nH]6)c(-c6c(F)c(F)c(F)c(F)c6F)c6nc(c(-c7c(F)c(F)c(F)c(F)c7F)c7ccc4[nH]7)C=C6)C=C5)cc3)o2)cc1Cl
REMARK SMILES IDX 18 1 17 2 16 3 15 4 13 5 14 6 12 8 9 9 10 10 88 11 11 12
REMARK SMILES IDX 8 13 1 14 2 15 3 16 90 17 4 18 89 19 91 20 5 21 6 22 7 23
REMARK SMILES IDX 19 24 20 25 21 26 22 27 23 28 24 30 25 31 26 32 87 33 27 34
REMARK SMILES IDX 86 35 28 36 29 37 30 38 80 39 31 40 85 41 79 42 81 43 32 44
REMARK SMILES IDX 84 45 78 46 77 47 33 49 65 50 45 51 64 52 46 53 49 54 63 55
REMARK SMILES IDX 82 56 47 57 48 58 62 60 83 61 50 62 34 63 35 64 43 65 36 66
REMARK SMILES IDX 37 67 41 68 44 69 38 70 39 71 42 72 40 73 66 74 67 75 75 76
REMARK SMILES IDX 68 77 69 78 73 79 76 80 70 81 71 82 74 83 72 84 51 85 52 86
REMARK SMILES IDX 60 87 53 88 54 89 58 90 61 91 55 92 56 93 59 94 57 95
REMARK H PARENT 15 7 22 29 81 48 49 59
REMARK Flexibility Score: inf
ROOT
ATOM      1  C   UNL A   1      32.199  29.689  27.198  1.00  0.00     0.002 C 
ENDROOT
BRANCH   1   2
ATOM      2  C   UNL A   1      31.713  28.253  26.953  1.00  0.00     0.021 C 
BRANCH   2   3
ATOM      3  C   UNL A   1      32.078  27.717  25.569  1.00  0.00     0.116 C 
BRANCH   3   4
ATOM      4  N   UNL A   1      30.892  27.312  24.844  1.00  0.00    -0.349 N 
ATOM      5  C   UNL A   1      30.265  26.093  24.736  1.00  0.00     0.287 C 
ATOM      6  O   UNL A   1      29.217  26.088  24.086  1.00  0.00    -0.266 OA
ATOM      7  H   UNL A   1      30.459  28.038  24.339  1.00  0.00     0.163 HD
BRANCH   5   8
ATOM      8  C   UNL A   1      30.807  24.902  25.366  1.00  0.00     0.192 A 
ATOM      9  C   UNL A   1      32.327  23.309  25.557  1.00  0.00     0.142 A 
ATOM     10  C   UNL A   1      31.367  23.029  26.499  1.00  0.00     0.052 A 
ATOM     11  O   UNL A   1      32.014  24.445  24.884  1.00  0.00    -0.451 OA
ATOM     12  C   UNL A   1      30.417  24.076  26.409  1.00  0.00     0.057 A 
BRANCH   9  13
ATOM     13  C   UNL A   1      33.586  22.683  25.205  1.00  0.00     0.096 A 
ATOM     14  C   UNL A   1      37.463  20.762  24.872  1.00  0.00     0.046 C 
ATOM     15  C   UNL A   1      36.133  21.460  24.934  1.00  0.00    -0.026 A 
ATOM     16  C   UNL A   1      34.964  20.753  24.613  1.00  0.00     0.091 A 
ATOM     17  C   UNL A   1      36.019  22.801  25.333  1.00  0.00     0.045 A 
ATOM     18  C   UNL A   1      33.703  21.365  24.744  1.00  0.00     0.280 A 
ATOM     19  C   UNL A   1      34.764  23.403  25.462  1.00  0.00     0.040 A 
ATOM     20  Cl  UNL A   1      37.409  23.747  25.726  1.00  0.00    -0.084 Cl
BRANCH  18  21
ATOM     21  N   UNL A   1      32.526  20.569  24.403  1.00  0.00     0.063 N 
ATOM     22  O   UNL A   1      32.058  20.674  23.263  1.00  0.00    -0.258 OA
ATOM     23  O   UNL A   1      32.090  19.809  25.279  1.00  0.00    -0.258 OA
ENDBRANCH  18  21
ENDBRANCH   9  13
ENDBRANCH   5   8
ENDBRANCH   3   4
ENDBRANCH   2   3
ENDBRANCH   1   2
BRANCH   1  24
ATOM     24  C   UNL A   1      31.746  30.717  26.151  1.00  0.00     0.002 C 
BRANCH  24  25
ATOM     25  C   UNL A   1      31.456  32.118  26.697  1.00  0.00     0.021 C 
BRANCH  25  26
ATOM     26  C   UNL A   1      32.648  32.792  27.369  1.00  0.00     0.116 C 
BRANCH  26  27
ATOM     27  N   UNL A   1      32.394  34.199  27.641  1.00  0.00    -0.352 N 
ATOM     28  C   UNL A   1      32.962  35.020  28.585  1.00  0.00     0.251 C 
ATOM     29  H   UNL A   1      31.718  34.625  27.066  1.00  0.00     0.163 HD
ATOM     30  O   UNL A   1      32.481  36.123  28.820  1.00  0.00    -0.269 OA
BRANCH  28  31
ATOM     31  C   UNL A   1      34.149  34.560  29.335  1.00  0.00     0.039 A 
ATOM     32  C   UNL A   1      33.983  34.052  30.625  1.00  0.00     0.014 A 
ATOM     33  C   UNL A   1      35.421  34.627  28.761  1.00  0.00     0.014 A 
ATOM     34  C   UNL A   1      35.084  33.535  31.311  1.00  0.00     0.010 A 
ATOM     35  C   UNL A   1      36.507  34.055  29.419  1.00  0.00     0.010 A 
ATOM     36  C   UNL A   1      36.346  33.494  30.696  1.00  0.00    -0.014 A 
BRANCH  36  37
ATOM     37  C   UNL A   1      37.508  32.844  31.351  1.00  0.00     0.031 A 
ATOM     38  C   UNL A   1      38.152  31.640  30.725  1.00  0.00     0.074 A 
ATOM     39  C   UNL A   1      37.931  33.293  32.550  1.00  0.00     0.049 A 
ATOM     40  N   UNL A   1      39.087  30.859  31.202  1.00  0.00    -0.248 NA
ATOM     41  C   UNL A   1      37.665  31.250  29.392  1.00  0.00     0.031 C 
ATOM     42  C   UNL A   1      37.371  34.438  33.270  1.00  0.00     0.029 A 
ATOM     43  N   UNL A   1      38.918  32.828  33.384  1.00  0.00    -0.354 N 
ATOM     44  C   UNL A   1      39.301  29.889  30.232  1.00  0.00     0.074 A 
ATOM     45  C   UNL A   1      38.361  30.145  29.162  1.00  0.00     0.031 C 
ATOM     46  C   UNL A   1      38.030  34.594  34.429  1.00  0.00     0.029 A 
ATOM     47  C   UNL A   1      39.024  33.534  34.559  1.00  0.00     0.049 A 
ATOM     48  H   UNL A   1      39.496  32.063  33.161  1.00  0.00     0.167 HD
ATOM     49  C   UNL A   1      40.217  28.891  30.224  1.00  0.00     0.037 A 
ATOM     50  C   UNL A   1      39.816  33.331  35.629  1.00  0.00     0.037 A 
ATOM     51  C   UNL A   1      41.158  28.646  31.285  1.00  0.00     0.049 A 
ATOM     52  C   UNL A   1      40.777  32.170  35.619  1.00  0.00     0.074 A 
ATOM     53  C   UNL A   1      42.143  27.677  31.358  1.00  0.00     0.029 A 
ATOM     54  N   UNL A   1      41.228  29.377  32.462  1.00  0.00    -0.354 N 
ATOM     55  N   UNL A   1      41.003  31.290  34.676  1.00  0.00    -0.248 NA
ATOM     56  C   UNL A   1      41.587  31.972  36.830  1.00  0.00     0.031 C 
ATOM     57  C   UNL A   1      42.784  27.796  32.594  1.00  0.00     0.029 A 
ATOM     58  C   UNL A   1      42.226  28.866  33.275  1.00  0.00     0.049 A 
ATOM     59  H   UNL A   1      40.654  30.145  32.686  1.00  0.00     0.167 HD
ATOM     60  C   UNL A   1      41.999  30.456  35.164  1.00  0.00     0.074 A 
ATOM     61  C   UNL A   1      42.346  30.943  36.481  1.00  0.00     0.031 C 
ATOM     62  C   UNL A   1      42.570  29.377  34.576  1.00  0.00     0.037 A 
BRANCH  49  63
ATOM     63  C   UNL A   1      40.262  27.994  29.022  1.00  0.00     0.064 A 
ATOM     64  C   UNL A   1      41.018  28.334  27.890  1.00  0.00     0.173 A 
ATOM     65  C   UNL A   1      39.604  26.756  29.026  1.00  0.00     0.173 A 
ATOM     66  F   UNL A   1      41.658  29.511  27.834  1.00  0.00    -0.203 F 
ATOM     67  C   UNL A   1      41.099  27.473  26.799  1.00  0.00     0.198 A 
ATOM     68  C   UNL A   1      39.710  25.885  27.944  1.00  0.00     0.198 A 
ATOM     69  F   UNL A   1      38.874  26.381  30.087  1.00  0.00    -0.203 F 
ATOM     70  F   UNL A   1      41.799  27.833  25.715  1.00  0.00    -0.200 F 
ATOM     71  C   UNL A   1      40.453  26.246  26.830  1.00  0.00     0.200 A 
ATOM     72  F   UNL A   1      39.097  24.694  27.981  1.00  0.00    -0.200 F 
ATOM     73  F   UNL A   1      40.546  25.412  25.785  1.00  0.00    -0.200 F 
ENDBRANCH  49  63
BRANCH  50  74
ATOM     74  C   UNL A   1      39.738  34.233  36.808  1.00  0.00     0.064 A 
ATOM     75  C   UNL A   1      40.532  35.388  36.884  1.00  0.00     0.173 A 
ATOM     76  C   UNL A   1      38.907  33.942  37.900  1.00  0.00     0.173 A 
ATOM     77  F   UNL A   1      41.360  35.696  35.875  1.00  0.00    -0.203 F 
ATOM     78  C   UNL A   1      40.522  36.195  38.019  1.00  0.00     0.198 A 
ATOM     79  C   UNL A   1      38.874  34.770  39.021  1.00  0.00     0.198 A 
ATOM     80  F   UNL A   1      38.126  32.853  37.879  1.00  0.00    -0.203 F 
ATOM     81  F   UNL A   1      41.338  37.256  38.089  1.00  0.00    -0.200 F 
ATOM     82  C   UNL A   1      39.691  35.888  39.084  1.00  0.00     0.200 A 
ATOM     83  F   UNL A   1      38.060  34.476  40.044  1.00  0.00    -0.200 F 
ATOM     84  F   UNL A   1      39.688  36.662  40.179  1.00  0.00    -0.200 F 
ENDBRANCH  50  74
BRANCH  62  85
ATOM     85  C   UNL A   1      43.653  28.670  35.336  1.00  0.00     0.064 A 
ATOM     86  C   UNL A   1      45.004  29.006  35.171  1.00  0.00     0.173 A 
ATOM     87  C   UNL A   1      43.331  27.682  36.281  1.00  0.00     0.173 A 
ATOM     88  F   UNL A   1      45.363  29.931  34.268  1.00  0.00    -0.203 F 
ATOM     89  C   UNL A   1      45.995  28.369  35.912  1.00  0.00     0.198 A 
ATOM     90  C   UNL A   1      44.322  27.069  37.041  1.00  0.00     0.198 A 
ATOM     91  F   UNL A   1      42.052  27.328  36.480  1.00  0.00    -0.203 F 
ATOM     92  F   UNL A   1      47.284  28.679  35.710  1.00  0.00    -0.200 F 
ATOM     93  C   UNL A   1      45.653  27.408  36.853  1.00  0.00     0.200 A 
ATOM     94  F   UNL A   1      43.988  26.150  37.958  1.00  0.00    -0.200 F 
ATOM     95  F   UNL A   1      46.607  26.806  37.575  1.00  0.00    -0.200 F 
ENDBRANCH  62  85
ENDBRANCH  36  37
ENDBRANCH  28  31
ENDBRANCH  26  27
ENDBRANCH  25  26
ENDBRANCH  24  25
ENDBRANCH   1  24
TORSDOF 15
ENDMDL
MODEL 3
REMARK VINA RESULT:     -12.5      1.196      1.863
REMARK SMILES Cc1cc([N+](=O)[O-])c(-c2ccc(C(=O)NCCCCCCNC(=O)c3ccc(-c4c5nc(c(-c6c(F)c(F)c(F)c(F)c6F)c6ccc([nH]6)c(-c6c(F)c(F)c(F)c(F)c6F)c6nc(c(-c7c(F)c(F)c(F)c(F)c7F)c7ccc4[nH]7)C=C6)C=C5)cc3)o2)cc1Cl
REMARK SMILES IDX 18 1 17 2 16 3 15 4 13 5 14 6 12 8 9 9 10 10 88 11 11 12
REMARK SMILES IDX 8 13 1 14 2 15 3 16 90 17 4 18 89 19 91 20 5 21 6 22 7 23
REMARK SMILES IDX 19 24 20 25 21 26 22 27 23 28 24 30 25 31 26 32 87 33 27 34
REMARK SMILES IDX 86 35 28 36 29 37 30 38 80 39 31 40 85 41 79 42 81 43 32 44
REMARK SMILES IDX 84 45 78 46 77 47 33 49 65 50 45 51 64 52 46 53 49 54 63 55
REMARK SMILES IDX 82 56 47 57 48 58 62 60 83 61 50 62 34 63 35 64 43 65 36 66
REMARK SMILES IDX 37 67 41 68 44 69 38 70 39 71 42 72 40 73 66 74 67 75 75 76
REMARK SMILES IDX 68 77 69 78 73 79 76 80 70 81 71 82 74 83 72 84 51 85 52 86
REMARK SMILES IDX 60 87 53 88 54 89 58 90 61 91 55 92 56 93 59 94 57 95
REMARK H PARENT 15 7 22 29 81 48 49 59
REMARK Flexibility Score: inf
ROOT
ATOM      1  C   UNL A   1      32.132  29.749  25.211  1.00  0.00     0.002 C 
ENDROOT
BRANCH   1   2
ATOM      2  C   UNL A   1      30.983  29.548  24.213  1.00  0.00     0.021 C 
BRANCH   2   3
ATOM      3  C   UNL A   1      31.023  28.193  23.508  1.00  0.00     0.116 C 
BRANCH   3   4
ATOM      4  N   UNL A   1      32.144  28.119  22.595  1.00  0.00    -0.349 N 
ATOM      5  C   UNL A   1      33.286  27.352  22.619  1.00  0.00     0.287 C 
ATOM      6  O   UNL A   1      34.031  27.474  21.643  1.00  0.00    -0.266 OA
ATOM      7  H   UNL A   1      32.078  28.724  21.822  1.00  0.00     0.163 HD
BRANCH   5   8
ATOM      8  C   UNL A   1      33.573  26.451  23.721  1.00  0.00     0.192 A 
ATOM      9  C   UNL A   1      33.667  24.438  24.629  1.00  0.00     0.142 A 
ATOM     10  C   UNL A   1      34.044  25.316  25.617  1.00  0.00     0.052 A 
ATOM     11  O   UNL A   1      33.403  25.106  23.478  1.00  0.00    -0.451 OA
ATOM     12  C   UNL A   1      34.028  26.601  25.022  1.00  0.00     0.057 A 
BRANCH   9  13
ATOM     13  C   UNL A   1      33.565  22.993  24.570  1.00  0.00     0.096 A 
ATOM     14  C   UNL A   1      33.449  18.687  25.096  1.00  0.00     0.046 C 
ATOM     15  C   UNL A   1      33.510  20.170  24.854  1.00  0.00    -0.026 A 
ATOM     16  C   UNL A   1      32.318  20.895  24.692  1.00  0.00     0.091 A 
ATOM     17  C   UNL A   1      34.730  20.864  24.811  1.00  0.00     0.045 A 
ATOM     18  C   UNL A   1      32.351  22.295  24.547  1.00  0.00     0.280 A 
ATOM     19  C   UNL A   1      34.755  22.254  24.667  1.00  0.00     0.040 A 
ATOM     20  Cl  UNL A   1      36.240  20.044  24.981  1.00  0.00    -0.084 Cl
BRANCH  18  21
ATOM     21  N   UNL A   1      31.074  22.989  24.393  1.00  0.00     0.063 N 
ATOM     22  O   UNL A   1      30.656  23.201  23.249  1.00  0.00    -0.258 OA
ATOM     23  O   UNL A   1      30.473  23.294  25.434  1.00  0.00    -0.258 OA
ENDBRANCH  18  21
ENDBRANCH   9  13
ENDBRANCH   5   8
ENDBRANCH   3   4
ENDBRANCH   2   3
ENDBRANCH   1   2
BRANCH   1  24
ATOM     24  C   UNL A   1      31.713  30.275  26.592  1.00  0.00     0.002 C 
BRANCH  24  25
ATOM     25  C   UNL A   1      31.564  31.795  26.693  1.00  0.00     0.021 C 
BRANCH  25  26
ATOM     26  C   UNL A   1      32.767  32.506  27.305  1.00  0.00     0.116 C 
BRANCH  26  27
ATOM     27  N   UNL A   1      32.491  33.911  27.568  1.00  0.00    -0.352 N 
ATOM     28  C   UNL A   1      33.031  34.741  28.521  1.00  0.00     0.251 C 
ATOM     29  H   UNL A   1      31.821  34.327  26.979  1.00  0.00     0.163 HD
ATOM     30  O   UNL A   1      32.532  35.839  28.743  1.00  0.00    -0.269 OA
BRANCH  28  31
ATOM     31  C   UNL A   1      34.208  34.297  29.294  1.00  0.00     0.039 A 
ATOM     32  C   UNL A   1      34.016  33.695  30.540  1.00  0.00     0.014 A 
ATOM     33  C   UNL A   1      35.499  34.472  28.787  1.00  0.00     0.014 A 
ATOM     34  C   UNL A   1      35.114  33.194  31.243  1.00  0.00     0.010 A 
ATOM     35  C   UNL A   1      36.585  33.917  29.457  1.00  0.00     0.010 A 
ATOM     36  C   UNL A   1      36.402  33.263  30.686  1.00  0.00    -0.014 A 
BRANCH  36  37
ATOM     37  C   UNL A   1      37.570  32.635  31.352  1.00  0.00     0.031 A 
ATOM     38  C   UNL A   1      38.286  31.488  30.697  1.00  0.00     0.074 A 
ATOM     39  C   UNL A   1      37.934  33.048  32.582  1.00  0.00     0.049 A 
ATOM     40  N   UNL A   1      39.239  30.727  31.172  1.00  0.00    -0.248 NA
ATOM     41  C   UNL A   1      37.860  31.137  29.333  1.00  0.00     0.031 C 
ATOM     42  C   UNL A   1      37.301  34.136  33.331  1.00  0.00     0.029 A 
ATOM     43  N   UNL A   1      38.914  32.590  33.429  1.00  0.00    -0.354 N 
ATOM     44  C   UNL A   1      39.526  29.811  30.170  1.00  0.00     0.074 A 
ATOM     45  C   UNL A   1      38.610  30.074  29.080  1.00  0.00     0.031 C 
ATOM     46  C   UNL A   1      37.915  34.269  34.518  1.00  0.00     0.029 A 
ATOM     47  C   UNL A   1      38.950  33.247  34.636  1.00  0.00     0.049 A 
ATOM     48  H   UNL A   1      39.531  31.860  33.193  1.00  0.00     0.167 HD
ATOM     49  C   UNL A   1      40.484  28.855  30.150  1.00  0.00     0.037 A 
ATOM     50  C   UNL A   1      39.716  33.031  35.723  1.00  0.00     0.037 A 
ATOM     51  C   UNL A   1      41.401  28.603  31.231  1.00  0.00     0.049 A 
ATOM     52  C   UNL A   1      40.726  31.914  35.696  1.00  0.00     0.074 A 
ATOM     53  C   UNL A   1      42.425  27.675  31.296  1.00  0.00     0.029 A 
ATOM     54  N   UNL A   1      41.401  29.284  32.440  1.00  0.00    -0.354 N 
ATOM     55  N   UNL A   1      41.021  31.087  34.724  1.00  0.00    -0.248 NA
ATOM     56  C   UNL A   1      41.506  31.697  36.924  1.00  0.00     0.031 C 
ATOM     57  C   UNL A   1      43.020  27.766  32.557  1.00  0.00     0.029 A 
ATOM     58  C   UNL A   1      42.395  28.781  33.264  1.00  0.00     0.049 A 
ATOM     59  H   UNL A   1      40.787  30.017  32.676  1.00  0.00     0.167 HD
ATOM     60  C   UNL A   1      42.037  30.275  35.209  1.00  0.00     0.074 A 
ATOM     61  C   UNL A   1      42.320  30.718  36.558  1.00  0.00     0.031 C 
ATOM     62  C   UNL A   1      42.674  29.248  34.596  1.00  0.00     0.037 A 
BRANCH  49  63
ATOM     63  C   UNL A   1      40.608  28.014  28.913  1.00  0.00     0.064 A 
ATOM     64  C   UNL A   1      39.865  26.834  28.759  1.00  0.00     0.173 A 
ATOM     65  C   UNL A   1      41.419  28.424  27.845  1.00  0.00     0.173 A 
ATOM     66  F   UNL A   1      39.082  26.394  29.756  1.00  0.00    -0.203 F 
ATOM     67  C   UNL A   1      39.944  26.087  27.587  1.00  0.00     0.198 A 
ATOM     68  C   UNL A   1      41.474  27.689  26.664  1.00  0.00     0.198 A 
ATOM     69  F   UNL A   1      42.144  29.550  27.940  1.00  0.00    -0.203 F 
ATOM     70  F   UNL A   1      39.252  24.944  27.476  1.00  0.00    -0.200 F 
ATOM     71  C   UNL A   1      40.741  26.519  26.537  1.00  0.00     0.200 A 
ATOM     72  F   UNL A   1      42.233  28.115  25.645  1.00  0.00    -0.200 F 
ATOM     73  F   UNL A   1      40.803  25.806  25.404  1.00  0.00    -0.200 F 
ENDBRANCH  49  63
BRANCH  50  74
ATOM     74  C   UNL A   1      39.560  33.876  36.935  1.00  0.00     0.064 A 
ATOM     75  C   UNL A   1      38.754  33.458  38.005  1.00  0.00     0.173 A 
ATOM     76  C   UNL A   1      40.171  35.136  37.035  1.00  0.00     0.173 A 
ATOM     77  F   UNL A   1      38.130  32.273  37.947  1.00  0.00    -0.203 F 
ATOM     78  C   UNL A   1      38.539  34.279  39.110  1.00  0.00     0.198 A 
ATOM     79  C   UNL A   1      39.982  35.942  38.155  1.00  0.00     0.198 A 
ATOM     80  F   UNL A   1      40.953  35.584  36.043  1.00  0.00    -0.203 F 
ATOM     81  F   UNL A   1      37.714  33.880  40.087  1.00  0.00    -0.200 F 
ATOM     82  C   UNL A   1      39.155  35.519  39.185  1.00  0.00     0.200 A 
ATOM     83  F   UNL A   1      40.589  37.134  38.231  1.00  0.00    -0.200 F 
ATOM     84  F   UNL A   1      38.942  36.311  40.246  1.00  0.00    -0.200 F 
ENDBRANCH  50  74
BRANCH  62  85
ATOM     85  C   UNL A   1      43.762  28.555  35.362  1.00  0.00     0.064 A 
ATOM     86  C   UNL A   1      45.097  28.975  35.281  1.00  0.00     0.173 A 
ATOM     87  C   UNL A   1      43.456  27.493  36.228  1.00  0.00     0.173 A 
ATOM     88  F   UNL A   1      45.441  29.973  34.453  1.00  0.00    -0.203 F 
ATOM     89  C   UNL A   1      46.090  28.347  36.028  1.00  0.00     0.198 A 
ATOM     90  C   UNL A   1      44.447  26.888  36.995  1.00  0.00     0.198 A 
ATOM     91  F   UNL A   1      42.193  27.058  36.345  1.00  0.00    -0.203 F 
ATOM     92  F   UNL A   1      47.366  28.740  35.905  1.00  0.00    -0.200 F 
ATOM     93  C   UNL A   1      45.763  27.312  36.891  1.00  0.00     0.200 A 
ATOM     94  F   UNL A   1      44.128  25.897  37.838  1.00  0.00    -0.200 F 
ATOM     95  F   UNL A   1      46.719  26.719  37.619  1.00  0.00    -0.200 F 
ENDBRANCH  62  85
ENDBRANCH  36  37
ENDBRANCH  28  31
ENDBRANCH  26  27
ENDBRANCH  25  26
ENDBRANCH  24  25
ENDBRANCH   1  24
TORSDOF 15
ENDMDL
