MODEL 1
REMARK VINA RESULT:     -11.9      0.000      0.000
REMARK SMILES C[NH2+][C@@H](C)c1ccc(SCc2ccc(C(=O)NCCCCCCNC(=O)c3ccc(-c4c5nc(c(-c6c(F)c(F)c(F)c(F)c6F)c6ccc([nH]6)c(-c6c(F)c(F)c(F)c(F)c6F)c6nc(c(-c7c(F)c(F)c(F)c(F)c7F)c7ccc4[nH]7)C=C6)C=C5)cc3)cc2)cc1
REMARK SMILES IDX 19 1 18 2 17 3 15 4 16 5 14 7 11 8 12 9 91 10 13 11 90 12
REMARK SMILES IDX 10 13 9 14 8 15 5 16 6 17 93 18 7 19 92 20 3 21 4 22 2 23
REMARK SMILES IDX 1 24 20 27 21 28 22 29 23 30 24 31 25 32 26 34 27 35 28 36
REMARK SMILES IDX 89 37 29 38 88 39 30 40 31 41 32 42 82 43 33 44 87 45 81 46
REMARK SMILES IDX 83 47 34 48 86 49 80 50 79 51 35 53 67 54 47 55 66 56 48 57
REMARK SMILES IDX 51 58 65 59 84 60 49 61 50 62 64 64 85 65 52 66 36 67 37 68
REMARK SMILES IDX 45 69 38 70 39 71 43 72 46 73 40 74 41 75 44 76 42 77 68 78
REMARK SMILES IDX 69 79 77 80 70 81 71 82 75 83 78 84 72 85 73 86 76 87 74 88
REMARK SMILES IDX 53 89 54 90 62 91 55 92 56 93 60 94 63 95 57 96 58 97 61 98
REMARK SMILES IDX 59 99
REMARK H PARENT 17 6 2 25 2 26 24 33 83 52 51 63
REMARK Flexibility Score: inf
ROOT
ATOM      1  C   UNL A   1      32.102  22.076  23.872  1.00  0.00     0.021 C 
ENDROOT
BRANCH   1   2
ATOM      2  C   UNL A   1      32.113  21.287  25.183  1.00  0.00     0.116 C 
BRANCH   2   3
ATOM      3  N   UNL A   1      31.078  21.787  26.063  1.00  0.00    -0.352 N 
ATOM      4  C   UNL A   1      30.904  22.976  26.720  1.00  0.00     0.251 C 
ATOM      5  O   UNL A   1      29.926  23.062  27.465  1.00  0.00    -0.269 OA
ATOM      6  H   UNL A   1      30.353  21.141  26.222  1.00  0.00     0.163 HD
BRANCH   4   7
ATOM      7  C   UNL A   1      31.771  24.170  26.519  1.00  0.00     0.039 A 
ATOM      8  C   UNL A   1      33.200  26.544  25.881  1.00  0.00    -0.038 A 
ATOM      9  C   UNL A   1      31.811  26.558  26.033  1.00  0.00     0.005 A 
ATOM     10  C   UNL A   1      33.868  25.340  26.163  1.00  0.00     0.005 A 
ATOM     11  C   UNL A   1      31.107  25.388  26.323  1.00  0.00     0.014 A 
ATOM     12  C   UNL A   1      33.166  24.178  26.512  1.00  0.00     0.014 A 
BRANCH   8  13
ATOM     13  C   UNL A   1      34.026  27.706  25.365  1.00  0.00     0.110 C 
BRANCH  13  14
ATOM     14  S   UNL A   1      33.816  28.258  23.643  1.00  0.00    -0.121 SA
BRANCH  14  15
ATOM     15  C   UNL A   1      32.087  28.711  23.519  1.00  0.00     0.008 A 
ATOM     16  C   UNL A   1      29.375  29.396  23.053  1.00  0.00     0.009 A 
ATOM     17  C   UNL A   1      29.998  28.386  22.309  1.00  0.00     0.011 A 
ATOM     18  C   UNL A   1      30.122  30.037  24.053  1.00  0.00     0.011 A 
ATOM     19  C   UNL A   1      31.337  28.052  22.538  1.00  0.00     0.015 A 
ATOM     20  C   UNL A   1      31.458  29.690  24.290  1.00  0.00     0.015 A 
BRANCH  16  21
ATOM     21  C   UNL A   1      27.910  29.730  22.800  1.00  0.00     0.210 C 
ATOM     22  C   UNL A   1      26.984  28.601  23.274  1.00  0.00     0.081 C 
BRANCH  21  23
ATOM     23  N   UNL A   1      27.743  30.066  21.381  1.00  0.00    -0.343 N 
ATOM     24  C   UNL A   1      28.200  31.401  21.034  1.00  0.00     0.331 C 
ATOM     25  H   UNL A   1      28.271  29.392  20.827  1.00  0.00     0.346 HD
ATOM     26  H   UNL A   1      26.742  30.037  21.186  1.00  0.00     0.346 HD
ENDBRANCH  21  23
ENDBRANCH  16  21
ENDBRANCH  14  15
ENDBRANCH  13  14
ENDBRANCH   8  13
ENDBRANCH   4   7
ENDBRANCH   2   3
ENDBRANCH   1   2
BRANCH   1  27
ATOM     27  C   UNL A   1      33.504  22.507  23.415  1.00  0.00     0.002 C 
BRANCH  27  28
ATOM     28  C   UNL A   1      34.661  21.794  24.125  1.00  0.00     0.002 C 
BRANCH  28  29
ATOM     29  C   UNL A   1      35.897  22.661  24.381  1.00  0.00     0.021 C 
BRANCH  29  30
ATOM     30  C   UNL A   1      36.471  22.549  25.790  1.00  0.00     0.116 C 
BRANCH  30  31
ATOM     31  N   UNL A   1      37.458  21.487  25.891  1.00  0.00    -0.352 N 
ATOM     32  C   UNL A   1      38.809  21.565  26.111  1.00  0.00     0.251 C 
ATOM     33  H   UNL A   1      37.104  20.575  25.784  1.00  0.00     0.163 HD
ATOM     34  O   UNL A   1      39.514  20.574  25.952  1.00  0.00    -0.269 OA
BRANCH  32  35
ATOM     35  C   UNL A   1      39.427  22.843  26.527  1.00  0.00     0.039 A 
ATOM     36  C   UNL A   1      40.392  22.820  27.538  1.00  0.00     0.014 A 
ATOM     37  C   UNL A   1      39.032  24.060  25.964  1.00  0.00     0.014 A 
ATOM     38  C   UNL A   1      40.993  24.010  27.951  1.00  0.00     0.010 A 
ATOM     39  C   UNL A   1      39.674  25.241  26.335  1.00  0.00     0.010 A 
ATOM     40  C   UNL A   1      40.654  25.227  27.336  1.00  0.00    -0.014 A 
BRANCH  40  41
ATOM     41  C   UNL A   1      41.337  26.484  27.732  1.00  0.00     0.031 A 
ATOM     42  C   UNL A   1      42.758  26.746  27.322  1.00  0.00     0.074 A 
ATOM     43  C   UNL A   1      40.681  27.376  28.498  1.00  0.00     0.049 A 
ATOM     44  N   UNL A   1      43.509  27.793  27.563  1.00  0.00    -0.248 NA
ATOM     45  C   UNL A   1      43.435  25.685  26.563  1.00  0.00     0.031 C 
ATOM     46  C   UNL A   1      39.322  27.205  29.014  1.00  0.00     0.029 A 
ATOM     47  N   UNL A   1      41.068  28.602  28.977  1.00  0.00    -0.354 N 
ATOM     48  C   UNL A   1      44.743  27.512  26.993  1.00  0.00     0.074 A 
ATOM     49  C   UNL A   1      44.659  26.178  26.439  1.00  0.00     0.031 C 
ATOM     50  C   UNL A   1      38.977  28.297  29.714  1.00  0.00     0.029 A 
ATOM     51  C   UNL A   1      40.097  29.234  29.714  1.00  0.00     0.049 A 
ATOM     52  H   UNL A   1      41.957  28.990  28.810  1.00  0.00     0.167 HD
ATOM     53  C   UNL A   1      45.839  28.305  26.920  1.00  0.00     0.037 A 
ATOM     54  C   UNL A   1      40.106  30.439  30.315  1.00  0.00     0.037 A 
ATOM     55  C   UNL A   1      45.911  29.642  27.449  1.00  0.00     0.049 A 
ATOM     56  C   UNL A   1      41.324  31.311  30.192  1.00  0.00     0.074 A 
ATOM     57  C   UNL A   1      46.948  30.553  27.359  1.00  0.00     0.029 A 
ATOM     58  N   UNL A   1      44.901  30.258  28.174  1.00  0.00    -0.354 N 
ATOM     59  N   UNL A   1      42.456  31.070  29.577  1.00  0.00    -0.248 NA
ATOM     60  C   UNL A   1      41.259  32.629  30.838  1.00  0.00     0.031 C 
ATOM     61  C   UNL A   1      46.581  31.707  28.062  1.00  0.00     0.029 A 
ATOM     62  C   UNL A   1      45.299  31.529  28.557  1.00  0.00     0.049 A 
ATOM     63  H   UNL A   1      44.028  29.852  28.385  1.00  0.00     0.167 HD
ATOM     64  C   UNL A   1      43.232  32.208  29.748  1.00  0.00     0.074 A 
ATOM     65  C   UNL A   1      42.432  33.149  30.505  1.00  0.00     0.031 C 
ATOM     66  C   UNL A   1      44.495  32.450  29.318  1.00  0.00     0.037 A 
BRANCH  53  67
ATOM     67  C   UNL A   1      47.051  27.748  26.234  1.00  0.00     0.064 A 
ATOM     68  C   UNL A   1      47.191  27.790  24.838  1.00  0.00     0.173 A 
ATOM     69  C   UNL A   1      48.103  27.195  26.981  1.00  0.00     0.173 A 
ATOM     70  F   UNL A   1      46.209  28.298  24.077  1.00  0.00    -0.203 F 
ATOM     71  C   UNL A   1      48.323  27.275  24.214  1.00  0.00     0.198 A 
ATOM     72  C   UNL A   1      49.246  26.705  26.355  1.00  0.00     0.198 A 
ATOM     73  F   UNL A   1      48.024  27.136  28.318  1.00  0.00    -0.203 F 
ATOM     74  F   UNL A   1      48.412  27.283  22.877  1.00  0.00    -0.200 F 
ATOM     75  C   UNL A   1      49.353  26.738  24.973  1.00  0.00     0.200 A 
ATOM     76  F   UNL A   1      50.245  26.198  27.090  1.00  0.00    -0.200 F 
ATOM     77  F   UNL A   1      50.444  26.246  24.371  1.00  0.00    -0.200 F 
ENDBRANCH  53  67
BRANCH  54  78
ATOM     78  C   UNL A   1      38.903  30.904  31.048  1.00  0.00     0.064 A 
ATOM     79  C   UNL A   1      38.790  30.722  32.433  1.00  0.00     0.173 A 
ATOM     80  C   UNL A   1      37.849  31.550  30.385  1.00  0.00     0.173 A 
ATOM     81  F   UNL A   1      39.766  30.094  33.106  1.00  0.00    -0.203 F 
ATOM     82  C   UNL A   1      37.663  31.156  33.126  1.00  0.00     0.198 A 
ATOM     83  C   UNL A   1      36.733  32.005  31.082  1.00  0.00     0.198 A 
ATOM     84  F   UNL A   1      37.913  31.752  29.061  1.00  0.00    -0.203 F 
ATOM     85  F   UNL A   1      37.565  30.940  34.444  1.00  0.00    -0.200 F 
ATOM     86  C   UNL A   1      36.638  31.803  32.452  1.00  0.00     0.200 A 
ATOM     87  F   UNL A   1      35.751  32.641  30.430  1.00  0.00    -0.200 F 
ATOM     88  F   UNL A   1      35.557  32.227  33.120  1.00  0.00    -0.200 F 
ENDBRANCH  54  78
BRANCH  66  89
ATOM     89  C   UNL A   1      45.083  33.788  29.655  1.00  0.00     0.064 A 
ATOM     90  C   UNL A   1      45.810  33.991  30.838  1.00  0.00     0.173 A 
ATOM     91  C   UNL A   1      44.932  34.873  28.780  1.00  0.00     0.173 A 
ATOM     92  F   UNL A   1      45.966  32.987  31.714  1.00  0.00    -0.203 F 
ATOM     93  C   UNL A   1      46.342  35.240  31.144  1.00  0.00     0.198 A 
ATOM     94  C   UNL A   1      45.488  36.115  29.078  1.00  0.00     0.198 A 
ATOM     95  F   UNL A   1      44.250  34.730  27.634  1.00  0.00    -0.203 F 
ATOM     96  F   UNL A   1      46.989  35.423  32.303  1.00  0.00    -0.200 F 
ATOM     97  C   UNL A   1      46.185  36.299  30.262  1.00  0.00     0.200 A 
ATOM     98  F   UNL A   1      45.345  37.135  28.220  1.00  0.00    -0.200 F 
ATOM     99  F   UNL A   1      46.697  37.501  30.560  1.00  0.00    -0.200 F 
ENDBRANCH  66  89
ENDBRANCH  40  41
ENDBRANCH  32  35
ENDBRANCH  30  31
ENDBRANCH  29  30
ENDBRANCH  28  29
ENDBRANCH  27  28
ENDBRANCH   1  27
TORSDOF 18
ENDMDL
MODEL 2
REMARK VINA RESULT:     -11.7      3.215      5.715
REMARK SMILES C[NH2+][C@@H](C)c1ccc(SCc2ccc(C(=O)NCCCCCCNC(=O)c3ccc(-c4c5nc(c(-c6c(F)c(F)c(F)c(F)c6F)c6ccc([nH]6)c(-c6c(F)c(F)c(F)c(F)c6F)c6nc(c(-c7c(F)c(F)c(F)c(F)c7F)c7ccc4[nH]7)C=C6)C=C5)cc3)cc2)cc1
REMARK SMILES IDX 19 1 18 2 17 3 15 4 16 5 14 7 11 8 12 9 91 10 13 11 90 12
REMARK SMILES IDX 10 13 9 14 8 15 5 16 6 17 93 18 7 19 92 20 3 21 4 22 2 23
REMARK SMILES IDX 1 24 20 27 21 28 22 29 23 30 24 31 25 32 26 34 27 35 28 36
REMARK SMILES IDX 89 37 29 38 88 39 30 40 31 41 32 42 82 43 33 44 87 45 81 46
REMARK SMILES IDX 83 47 34 48 86 49 80 50 79 51 35 53 67 54 47 55 66 56 48 57
REMARK SMILES IDX 51 58 65 59 84 60 49 61 50 62 64 64 85 65 52 66 36 67 37 68
REMARK SMILES IDX 45 69 38 70 39 71 43 72 46 73 40 74 41 75 44 76 42 77 68 78
REMARK SMILES IDX 69 79 77 80 70 81 71 82 75 83 78 84 72 85 73 86 76 87 74 88
REMARK SMILES IDX 53 89 54 90 62 91 55 92 56 93 60 94 63 95 57 96 58 97 61 98
REMARK SMILES IDX 59 99
REMARK H PARENT 17 6 2 25 2 26 24 33 83 52 51 63
REMARK Flexibility Score: inf
ROOT
ATOM      1  C   UNL A   1      40.611  22.870  26.868  1.00  0.00     0.021 C 
ENDROOT
BRANCH   1   2
ATOM      2  C   UNL A   1      39.151  23.123  26.486  1.00  0.00     0.116 C 
BRANCH   2   3
ATOM      3  N   UNL A   1      38.605  21.950  25.835  1.00  0.00    -0.352 N 
ATOM      4  C   UNL A   1      37.397  21.685  25.248  1.00  0.00     0.251 C 
ATOM      5  O   UNL A   1      37.218  20.537  24.836  1.00  0.00    -0.269 OA
ATOM      6  H   UNL A   1      39.229  21.190  25.809  1.00  0.00     0.163 HD
BRANCH   4   7
ATOM      7  C   UNL A   1      36.344  22.712  25.014  1.00  0.00     0.039 A 
ATOM      8  C   UNL A   1      34.137  24.492  24.797  1.00  0.00    -0.038 A 
ATOM      9  C   UNL A   1      34.597  24.064  26.045  1.00  0.00     0.005 A 
ATOM     10  C   UNL A   1      34.874  24.098  23.668  1.00  0.00     0.005 A 
ATOM     11  C   UNL A   1      35.666  23.171  26.150  1.00  0.00     0.014 A 
ATOM     12  C   UNL A   1      35.984  23.248  23.777  1.00  0.00     0.014 A 
BRANCH   8  13
ATOM     13  C   UNL A   1      32.866  25.286  24.570  1.00  0.00     0.110 C 
BRANCH  13  14
ATOM     14  S   UNL A   1      31.271  24.413  24.476  1.00  0.00    -0.121 SA
BRANCH  14  15
ATOM     15  C   UNL A   1      31.707  22.698  24.195  1.00  0.00     0.008 A 
ATOM     16  C   UNL A   1      32.539  19.996  23.980  1.00  0.00     0.009 A 
ATOM     17  C   UNL A   1      32.219  20.551  25.225  1.00  0.00     0.011 A 
ATOM     18  C   UNL A   1      32.408  20.805  22.841  1.00  0.00     0.011 A 
ATOM     19  C   UNL A   1      31.812  21.885  25.329  1.00  0.00     0.015 A 
ATOM     20  C   UNL A   1      31.986  22.137  22.947  1.00  0.00     0.015 A 
BRANCH  16  21
ATOM     21  C   UNL A   1      32.962  18.534  23.888  1.00  0.00     0.210 C 
ATOM     22  C   UNL A   1      32.480  17.889  22.581  1.00  0.00     0.081 C 
BRANCH  21  23
ATOM     23  N   UNL A   1      32.498  17.835  25.092  1.00  0.00    -0.343 N 
ATOM     24  C   UNL A   1      33.229  16.613  25.381  1.00  0.00     0.331 C 
ATOM     25  H   UNL A   1      32.598  18.465  25.888  1.00  0.00     0.346 HD
ATOM     26  H   UNL A   1      31.530  17.565  24.924  1.00  0.00     0.346 HD
ENDBRANCH  21  23
ENDBRANCH  16  21
ENDBRANCH  14  15
ENDBRANCH  13  14
ENDBRANCH   8  13
ENDBRANCH   4   7
ENDBRANCH   2   3
ENDBRANCH   1   2
BRANCH   1  27
ATOM     27  C   UNL A   1      40.790  21.669  27.808  1.00  0.00     0.002 C 
BRANCH  27  28
ATOM     28  C   UNL A   1      42.199  21.064  27.817  1.00  0.00     0.002 C 
BRANCH  28  29
ATOM     29  C   UNL A   1      42.299  19.645  27.247  1.00  0.00     0.021 C 
BRANCH  29  30
ATOM     30  C   UNL A   1      42.011  19.539  25.752  1.00  0.00     0.116 C 
BRANCH  30  31
ATOM     31  N   UNL A   1      43.156  19.030  25.016  1.00  0.00    -0.352 N 
ATOM     32  C   UNL A   1      44.270  19.689  24.563  1.00  0.00     0.251 C 
ATOM     33  H   UNL A   1      43.126  18.068  24.810  1.00  0.00     0.163 HD
ATOM     34  O   UNL A   1      45.031  19.137  23.774  1.00  0.00    -0.269 OA
BRANCH  32  35
ATOM     35  C   UNL A   1      44.555  21.069  25.009  1.00  0.00     0.039 A 
ATOM     36  C   UNL A   1      44.044  22.133  24.260  1.00  0.00     0.014 A 
ATOM     37  C   UNL A   1      45.357  21.323  26.126  1.00  0.00     0.014 A 
ATOM     38  C   UNL A   1      44.297  23.447  24.656  1.00  0.00     0.010 A 
ATOM     39  C   UNL A   1      45.561  22.633  26.556  1.00  0.00     0.010 A 
ATOM     40  C   UNL A   1      45.038  23.706  25.821  1.00  0.00    -0.014 A 
BRANCH  40  41
ATOM     41  C   UNL A   1      45.256  25.102  26.277  1.00  0.00     0.031 A 
ATOM     42  C   UNL A   1      46.611  25.740  26.172  1.00  0.00     0.074 A 
ATOM     43  C   UNL A   1      44.231  25.783  26.823  1.00  0.00     0.049 A 
ATOM     44  N   UNL A   1      46.984  26.951  26.504  1.00  0.00    -0.248 NA
ATOM     45  C   UNL A   1      47.700  24.901  25.648  1.00  0.00     0.031 C 
ATOM     46  C   UNL A   1      42.885  25.250  27.038  1.00  0.00     0.029 A 
ATOM     47  N   UNL A   1      44.160  27.069  27.296  1.00  0.00    -0.354 N 
ATOM     48  C   UNL A   1      48.345  27.015  26.237  1.00  0.00     0.074 A 
ATOM     49  C   UNL A   1      48.745  25.708  25.763  1.00  0.00     0.031 C 
ATOM     50  C   UNL A   1      42.114  26.209  27.575  1.00  0.00     0.029 A 
ATOM     51  C   UNL A   1      42.916  27.414  27.761  1.00  0.00     0.049 A 
ATOM     52  H   UNL A   1      44.929  27.684  27.303  1.00  0.00     0.167 HD
ATOM     53  C   UNL A   1      49.179  28.077  26.355  1.00  0.00     0.037 A 
ATOM     54  C   UNL A   1      42.469  28.578  28.271  1.00  0.00     0.037 A 
ATOM     55  C   UNL A   1      48.772  29.384  26.802  1.00  0.00     0.049 A 
ATOM     56  C   UNL A   1      43.408  29.748  28.363  1.00  0.00     0.074 A 
ATOM     57  C   UNL A   1      49.525  30.543  26.883  1.00  0.00     0.029 A 
ATOM     58  N   UNL A   1      47.498  29.704  27.247  1.00  0.00    -0.354 N 
ATOM     59  N   UNL A   1      44.673  29.822  28.028  1.00  0.00    -0.248 NA
ATOM     60  C   UNL A   1      42.852  30.999  28.895  1.00  0.00     0.031 C 
ATOM     61  C   UNL A   1      48.715  31.554  27.415  1.00  0.00     0.029 A 
ATOM     62  C   UNL A   1      47.448  31.036  27.626  1.00  0.00     0.049 A 
ATOM     63  H   UNL A   1      46.739  29.076  27.288  1.00  0.00     0.167 HD
ATOM     64  C   UNL A   1      45.060  31.129  28.291  1.00  0.00     0.074 A 
ATOM     65  C   UNL A   1      43.889  31.818  28.794  1.00  0.00     0.031 C 
ATOM     66  C   UNL A   1      46.278  31.704  28.134  1.00  0.00     0.037 A 
BRANCH  53  67
ATOM     67  C   UNL A   1      50.619  27.869  25.988  1.00  0.00     0.064 A 
ATOM     68  C   UNL A   1      51.591  27.581  26.958  1.00  0.00     0.173 A 
ATOM     69  C   UNL A   1      51.027  27.922  24.646  1.00  0.00     0.173 A 
ATOM     70  F   UNL A   1      51.254  27.530  28.256  1.00  0.00    -0.203 F 
ATOM     71  C   UNL A   1      52.922  27.385  26.603  1.00  0.00     0.198 A 
ATOM     72  C   UNL A   1      52.355  27.698  24.292  1.00  0.00     0.198 A 
ATOM     73  F   UNL A   1      50.137  28.187  23.679  1.00  0.00    -0.203 F 
ATOM     74  F   UNL A   1      53.841  27.159  27.552  1.00  0.00    -0.200 F 
ATOM     75  C   UNL A   1      53.303  27.437  25.270  1.00  0.00     0.200 A 
ATOM     76  F   UNL A   1      52.719  27.737  23.003  1.00  0.00    -0.200 F 
ATOM     77  F   UNL A   1      54.584  27.243  24.930  1.00  0.00    -0.200 F 
ENDBRANCH  53  67
BRANCH  54  78
ATOM     78  C   UNL A   1      41.052  28.699  28.692  1.00  0.00     0.064 A 
ATOM     79  C   UNL A   1      40.057  29.059  27.772  1.00  0.00     0.173 A 
ATOM     80  C   UNL A   1      40.659  28.446  30.015  1.00  0.00     0.173 A 
ATOM     81  F   UNL A   1      40.388  29.327  26.500  1.00  0.00    -0.203 F 
ATOM     82  C   UNL A   1      38.725  29.174  28.162  1.00  0.00     0.198 A 
ATOM     83  C   UNL A   1      39.323  28.539  30.398  1.00  0.00     0.198 A 
ATOM     84  F   UNL A   1      41.573  28.094  30.930  1.00  0.00    -0.203 F 
ATOM     85  F   UNL A   1      37.799  29.553  27.271  1.00  0.00    -0.200 F 
ATOM     86  C   UNL A   1      38.358  28.909  29.473  1.00  0.00     0.200 A 
ATOM     87  F   UNL A   1      38.971  28.269  31.662  1.00  0.00    -0.200 F 
ATOM     88  F   UNL A   1      37.076  29.014  29.845  1.00  0.00    -0.200 F 
ENDBRANCH  54  78
BRANCH  66  89
ATOM     89  C   UNL A   1      46.398  33.153  28.506  1.00  0.00     0.064 A 
ATOM     90  C   UNL A   1      46.771  33.547  29.799  1.00  0.00     0.173 A 
ATOM     91  C   UNL A   1      46.155  34.155  27.555  1.00  0.00     0.173 A 
ATOM     92  F   UNL A   1      46.998  32.624  30.747  1.00  0.00    -0.203 F 
ATOM     93  C   UNL A   1      46.869  34.894  30.135  1.00  0.00     0.198 A 
ATOM     94  C   UNL A   1      46.280  35.501  27.888  1.00  0.00     0.198 A 
ATOM     95  F   UNL A   1      45.800  33.829  26.304  1.00  0.00    -0.203 F 
ATOM     96  F   UNL A   1      47.178  35.248  31.390  1.00  0.00    -0.200 F 
ATOM     97  C   UNL A   1      46.629  35.869  29.179  1.00  0.00     0.200 A 
ATOM     98  F   UNL A   1      46.058  36.443  26.961  1.00  0.00    -0.200 F 
ATOM     99  F   UNL A   1      46.723  37.165  29.505  1.00  0.00    -0.200 F 
ENDBRANCH  66  89
ENDBRANCH  40  41
ENDBRANCH  32  35
ENDBRANCH  30  31
ENDBRANCH  29  30
ENDBRANCH  28  29
ENDBRANCH  27  28
ENDBRANCH   1  27
TORSDOF 18
ENDMDL
MODEL 3
REMARK VINA RESULT:     -11.7      2.259      3.068
REMARK SMILES C[NH2+][C@@H](C)c1ccc(SCc2ccc(C(=O)NCCCCCCNC(=O)c3ccc(-c4c5nc(c(-c6c(F)c(F)c(F)c(F)c6F)c6ccc([nH]6)c(-c6c(F)c(F)c(F)c(F)c6F)c6nc(c(-c7c(F)c(F)c(F)c(F)c7F)c7ccc4[nH]7)C=C6)C=C5)cc3)cc2)cc1
REMARK SMILES IDX 19 1 18 2 17 3 15 4 16 5 14 7 11 8 12 9 91 10 13 11 90 12
REMARK SMILES IDX 10 13 9 14 8 15 5 16 6 17 93 18 7 19 92 20 3 21 4 22 2 23
REMARK SMILES IDX 1 24 20 27 21 28 22 29 23 30 24 31 25 32 26 34 27 35 28 36
REMARK SMILES IDX 89 37 29 38 88 39 30 40 31 41 32 42 82 43 33 44 87 45 81 46
REMARK SMILES IDX 83 47 34 48 86 49 80 50 79 51 35 53 67 54 47 55 66 56 48 57
REMARK SMILES IDX 51 58 65 59 84 60 49 61 50 62 64 64 85 65 52 66 36 67 37 68
REMARK SMILES IDX 45 69 38 70 39 71 43 72 46 73 40 74 41 75 44 76 42 77 68 78
REMARK SMILES IDX 69 79 77 80 70 81 71 82 75 83 78 84 72 85 73 86 76 87 74 88
REMARK SMILES IDX 53 89 54 90 62 91 55 92 56 93 60 94 63 95 57 96 58 97 61 98
REMARK SMILES IDX 59 99
REMARK H PARENT 17 6 2 25 2 26 24 33 83 52 51 63
REMARK Flexibility Score: inf
ROOT
ATOM      1  C   UNL A   1      35.144  22.224  26.069  1.00  0.00     0.021 C 
ENDROOT
BRANCH   1   2
ATOM      2  C   UNL A   1      34.353  21.459  27.133  1.00  0.00     0.116 C 
BRANCH   2   3
ATOM      3  N   UNL A   1      33.650  20.353  26.518  1.00  0.00    -0.352 N 
ATOM      4  C   UNL A   1      32.630  20.285  25.607  1.00  0.00     0.251 C 
ATOM      5  O   UNL A   1      32.201  19.162  25.334  1.00  0.00    -0.269 OA
ATOM      6  H   UNL A   1      33.970  19.471  26.815  1.00  0.00     0.163 HD
BRANCH   4   7
ATOM      7  C   UNL A   1      32.080  21.466  24.886  1.00  0.00     0.039 A 
ATOM      8  C   UNL A   1      31.352  23.754  23.362  1.00  0.00    -0.038 A 
ATOM      9  C   UNL A   1      32.058  22.697  22.781  1.00  0.00     0.005 A 
ATOM     10  C   UNL A   1      30.924  23.592  24.690  1.00  0.00     0.005 A 
ATOM     11  C   UNL A   1      32.436  21.583  23.536  1.00  0.00     0.014 A 
ATOM     12  C   UNL A   1      31.253  22.448  25.431  1.00  0.00     0.014 A 
BRANCH   8  13
ATOM     13  C   UNL A   1      31.081  25.085  22.690  1.00  0.00     0.110 C 
BRANCH  13  14
ATOM     14  S   UNL A   1      32.473  26.192  22.301  1.00  0.00    -0.121 SA
BRANCH  14  15
ATOM     15  C   UNL A   1      32.522  27.357  23.662  1.00  0.00     0.008 A 
ATOM     16  C   UNL A   1      32.344  29.264  25.752  1.00  0.00     0.009 A 
ATOM     17  C   UNL A   1      31.251  28.451  25.428  1.00  0.00     0.011 A 
ATOM     18  C   UNL A   1      33.536  29.087  25.034  1.00  0.00     0.011 A 
ATOM     19  C   UNL A   1      31.340  27.513  24.394  1.00  0.00     0.015 A 
ATOM     20  C   UNL A   1      33.627  28.137  24.008  1.00  0.00     0.015 A 
BRANCH  16  21
ATOM     21  C   UNL A   1      32.231  30.266  26.895  1.00  0.00     0.210 C 
ATOM     22  C   UNL A   1      31.405  31.495  26.490  1.00  0.00     0.081 C 
BRANCH  21  23
ATOM     23  N   UNL A   1      33.582  30.598  27.364  1.00  0.00    -0.343 N 
ATOM     24  C   UNL A   1      33.689  31.914  27.968  1.00  0.00     0.331 C 
ATOM     25  H   UNL A   1      33.860  29.903  28.057  1.00  0.00     0.346 HD
ATOM     26  H   UNL A   1      34.188  30.599  26.544  1.00  0.00     0.346 HD
ENDBRANCH  21  23
ENDBRANCH  16  21
ENDBRANCH  14  15
ENDBRANCH  13  14
ENDBRANCH   8  13
ENDBRANCH   4   7
ENDBRANCH   2   3
ENDBRANCH   1   2
BRANCH   1  27
ATOM     27  C   UNL A   1      36.542  21.639  25.819  1.00  0.00     0.002 C 
BRANCH  27  28
ATOM     28  C   UNL A   1      36.580  20.454  24.846  1.00  0.00     0.002 C 
BRANCH  28  29
ATOM     29  C   UNL A   1      37.794  19.532  24.993  1.00  0.00     0.021 C 
BRANCH  29  30
ATOM     30  C   UNL A   1      38.968  20.144  25.752  1.00  0.00     0.116 C 
BRANCH  30  31
ATOM     31  N   UNL A   1      40.070  19.207  25.890  1.00  0.00    -0.352 N 
ATOM     32  C   UNL A   1      41.406  19.448  26.080  1.00  0.00     0.251 C 
ATOM     33  H   UNL A   1      39.820  18.256  25.839  1.00  0.00     0.163 HD
ATOM     34  O   UNL A   1      42.217  18.536  25.961  1.00  0.00    -0.269 OA
BRANCH  32  35
ATOM     35  C   UNL A   1      41.880  20.808  26.416  1.00  0.00     0.039 A 
ATOM     36  C   UNL A   1      42.072  21.724  25.378  1.00  0.00     0.014 A 
ATOM     37  C   UNL A   1      42.180  21.171  27.733  1.00  0.00     0.014 A 
ATOM     38  C   UNL A   1      42.519  23.015  25.664  1.00  0.00     0.010 A 
ATOM     39  C   UNL A   1      42.569  22.477  28.025  1.00  0.00     0.010 A 
ATOM     40  C   UNL A   1      42.749  23.408  26.993  1.00  0.00    -0.014 A 
BRANCH  40  41
ATOM     41  C   UNL A   1      43.165  24.799  27.304  1.00  0.00     0.031 A 
ATOM     42  C   UNL A   1      44.565  25.261  27.018  1.00  0.00     0.074 A 
ATOM     43  C   UNL A   1      42.283  25.636  27.881  1.00  0.00     0.049 A 
ATOM     44  N   UNL A   1      45.101  26.441  27.207  1.00  0.00    -0.248 NA
ATOM     45  C   UNL A   1      45.494  24.262  26.470  1.00  0.00     0.031 C 
ATOM     46  C   UNL A   1      40.915  25.285  28.266  1.00  0.00     0.029 A 
ATOM     47  N   UNL A   1      42.404  26.953  28.245  1.00  0.00    -0.354 N 
ATOM     48  C   UNL A   1      46.426  26.323  26.810  1.00  0.00     0.074 A 
ATOM     49  C   UNL A   1      46.629  24.945  26.418  1.00  0.00     0.031 C 
ATOM     50  C   UNL A   1      40.314  26.366  28.787  1.00  0.00     0.029 A 
ATOM     51  C   UNL A   1      41.259  27.478  28.791  1.00  0.00     0.049 A 
ATOM     52  H   UNL A   1      43.233  27.471  28.126  1.00  0.00     0.167 HD
ATOM     53  C   UNL A   1      47.380  27.284  26.758  1.00  0.00     0.037 A 
ATOM     54  C   UNL A   1      40.999  28.722  29.238  1.00  0.00     0.037 A 
ATOM     55  C   UNL A   1      47.169  28.660  27.124  1.00  0.00     0.049 A 
ATOM     56  C   UNL A   1      42.066  29.776  29.140  1.00  0.00     0.074 A 
ATOM     57  C   UNL A   1      48.049  29.724  27.034  1.00  0.00     0.029 A 
ATOM     58  N   UNL A   1      45.990  29.162  27.657  1.00  0.00    -0.354 N 
ATOM     59  N   UNL A   1      43.290  29.674  28.683  1.00  0.00    -0.248 NA
ATOM     60  C   UNL A   1      41.709  31.121  29.610  1.00  0.00     0.031 C 
ATOM     61  C   UNL A   1      47.416  30.861  27.549  1.00  0.00     0.029 A 
ATOM     62  C   UNL A   1      46.127  30.515  27.921  1.00  0.00     0.049 A 
ATOM     63  H   UNL A   1      45.175  28.633  27.822  1.00  0.00     0.167 HD
ATOM     64  C   UNL A   1      43.845  30.941  28.794  1.00  0.00     0.074 A 
ATOM     65  C   UNL A   1      42.815  31.801  29.342  1.00  0.00     0.031 C 
ATOM     66  C   UNL A   1      45.096  31.354  28.476  1.00  0.00     0.037 A 
BRANCH  53  67
ATOM     67  C   UNL A   1      48.743  26.879  26.278  1.00  0.00     0.064 A 
ATOM     68  C   UNL A   1      49.117  27.008  24.931  1.00  0.00     0.173 A 
ATOM     69  C   UNL A   1      49.700  26.388  27.179  1.00  0.00     0.173 A 
ATOM     70  F   UNL A   1      48.235  27.462  24.027  1.00  0.00    -0.203 F 
ATOM     71  C   UNL A   1      50.386  26.635  24.500  1.00  0.00     0.198 A 
ATOM     72  C   UNL A   1      50.978  26.040  26.748  1.00  0.00     0.198 A 
ATOM     73  F   UNL A   1      49.398  26.250  28.477  1.00  0.00    -0.203 F 
ATOM     74  F   UNL A   1      50.703  26.723  23.201  1.00  0.00    -0.200 F 
ATOM     75  C   UNL A   1      51.318  26.156  25.408  1.00  0.00     0.200 A 
ATOM     76  F   UNL A   1      51.881  25.589  27.630  1.00  0.00    -0.200 F 
ATOM     77  F   UNL A   1      52.541  25.801  24.992  1.00  0.00    -0.200 F 
ENDBRANCH  53  67
BRANCH  54  78
ATOM     78  C   UNL A   1      39.654  29.042  29.777  1.00  0.00     0.064 A 
ATOM     79  C   UNL A   1      39.369  28.881  31.139  1.00  0.00     0.173 A 
ATOM     80  C   UNL A   1      38.633  29.528  28.947  1.00  0.00     0.173 A 
ATOM     81  F   UNL A   1      40.310  28.403  31.968  1.00  0.00    -0.203 F 
ATOM     82  C   UNL A   1      38.109  29.180  31.650  1.00  0.00     0.198 A 
ATOM     83  C   UNL A   1      37.380  29.850  29.463  1.00  0.00     0.198 A 
ATOM     84  F   UNL A   1      38.860  29.705  27.637  1.00  0.00    -0.203 F 
ATOM     85  F   UNL A   1      37.851  28.984  32.950  1.00  0.00    -0.200 F 
ATOM     86  C   UNL A   1      37.117  29.670  30.814  1.00  0.00     0.200 A 
ATOM     87  F   UNL A   1      36.429  30.335  28.654  1.00  0.00    -0.200 F 
ATOM     88  F   UNL A   1      35.907  29.964  31.307  1.00  0.00    -0.200 F 
ENDBRANCH  54  78
BRANCH  66  89
ATOM     89  C   UNL A   1      45.413  32.802  28.707  1.00  0.00     0.064 A 
ATOM     90  C   UNL A   1      46.005  33.239  29.901  1.00  0.00     0.173 A 
ATOM     91  C   UNL A   1      45.140  33.758  27.718  1.00  0.00     0.173 A 
ATOM     92  F   UNL A   1      46.270  32.363  30.883  1.00  0.00    -0.203 F 
ATOM     93  C   UNL A   1      46.285  34.587  30.108  1.00  0.00     0.198 A 
ATOM     94  C   UNL A   1      45.446  35.102  27.919  1.00  0.00     0.198 A 
ATOM     95  F   UNL A   1      44.580  33.390  26.557  1.00  0.00    -0.203 F 
ATOM     96  F   UNL A   1      46.804  34.988  31.277  1.00  0.00    -0.200 F 
ATOM     97  C   UNL A   1      46.011  35.516  29.116  1.00  0.00     0.200 A 
ATOM     98  F   UNL A   1      45.190  35.997  26.955  1.00  0.00    -0.200 F 
ATOM     99  F   UNL A   1      46.281  36.812  29.318  1.00  0.00    -0.200 F 
ENDBRANCH  66  89
ENDBRANCH  40  41
ENDBRANCH  32  35
ENDBRANCH  30  31
ENDBRANCH  29  30
ENDBRANCH  28  29
ENDBRANCH  27  28
ENDBRANCH   1  27
TORSDOF 18
ENDMDL
