MODEL 1
REMARK VINA RESULT:     -12.2      0.000      0.000
REMARK SMILES CC(=O)C1=C(NCCCCCCNC(=O)c2ccc(-c3c4nc(c(-c5c(F)c(F)c(F)c(F)c5F)c5ccc([nH]5)c(-c5c(F)c(F)c(F)c(F)c5F)c5nc(c(-c6c(F)c(F)c(F)c(F)c6F)c6ccc3[nH]6)C=C5)C=C4)cc2)C(=O)N(c2cccc(C(=O)[O-])c2)[C@@H]1c1ccc([N+](=O)[O-])cc1
REMARK SMILES IDX 9 1 8 2 7 3 6 4 5 6 4 7 91 8 79 9 81 10 80 11 2 12 1 13 3 14
REMARK SMILES IDX 92 15 93 16 100 17 94 18 99 19 95 20 96 21 97 22 98 23 82 24
REMARK SMILES IDX 83 25 90 26 84 27 86 28 85 29 87 30 88 31 89 32 10 33 11 34
REMARK SMILES IDX 12 35 13 36 14 37 15 39 16 40 17 41 78 42 18 43 77 44 19 45
REMARK SMILES IDX 20 46 21 47 71 48 22 49 76 50 70 51 72 52 23 53 75 54 69 55
REMARK SMILES IDX 68 56 24 58 56 59 36 60 55 61 37 62 40 63 54 64 73 65 38 66
REMARK SMILES IDX 39 67 53 69 74 70 41 71 25 72 26 73 34 74 27 75 28 76 32 77
REMARK SMILES IDX 35 78 29 79 30 80 33 81 31 82 57 83 58 84 66 85 59 86 60 87
REMARK SMILES IDX 64 88 67 89 61 90 62 91 65 92 63 93 42 94 43 95 51 96 44 97
REMARK SMILES IDX 45 98 49 99 52 100 46 101 47 102 50 103 48 104
REMARK H PARENT 6 5 13 38 72 57 40 68
REMARK Flexibility Score: inf
ROOT
ATOM      1  C   UNL A   1      31.779  26.669  26.510  1.00  0.00     0.002 C 
ENDROOT
BRANCH   1   2
ATOM      2  C   UNL A   1      30.483  26.100  25.925  1.00  0.00     0.021 C 
BRANCH   2   3
ATOM      3  C   UNL A   1      30.196  26.535  24.491  1.00  0.00     0.113 C 
BRANCH   3   4
ATOM      4  N   UNL A   1      30.445  25.432  23.595  1.00  0.00    -0.380 N 
ATOM      5  H   UNL A   1      29.759  25.290  22.904  1.00  0.00     0.160 HD
BRANCH   4   6
ATOM      6  C   UNL A   1      31.496  24.558  23.567  1.00  0.00     0.110 C 
ATOM      7  C   UNL A   1      32.772  24.597  23.174  1.00  0.00     0.051 C 
ATOM      8  C   UNL A   1      33.528  23.324  23.397  1.00  0.00     0.157 C 
ATOM      9  C   UNL A   1      31.289  23.158  24.068  1.00  0.00     0.275 C 
ATOM     10  N   UNL A   1      32.521  22.527  24.074  1.00  0.00    -0.295 N 
ATOM     11  O   UNL A   1      30.202  22.731  24.425  1.00  0.00    -0.267 OA
BRANCH   7  12
ATOM     12  C   UNL A   1      33.426  25.773  22.578  1.00  0.00     0.160 C 
ATOM     13  C   UNL A   1      33.763  26.919  23.488  1.00  0.00     0.093 C 
ATOM     14  O   UNL A   1      33.646  25.820  21.370  1.00  0.00    -0.295 OA
ENDBRANCH   7  12
BRANCH   8  15
ATOM     15  C   UNL A   1      34.862  23.452  24.118  1.00  0.00    -0.020 A 
ATOM     16  C   UNL A   1      34.982  24.010  25.402  1.00  0.00     0.013 A 
ATOM     17  C   UNL A   1      36.022  22.939  23.500  1.00  0.00     0.013 A 
ATOM     18  C   UNL A   1      36.217  24.067  26.051  1.00  0.00     0.086 A 
ATOM     19  C   UNL A   1      37.250  22.938  24.164  1.00  0.00     0.086 A 
ATOM     20  C   UNL A   1      37.342  23.507  25.437  1.00  0.00     0.269 A 
BRANCH  20  21
ATOM     21  N   UNL A   1      38.620  23.492  26.149  1.00  0.00     0.062 N 
ATOM     22  O   UNL A   1      39.073  24.576  26.544  1.00  0.00    -0.258 OA
ATOM     23  O   UNL A   1      39.168  22.393  26.320  1.00  0.00    -0.258 OA
ENDBRANCH  20  21
ENDBRANCH   8  15
BRANCH  10  24
ATOM     24  C   UNL A   1      32.694  21.182  24.449  1.00  0.00     0.046 A 
ATOM     25  C   UNL A   1      32.825  20.817  25.792  1.00  0.00     0.026 A 
ATOM     26  C   UNL A   1      32.771  20.197  23.462  1.00  0.00     0.036 A 
ATOM     27  C   UNL A   1      32.952  19.469  26.143  1.00  0.00     0.003 A 
ATOM     28  C   UNL A   1      32.889  18.847  23.807  1.00  0.00    -0.001 A 
ATOM     29  C   UNL A   1      32.973  18.484  25.154  1.00  0.00     0.010 A 
BRANCH  28  30
ATOM     30  C   UNL A   1      32.920  17.790  22.769  1.00  0.00     0.072 C 
ATOM     31  O   UNL A   1      33.504  16.725  22.854  1.00  0.00    -0.545 OA
ATOM     32  O   UNL A   1      32.184  18.104  21.687  1.00  0.00    -0.545 OA
ENDBRANCH  28  30
ENDBRANCH  10  24
ENDBRANCH   4   6
ENDBRANCH   3   4
ENDBRANCH   2   3
ENDBRANCH   1   2
BRANCH   1  33
ATOM     33  C   UNL A   1      31.647  28.053  27.153  1.00  0.00     0.002 C 
BRANCH  33  34
ATOM     34  C   UNL A   1      31.754  29.229  26.182  1.00  0.00     0.021 C 
BRANCH  34  35
ATOM     35  C   UNL A   1      33.031  30.049  26.321  1.00  0.00     0.116 C 
BRANCH  35  36
ATOM     36  N   UNL A   1      32.758  31.449  26.605  1.00  0.00    -0.352 N 
ATOM     37  C   UNL A   1      33.432  32.307  27.437  1.00  0.00     0.251 C 
ATOM     38  H   UNL A   1      31.983  31.834  26.134  1.00  0.00     0.163 HD
ATOM     39  O   UNL A   1      32.969  33.408  27.713  1.00  0.00    -0.269 OA
BRANCH  37  40
ATOM     40  C   UNL A   1      34.717  31.877  28.021  1.00  0.00     0.039 A 
ATOM     41  C   UNL A   1      35.783  32.778  28.059  1.00  0.00     0.014 A 
ATOM     42  C   UNL A   1      34.853  30.595  28.563  1.00  0.00     0.014 A 
ATOM     43  C   UNL A   1      36.967  32.418  28.704  1.00  0.00     0.010 A 
ATOM     44  C   UNL A   1      36.002  30.267  29.272  1.00  0.00     0.010 A 
ATOM     45  C   UNL A   1      37.070  31.175  29.352  1.00  0.00    -0.014 A 
BRANCH  45  46
ATOM     46  C   UNL A   1      38.279  30.802  30.128  1.00  0.00     0.031 A 
ATOM     47  C   UNL A   1      39.307  29.889  29.522  1.00  0.00     0.074 A 
ATOM     48  C   UNL A   1      38.401  31.205  31.408  1.00  0.00     0.049 A 
ATOM     49  N   UNL A   1      40.364  29.348  30.073  1.00  0.00    -0.248 NA
ATOM     50  C   UNL A   1      39.102  29.511  28.115  1.00  0.00     0.031 C 
ATOM     51  C   UNL A   1      37.448  32.055  32.121  1.00  0.00     0.029 A 
ATOM     52  N   UNL A   1      39.369  30.933  32.344  1.00  0.00    -0.354 N 
ATOM     53  C   UNL A   1      40.933  28.550  29.091  1.00  0.00     0.074 A 
ATOM     54  C   UNL A   1      40.080  28.638  27.926  1.00  0.00     0.031 C 
ATOM     55  C   UNL A   1      37.881  32.243  33.378  1.00  0.00     0.029 A 
ATOM     56  C   UNL A   1      39.113  31.487  33.575  1.00  0.00     0.049 A 
ATOM     57  H   UNL A   1      40.169  30.393  32.151  1.00  0.00     0.167 HD
ATOM     58  C   UNL A   1      42.075  27.824  29.151  1.00  0.00     0.037 A 
ATOM     59  C   UNL A   1      39.783  31.376  34.738  1.00  0.00     0.037 A 
ATOM     60  C   UNL A   1      42.929  27.759  30.309  1.00  0.00     0.049 A 
ATOM     61  C   UNL A   1      41.042  30.552  34.785  1.00  0.00     0.074 A 
ATOM     62  C   UNL A   1      44.144  27.111  30.448  1.00  0.00     0.029 A 
ATOM     63  N   UNL A   1      42.650  28.354  31.531  1.00  0.00    -0.354 N 
ATOM     64  N   UNL A   1      41.614  29.860  33.829  1.00  0.00    -0.248 NA
ATOM     65  C   UNL A   1      41.752  30.495  36.071  1.00  0.00     0.031 C 
ATOM     66  C   UNL A   1      44.566  27.256  31.773  1.00  0.00     0.029 A 
ATOM     67  C   UNL A   1      43.653  28.058  32.440  1.00  0.00     0.049 A 
ATOM     68  H   UNL A   1      41.858  28.907  31.723  1.00  0.00     0.167 HD
ATOM     69  C   UNL A   1      42.762  29.315  34.386  1.00  0.00     0.074 A 
ATOM     70  C   UNL A   1      42.812  29.762  35.761  1.00  0.00     0.031 C 
ATOM     71  C   UNL A   1      43.695  28.518  33.807  1.00  0.00     0.037 A 
BRANCH  58  72
ATOM     72  C   UNL A   1      42.461  27.028  27.936  1.00  0.00     0.064 A 
ATOM     73  C   UNL A   1      43.222  27.582  26.896  1.00  0.00     0.173 A 
ATOM     74  C   UNL A   1      42.087  25.679  27.827  1.00  0.00     0.173 A 
ATOM     75  F   UNL A   1      43.598  28.869  26.945  1.00  0.00    -0.203 F 
ATOM     76  C   UNL A   1      43.561  26.828  25.774  1.00  0.00     0.198 A 
ATOM     77  C   UNL A   1      42.460  24.918  26.722  1.00  0.00     0.198 A 
ATOM     78  F   UNL A   1      41.366  25.095  28.795  1.00  0.00    -0.203 F 
ATOM     79  F   UNL A   1      44.236  27.397  24.766  1.00  0.00    -0.200 F 
ATOM     80  C   UNL A   1      43.187  25.496  25.693  1.00  0.00     0.200 A 
ATOM     81  F   UNL A   1      42.112  23.626  26.652  1.00  0.00    -0.200 F 
ATOM     82  F   UNL A   1      43.520  24.769  24.616  1.00  0.00    -0.200 F 
ENDBRANCH  58  72
BRANCH  59  83
ATOM     83  C   UNL A   1      39.275  32.069  35.952  1.00  0.00     0.064 A 
ATOM     84  C   UNL A   1      39.717  33.356  36.289  1.00  0.00     0.173 A 
ATOM     85  C   UNL A   1      38.333  31.462  36.796  1.00  0.00     0.173 A 
ATOM     86  F   UNL A   1      40.632  33.971  35.525  1.00  0.00    -0.203 F 
ATOM     87  C   UNL A   1      39.251  34.000  37.434  1.00  0.00     0.198 A 
ATOM     88  C   UNL A   1      37.842  32.120  37.921  1.00  0.00     0.198 A 
ATOM     89  F   UNL A   1      37.873  30.234  36.515  1.00  0.00    -0.203 F 
ATOM     90  F   UNL A   1      39.725  35.211  37.758  1.00  0.00    -0.200 F 
ATOM     91  C   UNL A   1      38.309  33.386  38.244  1.00  0.00     0.200 A 
ATOM     92  F   UNL A   1      36.920  31.529  38.692  1.00  0.00    -0.200 F 
ATOM     93  F   UNL A   1      37.855  34.009  39.341  1.00  0.00    -0.200 F 
ENDBRANCH  59  83
BRANCH  71  94
ATOM     94  C   UNL A   1      44.878  28.111  34.639  1.00  0.00     0.064 A 
ATOM     95  C   UNL A   1      46.056  28.870  34.675  1.00  0.00     0.173 A 
ATOM     96  C   UNL A   1      44.803  26.976  35.462  1.00  0.00     0.173 A 
ATOM     97  F   UNL A   1      46.184  29.957  33.897  1.00  0.00    -0.203 F 
ATOM     98  C   UNL A   1      47.122  28.498  35.491  1.00  0.00     0.198 A 
ATOM     99  C   UNL A   1      45.857  26.626  36.300  1.00  0.00     0.198 A 
ATOM    100  F   UNL A   1      43.696  26.218  35.470  1.00  0.00    -0.203 F 
ATOM    101  F   UNL A   1      48.254  29.215  35.477  1.00  0.00    -0.200 F 
ATOM    102  C   UNL A   1      47.017  27.384  36.310  1.00  0.00     0.200 A 
ATOM    103  F   UNL A   1      45.745  25.560  37.104  1.00  0.00    -0.200 F 
ATOM    104  F   UNL A   1      48.038  27.038  37.106  1.00  0.00    -0.200 F 
ENDBRANCH  71  94
ENDBRANCH  45  46
ENDBRANCH  37  40
ENDBRANCH  35  36
ENDBRANCH  34  35
ENDBRANCH  33  34
ENDBRANCH   1  33
TORSDOF 18
ENDMDL
MODEL 2
REMARK VINA RESULT:     -12.1      0.662      6.948
REMARK SMILES CC(=O)C1=C(NCCCCCCNC(=O)c2ccc(-c3c4nc(c(-c5c(F)c(F)c(F)c(F)c5F)c5ccc([nH]5)c(-c5c(F)c(F)c(F)c(F)c5F)c5nc(c(-c6c(F)c(F)c(F)c(F)c6F)c6ccc3[nH]6)C=C5)C=C4)cc2)C(=O)N(c2cccc(C(=O)[O-])c2)[C@@H]1c1ccc([N+](=O)[O-])cc1
REMARK SMILES IDX 9 1 8 2 7 3 6 4 5 6 4 7 91 8 79 9 81 10 80 11 2 12 1 13 3 14
REMARK SMILES IDX 92 15 93 16 100 17 94 18 99 19 95 20 96 21 97 22 98 23 82 24
REMARK SMILES IDX 83 25 90 26 84 27 86 28 85 29 87 30 88 31 89 32 10 33 11 34
REMARK SMILES IDX 12 35 13 36 14 37 15 39 16 40 17 41 78 42 18 43 77 44 19 45
REMARK SMILES IDX 20 46 21 47 71 48 22 49 76 50 70 51 72 52 23 53 75 54 69 55
REMARK SMILES IDX 68 56 24 58 56 59 36 60 55 61 37 62 40 63 54 64 73 65 38 66
REMARK SMILES IDX 39 67 53 69 74 70 41 71 25 72 26 73 34 74 27 75 28 76 32 77
REMARK SMILES IDX 35 78 29 79 30 80 33 81 31 82 57 83 58 84 66 85 59 86 60 87
REMARK SMILES IDX 64 88 67 89 61 90 62 91 65 92 63 93 42 94 43 95 51 96 44 97
REMARK SMILES IDX 45 98 49 99 52 100 46 101 47 102 50 103 48 104
REMARK H PARENT 6 5 13 38 72 57 40 68
REMARK Flexibility Score: inf
ROOT
ATOM      1  C   UNL A   1      32.018  26.920  26.794  1.00  0.00     0.002 C 
ENDROOT
BRANCH   1   2
ATOM      2  C   UNL A   1      30.968  25.948  26.250  1.00  0.00     0.021 C 
BRANCH   2   3
ATOM      3  C   UNL A   1      30.278  26.416  24.972  1.00  0.00     0.113 C 
BRANCH   3   4
ATOM      4  N   UNL A   1      30.628  25.536  23.884  1.00  0.00    -0.380 N 
ATOM      5  H   UNL A   1      30.055  25.605  23.087  1.00  0.00     0.160 HD
BRANCH   4   6
ATOM      6  C   UNL A   1      31.640  24.621  23.802  1.00  0.00     0.110 C 
ATOM      7  C   UNL A   1      32.913  24.625  23.395  1.00  0.00     0.051 C 
ATOM      8  C   UNL A   1      33.617  23.313  23.547  1.00  0.00     0.157 C 
ATOM      9  C   UNL A   1      31.379  23.207  24.236  1.00  0.00     0.275 C 
ATOM     10  N   UNL A   1      32.583  22.526  24.196  1.00  0.00    -0.295 N 
ATOM     11  O   UNL A   1      30.279  22.810  24.585  1.00  0.00    -0.267 OA
BRANCH   7  12
ATOM     12  C   UNL A   1      33.611  25.801  22.850  1.00  0.00     0.160 C 
ATOM     13  C   UNL A   1      33.936  26.921  23.797  1.00  0.00     0.093 C 
ATOM     14  O   UNL A   1      33.875  25.870  21.652  1.00  0.00    -0.295 OA
ENDBRANCH   7  12
BRANCH   8  15
ATOM     15  C   UNL A   1      34.961  23.348  24.257  1.00  0.00    -0.020 A 
ATOM     16  C   UNL A   1      36.159  22.951  23.639  1.00  0.00     0.013 A 
ATOM     17  C   UNL A   1      35.023  23.852  25.574  1.00  0.00     0.013 A 
ATOM     18  C   UNL A   1      37.381  23.042  24.309  1.00  0.00     0.086 A 
ATOM     19  C   UNL A   1      36.246  24.002  26.231  1.00  0.00     0.086 A 
ATOM     20  C   UNL A   1      37.421  23.591  25.594  1.00  0.00     0.269 A 
BRANCH  20  21
ATOM     21  N   UNL A   1      38.709  23.764  26.265  1.00  0.00     0.062 N 
ATOM     22  O   UNL A   1      39.096  24.922  26.479  1.00  0.00    -0.258 OA
ATOM     23  O   UNL A   1      39.332  22.741  26.585  1.00  0.00    -0.258 OA
ENDBRANCH  20  21
ENDBRANCH   8  15
BRANCH  10  24
ATOM     24  C   UNL A   1      32.702  21.158  24.503  1.00  0.00     0.046 A 
ATOM     25  C   UNL A   1      32.867  20.725  25.822  1.00  0.00     0.026 A 
ATOM     26  C   UNL A   1      32.692  20.218  23.471  1.00  0.00     0.036 A 
ATOM     27  C   UNL A   1      32.940  19.357  26.107  1.00  0.00     0.003 A 
ATOM     28  C   UNL A   1      32.755  18.849  23.750  1.00  0.00    -0.001 A 
ATOM     29  C   UNL A   1      32.872  18.420  25.074  1.00  0.00     0.010 A 
BRANCH  28  30
ATOM     30  C   UNL A   1      32.692  17.841  22.665  1.00  0.00     0.072 C 
ATOM     31  O   UNL A   1      32.053  17.944  21.633  1.00  0.00    -0.545 OA
ATOM     32  O   UNL A   1      33.464  16.767  22.910  1.00  0.00    -0.545 OA
ENDBRANCH  28  30
ENDBRANCH  10  24
ENDBRANCH   4   6
ENDBRANCH   3   4
ENDBRANCH   2   3
ENDBRANCH   1   2
BRANCH   1  33
ATOM     33  C   UNL A   1      31.463  28.254  27.304  1.00  0.00     0.002 C 
BRANCH  33  34
ATOM     34  C   UNL A   1      31.737  29.455  26.400  1.00  0.00     0.021 C 
BRANCH  34  35
ATOM     35  C   UNL A   1      33.130  30.054  26.551  1.00  0.00     0.116 C 
BRANCH  35  36
ATOM     36  N   UNL A   1      33.089  31.486  26.803  1.00  0.00    -0.352 N 
ATOM     37  C   UNL A   1      33.913  32.244  27.597  1.00  0.00     0.251 C 
ATOM     38  H   UNL A   1      32.374  31.978  26.339  1.00  0.00     0.163 HD
ATOM     39  O   UNL A   1      33.637  33.411  27.855  1.00  0.00    -0.269 OA
BRANCH  37  40
ATOM     40  C   UNL A   1      35.128  31.629  28.164  1.00  0.00     0.039 A 
ATOM     41  C   UNL A   1      36.299  32.385  28.244  1.00  0.00     0.014 A 
ATOM     42  C   UNL A   1      35.096  30.317  28.647  1.00  0.00     0.014 A 
ATOM     43  C   UNL A   1      37.423  31.848  28.875  1.00  0.00     0.010 A 
ATOM     44  C   UNL A   1      36.189  29.814  29.343  1.00  0.00     0.010 A 
ATOM     45  C   UNL A   1      37.362  30.575  29.466  1.00  0.00    -0.014 A 
BRANCH  45  46
ATOM     46  C   UNL A   1      38.508  30.017  30.228  1.00  0.00     0.031 A 
ATOM     47  C   UNL A   1      38.781  30.492  31.626  1.00  0.00     0.074 A 
ATOM     48  C   UNL A   1      39.355  29.159  29.626  1.00  0.00     0.049 A 
ATOM     49  N   UNL A   1      39.794  30.225  32.411  1.00  0.00    -0.248 NA
ATOM     50  C   UNL A   1      37.796  31.417  32.210  1.00  0.00     0.031 C 
ATOM     51  C   UNL A   1      39.222  28.659  28.259  1.00  0.00     0.029 A 
ATOM     52  N   UNL A   1      40.510  28.574  30.083  1.00  0.00    -0.354 N 
ATOM     53  C   UNL A   1      39.580  30.964  33.566  1.00  0.00     0.074 A 
ATOM     54  C   UNL A   1      38.370  31.729  33.363  1.00  0.00     0.031 C 
ATOM     55  C   UNL A   1      40.248  27.836  27.989  1.00  0.00     0.029 A 
ATOM     56  C   UNL A   1      41.138  27.790  29.145  1.00  0.00     0.049 A 
ATOM     57  H   UNL A   1      40.856  28.704  30.996  1.00  0.00     0.167 HD
ATOM     58  C   UNL A   1      40.320  30.988  34.700  1.00  0.00     0.037 A 
ATOM     59  C   UNL A   1      42.311  27.130  29.201  1.00  0.00     0.037 A 
ATOM     60  C   UNL A   1      41.514  30.207  34.901  1.00  0.00     0.049 A 
ATOM     61  C   UNL A   1      43.122  27.183  30.467  1.00  0.00     0.074 A 
ATOM     62  C   UNL A   1      42.294  30.105  36.039  1.00  0.00     0.029 A 
ATOM     63  N   UNL A   1      42.105  29.405  33.936  1.00  0.00    -0.354 N 
ATOM     64  N   UNL A   1      42.875  27.826  31.583  1.00  0.00    -0.248 NA
ATOM     65  C   UNL A   1      44.376  26.416  30.485  1.00  0.00     0.031 C 
ATOM     66  C   UNL A   1      43.396  29.296  35.741  1.00  0.00     0.029 A 
ATOM     67  C   UNL A   1      43.261  28.832  34.441  1.00  0.00     0.049 A 
ATOM     68  H   UNL A   1      41.754  29.262  33.027  1.00  0.00     0.167 HD
ATOM     69  C   UNL A   1      43.919  27.517  32.443  1.00  0.00     0.074 A 
ATOM     70  C   UNL A   1      44.800  26.621  31.724  1.00  0.00     0.031 C 
ATOM     71  C   UNL A   1      44.126  27.934  33.717  1.00  0.00     0.037 A 
BRANCH  58  72
ATOM     72  C   UNL A   1      39.870  31.898  35.808  1.00  0.00     0.064 A 
ATOM     73  C   UNL A   1      40.454  33.157  36.019  1.00  0.00     0.173 A 
ATOM     74  C   UNL A   1      38.816  31.516  36.653  1.00  0.00     0.173 A 
ATOM     75  F   UNL A   1      41.471  33.568  35.247  1.00  0.00    -0.203 F 
ATOM     76  C   UNL A   1      40.026  33.981  37.057  1.00  0.00     0.198 A 
ATOM     77  C   UNL A   1      38.367  32.359  37.666  1.00  0.00     0.198 A 
ATOM     78  F   UNL A   1      38.216  30.327  36.493  1.00  0.00    -0.203 F 
ATOM     79  F   UNL A   1      40.640  35.153  37.276  1.00  0.00    -0.200 F 
ATOM     80  C   UNL A   1      38.978  33.585  37.874  1.00  0.00     0.200 A 
ATOM     81  F   UNL A   1      37.342  31.981  38.444  1.00  0.00    -0.200 F 
ATOM     82  F   UNL A   1      38.563  34.382  38.868  1.00  0.00    -0.200 F 
ENDBRANCH  58  72
BRANCH  59  83
ATOM     83  C   UNL A   1      42.782  26.361  28.020  1.00  0.00     0.064 A 
ATOM     84  C   UNL A   1      42.336  25.052  27.783  1.00  0.00     0.173 A 
ATOM     85  C   UNL A   1      43.682  26.918  27.099  1.00  0.00     0.173 A 
ATOM     86  F   UNL A   1      41.490  24.468  28.644  1.00  0.00    -0.203 F 
ATOM     87  C   UNL A   1      42.788  24.326  26.683  1.00  0.00     0.198 A 
ATOM     88  C   UNL A   1      44.107  26.202  25.982  1.00  0.00     0.198 A 
ATOM     89  F   UNL A   1      44.135  28.168  27.275  1.00  0.00    -0.203 F 
ATOM     90  F   UNL A   1      42.381  23.061  26.506  1.00  0.00    -0.200 F 
ATOM     91  C   UNL A   1      43.666  24.903  25.779  1.00  0.00     0.200 A 
ATOM     92  F   UNL A   1      44.943  26.771  25.103  1.00  0.00    -0.200 F 
ATOM     93  F   UNL A   1      44.094  24.207  24.717  1.00  0.00    -0.200 F 
ENDBRANCH  59  83
BRANCH  71  94
ATOM     94  C   UNL A   1      45.328  27.395  34.440  1.00  0.00     0.064 A 
ATOM     95  C   UNL A   1      46.557  28.070  34.441  1.00  0.00     0.173 A 
ATOM     96  C   UNL A   1      45.225  26.218  35.197  1.00  0.00     0.173 A 
ATOM     97  F   UNL A   1      46.712  29.193  33.722  1.00  0.00    -0.203 F 
ATOM     98  C   UNL A   1      47.644  27.576  35.158  1.00  0.00     0.198 A 
ATOM     99  C   UNL A   1      46.304  25.745  35.939  1.00  0.00     0.198 A 
ATOM    100  F   UNL A   1      44.070  25.537  35.236  1.00  0.00    -0.203 F 
ATOM    101  F   UNL A   1      48.821  28.215  35.110  1.00  0.00    -0.200 F 
ATOM    102  C   UNL A   1      47.513  26.421  35.915  1.00  0.00     0.200 A 
ATOM    103  F   UNL A   1      46.168  24.639  36.684  1.00  0.00    -0.200 F 
ATOM    104  F   UNL A   1      48.555  25.957  36.618  1.00  0.00    -0.200 F 
ENDBRANCH  71  94
ENDBRANCH  45  46
ENDBRANCH  37  40
ENDBRANCH  35  36
ENDBRANCH  34  35
ENDBRANCH  33  34
ENDBRANCH   1  33
TORSDOF 18
ENDMDL
MODEL 3
REMARK VINA RESULT:     -12.1      2.939      7.438
REMARK SMILES CC(=O)C1=C(NCCCCCCNC(=O)c2ccc(-c3c4nc(c(-c5c(F)c(F)c(F)c(F)c5F)c5ccc([nH]5)c(-c5c(F)c(F)c(F)c(F)c5F)c5nc(c(-c6c(F)c(F)c(F)c(F)c6F)c6ccc3[nH]6)C=C5)C=C4)cc2)C(=O)N(c2cccc(C(=O)[O-])c2)[C@@H]1c1ccc([N+](=O)[O-])cc1
REMARK SMILES IDX 9 1 8 2 7 3 6 4 5 6 4 7 91 8 79 9 81 10 80 11 2 12 1 13 3 14
REMARK SMILES IDX 92 15 93 16 100 17 94 18 99 19 95 20 96 21 97 22 98 23 82 24
REMARK SMILES IDX 83 25 90 26 84 27 86 28 85 29 87 30 88 31 89 32 10 33 11 34
REMARK SMILES IDX 12 35 13 36 14 37 15 39 16 40 17 41 78 42 18 43 77 44 19 45
REMARK SMILES IDX 20 46 21 47 71 48 22 49 76 50 70 51 72 52 23 53 75 54 69 55
REMARK SMILES IDX 68 56 24 58 56 59 36 60 55 61 37 62 40 63 54 64 73 65 38 66
REMARK SMILES IDX 39 67 53 69 74 70 41 71 25 72 26 73 34 74 27 75 28 76 32 77
REMARK SMILES IDX 35 78 29 79 30 80 33 81 31 82 57 83 58 84 66 85 59 86 60 87
REMARK SMILES IDX 64 88 67 89 61 90 62 91 65 92 63 93 42 94 43 95 51 96 44 97
REMARK SMILES IDX 45 98 49 99 52 100 46 101 47 102 50 103 48 104
REMARK H PARENT 6 5 13 38 72 57 40 68
REMARK Flexibility Score: inf
ROOT
ATOM      1  C   UNL A   1      31.800  26.485  26.316  1.00  0.00     0.002 C 
ENDROOT
BRANCH   1   2
ATOM      2  C   UNL A   1      30.466  26.135  25.651  1.00  0.00     0.021 C 
BRANCH   2   3
ATOM      3  C   UNL A   1      30.102  27.023  24.465  1.00  0.00     0.113 C 
BRANCH   3   4
ATOM      4  N   UNL A   1      30.517  26.385  23.240  1.00  0.00    -0.380 N 
ATOM      5  H   UNL A   1      30.047  26.685  22.429  1.00  0.00     0.160 HD
BRANCH   4   6
ATOM      6  C   UNL A   1      31.469  25.424  23.043  1.00  0.00     0.110 C 
ATOM      7  C   UNL A   1      32.778  25.403  22.774  1.00  0.00     0.051 C 
ATOM      8  C   UNL A   1      33.370  24.032  22.681  1.00  0.00     0.157 C 
ATOM      9  C   UNL A   1      31.066  23.978  23.107  1.00  0.00     0.275 C 
ATOM     10  N   UNL A   1      32.219  23.217  23.025  1.00  0.00    -0.295 N 
ATOM     11  O   UNL A   1      29.909  23.614  23.245  1.00  0.00    -0.267 OA
BRANCH   7  12
ATOM     12  C   UNL A   1      33.610  26.603  22.589  1.00  0.00     0.160 C 
ATOM     13  C   UNL A   1      33.926  27.426  23.805  1.00  0.00     0.093 C 
ATOM     14  O   UNL A   1      33.992  26.931  21.469  1.00  0.00    -0.295 OA
ENDBRANCH   7  12
BRANCH   8  15
ATOM     15  C   UNL A   1      34.623  23.783  23.506  1.00  0.00    -0.020 A 
ATOM     16  C   UNL A   1      34.706  24.088  24.876  1.00  0.00     0.013 A 
ATOM     17  C   UNL A   1      35.734  23.170  22.890  1.00  0.00     0.013 A 
ATOM     18  C   UNL A   1      35.858  23.800  25.610  1.00  0.00     0.086 A 
ATOM     19  C   UNL A   1      36.869  22.826  23.628  1.00  0.00     0.086 A 
ATOM     20  C   UNL A   1      36.926  23.148  24.987  1.00  0.00     0.269 A 
BRANCH  20  21
ATOM     21  N   UNL A   1      38.101  22.773  25.773  1.00  0.00     0.062 N 
ATOM     22  O   UNL A   1      38.747  23.683  26.313  1.00  0.00    -0.258 OA
ATOM     23  O   UNL A   1      38.374  21.567  25.856  1.00  0.00    -0.258 OA
ENDBRANCH  20  21
ENDBRANCH   8  15
BRANCH  10  24
ATOM     24  C   UNL A   1      32.210  21.809  23.013  1.00  0.00     0.046 A 
ATOM     25  C   UNL A   1      31.983  21.098  21.832  1.00  0.00     0.026 A 
ATOM     26  C   UNL A   1      32.397  21.110  24.207  1.00  0.00     0.036 A 
ATOM     27  C   UNL A   1      32.022  19.700  21.836  1.00  0.00     0.003 A 
ATOM     28  C   UNL A   1      32.446  19.713  24.217  1.00  0.00    -0.001 A 
ATOM     29  C   UNL A   1      32.265  19.008  23.025  1.00  0.00     0.010 A 
BRANCH  28  30
ATOM     30  C   UNL A   1      32.695  18.963  25.471  1.00  0.00     0.072 C 
ATOM     31  O   UNL A   1      33.267  19.393  26.456  1.00  0.00    -0.545 OA
ATOM     32  O   UNL A   1      32.182  17.720  25.442  1.00  0.00    -0.545 OA
ENDBRANCH  28  30
ENDBRANCH  10  24
ENDBRANCH   4   6
ENDBRANCH   3   4
ENDBRANCH   2   3
ENDBRANCH   1   2
BRANCH   1  33
ATOM     33  C   UNL A   1      31.788  27.763  27.160  1.00  0.00     0.002 C 
BRANCH  33  34
ATOM     34  C   UNL A   1      32.669  28.894  26.630  1.00  0.00     0.021 C 
BRANCH  34  35
ATOM     35  C   UNL A   1      33.904  29.182  27.476  1.00  0.00     0.116 C 
BRANCH  35  36
ATOM     36  N   UNL A   1      33.885  30.523  28.038  1.00  0.00    -0.352 N 
ATOM     37  C   UNL A   1      34.830  31.145  28.816  1.00  0.00     0.251 C 
ATOM     38  H   UNL A   1      33.085  31.059  27.831  1.00  0.00     0.163 HD
ATOM     39  O   UNL A   1      34.586  32.212  29.368  1.00  0.00    -0.269 OA
BRANCH  37  40
ATOM     40  C   UNL A   1      36.142  30.496  29.005  1.00  0.00     0.039 A 
ATOM     41  C   UNL A   1      37.148  30.709  28.061  1.00  0.00     0.014 A 
ATOM     42  C   UNL A   1      36.384  29.707  30.134  1.00  0.00     0.014 A 
ATOM     43  C   UNL A   1      38.423  30.188  28.285  1.00  0.00     0.010 A 
ATOM     44  C   UNL A   1      37.673  29.256  30.393  1.00  0.00     0.010 A 
ATOM     45  C   UNL A   1      38.706  29.493  29.473  1.00  0.00    -0.014 A 
BRANCH  45  46
ATOM     46  C   UNL A   1      40.075  29.011  29.784  1.00  0.00     0.031 A 
ATOM     47  C   UNL A   1      41.020  29.886  30.558  1.00  0.00     0.074 A 
ATOM     48  C   UNL A   1      40.496  27.832  29.288  1.00  0.00     0.049 A 
ATOM     49  N   UNL A   1      42.288  29.705  30.826  1.00  0.00    -0.248 NA
ATOM     50  C   UNL A   1      40.471  31.149  31.075  1.00  0.00     0.031 C 
ATOM     51  C   UNL A   1      39.688  26.915  28.485  1.00  0.00     0.029 A 
ATOM     52  N   UNL A   1      41.720  27.213  29.366  1.00  0.00    -0.354 N 
ATOM     53  C   UNL A   1      42.691  30.837  31.518  1.00  0.00     0.074 A 
ATOM     54  C   UNL A   1      41.550  31.722  31.588  1.00  0.00     0.031 C 
ATOM     55  C   UNL A   1      40.432  25.848  28.153  1.00  0.00     0.029 A 
ATOM     56  C   UNL A   1      41.783  26.028  28.674  1.00  0.00     0.049 A 
ATOM     57  H   UNL A   1      42.480  27.584  29.871  1.00  0.00     0.167 HD
ATOM     58  C   UNL A   1      43.903  31.106  32.062  1.00  0.00     0.037 A 
ATOM     59  C   UNL A   1      42.819  25.193  28.463  1.00  0.00     0.037 A 
ATOM     60  C   UNL A   1      45.029  30.210  32.006  1.00  0.00     0.049 A 
ATOM     61  C   UNL A   1      44.159  25.520  29.065  1.00  0.00     0.074 A 
ATOM     62  C   UNL A   1      46.276  30.356  32.586  1.00  0.00     0.029 A 
ATOM     63  N   UNL A   1      45.046  29.005  31.316  1.00  0.00    -0.354 N 
ATOM     64  N   UNL A   1      44.513  26.559  29.783  1.00  0.00    -0.248 NA
ATOM     65  C   UNL A   1      45.245  24.557  28.832  1.00  0.00     0.031 C 
ATOM     66  C   UNL A   1      47.070  29.275  32.192  1.00  0.00     0.029 A 
ATOM     67  C   UNL A   1      46.296  28.416  31.428  1.00  0.00     0.049 A 
ATOM     68  H   UNL A   1      44.284  28.625  30.822  1.00  0.00     0.167 HD
ATOM     69  C   UNL A   1      45.846  26.360  30.113  1.00  0.00     0.074 A 
ATOM     70  C   UNL A   1      46.237  25.097  29.525  1.00  0.00     0.031 C 
ATOM     71  C   UNL A   1      46.670  27.151  30.843  1.00  0.00     0.037 A 
BRANCH  58  72
ATOM     72  C   UNL A   1      44.080  32.428  32.754  1.00  0.00     0.064 A 
ATOM     73  C   UNL A   1      43.841  32.586  34.127  1.00  0.00     0.173 A 
ATOM     74  C   UNL A   1      44.523  33.549  32.034  1.00  0.00     0.173 A 
ATOM     75  F   UNL A   1      43.407  31.551  34.862  1.00  0.00    -0.203 F 
ATOM     76  C   UNL A   1      44.004  33.824  34.746  1.00  0.00     0.198 A 
ATOM     77  C   UNL A   1      44.720  34.775  32.664  1.00  0.00     0.198 A 
ATOM     78  F   UNL A   1      44.774  33.454  30.719  1.00  0.00    -0.203 F 
ATOM     79  F   UNL A   1      43.712  33.963  36.047  1.00  0.00    -0.200 F 
ATOM     80  C   UNL A   1      44.450  34.914  34.015  1.00  0.00     0.200 A 
ATOM     81  F   UNL A   1      45.168  35.824  31.959  1.00  0.00    -0.200 F 
ATOM     82  F   UNL A   1      44.612  36.103  34.614  1.00  0.00    -0.200 F 
ENDBRANCH  58  72
BRANCH  59  83
ATOM     83  C   UNL A   1      42.624  23.968  27.644  1.00  0.00     0.064 A 
ATOM     84  C   UNL A   1      42.100  22.796  28.209  1.00  0.00     0.173 A 
ATOM     85  C   UNL A   1      42.951  23.943  26.280  1.00  0.00     0.173 A 
ATOM     86  F   UNL A   1      41.790  22.763  29.513  1.00  0.00    -0.203 F 
ATOM     87  C   UNL A   1      41.930  21.643  27.446  1.00  0.00     0.198 A 
ATOM     88  C   UNL A   1      42.749  22.799  25.510  1.00  0.00     0.198 A 
ATOM     89  F   UNL A   1      43.450  25.039  25.689  1.00  0.00    -0.203 F 
ATOM     90  F   UNL A   1      41.471  20.523  28.022  1.00  0.00    -0.200 F 
ATOM     91  C   UNL A   1      42.247  21.647  26.096  1.00  0.00     0.200 A 
ATOM     92  F   UNL A   1      43.042  22.814  24.204  1.00  0.00    -0.200 F 
ATOM     93  F   UNL A   1      42.076  20.540  25.361  1.00  0.00    -0.200 F 
ENDBRANCH  59  83
BRANCH  71  94
ATOM     94  C   UNL A   1      48.069  26.661  31.091  1.00  0.00     0.064 A 
ATOM     95  C   UNL A   1      48.373  25.789  32.146  1.00  0.00     0.173 A 
ATOM     96  C   UNL A   1      49.107  27.021  30.218  1.00  0.00     0.173 A 
ATOM     97  F   UNL A   1      47.419  25.425  33.018  1.00  0.00    -0.203 F 
ATOM     98  C   UNL A   1      49.668  25.310  32.328  1.00  0.00     0.198 A 
ATOM     99  C   UNL A   1      50.392  26.514  30.382  1.00  0.00     0.198 A 
ATOM    100  F   UNL A   1      48.868  27.848  29.188  1.00  0.00    -0.203 F 
ATOM    101  F   UNL A   1      49.944  24.511  33.368  1.00  0.00    -0.200 F 
ATOM    102  C   UNL A   1      50.673  25.664  31.440  1.00  0.00     0.200 A 
ATOM    103  F   UNL A   1      51.357  26.843  29.512  1.00  0.00    -0.200 F 
ATOM    104  F   UNL A   1      51.914  25.188  31.607  1.00  0.00    -0.200 F 
ENDBRANCH  71  94
ENDBRANCH  45  46
ENDBRANCH  37  40
ENDBRANCH  35  36
ENDBRANCH  34  35
ENDBRANCH  33  34
ENDBRANCH   1  33
TORSDOF 18
ENDMDL
