MODEL 1
REMARK VINA RESULT:     -10.7      0.000      0.000
REMARK SMILES C[C@H](CC(=O)NCCCCCCNC(=O)c1ccc(-c2c3nc(c(-c4c(F)c(F)c(F)c(F)c4F)c4ccc([nH]4)c(-c4c(F)c(F)c(F)c(F)c4F)c4nc(c(-c5c(F)c(F)c(F)c(F)c5F)c5ccc2[nH]5)C=C4)C=C3)cc1)CC(=O)NC(=O)N(C)C[C@@H]1CCC[N@H+]1C
REMARK SMILES IDX 7 1 6 2 4 3 5 4 3 6 2 7 1 8 79 9 80 10 81 11 82 12 83 13
REMARK SMILES IDX 84 15 85 16 86 17 87 18 88 19 89 20 92 21 90 22 91 23 93 24
REMARK SMILES IDX 8 26 9 27 10 28 11 29 12 30 13 31 14 32 15 34 16 35 17 36
REMARK SMILES IDX 78 37 18 38 77 39 19 40 20 41 21 42 71 43 22 44 76 45 70 46
REMARK SMILES IDX 72 47 23 48 75 49 69 50 68 51 24 53 56 54 36 55 55 56 37 57
REMARK SMILES IDX 40 58 54 59 73 60 38 61 39 62 53 64 74 65 41 66 25 67 26 68
REMARK SMILES IDX 34 69 27 70 28 71 32 72 35 73 29 74 30 75 33 76 31 77 57 78
REMARK SMILES IDX 58 79 66 80 59 81 60 82 64 83 67 84 61 85 62 86 65 87 63 88
REMARK SMILES IDX 42 89 43 90 51 91 44 92 45 93 49 94 52 95 46 96 47 97 50 98
REMARK SMILES IDX 48 99
REMARK H PARENT 6 5 82 14 92 25 13 33 72 52 40 63
REMARK Flexibility Score: inf
ROOT
ATOM      1  C   UNL A   1      35.216  30.223  27.930  1.00  0.00     0.116 C 
ENDROOT
BRANCH   1   2
ATOM      2  N   UNL A   1      33.794  29.968  27.716  1.00  0.00    -0.356 N 
ATOM      3  C   UNL A   1      32.978  29.325  26.856  1.00  0.00     0.220 C 
ATOM      4  O   UNL A   1      31.772  29.536  27.054  1.00  0.00    -0.275 OA
ATOM      5  H   UNL A   1      33.262  30.402  28.423  1.00  0.00     0.163 HD
BRANCH   3   6
ATOM      6  C   UNL A   1      33.343  28.264  25.822  1.00  0.00     0.103 C 
BRANCH   6   7
ATOM      7  C   UNL A   1      32.428  27.189  25.238  1.00  0.00     0.004 C 
ATOM      8  C   UNL A   1      31.920  26.262  26.352  1.00  0.00     0.009 C 
BRANCH   7   9
ATOM      9  C   UNL A   1      31.314  27.688  24.325  1.00  0.00     0.104 C 
BRANCH   9  10
ATOM     10  C   UNL A   1      31.242  27.079  22.909  1.00  0.00     0.228 C 
ATOM     11  O   UNL A   1      30.674  27.694  22.004  1.00  0.00    -0.275 OA
ATOM     12  N   UNL A   1      31.694  25.791  22.726  1.00  0.00    -0.278 N 
ATOM     13  C   UNL A   1      32.982  25.345  22.485  1.00  0.00     0.323 C 
ATOM     14  H   UNL A   1      31.005  25.090  22.772  1.00  0.00     0.174 HD
ATOM     15  O   UNL A   1      33.863  26.009  21.954  1.00  0.00    -0.248 OA
BRANCH  13  16
ATOM     16  N   UNL A   1      33.226  24.054  22.952  1.00  0.00    -0.322 N 
ATOM     17  C   UNL A   1      33.078  22.963  21.992  1.00  0.00     0.149 C 
BRANCH  16  18
ATOM     18  C   UNL A   1      32.988  23.650  24.337  1.00  0.00     0.185 C 
BRANCH  18  19
ATOM     19  C   UNL A   1      34.165  23.301  25.261  1.00  0.00     0.203 C 
ATOM     20  C   UNL A   1      35.199  24.424  25.377  1.00  0.00     0.073 C 
ATOM     21  N   UNL A   1      34.988  22.137  24.888  1.00  0.00    -0.333 N 
ATOM     22  C   UNL A   1      36.524  23.712  25.642  1.00  0.00     0.068 C 
ATOM     23  C   UNL A   1      36.172  22.234  25.746  1.00  0.00     0.262 C 
ATOM     24  C   UNL A   1      34.283  20.869  25.042  1.00  0.00     0.333 C 
ATOM     25  H   UNL A   1      35.233  22.152  23.899  1.00  0.00     0.348 HD
ENDBRANCH  18  19
ENDBRANCH  16  18
ENDBRANCH  13  16
ENDBRANCH   9  10
ENDBRANCH   7   9
ENDBRANCH   6   7
ENDBRANCH   3   6
ENDBRANCH   1   2
BRANCH   1  26
ATOM     26  C   UNL A   1      35.484  31.733  27.915  1.00  0.00     0.021 C 
BRANCH  26  27
ATOM     27  C   UNL A   1      34.203  32.571  28.008  1.00  0.00     0.002 C 
BRANCH  27  28
ATOM     28  C   UNL A   1      34.311  33.844  28.855  1.00  0.00     0.002 C 
BRANCH  28  29
ATOM     29  C   UNL A   1      33.089  34.767  28.843  1.00  0.00     0.021 C 
BRANCH  29  30
ATOM     30  C   UNL A   1      33.274  36.132  29.499  1.00  0.00     0.116 C 
BRANCH  30  31
ATOM     31  N   UNL A   1      32.481  36.309  30.705  1.00  0.00    -0.352 N 
ATOM     32  C   UNL A   1      32.715  35.823  31.966  1.00  0.00     0.251 C 
ATOM     33  H   UNL A   1      31.665  36.850  30.603  1.00  0.00     0.163 HD
ATOM     34  O   UNL A   1      31.912  36.018  32.876  1.00  0.00    -0.269 OA
BRANCH  32  35
ATOM     35  C   UNL A   1      33.926  35.020  32.215  1.00  0.00     0.039 A 
ATOM     36  C   UNL A   1      35.171  35.643  32.115  1.00  0.00     0.014 A 
ATOM     37  C   UNL A   1      33.830  33.674  32.580  1.00  0.00     0.014 A 
ATOM     38  C   UNL A   1      36.325  34.929  32.437  1.00  0.00     0.010 A 
ATOM     39  C   UNL A   1      34.975  32.983  32.963  1.00  0.00     0.010 A 
ATOM     40  C   UNL A   1      36.232  33.604  32.891  1.00  0.00    -0.014 A 
BRANCH  40  41
ATOM     41  C   UNL A   1      37.447  32.846  33.272  1.00  0.00     0.031 A 
ATOM     42  C   UNL A   1      38.141  33.155  34.568  1.00  0.00     0.074 A 
ATOM     43  C   UNL A   1      37.945  31.919  32.433  1.00  0.00     0.049 A 
ATOM     44  N   UNL A   1      39.239  32.642  35.063  1.00  0.00    -0.248 NA
ATOM     45  C   UNL A   1      37.534  34.198  35.409  1.00  0.00     0.031 C 
ATOM     46  C   UNL A   1      37.379  31.568  31.129  1.00  0.00     0.029 A 
ATOM     47  N   UNL A   1      39.045  31.106  32.548  1.00  0.00    -0.354 N 
ATOM     48  C   UNL A   1      39.455  33.305  36.263  1.00  0.00     0.074 A 
ATOM     49  C   UNL A   1      38.412  34.296  36.396  1.00  0.00     0.031 C 
ATOM     50  C   UNL A   1      38.122  30.595  30.576  1.00  0.00     0.029 A 
ATOM     51  C   UNL A   1      39.231  30.276  31.469  1.00  0.00     0.049 A 
ATOM     52  H   UNL A   1      39.643  31.116  33.329  1.00  0.00     0.167 HD
ATOM     53  C   UNL A   1      40.424  33.087  37.183  1.00  0.00     0.037 A 
ATOM     54  C   UNL A   1      40.192  29.363  31.232  1.00  0.00     0.037 A 
ATOM     55  C   UNL A   1      41.445  32.082  37.053  1.00  0.00     0.049 A 
ATOM     56  C   UNL A   1      41.260  29.145  32.270  1.00  0.00     0.074 A 
ATOM     57  C   UNL A   1      42.446  31.746  37.947  1.00  0.00     0.029 A 
ATOM     58  N   UNL A   1      41.592  31.247  35.955  1.00  0.00    -0.354 N 
ATOM     59  N   UNL A   1      41.419  29.732  33.431  1.00  0.00    -0.248 NA
ATOM     60  C   UNL A   1      42.277  28.128  31.968  1.00  0.00     0.031 C 
ATOM     61  C   UNL A   1      43.222  30.734  37.372  1.00  0.00     0.029 A 
ATOM     62  C   UNL A   1      42.677  30.408  36.141  1.00  0.00     0.049 A 
ATOM     63  H   UNL A   1      41.011  31.252  35.160  1.00  0.00     0.167 HD
ATOM     64  C   UNL A   1      42.532  29.140  34.010  1.00  0.00     0.074 A 
ATOM     65  C   UNL A   1      43.001  28.134  33.079  1.00  0.00     0.031 C 
ATOM     66  C   UNL A   1      43.115  29.404  35.205  1.00  0.00     0.037 A 
BRANCH  53  67
ATOM     67  C   UNL A   1      40.417  33.945  38.415  1.00  0.00     0.064 A 
ATOM     68  C   UNL A   1      41.169  35.129  38.487  1.00  0.00     0.173 A 
ATOM     69  C   UNL A   1      39.631  33.598  39.522  1.00  0.00     0.173 A 
ATOM     70  F   UNL A   1      41.947  35.498  37.460  1.00  0.00    -0.203 F 
ATOM     71  C   UNL A   1      41.153  35.918  39.634  1.00  0.00     0.198 A 
ATOM     72  C   UNL A   1      39.595  34.406  40.657  1.00  0.00     0.198 A 
ATOM     73  F   UNL A   1      38.891  32.480  39.504  1.00  0.00    -0.203 F 
ATOM     74  F   UNL A   1      41.915  37.019  39.698  1.00  0.00    -0.200 F 
ATOM     75  C   UNL A   1      40.361  35.561  40.714  1.00  0.00     0.200 A 
ATOM     76  F   UNL A   1      38.820  34.066  41.695  1.00  0.00    -0.200 F 
ATOM     77  F   UNL A   1      40.342  36.325  41.815  1.00  0.00    -0.200 F 
ENDBRANCH  53  67
BRANCH  54  78
ATOM     78  C   UNL A   1      40.174  28.567  29.976  1.00  0.00     0.064 A 
ATOM     79  C   UNL A   1      40.796  29.043  28.814  1.00  0.00     0.173 A 
ATOM     80  C   UNL A   1      39.525  27.325  29.907  1.00  0.00     0.173 A 
ATOM     81  F   UNL A   1      41.412  30.234  28.824  1.00  0.00    -0.203 F 
ATOM     82  C   UNL A   1      40.752  28.318  27.624  1.00  0.00     0.198 A 
ATOM     83  C   UNL A   1      39.506  26.589  28.724  1.00  0.00     0.198 A 
ATOM     84  F   UNL A   1      38.917  26.823  30.991  1.00  0.00    -0.203 F 
ATOM     85  F   UNL A   1      41.314  28.820  26.517  1.00  0.00    -0.200 F 
ATOM     86  C   UNL A   1      40.111  27.089  27.582  1.00  0.00     0.200 A 
ATOM     87  F   UNL A   1      38.895  25.397  28.690  1.00  0.00    -0.200 F 
ATOM     88  F   UNL A   1      40.068  26.393  26.438  1.00  0.00    -0.200 F 
ENDBRANCH  54  78
BRANCH  66  89
ATOM     89  C   UNL A   1      44.300  28.568  35.590  1.00  0.00     0.064 A 
ATOM     90  C   UNL A   1      44.152  27.356  36.279  1.00  0.00     0.173 A 
ATOM     91  C   UNL A   1      45.596  28.966  35.224  1.00  0.00     0.173 A 
ATOM     92  F   UNL A   1      42.936  26.942  36.664  1.00  0.00    -0.203 F 
ATOM     93  C   UNL A   1      45.262  26.582  36.608  1.00  0.00     0.198 A 
ATOM     94  C   UNL A   1      46.699  28.175  35.527  1.00  0.00     0.198 A 
ATOM     95  F   UNL A   1      45.787  30.113  34.557  1.00  0.00    -0.203 F 
ATOM     96  F   UNL A   1      45.103  25.450  37.306  1.00  0.00    -0.200 F 
ATOM     97  C   UNL A   1      46.532  26.987  36.225  1.00  0.00     0.200 A 
ATOM     98  F   UNL A   1      47.924  28.561  35.145  1.00  0.00    -0.200 F 
ATOM     99  F   UNL A   1      47.598  26.237  36.534  1.00  0.00    -0.200 F 
ENDBRANCH  66  89
ENDBRANCH  40  41
ENDBRANCH  32  35
ENDBRANCH  30  31
ENDBRANCH  29  30
ENDBRANCH  28  29
ENDBRANCH  27  28
ENDBRANCH  26  27
ENDBRANCH   1  26
TORSDOF 19
ENDMDL
MODEL 2
REMARK VINA RESULT:     -10.4      1.411      3.441
REMARK SMILES C[C@H](CC(=O)NCCCCCCNC(=O)c1ccc(-c2c3nc(c(-c4c(F)c(F)c(F)c(F)c4F)c4ccc([nH]4)c(-c4c(F)c(F)c(F)c(F)c4F)c4nc(c(-c5c(F)c(F)c(F)c(F)c5F)c5ccc2[nH]5)C=C4)C=C3)cc1)CC(=O)NC(=O)N(C)C[C@@H]1CCC[N@H+]1C
REMARK SMILES IDX 7 1 6 2 4 3 5 4 3 6 2 7 1 8 79 9 80 10 81 11 82 12 83 13
REMARK SMILES IDX 84 15 85 16 86 17 87 18 88 19 89 20 92 21 90 22 91 23 93 24
REMARK SMILES IDX 8 26 9 27 10 28 11 29 12 30 13 31 14 32 15 34 16 35 17 36
REMARK SMILES IDX 78 37 18 38 77 39 19 40 20 41 21 42 71 43 22 44 76 45 70 46
REMARK SMILES IDX 72 47 23 48 75 49 69 50 68 51 24 53 56 54 36 55 55 56 37 57
REMARK SMILES IDX 40 58 54 59 73 60 38 61 39 62 53 64 74 65 41 66 25 67 26 68
REMARK SMILES IDX 34 69 27 70 28 71 32 72 35 73 29 74 30 75 33 76 31 77 57 78
REMARK SMILES IDX 58 79 66 80 59 81 60 82 64 83 67 84 61 85 62 86 65 87 63 88
REMARK SMILES IDX 42 89 43 90 51 91 44 92 45 93 49 94 52 95 46 96 47 97 50 98
REMARK SMILES IDX 48 99
REMARK H PARENT 6 5 82 14 92 25 13 33 72 52 40 63
REMARK Flexibility Score: inf
ROOT
ATOM      1  C   UNL A   1      35.273  30.244  28.170  1.00  0.00     0.116 C 
ENDROOT
BRANCH   1   2
ATOM      2  N   UNL A   1      33.910  29.970  27.722  1.00  0.00    -0.356 N 
ATOM      3  C   UNL A   1      33.257  29.306  26.747  1.00  0.00     0.220 C 
ATOM      4  O   UNL A   1      32.033  29.507  26.734  1.00  0.00    -0.275 OA
ATOM      5  H   UNL A   1      33.263  30.409  28.321  1.00  0.00     0.163 HD
BRANCH   3   6
ATOM      6  C   UNL A   1      33.802  28.234  25.807  1.00  0.00     0.103 C 
BRANCH   6   7
ATOM      7  C   UNL A   1      33.226  27.811  24.456  1.00  0.00     0.004 C 
ATOM      8  C   UNL A   1      33.484  28.901  23.405  1.00  0.00     0.009 C 
BRANCH   7   9
ATOM      9  C   UNL A   1      33.612  26.418  23.975  1.00  0.00     0.104 C 
BRANCH   9  10
ATOM     10  C   UNL A   1      32.484  25.538  23.397  1.00  0.00     0.228 C 
ATOM     11  O   UNL A   1      32.708  24.359  23.113  1.00  0.00    -0.275 OA
ATOM     12  N   UNL A   1      31.285  26.135  23.079  1.00  0.00    -0.278 N 
ATOM     13  C   UNL A   1      30.199  26.401  23.895  1.00  0.00     0.323 C 
ATOM     14  H   UNL A   1      31.185  26.412  22.139  1.00  0.00     0.174 HD
ATOM     15  O   UNL A   1      29.918  25.773  24.907  1.00  0.00    -0.248 OA
BRANCH  13  16
ATOM     16  N   UNL A   1      29.449  27.505  23.492  1.00  0.00    -0.322 N 
ATOM     17  C   UNL A   1      27.997  27.405  23.625  1.00  0.00     0.149 C 
BRANCH  16  18
ATOM     18  C   UNL A   1      29.877  28.411  22.428  1.00  0.00     0.185 C 
BRANCH  18  19
ATOM     19  C   UNL A   1      29.755  29.934  22.605  1.00  0.00     0.203 C 
ATOM     20  C   UNL A   1      30.107  30.410  24.017  1.00  0.00     0.073 C 
ATOM     21  N   UNL A   1      28.426  30.530  22.381  1.00  0.00    -0.333 N 
ATOM     22  C   UNL A   1      29.265  31.668  24.228  1.00  0.00     0.068 C 
ATOM     23  C   UNL A   1      28.542  31.894  22.906  1.00  0.00     0.262 C 
ATOM     24  C   UNL A   1      28.018  30.500  20.981  1.00  0.00     0.333 C 
ATOM     25  H   UNL A   1      27.693  30.001  22.852  1.00  0.00     0.348 HD
ENDBRANCH  18  19
ENDBRANCH  16  18
ENDBRANCH  13  16
ENDBRANCH   9  10
ENDBRANCH   7   9
ENDBRANCH   6   7
ENDBRANCH   3   6
ENDBRANCH   1   2
BRANCH   1  26
ATOM     26  C   UNL A   1      35.589  31.735  28.001  1.00  0.00     0.021 C 
BRANCH  26  27
ATOM     27  C   UNL A   1      34.334  32.616  27.985  1.00  0.00     0.002 C 
BRANCH  27  28
ATOM     28  C   UNL A   1      34.361  33.812  28.944  1.00  0.00     0.002 C 
BRANCH  28  29
ATOM     29  C   UNL A   1      33.070  34.632  29.035  1.00  0.00     0.021 C 
BRANCH  29  30
ATOM     30  C   UNL A   1      33.210  36.040  29.604  1.00  0.00     0.116 C 
BRANCH  30  31
ATOM     31  N   UNL A   1      32.462  36.246  30.834  1.00  0.00    -0.352 N 
ATOM     32  C   UNL A   1      32.741  35.787  32.096  1.00  0.00     0.251 C 
ATOM     33  H   UNL A   1      31.644  36.787  30.751  1.00  0.00     0.163 HD
ATOM     34  O   UNL A   1      31.973  36.005  33.030  1.00  0.00    -0.269 OA
BRANCH  32  35
ATOM     35  C   UNL A   1      33.959  34.987  32.318  1.00  0.00     0.039 A 
ATOM     36  C   UNL A   1      35.200  35.619  32.224  1.00  0.00     0.014 A 
ATOM     37  C   UNL A   1      33.873  33.631  32.651  1.00  0.00     0.014 A 
ATOM     38  C   UNL A   1      36.360  34.905  32.521  1.00  0.00     0.010 A 
ATOM     39  C   UNL A   1      35.025  32.939  33.010  1.00  0.00     0.010 A 
ATOM     40  C   UNL A   1      36.278  33.569  32.944  1.00  0.00    -0.014 A 
BRANCH  40  41
ATOM     41  C   UNL A   1      37.501  32.810  33.299  1.00  0.00     0.031 A 
ATOM     42  C   UNL A   1      38.213  33.106  34.587  1.00  0.00     0.074 A 
ATOM     43  C   UNL A   1      37.988  31.893  32.442  1.00  0.00     0.049 A 
ATOM     44  N   UNL A   1      39.319  32.590  35.060  1.00  0.00    -0.248 NA
ATOM     45  C   UNL A   1      37.616  34.139  35.449  1.00  0.00     0.031 C 
ATOM     46  C   UNL A   1      37.403  31.554  31.144  1.00  0.00     0.029 A 
ATOM     47  N   UNL A   1      39.091  31.081  32.532  1.00  0.00    -0.354 N 
ATOM     48  C   UNL A   1      39.552  33.241  36.263  1.00  0.00     0.074 A 
ATOM     49  C   UNL A   1      38.509  34.228  36.423  1.00  0.00     0.031 C 
ATOM     50  C   UNL A   1      38.139  30.589  30.569  1.00  0.00     0.029 A 
ATOM     51  C   UNL A   1      39.262  30.263  31.442  1.00  0.00     0.049 A 
ATOM     52  H   UNL A   1      39.700  31.084  33.304  1.00  0.00     0.167 HD
ATOM     53  C   UNL A   1      40.536  33.015  37.167  1.00  0.00     0.037 A 
ATOM     54  C   UNL A   1      40.221  29.355  31.180  1.00  0.00     0.037 A 
ATOM     55  C   UNL A   1      41.556  32.014  37.011  1.00  0.00     0.049 A 
ATOM     56  C   UNL A   1      41.305  29.127  32.200  1.00  0.00     0.074 A 
ATOM     57  C   UNL A   1      42.571  31.671  37.886  1.00  0.00     0.029 A 
ATOM     58  N   UNL A   1      41.689  31.191  35.901  1.00  0.00    -0.354 N 
ATOM     59  N   UNL A   1      41.481  29.703  33.364  1.00  0.00    -0.248 NA
ATOM     60  C   UNL A   1      42.320  28.116  31.872  1.00  0.00     0.031 C 
ATOM     61  C   UNL A   1      43.341  30.666  37.289  1.00  0.00     0.029 A 
ATOM     62  C   UNL A   1      42.778  30.352  36.062  1.00  0.00     0.049 A 
ATOM     63  H   UNL A   1      41.095  31.204  35.115  1.00  0.00     0.167 HD
ATOM     64  C   UNL A   1      42.603  29.107  33.921  1.00  0.00     0.074 A 
ATOM     65  C   UNL A   1      43.060  28.112  32.972  1.00  0.00     0.031 C 
ATOM     66  C   UNL A   1      43.204  29.359  35.109  1.00  0.00     0.037 A 
BRANCH  53  67
ATOM     67  C   UNL A   1      40.545  33.860  38.407  1.00  0.00     0.064 A 
ATOM     68  C   UNL A   1      39.784  33.515  39.535  1.00  0.00     0.173 A 
ATOM     69  C   UNL A   1      41.344  35.010  38.482  1.00  0.00     0.173 A 
ATOM     70  F   UNL A   1      38.995  32.432  39.511  1.00  0.00    -0.203 F 
ATOM     71  C   UNL A   1      39.802  34.305  40.682  1.00  0.00     0.198 A 
ATOM     72  C   UNL A   1      41.381  35.783  39.640  1.00  0.00     0.198 A 
ATOM     73  F   UNL A   1      42.093  35.384  37.434  1.00  0.00    -0.203 F 
ATOM     74  F   UNL A   1      39.031  33.982  41.728  1.00  0.00    -0.200 F 
ATOM     75  C   UNL A   1      40.606  35.434  40.736  1.00  0.00     0.200 A 
ATOM     76  F   UNL A   1      42.167  36.866  39.696  1.00  0.00    -0.200 F 
ATOM     77  F   UNL A   1      40.628  36.190  41.842  1.00  0.00    -0.200 F 
ENDBRANCH  53  67
BRANCH  54  78
ATOM     78  C   UNL A   1      40.186  28.572  29.917  1.00  0.00     0.064 A 
ATOM     79  C   UNL A   1      39.518  27.341  29.852  1.00  0.00     0.173 A 
ATOM     80  C   UNL A   1      40.826  29.028  28.755  1.00  0.00     0.173 A 
ATOM     81  F   UNL A   1      38.908  26.853  30.942  1.00  0.00    -0.203 F 
ATOM     82  C   UNL A   1      39.512  26.585  28.681  1.00  0.00     0.198 A 
ATOM     83  C   UNL A   1      40.795  28.284  27.577  1.00  0.00     0.198 A 
ATOM     84  F   UNL A   1      41.476  30.201  28.762  1.00  0.00    -0.203 F 
ATOM     85  F   UNL A   1      38.908  25.389  28.663  1.00  0.00    -0.200 F 
ATOM     86  C   UNL A   1      40.146  27.060  27.544  1.00  0.00     0.200 A 
ATOM     87  F   UNL A   1      41.399  28.752  26.476  1.00  0.00    -0.200 F 
ATOM     88  F   UNL A   1      40.140  26.332  26.418  1.00  0.00    -0.200 F 
ENDBRANCH  54  78
BRANCH  66  89
ATOM     89  C   UNL A   1      44.396  28.522  35.467  1.00  0.00     0.064 A 
ATOM     90  C   UNL A   1      44.264  27.318  36.172  1.00  0.00     0.173 A 
ATOM     91  C   UNL A   1      45.682  28.910  35.059  1.00  0.00     0.173 A 
ATOM     92  F   UNL A   1      43.058  26.913  36.598  1.00  0.00    -0.203 F 
ATOM     93  C   UNL A   1      45.379  26.542  36.476  1.00  0.00     0.198 A 
ATOM     94  C   UNL A   1      46.790  28.117  35.338  1.00  0.00     0.198 A 
ATOM     95  F   UNL A   1      45.859  30.050  34.376  1.00  0.00    -0.203 F 
ATOM     96  F   UNL A   1      45.236  25.417  37.191  1.00  0.00    -0.200 F 
ATOM     97  C   UNL A   1      46.640  26.938  36.052  1.00  0.00     0.200 A 
ATOM     98  F   UNL A   1      48.005  28.494  34.916  1.00  0.00    -0.200 F 
ATOM     99  F   UNL A   1      47.711  26.185  36.337  1.00  0.00    -0.200 F 
ENDBRANCH  66  89
ENDBRANCH  40  41
ENDBRANCH  32  35
ENDBRANCH  30  31
ENDBRANCH  29  30
ENDBRANCH  28  29
ENDBRANCH  27  28
ENDBRANCH  26  27
ENDBRANCH   1  26
TORSDOF 19
ENDMDL
MODEL 3
REMARK VINA RESULT:     -10.4      4.560      8.757
REMARK SMILES C[C@H](CC(=O)NCCCCCCNC(=O)c1ccc(-c2c3nc(c(-c4c(F)c(F)c(F)c(F)c4F)c4ccc([nH]4)c(-c4c(F)c(F)c(F)c(F)c4F)c4nc(c(-c5c(F)c(F)c(F)c(F)c5F)c5ccc2[nH]5)C=C4)C=C3)cc1)CC(=O)NC(=O)N(C)C[C@@H]1CCC[N@H+]1C
REMARK SMILES IDX 7 1 6 2 4 3 5 4 3 6 2 7 1 8 79 9 80 10 81 11 82 12 83 13
REMARK SMILES IDX 84 15 85 16 86 17 87 18 88 19 89 20 92 21 90 22 91 23 93 24
REMARK SMILES IDX 8 26 9 27 10 28 11 29 12 30 13 31 14 32 15 34 16 35 17 36
REMARK SMILES IDX 78 37 18 38 77 39 19 40 20 41 21 42 71 43 22 44 76 45 70 46
REMARK SMILES IDX 72 47 23 48 75 49 69 50 68 51 24 53 56 54 36 55 55 56 37 57
REMARK SMILES IDX 40 58 54 59 73 60 38 61 39 62 53 64 74 65 41 66 25 67 26 68
REMARK SMILES IDX 34 69 27 70 28 71 32 72 35 73 29 74 30 75 33 76 31 77 57 78
REMARK SMILES IDX 58 79 66 80 59 81 60 82 64 83 67 84 61 85 62 86 65 87 63 88
REMARK SMILES IDX 42 89 43 90 51 91 44 92 45 93 49 94 52 95 46 96 47 97 50 98
REMARK SMILES IDX 48 99
REMARK H PARENT 6 5 82 14 92 25 13 33 72 52 40 63
REMARK Flexibility Score: inf
ROOT
ATOM      1  C   UNL A   1      38.714  33.801  32.115  1.00  0.00     0.116 C 
ENDROOT
BRANCH   1   2
ATOM      2  N   UNL A   1      38.276  33.023  33.270  1.00  0.00    -0.356 N 
ATOM      3  C   UNL A   1      38.006  31.747  33.614  1.00  0.00     0.220 C 
ATOM      4  O   UNL A   1      37.512  31.625  34.746  1.00  0.00    -0.275 OA
ATOM      5  H   UNL A   1      38.132  33.617  34.043  1.00  0.00     0.163 HD
BRANCH   3   6
ATOM      6  C   UNL A   1      38.389  30.468  32.876  1.00  0.00     0.103 C 
BRANCH   6   7
ATOM      7  C   UNL A   1      39.175  29.281  33.430  1.00  0.00     0.004 C 
ATOM      8  C   UNL A   1      39.041  28.072  32.493  1.00  0.00     0.009 C 
BRANCH   7   9
ATOM      9  C   UNL A   1      40.617  29.566  33.832  1.00  0.00     0.104 C 
BRANCH   9  10
ATOM     10  C   UNL A   1      41.090  29.007  35.190  1.00  0.00     0.228 C 
ATOM     11  O   UNL A   1      40.677  29.508  36.238  1.00  0.00    -0.275 OA
ATOM     12  N   UNL A   1      42.078  28.049  35.196  1.00  0.00    -0.278 N 
ATOM     13  C   UNL A   1      41.963  26.676  35.054  1.00  0.00     0.323 C 
ATOM     14  H   UNL A   1      42.995  28.386  35.319  1.00  0.00     0.174 HD
ATOM     15  O   UNL A   1      40.967  26.027  35.344  1.00  0.00    -0.248 OA
BRANCH  13  16
ATOM     16  N   UNL A   1      43.088  26.073  34.493  1.00  0.00    -0.322 N 
ATOM     17  C   UNL A   1      43.580  26.628  33.234  1.00  0.00     0.149 C 
BRANCH  16  18
ATOM     18  C   UNL A   1      43.401  24.656  34.668  1.00  0.00     0.185 C 
BRANCH  18  19
ATOM     19  C   UNL A   1      44.846  24.203  34.931  1.00  0.00     0.203 C 
ATOM     20  C   UNL A   1      45.388  23.253  33.858  1.00  0.00     0.073 C 
ATOM     21  N   UNL A   1      45.101  23.463  36.179  1.00  0.00    -0.333 N 
ATOM     22  C   UNL A   1      46.401  22.373  34.588  1.00  0.00     0.068 C 
ATOM     23  C   UNL A   1      46.449  22.912  36.012  1.00  0.00     0.262 C 
ATOM     24  C   UNL A   1      44.978  24.298  37.370  1.00  0.00     0.333 C 
ATOM     25  H   UNL A   1      44.407  22.732  36.331  1.00  0.00     0.348 HD
ENDBRANCH  18  19
ENDBRANCH  16  18
ENDBRANCH  13  16
ENDBRANCH   9  10
ENDBRANCH   7   9
ENDBRANCH   6   7
ENDBRANCH   3   6
ENDBRANCH   1   2
BRANCH   1  26
ATOM     26  C   UNL A   1      37.518  34.104  31.205  1.00  0.00     0.021 C 
BRANCH  26  27
ATOM     27  C   UNL A   1      37.901  34.208  29.724  1.00  0.00     0.002 C 
BRANCH  27  28
ATOM     28  C   UNL A   1      37.321  33.116  28.818  1.00  0.00     0.002 C 
BRANCH  28  29
ATOM     29  C   UNL A   1      35.857  33.290  28.404  1.00  0.00     0.021 C 
BRANCH  29  30
ATOM     30  C   UNL A   1      34.844  32.421  29.142  1.00  0.00     0.116 C 
BRANCH  30  31
ATOM     31  N   UNL A   1      34.136  31.492  28.276  1.00  0.00    -0.352 N 
ATOM     32  C   UNL A   1      34.581  30.315  27.733  1.00  0.00     0.251 C 
ATOM     33  H   UNL A   1      33.211  31.743  28.048  1.00  0.00     0.163 HD
ATOM     34  O   UNL A   1      33.871  29.664  26.969  1.00  0.00    -0.269 OA
BRANCH  32  35
ATOM     35  C   UNL A   1      35.946  29.851  28.040  1.00  0.00     0.039 A 
ATOM     36  C   UNL A   1      36.917  29.925  27.040  1.00  0.00     0.014 A 
ATOM     37  C   UNL A   1      36.272  29.380  29.316  1.00  0.00     0.014 A 
ATOM     38  C   UNL A   1      38.236  29.579  27.334  1.00  0.00     0.010 A 
ATOM     39  C   UNL A   1      37.598  29.098  29.625  1.00  0.00     0.010 A 
ATOM     40  C   UNL A   1      38.590  29.192  28.636  1.00  0.00    -0.014 A 
BRANCH  40  41
ATOM     41  C   UNL A   1      39.995  28.857  28.971  1.00  0.00     0.031 A 
ATOM     42  C   UNL A   1      40.829  29.838  29.745  1.00  0.00     0.074 A 
ATOM     43  C   UNL A   1      40.525  27.697  28.541  1.00  0.00     0.049 A 
ATOM     44  N   UNL A   1      42.087  29.758  30.098  1.00  0.00    -0.248 NA
ATOM     45  C   UNL A   1      40.168  31.087  30.154  1.00  0.00     0.031 C 
ATOM     46  C   UNL A   1      39.821  26.690  27.746  1.00  0.00     0.029 A 
ATOM     47  N   UNL A   1      41.781  27.171  28.707  1.00  0.00    -0.354 N 
ATOM     48  C   UNL A   1      42.366  30.946  30.759  1.00  0.00     0.074 A 
ATOM     49  C   UNL A   1      41.169  31.754  30.709  1.00  0.00     0.031 C 
ATOM     50  C   UNL A   1      40.648  25.658  27.513  1.00  0.00     0.029 A 
ATOM     51  C   UNL A   1      41.947  25.943  28.114  1.00  0.00     0.049 A 
ATOM     52  H   UNL A   1      42.496  27.630  29.204  1.00  0.00     0.167 HD
ATOM     53  C   UNL A   1      43.514  31.316  31.376  1.00  0.00     0.037 A 
ATOM     54  C   UNL A   1      43.028  25.143  28.063  1.00  0.00     0.037 A 
ATOM     55  C   UNL A   1      44.692  30.496  31.442  1.00  0.00     0.049 A 
ATOM     56  C   UNL A   1      44.292  25.582  28.754  1.00  0.00     0.074 A 
ATOM     57  C   UNL A   1      45.892  30.756  32.081  1.00  0.00     0.029 A 
ATOM     58  N   UNL A   1      44.818  29.250  30.845  1.00  0.00    -0.354 N 
ATOM     59  N   UNL A   1      44.527  26.679  29.431  1.00  0.00    -0.248 NA
ATOM     60  C   UNL A   1      45.438  24.666  28.679  1.00  0.00     0.031 C 
ATOM     61  C   UNL A   1      46.756  29.683  31.838  1.00  0.00     0.029 A 
ATOM     62  C   UNL A   1      46.080  28.735  31.087  1.00  0.00     0.049 A 
ATOM     63  H   UNL A   1      44.114  28.799  30.325  1.00  0.00     0.167 HD
ATOM     64  C   UNL A   1      45.832  26.574  29.889  1.00  0.00     0.074 A 
ATOM     65  C   UNL A   1      46.335  25.298  29.424  1.00  0.00     0.031 C 
ATOM     66  C   UNL A   1      46.552  27.454  30.626  1.00  0.00     0.037 A 
BRANCH  53  67
ATOM     67  C   UNL A   1      43.541  32.664  32.038  1.00  0.00     0.064 A 
ATOM     68  C   UNL A   1      43.783  33.836  31.303  1.00  0.00     0.173 A 
ATOM     69  C   UNL A   1      43.295  32.791  33.412  1.00  0.00     0.173 A 
ATOM     70  F   UNL A   1      44.037  33.768  29.988  1.00  0.00    -0.203 F 
ATOM     71  C   UNL A   1      43.805  35.081  31.927  1.00  0.00     0.198 A 
ATOM     72  C   UNL A   1      43.289  34.041  34.027  1.00  0.00     0.198 A 
ATOM     73  F   UNL A   1      43.055  31.703  34.160  1.00  0.00    -0.203 F 
ATOM     74  F   UNL A   1      44.085  36.180  31.214  1.00  0.00    -0.200 F 
ATOM     75  C   UNL A   1      43.550  35.183  33.286  1.00  0.00     0.200 A 
ATOM     76  F   UNL A   1      43.031  34.139  35.338  1.00  0.00    -0.200 F 
ATOM     77  F   UNL A   1      43.565  36.383  33.883  1.00  0.00    -0.200 F 
ENDBRANCH  53  67
BRANCH  54  78
ATOM     78  C   UNL A   1      42.958  23.834  27.360  1.00  0.00     0.064 A 
ATOM     79  C   UNL A   1      43.380  23.709  26.029  1.00  0.00     0.173 A 
ATOM     80  C   UNL A   1      42.457  22.689  27.996  1.00  0.00     0.173 A 
ATOM     81  F   UNL A   1      43.847  24.780  25.372  1.00  0.00    -0.203 F 
ATOM     82  C   UNL A   1      43.283  22.494  25.353  1.00  0.00     0.198 A 
ATOM     83  C   UNL A   1      42.387  21.467  27.328  1.00  0.00     0.198 A 
ATOM     84  F   UNL A   1      42.043  22.753  29.270  1.00  0.00    -0.203 F 
ATOM     85  F   UNL A   1      43.648  22.415  24.067  1.00  0.00    -0.200 F 
ATOM     86  C   UNL A   1      42.790  21.373  26.006  1.00  0.00     0.200 A 
ATOM     87  F   UNL A   1      41.921  20.384  27.964  1.00  0.00    -0.200 F 
ATOM     88  F   UNL A   1      42.697  20.205  25.355  1.00  0.00    -0.200 F 
ENDBRANCH  54  78
BRANCH  66  89
ATOM     89  C   UNL A   1      47.946  27.051  31.008  1.00  0.00     0.064 A 
ATOM     90  C   UNL A   1      49.047  27.350  30.193  1.00  0.00     0.173 A 
ATOM     91  C   UNL A   1      48.186  26.398  32.227  1.00  0.00     0.173 A 
ATOM     92  F   UNL A   1      48.867  27.959  29.011  1.00  0.00    -0.203 F 
ATOM     93  C   UNL A   1      50.336  26.988  30.574  1.00  0.00     0.198 A 
ATOM     94  C   UNL A   1      49.478  26.065  32.618  1.00  0.00     0.198 A 
ATOM     95  F   UNL A   1      47.166  26.097  33.044  1.00  0.00    -0.203 F 
ATOM     96  F   UNL A   1      51.370  27.243  29.759  1.00  0.00    -0.200 F 
ATOM     97  C   UNL A   1      50.552  26.354  31.788  1.00  0.00     0.200 A 
ATOM     98  F   UNL A   1      49.686  25.464  33.797  1.00  0.00    -0.200 F 
ATOM     99  F   UNL A   1      51.794  26.015  32.157  1.00  0.00    -0.200 F 
ENDBRANCH  66  89
ENDBRANCH  40  41
ENDBRANCH  32  35
ENDBRANCH  30  31
ENDBRANCH  29  30
ENDBRANCH  28  29
ENDBRANCH  27  28
ENDBRANCH  26  27
ENDBRANCH   1  26
TORSDOF 19
ENDMDL
