MODEL 1
REMARK VINA RESULT:     -12.2      0.000      0.000
REMARK SMILES CSc1cccc(NC(=O)N[C@@H]2C=C[C@@H](C(=O)NCCCCCCNC(=O)c3ccc(-c4c5nc(c(-c6c(F)c(F)c(F)c(F)c6F)c6ccc([nH]6)c(-c6c(F)c(F)c(F)c(F)c6F)c6nc(c(-c7c(F)c(F)c(F)c(F)c7F)c7ccc4[nH]7)C=C6)C=C5)cc3)C2)c1
REMARK SMILES IDX 21 1 20 2 19 3 18 4 16 5 17 6 15 8 12 9 13 10 91 11 14 12
REMARK SMILES IDX 11 13 8 14 9 15 10 17 7 19 3 20 4 21 92 22 5 23 6 24 2 25
REMARK SMILES IDX 1 26 22 27 23 28 24 29 25 30 26 31 27 33 28 34 29 35 90 36
REMARK SMILES IDX 30 37 89 38 31 39 32 40 33 41 83 42 34 43 88 44 82 45 84 46
REMARK SMILES IDX 35 47 87 48 81 49 80 50 36 52 68 53 48 54 67 55 49 56 52 57
REMARK SMILES IDX 66 58 85 59 50 60 51 61 65 63 86 64 53 65 37 66 38 67 46 68
REMARK SMILES IDX 39 69 40 70 44 71 47 72 41 73 42 74 45 75 43 76 69 77 70 78
REMARK SMILES IDX 78 79 71 80 72 81 76 82 79 83 73 84 74 85 77 86 75 87 54 88
REMARK SMILES IDX 55 89 63 90 56 91 57 92 61 93 64 94 58 95 59 96 62 97 60 98
REMARK H PARENT 18 7 8 16 11 18 25 32 84 51 52 62
REMARK Flexibility Score: inf
ROOT
ATOM      1  C   UNL A   1      35.140  32.592  28.123  1.00  0.00     0.002 C 
ENDROOT
BRANCH   1   2
ATOM      2  C   UNL A   1      34.785  31.117  27.954  1.00  0.00     0.021 C 
BRANCH   2   3
ATOM      3  C   UNL A   1      33.522  30.843  27.152  1.00  0.00     0.116 C 
BRANCH   3   4
ATOM      4  N   UNL A   1      32.770  29.687  27.626  1.00  0.00    -0.356 N 
ATOM      5  C   UNL A   1      32.324  28.557  26.982  1.00  0.00     0.227 C 
ATOM      6  O   UNL A   1      31.719  27.730  27.672  1.00  0.00    -0.274 OA
ATOM      7  H   UNL A   1      32.539  29.723  28.583  1.00  0.00     0.163 HD
BRANCH   5   8
ATOM      8  C   UNL A   1      32.627  28.248  25.497  1.00  0.00     0.103 C 
ATOM      9  C   UNL A   1      32.337  26.113  24.258  1.00  0.00     0.107 C 
ATOM     10  C   UNL A   1      31.117  26.880  24.467  1.00  0.00    -0.006 C 
ATOM     11  C   UNL A   1      33.306  26.894  25.182  1.00  0.00     0.047 C 
ATOM     12  C   UNL A   1      31.278  28.132  24.883  1.00  0.00    -0.016 C 
BRANCH   9  13
ATOM     13  N   UNL A   1      32.682  26.086  22.840  1.00  0.00    -0.332 N 
ATOM     14  N   UNL A   1      33.026  23.882  21.883  1.00  0.00    -0.308 N 
ATOM     15  C   UNL A   1      33.037  25.227  21.872  1.00  0.00     0.319 C 
ATOM     16  H   UNL A   1      33.043  23.526  20.965  1.00  0.00     0.171 HD
ATOM     17  O   UNL A   1      33.276  25.753  20.774  1.00  0.00    -0.248 OA
ATOM     18  H   UNL A   1      32.641  26.997  22.472  1.00  0.00     0.165 HD
BRANCH  14  19
ATOM     19  C   UNL A   1      32.995  22.838  22.819  1.00  0.00     0.043 A 
ATOM     20  C   UNL A   1      34.068  21.836  24.760  1.00  0.00     0.009 A 
ATOM     21  C   UNL A   1      33.366  20.653  24.535  1.00  0.00     0.015 A 
ATOM     22  C   UNL A   1      33.873  22.929  23.906  1.00  0.00     0.041 A 
ATOM     23  C   UNL A   1      32.369  20.616  23.559  1.00  0.00     0.003 A 
ATOM     24  C   UNL A   1      32.145  21.733  22.733  1.00  0.00     0.026 A 
BRANCH  20  25
ATOM     25  S   UNL A   1      35.213  21.914  26.123  1.00  0.00    -0.130 SA
ATOM     26  C   UNL A   1      34.036  21.655  27.477  1.00  0.00     0.091 C 
ENDBRANCH  20  25
ENDBRANCH  14  19
ENDBRANCH   9  13
ENDBRANCH   5   8
ENDBRANCH   3   4
ENDBRANCH   2   3
ENDBRANCH   1   2
BRANCH   1  27
ATOM     27  C   UNL A   1      34.409  33.330  29.248  1.00  0.00     0.002 C 
BRANCH  27  28
ATOM     28  C   UNL A   1      33.325  34.321  28.813  1.00  0.00     0.021 C 
BRANCH  28  29
ATOM     29  C   UNL A   1      33.487  35.749  29.328  1.00  0.00     0.116 C 
BRANCH  29  30
ATOM     30  N   UNL A   1      32.536  36.086  30.375  1.00  0.00    -0.352 N 
ATOM     31  C   UNL A   1      32.553  35.761  31.707  1.00  0.00     0.251 C 
ATOM     32  H   UNL A   1      31.765  36.626  30.085  1.00  0.00     0.163 HD
ATOM     33  O   UNL A   1      31.583  36.019  32.421  1.00  0.00    -0.269 OA
BRANCH  31  34
ATOM     34  C   UNL A   1      33.722  35.068  32.286  1.00  0.00     0.039 A 
ATOM     35  C   UNL A   1      33.551  33.787  32.818  1.00  0.00     0.014 A 
ATOM     36  C   UNL A   1      34.984  35.669  32.294  1.00  0.00     0.014 A 
ATOM     37  C   UNL A   1      34.660  33.077  33.285  1.00  0.00     0.010 A 
ATOM     38  C   UNL A   1      36.098  34.933  32.693  1.00  0.00     0.010 A 
ATOM     39  C   UNL A   1      35.948  33.626  33.185  1.00  0.00    -0.014 A 
BRANCH  39  40
ATOM     40  C   UNL A   1      37.153  32.840  33.558  1.00  0.00     0.031 A 
ATOM     41  C   UNL A   1      37.893  33.143  34.831  1.00  0.00     0.074 A 
ATOM     42  C   UNL A   1      37.628  31.909  32.706  1.00  0.00     0.049 A 
ATOM     43  N   UNL A   1      39.016  32.637  35.276  1.00  0.00    -0.248 NA
ATOM     44  C   UNL A   1      37.307  34.168  35.708  1.00  0.00     0.031 C 
ATOM     45  C   UNL A   1      37.025  31.554  31.420  1.00  0.00     0.029 A 
ATOM     46  N   UNL A   1      38.739  31.105  32.782  1.00  0.00    -0.354 N 
ATOM     47  C   UNL A   1      39.280  33.295  36.470  1.00  0.00     0.074 A 
ATOM     48  C   UNL A   1      38.223  34.264  36.662  1.00  0.00     0.031 C 
ATOM     49  C   UNL A   1      37.764  30.599  30.834  1.00  0.00     0.029 A 
ATOM     50  C   UNL A   1      38.920  30.308  31.677  1.00  0.00     0.049 A 
ATOM     51  H   UNL A   1      39.347  31.099  33.556  1.00  0.00     0.167 HD
ATOM     52  C   UNL A   1      40.305  33.096  37.333  1.00  0.00     0.037 A 
ATOM     53  C   UNL A   1      39.917  29.458  31.365  1.00  0.00     0.037 A 
ATOM     54  C   UNL A   1      41.339  32.110  37.150  1.00  0.00     0.049 A 
ATOM     55  C   UNL A   1      41.051  29.269  32.339  1.00  0.00     0.074 A 
ATOM     56  C   UNL A   1      42.370  31.775  38.010  1.00  0.00     0.029 A 
ATOM     57  N   UNL A   1      41.478  31.308  36.027  1.00  0.00    -0.354 N 
ATOM     58  N   UNL A   1      41.242  29.834  33.507  1.00  0.00    -0.248 NA
ATOM     59  C   UNL A   1      42.106  28.320  31.954  1.00  0.00     0.031 C 
ATOM     60  C   UNL A   1      43.175  30.823  37.378  1.00  0.00     0.029 A 
ATOM     61  C   UNL A   1      42.605  30.510  36.154  1.00  0.00     0.049 A 
ATOM     62  H   UNL A   1      40.868  31.306  35.254  1.00  0.00     0.167 HD
ATOM     63  C   UNL A   1      42.418  29.289  34.006  1.00  0.00     0.074 A 
ATOM     64  C   UNL A   1      42.887  28.334  33.024  1.00  0.00     0.031 C 
ATOM     65  C   UNL A   1      43.056  29.558  35.171  1.00  0.00     0.037 A 
BRANCH  52  66
ATOM     66  C   UNL A   1      40.377  33.965  38.555  1.00  0.00     0.064 A 
ATOM     67  C   UNL A   1      41.094  35.172  38.567  1.00  0.00     0.173 A 
ATOM     68  C   UNL A   1      39.659  33.619  39.711  1.00  0.00     0.173 A 
ATOM     69  F   UNL A   1      41.805  35.544  37.493  1.00  0.00    -0.203 F 
ATOM     70  C   UNL A   1      41.107  35.987  39.696  1.00  0.00     0.198 A 
ATOM     71  C   UNL A   1      39.646  34.454  40.825  1.00  0.00     0.198 A 
ATOM     72  F   UNL A   1      38.951  32.480  39.752  1.00  0.00    -0.203 F 
ATOM     73  F   UNL A   1      41.832  37.114  39.698  1.00  0.00    -0.200 F 
ATOM     74  C   UNL A   1      40.375  35.633  40.819  1.00  0.00     0.200 A 
ATOM     75  F   UNL A   1      38.924  34.118  41.904  1.00  0.00    -0.200 F 
ATOM     76  F   UNL A   1      40.373  36.428  41.899  1.00  0.00    -0.200 F 
ENDBRANCH  52  66
BRANCH  53  77
ATOM     77  C   UNL A   1      39.903  28.726  30.070  1.00  0.00     0.064 A 
ATOM     78  C   UNL A   1      39.339  27.445  29.966  1.00  0.00     0.173 A 
ATOM     79  C   UNL A   1      40.485  29.274  28.917  1.00  0.00     0.173 A 
ATOM     80  F   UNL A   1      38.788  26.866  31.044  1.00  0.00    -0.203 F 
ATOM     81  C   UNL A   1      39.391  26.729  28.771  1.00  0.00     0.198 A 
ATOM     82  C   UNL A   1      40.502  28.571  27.713  1.00  0.00     0.198 A 
ATOM     83  F   UNL A   1      41.033  30.497  28.956  1.00  0.00    -0.203 F 
ATOM     84  F   UNL A   1      38.904  25.481  28.720  1.00  0.00    -0.200 F 
ATOM     85  C   UNL A   1      39.968  27.295  27.645  1.00  0.00     0.200 A 
ATOM     86  F   UNL A   1      41.045  29.130  26.623  1.00  0.00    -0.200 F 
ATOM     87  F   UNL A   1      40.020  26.605  26.498  1.00  0.00    -0.200 F 
ENDBRANCH  53  77
BRANCH  65  88
ATOM     88  C   UNL A   1      44.309  28.784  35.471  1.00  0.00     0.064 A 
ATOM     89  C   UNL A   1      44.275  27.563  36.161  1.00  0.00     0.173 A 
ATOM     90  C   UNL A   1      45.555  29.251  35.026  1.00  0.00     0.173 A 
ATOM     91  F   UNL A   1      43.112  27.079  36.622  1.00  0.00    -0.203 F 
ATOM     92  C   UNL A   1      45.446  26.854  36.419  1.00  0.00     0.198 A 
ATOM     93  C   UNL A   1      46.718  28.522  35.252  1.00  0.00     0.198 A 
ATOM     94  F   UNL A   1      45.643  30.409  34.353  1.00  0.00    -0.203 F 
ATOM     95  F   UNL A   1      45.396  25.717  37.128  1.00  0.00    -0.200 F 
ATOM     96  C   UNL A   1      46.664  27.329  35.957  1.00  0.00     0.200 A 
ATOM     97  F   UNL A   1      47.892  28.973  34.788  1.00  0.00    -0.200 F 
ATOM     98  F   UNL A   1      47.788  26.639  36.196  1.00  0.00    -0.200 F 
ENDBRANCH  65  88
ENDBRANCH  39  40
ENDBRANCH  31  34
ENDBRANCH  29  30
ENDBRANCH  28  29
ENDBRANCH  27  28
ENDBRANCH   1  27
TORSDOF 16
ENDMDL
MODEL 2
REMARK VINA RESULT:     -11.9      1.435      7.546
REMARK SMILES CSc1cccc(NC(=O)N[C@@H]2C=C[C@@H](C(=O)NCCCCCCNC(=O)c3ccc(-c4c5nc(c(-c6c(F)c(F)c(F)c(F)c6F)c6ccc([nH]6)c(-c6c(F)c(F)c(F)c(F)c6F)c6nc(c(-c7c(F)c(F)c(F)c(F)c7F)c7ccc4[nH]7)C=C6)C=C5)cc3)C2)c1
REMARK SMILES IDX 21 1 20 2 19 3 18 4 16 5 17 6 15 8 12 9 13 10 91 11 14 12
REMARK SMILES IDX 11 13 8 14 9 15 10 17 7 19 3 20 4 21 92 22 5 23 6 24 2 25
REMARK SMILES IDX 1 26 22 27 23 28 24 29 25 30 26 31 27 33 28 34 29 35 90 36
REMARK SMILES IDX 30 37 89 38 31 39 32 40 33 41 83 42 34 43 88 44 82 45 84 46
REMARK SMILES IDX 35 47 87 48 81 49 80 50 36 52 68 53 48 54 67 55 49 56 52 57
REMARK SMILES IDX 66 58 85 59 50 60 51 61 65 63 86 64 53 65 37 66 38 67 46 68
REMARK SMILES IDX 39 69 40 70 44 71 47 72 41 73 42 74 45 75 43 76 69 77 70 78
REMARK SMILES IDX 78 79 71 80 72 81 76 82 79 83 73 84 74 85 77 86 75 87 54 88
REMARK SMILES IDX 55 89 63 90 56 91 57 92 61 93 64 94 58 95 59 96 62 97 60 98
REMARK H PARENT 18 7 8 16 11 18 25 32 84 51 52 62
REMARK Flexibility Score: inf
ROOT
ATOM      1  C   UNL A   1      34.833  29.841  27.241  1.00  0.00     0.002 C 
ENDROOT
BRANCH   1   2
ATOM      2  C   UNL A   1      33.836  28.686  27.242  1.00  0.00     0.021 C 
BRANCH   2   3
ATOM      3  C   UNL A   1      32.371  29.095  27.205  1.00  0.00     0.116 C 
BRANCH   3   4
ATOM      4  N   UNL A   1      31.449  27.971  27.310  1.00  0.00    -0.356 N 
ATOM      5  C   UNL A   1      31.111  26.976  26.422  1.00  0.00     0.227 C 
ATOM      6  O   UNL A   1      30.297  26.135  26.817  1.00  0.00    -0.274 OA
ATOM      7  H   UNL A   1      30.983  27.913  28.175  1.00  0.00     0.163 HD
BRANCH   5   8
ATOM      8  C   UNL A   1      31.765  26.821  25.028  1.00  0.00     0.103 C 
ATOM      9  C   UNL A   1      30.919  25.598  23.037  1.00  0.00     0.107 C 
ATOM     10  C   UNL A   1      30.315  26.903  23.267  1.00  0.00    -0.006 C 
ATOM     11  C   UNL A   1      31.695  25.424  24.368  1.00  0.00     0.047 C 
ATOM     12  C   UNL A   1      30.926  27.682  24.153  1.00  0.00    -0.016 C 
BRANCH   9  13
ATOM     13  N   UNL A   1      31.725  25.619  21.820  1.00  0.00    -0.332 N 
ATOM     14  N   UNL A   1      33.146  23.684  21.464  1.00  0.00    -0.308 N 
ATOM     15  C   UNL A   1      32.679  24.915  21.191  1.00  0.00     0.319 C 
ATOM     16  H   UNL A   1      33.610  23.306  20.682  1.00  0.00     0.171 HD
ATOM     17  O   UNL A   1      33.083  25.421  20.132  1.00  0.00    -0.248 OA
ATOM     18  H   UNL A   1      31.492  26.411  21.284  1.00  0.00     0.165 HD
BRANCH  14  19
ATOM     19  C   UNL A   1      33.164  22.780  22.537  1.00  0.00     0.043 A 
ATOM     20  C   UNL A   1      34.425  21.924  24.434  1.00  0.00     0.009 A 
ATOM     21  C   UNL A   1      33.592  20.808  24.482  1.00  0.00     0.015 A 
ATOM     22  C   UNL A   1      34.203  22.913  23.467  1.00  0.00     0.041 A 
ATOM     23  C   UNL A   1      32.459  20.757  23.670  1.00  0.00     0.003 A 
ATOM     24  C   UNL A   1      32.214  21.775  22.730  1.00  0.00     0.026 A 
BRANCH  20  25
ATOM     25  S   UNL A   1      35.768  22.049  25.599  1.00  0.00    -0.130 SA
ATOM     26  C   UNL A   1      36.960  20.981  24.747  1.00  0.00     0.091 C 
ENDBRANCH  20  25
ENDBRANCH  14  19
ENDBRANCH   9  13
ENDBRANCH   5   8
ENDBRANCH   3   4
ENDBRANCH   2   3
ENDBRANCH   1   2
BRANCH   1  27
ATOM     27  C   UNL A   1      34.457  31.049  28.105  1.00  0.00     0.002 C 
BRANCH  27  28
ATOM     28  C   UNL A   1      33.940  32.281  27.356  1.00  0.00     0.021 C 
BRANCH  28  29
ATOM     29  C   UNL A   1      32.503  32.692  27.668  1.00  0.00     0.116 C 
BRANCH  29  30
ATOM     30  N   UNL A   1      32.341  34.130  27.802  1.00  0.00    -0.352 N 
ATOM     31  C   UNL A   1      33.033  35.017  28.586  1.00  0.00     0.251 C 
ATOM     32  H   UNL A   1      31.629  34.526  27.249  1.00  0.00     0.163 HD
ATOM     33  O   UNL A   1      32.662  36.188  28.674  1.00  0.00    -0.269 OA
BRANCH  31  34
ATOM     34  C   UNL A   1      34.207  34.563  29.359  1.00  0.00     0.039 A 
ATOM     35  C   UNL A   1      34.006  33.979  30.612  1.00  0.00     0.014 A 
ATOM     36  C   UNL A   1      35.501  34.700  28.847  1.00  0.00     0.014 A 
ATOM     37  C   UNL A   1      35.094  33.460  31.317  1.00  0.00     0.010 A 
ATOM     38  C   UNL A   1      36.575  34.118  29.518  1.00  0.00     0.010 A 
ATOM     39  C   UNL A   1      36.381  33.483  30.756  1.00  0.00    -0.014 A 
BRANCH  39  40
ATOM     40  C   UNL A   1      37.529  32.825  31.431  1.00  0.00     0.031 A 
ATOM     41  C   UNL A   1      38.201  31.638  30.801  1.00  0.00     0.074 A 
ATOM     42  C   UNL A   1      37.913  33.249  32.653  1.00  0.00     0.049 A 
ATOM     43  N   UNL A   1      39.149  30.871  31.281  1.00  0.00    -0.248 NA
ATOM     44  C   UNL A   1      37.729  31.242  29.465  1.00  0.00     0.031 C 
ATOM     45  C   UNL A   1      37.311  34.362  33.388  1.00  0.00     0.029 A 
ATOM     46  N   UNL A   1      38.885  32.779  33.502  1.00  0.00    -0.354 N 
ATOM     47  C   UNL A   1      39.370  29.895  30.317  1.00  0.00     0.074 A 
ATOM     48  C   UNL A   1      38.433  30.140  29.243  1.00  0.00     0.031 C 
ATOM     49  C   UNL A   1      37.933  34.497  34.571  1.00  0.00     0.029 A 
ATOM     50  C   UNL A   1      38.943  33.451  34.700  1.00  0.00     0.049 A 
ATOM     51  H   UNL A   1      39.485  32.033  33.273  1.00  0.00     0.167 HD
ATOM     52  C   UNL A   1      40.284  28.895  30.326  1.00  0.00     0.037 A 
ATOM     53  C   UNL A   1      39.704  33.234  35.789  1.00  0.00     0.037 A 
ATOM     54  C   UNL A   1      41.233  28.674  31.386  1.00  0.00     0.049 A 
ATOM     55  C   UNL A   1      40.701  32.104  35.773  1.00  0.00     0.074 A 
ATOM     56  C   UNL A   1      42.253  27.741  31.445  1.00  0.00     0.029 A 
ATOM     57  N   UNL A   1      41.273  29.386  32.575  1.00  0.00    -0.354 N 
ATOM     58  N   UNL A   1      40.961  31.242  34.820  1.00  0.00    -0.248 NA
ATOM     59  C   UNL A   1      41.514  31.919  36.984  1.00  0.00     0.031 C 
ATOM     60  C   UNL A   1      42.865  27.840  32.699  1.00  0.00     0.029 A 
ATOM     61  C   UNL A   1      42.273  28.884  33.393  1.00  0.00     0.049 A 
ATOM     62  H   UNL A   1      40.679  30.138  32.805  1.00  0.00     0.167 HD
ATOM     63  C   UNL A   1      41.983  30.436  35.303  1.00  0.00     0.074 A 
ATOM     64  C   UNL A   1      42.310  30.923  36.626  1.00  0.00     0.031 C 
ATOM     65  C   UNL A   1      42.594  29.383  34.706  1.00  0.00     0.037 A 
BRANCH  52  66
ATOM     66  C   UNL A   1      40.303  27.948  29.161  1.00  0.00     0.064 A 
ATOM     67  C   UNL A   1      39.556  26.759  29.158  1.00  0.00     0.173 A 
ATOM     68  C   UNL A   1      41.026  28.270  28.001  1.00  0.00     0.173 A 
ATOM     69  F   UNL A   1      38.857  26.400  30.244  1.00  0.00    -0.203 F 
ATOM     70  C   UNL A   1      39.549  25.920  28.048  1.00  0.00     0.198 A 
ATOM     71  C   UNL A   1      40.989  27.445  26.881  1.00  0.00     0.198 A 
ATOM     72  F   UNL A   1      41.751  29.396  27.948  1.00  0.00    -0.203 F 
ATOM     73  F   UNL A   1      38.862  24.770  28.083  1.00  0.00    -0.200 F 
ATOM     74  C   UNL A   1      40.257  26.268  26.907  1.00  0.00     0.200 A 
ATOM     75  F   UNL A   1      41.660  27.792  25.773  1.00  0.00    -0.200 F 
ATOM     76  F   UNL A   1      40.235  25.467  25.831  1.00  0.00    -0.200 F 
ENDBRANCH  52  66
BRANCH  53  77
ATOM     77  C   UNL A   1      39.551  34.091  36.996  1.00  0.00     0.064 A 
ATOM     78  C   UNL A   1      40.205  35.328  37.094  1.00  0.00     0.173 A 
ATOM     79  C   UNL A   1      38.780  33.676  38.091  1.00  0.00     0.173 A 
ATOM     80  F   UNL A   1      40.972  35.763  36.083  1.00  0.00    -0.203 F 
ATOM     81  C   UNL A   1      40.122  36.098  38.253  1.00  0.00     0.198 A 
ATOM     82  C   UNL A   1      38.668  34.464  39.235  1.00  0.00     0.198 A 
ATOM     83  F   UNL A   1      38.128  32.505  38.051  1.00  0.00    -0.203 F 
ATOM     84  F   UNL A   1      40.811  37.244  38.343  1.00  0.00    -0.200 F 
ATOM     85  C   UNL A   1      39.349  35.667  39.320  1.00  0.00     0.200 A 
ATOM     86  F   UNL A   1      37.906  34.052  40.257  1.00  0.00    -0.200 F 
ATOM     87  F   UNL A   1      39.272  36.406  40.436  1.00  0.00    -0.200 F 
ENDBRANCH  53  77
BRANCH  65  88
ATOM     88  C   UNL A   1      43.705  28.709  35.459  1.00  0.00     0.064 A 
ATOM     89  C   UNL A   1      45.047  29.080  35.285  1.00  0.00     0.173 A 
ATOM     90  C   UNL A   1      43.420  27.704  36.397  1.00  0.00     0.173 A 
ATOM     91  F   UNL A   1      45.377  30.024  34.390  1.00  0.00    -0.203 F 
ATOM     92  C   UNL A   1      46.063  28.451  36.001  1.00  0.00     0.198 A 
ATOM     93  C   UNL A   1      44.433  27.104  37.138  1.00  0.00     0.198 A 
ATOM     94  F   UNL A   1      42.153  27.316  36.608  1.00  0.00    -0.203 F 
ATOM     95  F   UNL A   1      47.342  28.785  35.779  1.00  0.00    -0.200 F 
ATOM     96  C   UNL A   1      45.755  27.471  36.933  1.00  0.00     0.200 A 
ATOM     97  F   UNL A   1      44.132  26.170  38.051  1.00  0.00    -0.200 F 
ATOM     98  F   UNL A   1      46.733  26.875  37.629  1.00  0.00    -0.200 F 
ENDBRANCH  65  88
ENDBRANCH  39  40
ENDBRANCH  31  34
ENDBRANCH  29  30
ENDBRANCH  28  29
ENDBRANCH  27  28
ENDBRANCH   1  27
TORSDOF 16
ENDMDL
MODEL 3
REMARK VINA RESULT:     -11.8      3.497      9.054
REMARK SMILES CSc1cccc(NC(=O)N[C@@H]2C=C[C@@H](C(=O)NCCCCCCNC(=O)c3ccc(-c4c5nc(c(-c6c(F)c(F)c(F)c(F)c6F)c6ccc([nH]6)c(-c6c(F)c(F)c(F)c(F)c6F)c6nc(c(-c7c(F)c(F)c(F)c(F)c7F)c7ccc4[nH]7)C=C6)C=C5)cc3)C2)c1
REMARK SMILES IDX 21 1 20 2 19 3 18 4 16 5 17 6 15 8 12 9 13 10 91 11 14 12
REMARK SMILES IDX 11 13 8 14 9 15 10 17 7 19 3 20 4 21 92 22 5 23 6 24 2 25
REMARK SMILES IDX 1 26 22 27 23 28 24 29 25 30 26 31 27 33 28 34 29 35 90 36
REMARK SMILES IDX 30 37 89 38 31 39 32 40 33 41 83 42 34 43 88 44 82 45 84 46
REMARK SMILES IDX 35 47 87 48 81 49 80 50 36 52 68 53 48 54 67 55 49 56 52 57
REMARK SMILES IDX 66 58 85 59 50 60 51 61 65 63 86 64 53 65 37 66 38 67 46 68
REMARK SMILES IDX 39 69 40 70 44 71 47 72 41 73 42 74 45 75 43 76 69 77 70 78
REMARK SMILES IDX 78 79 71 80 72 81 76 82 79 83 73 84 74 85 77 86 75 87 54 88
REMARK SMILES IDX 55 89 63 90 56 91 57 92 61 93 64 94 58 95 59 96 62 97 60 98
REMARK H PARENT 18 7 8 16 11 18 25 32 84 51 52 62
REMARK Flexibility Score: inf
ROOT
ATOM      1  C   UNL A   1      40.092  21.905  26.960  1.00  0.00     0.002 C 
ENDROOT
BRANCH   1   2
ATOM      2  C   UNL A   1      38.893  21.769  26.026  1.00  0.00     0.021 C 
BRANCH   2   3
ATOM      3  C   UNL A   1      38.026  23.012  25.899  1.00  0.00     0.116 C 
BRANCH   3   4
ATOM      4  N   UNL A   1      37.396  23.153  24.591  1.00  0.00    -0.356 N 
ATOM      5  C   UNL A   1      36.077  23.172  24.207  1.00  0.00     0.227 C 
ATOM      6  O   UNL A   1      35.853  23.331  23.003  1.00  0.00    -0.274 OA
ATOM      7  H   UNL A   1      38.034  23.254  23.847  1.00  0.00     0.163 HD
BRANCH   5   8
ATOM      8  C   UNL A   1      34.898  23.100  25.206  1.00  0.00     0.103 C 
ATOM      9  C   UNL A   1      32.457  23.208  24.750  1.00  0.00     0.107 C 
ATOM     10  C   UNL A   1      33.084  21.921  24.479  1.00  0.00    -0.006 C 
ATOM     11  C   UNL A   1      33.719  24.077  24.980  1.00  0.00     0.047 C 
ATOM     12  C   UNL A   1      34.312  21.756  24.959  1.00  0.00    -0.016 C 
BRANCH   9  13
ATOM     13  N   UNL A   1      31.538  23.096  25.879  1.00  0.00    -0.332 N 
ATOM     14  N   UNL A   1      29.929  24.899  26.107  1.00  0.00    -0.308 N 
ATOM     15  C   UNL A   1      30.566  23.781  26.500  1.00  0.00     0.319 C 
ATOM     16  H   UNL A   1      29.079  25.005  26.593  1.00  0.00     0.171 HD
ATOM     17  O   UNL A   1      30.102  23.225  27.508  1.00  0.00    -0.248 OA
ATOM     18  H   UNL A   1      31.677  22.235  26.334  1.00  0.00     0.165 HD
BRANCH  14  19
ATOM     19  C   UNL A   1      30.122  25.958  25.208  1.00  0.00     0.043 A 
ATOM     20  C   UNL A   1      31.374  27.985  24.715  1.00  0.00     0.009 A 
ATOM     21  C   UNL A   1      30.410  28.351  23.776  1.00  0.00     0.015 A 
ATOM     22  C   UNL A   1      31.232  26.784  25.422  1.00  0.00     0.041 A 
ATOM     23  C   UNL A   1      29.398  27.451  23.441  1.00  0.00     0.003 A 
ATOM     24  C   UNL A   1      29.285  26.225  24.122  1.00  0.00     0.026 A 
BRANCH  20  25
ATOM     25  S   UNL A   1      32.755  29.075  25.003  1.00  0.00    -0.130 SA
ATOM     26  C   UNL A   1      33.943  27.847  25.609  1.00  0.00     0.091 C 
ENDBRANCH  20  25
ENDBRANCH  14  19
ENDBRANCH   9  13
ENDBRANCH   5   8
ENDBRANCH   3   4
ENDBRANCH   2   3
ENDBRANCH   1   2
BRANCH   1  27
ATOM     27  C   UNL A   1      41.179  20.835  26.812  1.00  0.00     0.002 C 
BRANCH  27  28
ATOM     28  C   UNL A   1      42.422  21.242  26.014  1.00  0.00     0.021 C 
BRANCH  28  29
ATOM     29  C   UNL A   1      42.314  22.554  25.241  1.00  0.00     0.116 C 
BRANCH  29  30
ATOM     30  N   UNL A   1      43.607  23.085  24.843  1.00  0.00    -0.352 N 
ATOM     31  C   UNL A   1      44.201  24.277  25.174  1.00  0.00     0.251 C 
ATOM     32  H   UNL A   1      44.134  22.506  24.246  1.00  0.00     0.163 HD
ATOM     33  O   UNL A   1      45.249  24.621  24.627  1.00  0.00    -0.269 OA
BRANCH  31  34
ATOM     34  C   UNL A   1      43.567  25.170  26.166  1.00  0.00     0.039 A 
ATOM     35  C   UNL A   1      42.656  24.628  27.076  1.00  0.00     0.014 A 
ATOM     36  C   UNL A   1      43.877  26.532  26.208  1.00  0.00     0.014 A 
ATOM     37  C   UNL A   1      42.117  25.436  28.080  1.00  0.00     0.010 A 
ATOM     38  C   UNL A   1      43.394  27.319  27.252  1.00  0.00     0.010 A 
ATOM     39  C   UNL A   1      42.516  26.776  28.205  1.00  0.00    -0.014 A 
BRANCH  39  40
ATOM     40  C   UNL A   1      42.053  27.618  29.339  1.00  0.00     0.031 A 
ATOM     41  C   UNL A   1      42.729  27.526  30.678  1.00  0.00     0.074 A 
ATOM     42  C   UNL A   1      40.969  28.404  29.181  1.00  0.00     0.049 A 
ATOM     43  N   UNL A   1      42.406  28.102  31.809  1.00  0.00    -0.248 NA
ATOM     44  C   UNL A   1      43.908  26.651  30.766  1.00  0.00     0.031 C 
ATOM     45  C   UNL A   1      40.200  28.546  27.944  1.00  0.00     0.029 A 
ATOM     46  N   UNL A   1      40.311  29.217  30.073  1.00  0.00    -0.354 N 
ATOM     47  C   UNL A   1      43.327  27.645  32.742  1.00  0.00     0.074 A 
ATOM     48  C   UNL A   1      44.197  26.713  32.058  1.00  0.00     0.031 C 
ATOM     49  C   UNL A   1      39.185  29.400  28.150  1.00  0.00     0.029 A 
ATOM     50  C   UNL A   1      39.199  29.829  29.545  1.00  0.00     0.049 A 
ATOM     51  H   UNL A   1      40.610  29.349  31.002  1.00  0.00     0.167 HD
ATOM     52  C   UNL A   1      43.443  27.985  34.049  1.00  0.00     0.037 A 
ATOM     53  C   UNL A   1      38.280  30.624  30.126  1.00  0.00     0.037 A 
ATOM     54  C   UNL A   1      42.591  28.935  34.717  1.00  0.00     0.049 A 
ATOM     55  C   UNL A   1      38.428  30.971  31.584  1.00  0.00     0.074 A 
ATOM     56  C   UNL A   1      42.683  29.408  36.014  1.00  0.00     0.029 A 
ATOM     57  N   UNL A   1      41.487  29.548  34.145  1.00  0.00    -0.354 N 
ATOM     58  N   UNL A   1      39.355  30.601  32.434  1.00  0.00    -0.248 NA
ATOM     59  C   UNL A   1      37.404  31.853  32.163  1.00  0.00     0.031 C 
ATOM     60  C   UNL A   1      41.594  30.252  36.250  1.00  0.00     0.029 A 
ATOM     61  C   UNL A   1      40.863  30.363  35.077  1.00  0.00     0.049 A 
ATOM     62  H   UNL A   1      41.189  29.424  33.214  1.00  0.00     0.167 HD
ATOM     63  C   UNL A   1      39.043  31.225  33.635  1.00  0.00     0.074 A 
ATOM     64  C   UNL A   1      37.852  32.014  33.399  1.00  0.00     0.031 C 
ATOM     65  C   UNL A   1      39.682  31.149  34.828  1.00  0.00     0.037 A 
BRANCH  52  66
ATOM     66  C   UNL A   1      44.520  27.322  34.857  1.00  0.00     0.064 A 
ATOM     67  C   UNL A   1      44.301  26.113  35.537  1.00  0.00     0.173 A 
ATOM     68  C   UNL A   1      45.812  27.869  34.896  1.00  0.00     0.173 A 
ATOM     69  F   UNL A   1      43.083  25.552  35.540  1.00  0.00    -0.203 F 
ATOM     70  C   UNL A   1      45.329  25.489  36.240  1.00  0.00     0.198 A 
ATOM     71  C   UNL A   1      46.845  27.226  35.571  1.00  0.00     0.198 A 
ATOM     72  F   UNL A   1      46.078  29.020  34.259  1.00  0.00    -0.203 F 
ATOM     73  F   UNL A   1      45.086  24.357  36.914  1.00  0.00    -0.200 F 
ATOM     74  C   UNL A   1      46.601  26.040  36.248  1.00  0.00     0.200 A 
ATOM     75  F   UNL A   1      48.078  27.751  35.564  1.00  0.00    -0.200 F 
ATOM     76  F   UNL A   1      47.594  25.430  36.911  1.00  0.00    -0.200 F 
ENDBRANCH  52  66
BRANCH  53  77
ATOM     77  C   UNL A   1      37.128  31.140  29.338  1.00  0.00     0.064 A 
ATOM     78  C   UNL A   1      37.095  32.467  28.886  1.00  0.00     0.173 A 
ATOM     79  C   UNL A   1      36.020  30.329  29.051  1.00  0.00     0.173 A 
ATOM     80  F   UNL A   1      38.120  33.291  29.152  1.00  0.00    -0.203 F 
ATOM     81  C   UNL A   1      35.984  32.972  28.212  1.00  0.00     0.198 A 
ATOM     82  C   UNL A   1      34.926  30.825  28.344  1.00  0.00     0.198 A 
ATOM     83  F   UNL A   1      36.000  29.049  29.453  1.00  0.00    -0.203 F 
ATOM     84  F   UNL A   1      35.953  34.263  27.852  1.00  0.00    -0.200 F 
ATOM     85  C   UNL A   1      34.903  32.149  27.937  1.00  0.00     0.200 A 
ATOM     86  F   UNL A   1      33.892  30.020  28.066  1.00  0.00    -0.200 F 
ATOM     87  F   UNL A   1      33.835  32.635  27.292  1.00  0.00    -0.200 F 
ENDBRANCH  53  77
BRANCH  65  88
ATOM     88  C   UNL A   1      39.134  31.968  35.962  1.00  0.00     0.064 A 
ATOM     89  C   UNL A   1      38.225  31.433  36.887  1.00  0.00     0.173 A 
ATOM     90  C   UNL A   1      39.553  33.294  36.148  1.00  0.00     0.173 A 
ATOM     91  F   UNL A   1      37.779  30.175  36.747  1.00  0.00    -0.203 F 
ATOM     92  C   UNL A   1      37.736  32.204  37.939  1.00  0.00     0.198 A 
ATOM     93  C   UNL A   1      39.092  34.050  37.221  1.00  0.00     0.198 A 
ATOM     94  F   UNL A   1      40.428  33.852  35.297  1.00  0.00    -0.203 F 
ATOM     95  F   UNL A   1      36.827  31.689  38.779  1.00  0.00    -0.200 F 
ATOM     96  C   UNL A   1      38.176  33.508  38.110  1.00  0.00     0.200 A 
ATOM     97  F   UNL A   1      39.533  35.304  37.395  1.00  0.00    -0.200 F 
ATOM     98  F   UNL A   1      37.713  34.245  39.129  1.00  0.00    -0.200 F 
ENDBRANCH  65  88
ENDBRANCH  39  40
ENDBRANCH  31  34
ENDBRANCH  29  30
ENDBRANCH  28  29
ENDBRANCH  27  28
ENDBRANCH   1  27
TORSDOF 16
ENDMDL
