MODEL 1
REMARK VINA RESULT:     -12.5      0.000      0.000
REMARK SMILES Cc1c(C(=O)N[C@H]2C=C[C@@H](C(=O)NCCCCCCNC(=O)c3ccc(-c4c5nc(c(-c6c(F)c(F)c(F)c(F)c6F)c6ccc([nH]6)c(-c6c(F)c(F)c(F)c(F)c6F)c6nc(c(-c7c(F)c(F)c(F)c(F)c7F)c7ccc4[nH]7)C=C6)C=C5)cc3)C2)oc2ccccc12
REMARK SMILES IDX 16 1 15 2 14 3 13 4 11 5 12 6 10 8 7 9 8 10 86 11 9 12 6 13
REMARK SMILES IDX 4 14 5 15 3 17 1 18 2 19 93 20 87 21 88 22 92 23 89 24 91 25
REMARK SMILES IDX 90 26 17 27 18 28 19 29 20 30 21 31 22 33 23 34 24 35 85 36
REMARK SMILES IDX 25 37 84 38 26 39 27 40 28 41 78 42 29 43 83 44 77 45 79 46
REMARK SMILES IDX 30 47 82 48 76 49 75 50 31 52 63 53 43 54 62 55 44 56 47 57
REMARK SMILES IDX 61 58 80 59 45 60 46 61 60 63 81 64 48 65 32 66 33 67 41 68
REMARK SMILES IDX 34 69 35 70 39 71 42 72 36 73 37 74 40 75 38 76 64 77 65 78
REMARK SMILES IDX 73 79 66 80 67 81 71 82 74 83 68 84 69 85 72 86 70 87 49 88
REMARK SMILES IDX 50 89 58 90 51 91 52 92 56 93 59 94 53 95 54 96 57 97 55 98
REMARK H PARENT 13 7 6 16 20 32 79 51 47 62
REMARK Flexibility Score: inf
ROOT
ATOM      1  C   UNL A   1      35.076  32.914  29.034  1.00  0.00     0.002 C 
ENDROOT
BRANCH   1   2
ATOM      2  C   UNL A   1      35.623  31.945  27.987  1.00  0.00     0.021 C 
BRANCH   2   3
ATOM      3  C   UNL A   1      34.664  30.816  27.662  1.00  0.00     0.116 C 
BRANCH   3   4
ATOM      4  N   UNL A   1      33.330  31.323  27.437  1.00  0.00    -0.356 N 
ATOM      5  C   UNL A   1      32.311  30.762  26.737  1.00  0.00     0.227 C 
ATOM      6  O   UNL A   1      31.270  31.406  26.602  1.00  0.00    -0.274 OA
ATOM      7  H   UNL A   1      33.133  32.196  27.847  1.00  0.00     0.163 HD
BRANCH   5   8
ATOM      8  C   UNL A   1      32.459  29.382  26.114  1.00  0.00     0.103 C 
ATOM      9  C   UNL A   1      31.803  27.114  26.101  1.00  0.00     0.106 C 
ATOM     10  C   UNL A   1      31.052  27.824  25.034  1.00  0.00    -0.006 C 
ATOM     11  C   UNL A   1      32.143  28.235  27.075  1.00  0.00     0.047 C 
ATOM     12  C   UNL A   1      31.527  29.079  24.958  1.00  0.00    -0.016 C 
BRANCH   9  13
ATOM     13  N   UNL A   1      31.205  25.988  26.699  1.00  0.00    -0.343 N 
ATOM     14  C   UNL A   1      31.637  24.681  26.558  1.00  0.00     0.287 C 
ATOM     15  O   UNL A   1      31.005  23.876  27.253  1.00  0.00    -0.266 OA
ATOM     16  H   UNL A   1      30.415  26.144  27.266  1.00  0.00     0.164 HD
BRANCH  14  17
ATOM     17  C   UNL A   1      32.735  24.246  25.658  1.00  0.00     0.195 A 
ATOM     18  C   UNL A   1      32.115  23.484  23.158  1.00  0.00     0.049 C 
ATOM     19  C   UNL A   1      32.968  23.769  24.348  1.00  0.00     0.008 A 
ATOM     20  C   UNL A   1      34.377  23.528  24.238  1.00  0.00     0.024 A 
ATOM     21  O   UNL A   1      33.971  24.312  26.288  1.00  0.00    -0.451 OA
ATOM     22  C   UNL A   1      34.935  23.883  25.445  1.00  0.00     0.135 A 
ATOM     23  C   UNL A   1      35.217  23.043  23.217  1.00  0.00     0.012 A 
ATOM     24  C   UNL A   1      36.295  23.799  25.724  1.00  0.00     0.048 A 
ATOM     25  C   UNL A   1      36.588  22.945  23.458  1.00  0.00     0.001 A 
ATOM     26  C   UNL A   1      37.116  23.319  24.693  1.00  0.00     0.004 A 
ENDBRANCH  14  17
ENDBRANCH   9  13
ENDBRANCH   5   8
ENDBRANCH   3   4
ENDBRANCH   2   3
ENDBRANCH   1   2
BRANCH   1  27
ATOM     27  C   UNL A   1      35.407  34.386  28.767  1.00  0.00     0.002 C 
BRANCH  27  28
ATOM     28  C   UNL A   1      34.222  35.344  28.906  1.00  0.00     0.021 C 
BRANCH  28  29
ATOM     29  C   UNL A   1      33.049  34.764  29.679  1.00  0.00     0.116 C 
BRANCH  29  30
ATOM     30  N   UNL A   1      32.504  35.720  30.624  1.00  0.00    -0.352 N 
ATOM     31  C   UNL A   1      32.787  35.846  31.963  1.00  0.00     0.251 C 
ATOM     32  H   UNL A   1      31.849  36.360  30.260  1.00  0.00     0.163 HD
ATOM     33  O   UNL A   1      32.111  36.549  32.690  1.00  0.00    -0.269 OA
BRANCH  31  34
ATOM     34  C   UNL A   1      33.929  35.081  32.499  1.00  0.00     0.039 A 
ATOM     35  C   UNL A   1      33.712  33.797  32.998  1.00  0.00     0.014 A 
ATOM     36  C   UNL A   1      35.216  35.624  32.440  1.00  0.00     0.014 A 
ATOM     37  C   UNL A   1      34.805  33.027  33.395  1.00  0.00     0.010 A 
ATOM     38  C   UNL A   1      36.306  34.828  32.761  1.00  0.00     0.010 A 
ATOM     39  C   UNL A   1      36.109  33.525  33.248  1.00  0.00    -0.014 A 
BRANCH  39  40
ATOM     40  C   UNL A   1      37.298  32.717  33.609  1.00  0.00     0.031 A 
ATOM     41  C   UNL A   1      38.047  33.029  34.871  1.00  0.00     0.074 A 
ATOM     42  C   UNL A   1      37.760  31.785  32.755  1.00  0.00     0.049 A 
ATOM     43  N   UNL A   1      39.189  32.553  35.299  1.00  0.00    -0.248 NA
ATOM     44  C   UNL A   1      37.450  34.044  35.752  1.00  0.00     0.031 C 
ATOM     45  C   UNL A   1      37.142  31.429  31.477  1.00  0.00     0.029 A 
ATOM     46  N   UNL A   1      38.874  30.988  32.822  1.00  0.00    -0.354 N 
ATOM     47  C   UNL A   1      39.455  33.228  36.482  1.00  0.00     0.074 A 
ATOM     48  C   UNL A   1      38.389  34.188  36.672  1.00  0.00     0.031 C 
ATOM     49  C   UNL A   1      37.883  30.483  30.881  1.00  0.00     0.029 A 
ATOM     50  C   UNL A   1      39.050  30.199  31.713  1.00  0.00     0.049 A 
ATOM     51  H   UNL A   1      39.487  30.982  33.591  1.00  0.00     0.167 HD
ATOM     52  C   UNL A   1      40.485  33.047  37.342  1.00  0.00     0.037 A 
ATOM     53  C   UNL A   1      40.051  29.359  31.392  1.00  0.00     0.037 A 
ATOM     54  C   UNL A   1      41.533  32.079  37.149  1.00  0.00     0.049 A 
ATOM     55  C   UNL A   1      41.191  29.175  32.357  1.00  0.00     0.074 A 
ATOM     56  C   UNL A   1      42.590  31.771  37.985  1.00  0.00     0.029 A 
ATOM     57  N   UNL A   1      41.657  31.266  36.029  1.00  0.00    -0.354 N 
ATOM     58  N   UNL A   1      41.403  29.768  33.507  1.00  0.00    -0.248 NA
ATOM     59  C   UNL A   1      42.224  28.200  31.984  1.00  0.00     0.031 C 
ATOM     60  C   UNL A   1      43.385  30.812  37.348  1.00  0.00     0.029 A 
ATOM     61  C   UNL A   1      42.789  30.474  36.143  1.00  0.00     0.049 A 
ATOM     62  H   UNL A   1      41.034  31.254  35.268  1.00  0.00     0.167 HD
ATOM     63  C   UNL A   1      42.576  29.220  34.009  1.00  0.00     0.074 A 
ATOM     64  C   UNL A   1      43.025  28.241  33.040  1.00  0.00     0.031 C 
ATOM     65  C   UNL A   1      43.219  29.501  35.170  1.00  0.00     0.037 A 
BRANCH  52  66
ATOM     66  C   UNL A   1      40.527  33.930  38.558  1.00  0.00     0.064 A 
ATOM     67  C   UNL A   1      39.872  33.579  39.750  1.00  0.00     0.173 A 
ATOM     68  C   UNL A   1      41.220  35.149  38.528  1.00  0.00     0.173 A 
ATOM     69  F   UNL A   1      39.185  32.429  39.831  1.00  0.00    -0.203 F 
ATOM     70  C   UNL A   1      39.867  34.438  40.846  1.00  0.00     0.198 A 
ATOM     71  C   UNL A   1      41.245  35.989  39.639  1.00  0.00     0.198 A 
ATOM     72  F   UNL A   1      41.870  35.532  37.419  1.00  0.00    -0.203 F 
ATOM     73  F   UNL A   1      39.170  34.116  41.945  1.00  0.00    -0.200 F 
ATOM     74  C   UNL A   1      40.556  35.641  40.792  1.00  0.00     0.200 A 
ATOM     75  F   UNL A   1      41.924  37.142  39.590  1.00  0.00    -0.200 F 
ATOM     76  F   UNL A   1      40.546  36.469  41.844  1.00  0.00    -0.200 F 
ENDBRANCH  52  66
BRANCH  53  77
ATOM     77  C   UNL A   1      40.001  28.622  30.103  1.00  0.00     0.064 A 
ATOM     78  C   UNL A   1      40.576  29.157  28.943  1.00  0.00     0.173 A 
ATOM     79  C   UNL A   1      39.413  27.351  30.014  1.00  0.00     0.173 A 
ATOM     80  F   UNL A   1      41.135  30.376  28.975  1.00  0.00    -0.203 F 
ATOM     81  C   UNL A   1      40.560  28.454  27.741  1.00  0.00     0.198 A 
ATOM     82  C   UNL A   1      39.421  26.637  28.819  1.00  0.00     0.198 A 
ATOM     83  F   UNL A   1      38.858  26.790  31.099  1.00  0.00    -0.203 F 
ATOM     84  F   UNL A   1      41.091  29.001  26.639  1.00  0.00    -0.200 F 
ATOM     85  C   UNL A   1      39.991  27.191  27.682  1.00  0.00     0.200 A 
ATOM     86  F   UNL A   1      38.889  25.408  28.771  1.00  0.00    -0.200 F 
ATOM     87  F   UNL A   1      39.990  26.508  26.529  1.00  0.00    -0.200 F 
ENDBRANCH  53  77
BRANCH  65  88
ATOM     88  C   UNL A   1      44.458  28.711  35.481  1.00  0.00     0.064 A 
ATOM     89  C   UNL A   1      45.733  29.151  35.097  1.00  0.00     0.173 A 
ATOM     90  C   UNL A   1      44.370  27.523  36.223  1.00  0.00     0.173 A 
ATOM     91  F   UNL A   1      45.871  30.273  34.374  1.00  0.00    -0.203 F 
ATOM     92  C   UNL A   1      46.872  28.421  35.427  1.00  0.00     0.198 A 
ATOM     93  C   UNL A   1      45.512  26.812  36.579  1.00  0.00     0.198 A 
ATOM     94  F   UNL A   1      43.175  27.061  36.620  1.00  0.00    -0.203 F 
ATOM     95  F   UNL A   1      48.076  28.837  35.012  1.00  0.00    -0.200 F 
ATOM     96  C   UNL A   1      46.761  27.258  36.176  1.00  0.00     0.200 A 
ATOM     97  F   UNL A   1      45.404  25.698  37.315  1.00  0.00    -0.200 F 
ATOM     98  F   UNL A   1      47.859  26.562  36.503  1.00  0.00    -0.200 F 
ENDBRANCH  65  88
ENDBRANCH  39  40
ENDBRANCH  31  34
ENDBRANCH  29  30
ENDBRANCH  28  29
ENDBRANCH  27  28
ENDBRANCH   1  27
TORSDOF 15
ENDMDL
MODEL 2
REMARK VINA RESULT:     -12.4      1.284      2.073
REMARK SMILES Cc1c(C(=O)N[C@H]2C=C[C@@H](C(=O)NCCCCCCNC(=O)c3ccc(-c4c5nc(c(-c6c(F)c(F)c(F)c(F)c6F)c6ccc([nH]6)c(-c6c(F)c(F)c(F)c(F)c6F)c6nc(c(-c7c(F)c(F)c(F)c(F)c7F)c7ccc4[nH]7)C=C6)C=C5)cc3)C2)oc2ccccc12
REMARK SMILES IDX 16 1 15 2 14 3 13 4 11 5 12 6 10 8 7 9 8 10 86 11 9 12 6 13
REMARK SMILES IDX 4 14 5 15 3 17 1 18 2 19 93 20 87 21 88 22 92 23 89 24 91 25
REMARK SMILES IDX 90 26 17 27 18 28 19 29 20 30 21 31 22 33 23 34 24 35 85 36
REMARK SMILES IDX 25 37 84 38 26 39 27 40 28 41 78 42 29 43 83 44 77 45 79 46
REMARK SMILES IDX 30 47 82 48 76 49 75 50 31 52 63 53 43 54 62 55 44 56 47 57
REMARK SMILES IDX 61 58 80 59 45 60 46 61 60 63 81 64 48 65 32 66 33 67 41 68
REMARK SMILES IDX 34 69 35 70 39 71 42 72 36 73 37 74 40 75 38 76 64 77 65 78
REMARK SMILES IDX 73 79 66 80 67 81 71 82 74 83 68 84 69 85 72 86 70 87 49 88
REMARK SMILES IDX 50 89 58 90 51 91 52 92 56 93 59 94 53 95 54 96 57 97 55 98
REMARK H PARENT 13 7 6 16 20 32 79 51 47 62
REMARK Flexibility Score: inf
ROOT
ATOM      1  C   UNL A   1      35.154  33.038  28.037  1.00  0.00     0.002 C 
ENDROOT
BRANCH   1   2
ATOM      2  C   UNL A   1      35.009  31.556  27.694  1.00  0.00     0.021 C 
BRANCH   2   3
ATOM      3  C   UNL A   1      33.564  31.117  27.549  1.00  0.00     0.116 C 
BRANCH   3   4
ATOM      4  N   UNL A   1      33.452  29.680  27.629  1.00  0.00    -0.356 N 
ATOM      5  C   UNL A   1      33.227  28.784  26.634  1.00  0.00     0.227 C 
ATOM      6  O   UNL A   1      33.087  27.598  26.935  1.00  0.00    -0.274 OA
ATOM      7  H   UNL A   1      33.552  29.296  28.530  1.00  0.00     0.163 HD
BRANCH   5   8
ATOM      8  C   UNL A   1      33.125  29.237  25.186  1.00  0.00     0.103 C 
ATOM      9  C   UNL A   1      33.065  28.636  22.903  1.00  0.00     0.106 C 
ATOM     10  C   UNL A   1      31.671  28.858  23.365  1.00  0.00    -0.006 C 
ATOM     11  C   UNL A   1      33.794  28.284  24.194  1.00  0.00     0.047 C 
ATOM     12  C   UNL A   1      31.721  29.330  24.623  1.00  0.00    -0.016 C 
BRANCH   9  13
ATOM     13  N   UNL A   1      33.280  27.726  21.850  1.00  0.00    -0.343 N 
ATOM     14  C   UNL A   1      33.116  26.354  21.929  1.00  0.00     0.287 C 
ATOM     15  O   UNL A   1      33.278  25.776  20.848  1.00  0.00    -0.266 OA
ATOM     16  H   UNL A   1      33.570  28.097  20.985  1.00  0.00     0.164 HD
BRANCH  14  17
ATOM     17  C   UNL A   1      32.797  25.612  23.175  1.00  0.00     0.195 A 
ATOM     18  C   UNL A   1      30.241  25.526  23.995  1.00  0.00     0.049 C 
ATOM     19  C   UNL A   1      31.710  25.274  24.014  1.00  0.00     0.008 A 
ATOM     20  C   UNL A   1      32.250  24.520  25.108  1.00  0.00     0.024 A 
ATOM     21  O   UNL A   1      33.934  25.051  23.742  1.00  0.00    -0.451 OA
ATOM     22  C   UNL A   1      33.604  24.410  24.885  1.00  0.00     0.135 A 
ATOM     23  C   UNL A   1      31.700  23.924  26.260  1.00  0.00     0.012 A 
ATOM     24  C   UNL A   1      34.475  23.734  25.732  1.00  0.00     0.048 A 
ATOM     25  C   UNL A   1      32.543  23.237  27.133  1.00  0.00     0.001 A 
ATOM     26  C   UNL A   1      33.909  23.144  26.870  1.00  0.00     0.004 A 
ENDBRANCH  14  17
ENDBRANCH   9  13
ENDBRANCH   5   8
ENDBRANCH   3   4
ENDBRANCH   2   3
ENDBRANCH   1   2
BRANCH   1  27
ATOM     27  C   UNL A   1      34.312  33.495  29.234  1.00  0.00     0.002 C 
BRANCH  27  28
ATOM     28  C   UNL A   1      33.277  34.576  28.913  1.00  0.00     0.021 C 
BRANCH  28  29
ATOM     29  C   UNL A   1      33.593  35.931  29.526  1.00  0.00     0.116 C 
BRANCH  29  30
ATOM     30  N   UNL A   1      32.608  36.309  30.523  1.00  0.00    -0.352 N 
ATOM     31  C   UNL A   1      32.519  35.891  31.829  1.00  0.00     0.251 C 
ATOM     32  H   UNL A   1      31.917  36.944  30.226  1.00  0.00     0.163 HD
ATOM     33  O   UNL A   1      31.530  36.116  32.500  1.00  0.00    -0.269 OA
BRANCH  31  34
ATOM     34  C   UNL A   1      33.657  35.137  32.389  1.00  0.00     0.039 A 
ATOM     35  C   UNL A   1      33.453  33.834  32.842  1.00  0.00     0.014 A 
ATOM     36  C   UNL A   1      34.932  35.712  32.398  1.00  0.00     0.014 A 
ATOM     37  C   UNL A   1      34.547  33.079  33.261  1.00  0.00     0.010 A 
ATOM     38  C   UNL A   1      36.027  34.933  32.740  1.00  0.00     0.010 A 
ATOM     39  C   UNL A   1      35.844  33.612  33.181  1.00  0.00    -0.014 A 
BRANCH  39  40
ATOM     40  C   UNL A   1      37.037  32.822  33.567  1.00  0.00     0.031 A 
ATOM     41  C   UNL A   1      37.747  33.136  34.851  1.00  0.00     0.074 A 
ATOM     42  C   UNL A   1      37.538  31.906  32.718  1.00  0.00     0.049 A 
ATOM     43  N   UNL A   1      38.885  32.677  35.305  1.00  0.00    -0.248 NA
ATOM     44  C   UNL A   1      37.108  34.132  35.725  1.00  0.00     0.031 C 
ATOM     45  C   UNL A   1      36.960  31.550  31.421  1.00  0.00     0.029 A 
ATOM     46  N   UNL A   1      38.664  31.128  32.808  1.00  0.00    -0.354 N 
ATOM     47  C   UNL A   1      39.108  33.345  36.501  1.00  0.00     0.074 A 
ATOM     48  C   UNL A   1      38.020  34.285  36.671  1.00  0.00     0.031 C 
ATOM     49  C   UNL A   1      37.734  30.623  30.837  1.00  0.00     0.029 A 
ATOM     50  C   UNL A   1      38.884  30.352  31.697  1.00  0.00     0.049 A 
ATOM     51  H   UNL A   1      39.257  31.126  33.593  1.00  0.00     0.167 HD
ATOM     52  C   UNL A   1      40.117  33.175  37.387  1.00  0.00     0.037 A 
ATOM     53  C   UNL A   1      39.908  29.533  31.396  1.00  0.00     0.037 A 
ATOM     54  C   UNL A   1      41.187  32.228  37.213  1.00  0.00     0.049 A 
ATOM     55  C   UNL A   1      41.024  29.361  32.390  1.00  0.00     0.074 A 
ATOM     56  C   UNL A   1      42.227  31.931  38.075  1.00  0.00     0.029 A 
ATOM     57  N   UNL A   1      41.356  31.427  36.091  1.00  0.00    -0.354 N 
ATOM     58  N   UNL A   1      41.196  29.947  33.550  1.00  0.00    -0.248 NA
ATOM     59  C   UNL A   1      42.084  28.408  32.037  1.00  0.00     0.031 C 
ATOM     60  C   UNL A   1      43.056  30.992  37.451  1.00  0.00     0.029 A 
ATOM     61  C   UNL A   1      42.498  30.655  36.228  1.00  0.00     0.049 A 
ATOM     62  H   UNL A   1      40.753  31.411  35.313  1.00  0.00     0.167 HD
ATOM     63  C   UNL A   1      42.365  29.416  34.079  1.00  0.00     0.074 A 
ATOM     64  C   UNL A   1      42.856  28.453  33.114  1.00  0.00     0.031 C 
ATOM     65  C   UNL A   1      42.972  29.698  35.259  1.00  0.00     0.037 A 
BRANCH  52  66
ATOM     66  C   UNL A   1      40.111  34.048  38.611  1.00  0.00     0.064 A 
ATOM     67  C   UNL A   1      39.440  33.671  39.785  1.00  0.00     0.173 A 
ATOM     68  C   UNL A   1      40.775  35.284  38.606  1.00  0.00     0.173 A 
ATOM     69  F   UNL A   1      38.780  32.504  39.841  1.00  0.00    -0.203 F 
ATOM     70  C   UNL A   1      39.389  34.520  40.888  1.00  0.00     0.198 A 
ATOM     71  C   UNL A   1      40.755  36.114  39.725  1.00  0.00     0.198 A 
ATOM     72  F   UNL A   1      41.438  35.693  37.515  1.00  0.00    -0.203 F 
ATOM     73  F   UNL A   1      38.677  34.170  41.969  1.00  0.00    -0.200 F 
ATOM     74  C   UNL A   1      40.050  35.739  40.859  1.00  0.00     0.200 A 
ATOM     75  F   UNL A   1      41.405  37.284  39.700  1.00  0.00    -0.200 F 
ATOM     76  F   UNL A   1      39.997  36.557  41.918  1.00  0.00    -0.200 F 
ENDBRANCH  52  66
BRANCH  53  77
ATOM     77  C   UNL A   1      39.905  28.807  30.101  1.00  0.00     0.064 A 
ATOM     78  C   UNL A   1      40.493  29.367  28.958  1.00  0.00     0.173 A 
ATOM     79  C   UNL A   1      39.351  27.523  29.988  1.00  0.00     0.173 A 
ATOM     80  F   UNL A   1      41.019  30.599  29.013  1.00  0.00    -0.203 F 
ATOM     81  C   UNL A   1      40.521  28.674  27.750  1.00  0.00     0.198 A 
ATOM     82  C   UNL A   1      39.404  26.820  28.786  1.00  0.00     0.198 A 
ATOM     83  F   UNL A   1      38.787  26.938  31.055  1.00  0.00    -0.203 F 
ATOM     84  F   UNL A   1      41.063  29.245  26.665  1.00  0.00    -0.200 F 
ATOM     85  C   UNL A   1      39.985  27.398  27.667  1.00  0.00     0.200 A 
ATOM     86  F   UNL A   1      38.904  25.578  28.716  1.00  0.00    -0.200 F 
ATOM     87  F   UNL A   1      40.027  26.725  26.509  1.00  0.00    -0.200 F 
ENDBRANCH  53  77
BRANCH  65  88
ATOM     88  C   UNL A   1      44.216  28.928  35.596  1.00  0.00     0.064 A 
ATOM     89  C   UNL A   1      44.169  27.713  36.296  1.00  0.00     0.173 A 
ATOM     90  C   UNL A   1      45.469  29.387  35.161  1.00  0.00     0.173 A 
ATOM     91  F   UNL A   1      42.998  27.238  36.746  1.00  0.00    -0.203 F 
ATOM     92  C   UNL A   1      45.333  26.998  36.566  1.00  0.00     0.198 A 
ATOM     93  C   UNL A   1      46.627  28.654  35.406  1.00  0.00     0.198 A 
ATOM     94  F   UNL A   1      45.569  30.540  34.483  1.00  0.00    -0.203 F 
ATOM     95  F   UNL A   1      45.270  25.863  37.275  1.00  0.00    -0.200 F 
ATOM     96  C   UNL A   1      46.559  27.464  36.113  1.00  0.00     0.200 A 
ATOM     97  F   UNL A   1      47.807  29.098  34.953  1.00  0.00    -0.200 F 
ATOM     98  F   UNL A   1      47.676  26.768  36.364  1.00  0.00    -0.200 F 
ENDBRANCH  65  88
ENDBRANCH  39  40
ENDBRANCH  31  34
ENDBRANCH  29  30
ENDBRANCH  28  29
ENDBRANCH  27  28
ENDBRANCH   1  27
TORSDOF 15
ENDMDL
MODEL 3
REMARK VINA RESULT:     -12.3      0.168      1.915
REMARK SMILES Cc1c(C(=O)N[C@H]2C=C[C@@H](C(=O)NCCCCCCNC(=O)c3ccc(-c4c5nc(c(-c6c(F)c(F)c(F)c(F)c6F)c6ccc([nH]6)c(-c6c(F)c(F)c(F)c(F)c6F)c6nc(c(-c7c(F)c(F)c(F)c(F)c7F)c7ccc4[nH]7)C=C6)C=C5)cc3)C2)oc2ccccc12
REMARK SMILES IDX 16 1 15 2 14 3 13 4 11 5 12 6 10 8 7 9 8 10 86 11 9 12 6 13
REMARK SMILES IDX 4 14 5 15 3 17 1 18 2 19 93 20 87 21 88 22 92 23 89 24 91 25
REMARK SMILES IDX 90 26 17 27 18 28 19 29 20 30 21 31 22 33 23 34 24 35 85 36
REMARK SMILES IDX 25 37 84 38 26 39 27 40 28 41 78 42 29 43 83 44 77 45 79 46
REMARK SMILES IDX 30 47 82 48 76 49 75 50 31 52 63 53 43 54 62 55 44 56 47 57
REMARK SMILES IDX 61 58 80 59 45 60 46 61 60 63 81 64 48 65 32 66 33 67 41 68
REMARK SMILES IDX 34 69 35 70 39 71 42 72 36 73 37 74 40 75 38 76 64 77 65 78
REMARK SMILES IDX 73 79 66 80 67 81 71 82 74 83 68 84 69 85 72 86 70 87 49 88
REMARK SMILES IDX 50 89 58 90 51 91 52 92 56 93 59 94 53 95 54 96 57 97 55 98
REMARK H PARENT 13 7 6 16 20 32 79 51 47 62
REMARK Flexibility Score: inf
ROOT
ATOM      1  C   UNL A   1      35.117  32.827  28.973  1.00  0.00     0.002 C 
ENDROOT
BRANCH   1   2
ATOM      2  C   UNL A   1      35.458  31.850  27.850  1.00  0.00     0.021 C 
BRANCH   2   3
ATOM      3  C   UNL A   1      34.440  30.735  27.701  1.00  0.00     0.116 C 
BRANCH   3   4
ATOM      4  N   UNL A   1      33.146  31.265  27.342  1.00  0.00    -0.356 N 
ATOM      5  C   UNL A   1      32.185  30.713  26.558  1.00  0.00     0.227 C 
ATOM      6  O   UNL A   1      31.176  31.377  26.313  1.00  0.00    -0.274 OA
ATOM      7  H   UNL A   1      32.930  32.149  27.718  1.00  0.00     0.163 HD
BRANCH   5   8
ATOM      8  C   UNL A   1      32.361  29.320  25.973  1.00  0.00     0.103 C 
ATOM      9  C   UNL A   1      31.765  27.036  26.036  1.00  0.00     0.106 C 
ATOM     10  C   UNL A   1      30.981  27.694  24.961  1.00  0.00    -0.006 C 
ATOM     11  C   UNL A   1      32.089  28.194  26.971  1.00  0.00     0.047 C 
ATOM     12  C   UNL A   1      31.422  28.959  24.840  1.00  0.00    -0.016 C 
BRANCH   9  13
ATOM     13  N   UNL A   1      31.206  25.913  26.676  1.00  0.00    -0.343 N 
ATOM     14  C   UNL A   1      31.675  24.615  26.571  1.00  0.00     0.287 C 
ATOM     15  O   UNL A   1      31.072  23.815  27.298  1.00  0.00    -0.266 OA
ATOM     16  H   UNL A   1      30.418  26.064  27.246  1.00  0.00     0.164 HD
BRANCH  14  17
ATOM     17  C   UNL A   1      32.775  24.184  25.673  1.00  0.00     0.195 A 
ATOM     18  C   UNL A   1      32.152  23.326  23.205  1.00  0.00     0.049 C 
ATOM     19  C   UNL A   1      33.008  23.672  24.376  1.00  0.00     0.008 A 
ATOM     20  C   UNL A   1      34.422  23.468  24.259  1.00  0.00     0.024 A 
ATOM     21  O   UNL A   1      34.015  24.304  26.288  1.00  0.00    -0.451 OA
ATOM     22  C   UNL A   1      34.983  23.876  25.448  1.00  0.00     0.135 A 
ATOM     23  C   UNL A   1      35.266  22.975  23.244  1.00  0.00     0.012 A 
ATOM     24  C   UNL A   1      36.347  23.839  25.714  1.00  0.00     0.048 A 
ATOM     25  C   UNL A   1      36.641  22.923  23.473  1.00  0.00     0.001 A 
ATOM     26  C   UNL A   1      37.171  23.350  24.690  1.00  0.00     0.004 A 
ENDBRANCH  14  17
ENDBRANCH   9  13
ENDBRANCH   5   8
ENDBRANCH   3   4
ENDBRANCH   2   3
ENDBRANCH   1   2
BRANCH   1  27
ATOM     27  C   UNL A   1      35.481  34.286  28.674  1.00  0.00     0.002 C 
BRANCH  27  28
ATOM     28  C   UNL A   1      34.324  35.278  28.822  1.00  0.00     0.021 C 
BRANCH  28  29
ATOM     29  C   UNL A   1      33.110  34.705  29.536  1.00  0.00     0.116 C 
BRANCH  29  30
ATOM     30  N   UNL A   1      32.535  35.661  30.463  1.00  0.00    -0.352 N 
ATOM     31  C   UNL A   1      32.793  35.802  31.806  1.00  0.00     0.251 C 
ATOM     32  H   UNL A   1      31.876  36.286  30.083  1.00  0.00     0.163 HD
ATOM     33  O   UNL A   1      32.095  36.500  32.515  1.00  0.00    -0.269 OA
BRANCH  31  34
ATOM     34  C   UNL A   1      33.939  35.061  32.367  1.00  0.00     0.039 A 
ATOM     35  C   UNL A   1      33.731  33.785  32.892  1.00  0.00     0.014 A 
ATOM     36  C   UNL A   1      35.221  35.615  32.307  1.00  0.00     0.014 A 
ATOM     37  C   UNL A   1      34.828  33.036  33.314  1.00  0.00     0.010 A 
ATOM     38  C   UNL A   1      36.316  34.838  32.653  1.00  0.00     0.010 A 
ATOM     39  C   UNL A   1      36.129  33.544  33.166  1.00  0.00    -0.014 A 
BRANCH  39  40
ATOM     40  C   UNL A   1      37.323  32.756  33.553  1.00  0.00     0.031 A 
ATOM     41  C   UNL A   1      38.034  33.076  34.836  1.00  0.00     0.074 A 
ATOM     42  C   UNL A   1      37.823  31.837  32.708  1.00  0.00     0.049 A 
ATOM     43  N   UNL A   1      39.173  32.619  35.290  1.00  0.00    -0.248 NA
ATOM     44  C   UNL A   1      37.396  34.076  35.705  1.00  0.00     0.031 C 
ATOM     45  C   UNL A   1      37.244  31.475  31.414  1.00  0.00     0.029 A 
ATOM     46  N   UNL A   1      38.949  31.060  32.799  1.00  0.00    -0.354 N 
ATOM     47  C   UNL A   1      39.398  33.293  36.483  1.00  0.00     0.074 A 
ATOM     48  C   UNL A   1      38.310  34.232  36.650  1.00  0.00     0.031 C 
ATOM     49  C   UNL A   1      38.017  30.545  30.832  1.00  0.00     0.029 A 
ATOM     50  C   UNL A   1      39.168  30.279  31.692  1.00  0.00     0.049 A 
ATOM     51  H   UNL A   1      39.543  31.062  33.584  1.00  0.00     0.167 HD
ATOM     52  C   UNL A   1      40.408  33.127  37.367  1.00  0.00     0.037 A 
ATOM     53  C   UNL A   1      40.192  29.459  31.393  1.00  0.00     0.037 A 
ATOM     54  C   UNL A   1      41.478  32.179  37.196  1.00  0.00     0.049 A 
ATOM     55  C   UNL A   1      41.310  29.292  32.386  1.00  0.00     0.074 A 
ATOM     56  C   UNL A   1      42.519  31.887  38.058  1.00  0.00     0.029 A 
ATOM     57  N   UNL A   1      41.646  31.374  36.077  1.00  0.00    -0.354 N 
ATOM     58  N   UNL A   1      41.483  29.883  33.543  1.00  0.00    -0.248 NA
ATOM     59  C   UNL A   1      42.370  28.337  32.035  1.00  0.00     0.031 C 
ATOM     60  C   UNL A   1      43.348  30.945  37.437  1.00  0.00     0.029 A 
ATOM     61  C   UNL A   1      42.788  30.602  36.216  1.00  0.00     0.049 A 
ATOM     62  H   UNL A   1      41.042  31.354  35.300  1.00  0.00     0.167 HD
ATOM     63  C   UNL A   1      42.653  29.354  34.072  1.00  0.00     0.074 A 
ATOM     64  C   UNL A   1      43.143  28.388  33.111  1.00  0.00     0.031 C 
ATOM     65  C   UNL A   1      43.261  29.641  35.250  1.00  0.00     0.037 A 
BRANCH  52  66
ATOM     66  C   UNL A   1      40.403  34.005  38.588  1.00  0.00     0.064 A 
ATOM     67  C   UNL A   1      41.094  35.228  38.622  1.00  0.00     0.173 A 
ATOM     68  C   UNL A   1      39.709  33.614  39.742  1.00  0.00     0.173 A 
ATOM     69  F   UNL A   1      41.783  35.645  37.549  1.00  0.00    -0.203 F 
ATOM     70  C   UNL A   1      41.132  35.998  39.782  1.00  0.00     0.198 A 
ATOM     71  C   UNL A   1      39.717  34.406  40.888  1.00  0.00     0.198 A 
ATOM     72  F   UNL A   1      39.026  32.460  39.765  1.00  0.00    -0.203 F 
ATOM     73  F   UNL A   1      41.862  37.122  39.813  1.00  0.00    -0.200 F 
ATOM     74  C   UNL A   1      40.441  35.589  40.913  1.00  0.00     0.200 A 
ATOM     75  F   UNL A   1      39.038  34.017  41.975  1.00  0.00    -0.200 F 
ATOM     76  F   UNL A   1      40.483  36.328  42.029  1.00  0.00    -0.200 F 
ENDBRANCH  52  66
BRANCH  53  77
ATOM     77  C   UNL A   1      40.188  28.728  30.101  1.00  0.00     0.064 A 
ATOM     78  C   UNL A   1      39.563  27.480  29.980  1.00  0.00     0.173 A 
ATOM     79  C   UNL A   1      40.773  29.279  28.950  1.00  0.00     0.173 A 
ATOM     80  F   UNL A   1      39.005  26.905  31.055  1.00  0.00    -0.203 F 
ATOM     81  C   UNL A   1      39.528  26.806  28.760  1.00  0.00     0.198 A 
ATOM     82  C   UNL A   1      40.715  28.618  27.726  1.00  0.00     0.198 A 
ATOM     83  F   UNL A   1      41.375  30.477  29.011  1.00  0.00    -0.203 F 
ATOM     84  F   UNL A   1      38.949  25.601  28.679  1.00  0.00    -0.200 F 
ATOM     85  C   UNL A   1      40.096  27.380  27.633  1.00  0.00     0.200 A 
ATOM     86  F   UNL A   1      41.246  29.186  26.634  1.00  0.00    -0.200 F 
ATOM     87  F   UNL A   1      40.048  26.740  26.457  1.00  0.00    -0.200 F 
ENDBRANCH  53  77
BRANCH  65  88
ATOM     88  C   UNL A   1      44.506  28.873  35.589  1.00  0.00     0.064 A 
ATOM     89  C   UNL A   1      44.461  27.663  36.295  1.00  0.00     0.173 A 
ATOM     90  C   UNL A   1      45.759  29.331  35.150  1.00  0.00     0.173 A 
ATOM     91  F   UNL A   1      43.291  27.189  36.749  1.00  0.00    -0.203 F 
ATOM     92  C   UNL A   1      45.625  26.949  36.567  1.00  0.00     0.198 A 
ATOM     93  C   UNL A   1      46.917  28.599  35.396  1.00  0.00     0.198 A 
ATOM     94  F   UNL A   1      45.857  30.481  34.466  1.00  0.00    -0.203 F 
ATOM     95  F   UNL A   1      45.564  25.817  37.282  1.00  0.00    -0.200 F 
ATOM     96  C   UNL A   1      46.851  27.413  36.109  1.00  0.00     0.200 A 
ATOM     97  F   UNL A   1      48.096  29.042  34.939  1.00  0.00    -0.200 F 
ATOM     98  F   UNL A   1      47.969  26.718  36.361  1.00  0.00    -0.200 F 
ENDBRANCH  65  88
ENDBRANCH  39  40
ENDBRANCH  31  34
ENDBRANCH  29  30
ENDBRANCH  28  29
ENDBRANCH  27  28
ENDBRANCH   1  27
TORSDOF 15
ENDMDL
