MODEL 1
REMARK VINA RESULT:     -11.1      0.000      0.000
REMARK SMILES CCOc1cc(CO)cc(Br)c1OCC(C)(C)C(=O)NCCCCCCNC(=O)c1ccc(-c2c3nc(c(-c4c(F)c(F)c(F)c(F)c4F)c4ccc([nH]4)c(-c4c(F)c(F)c(F)c(F)c4F)c4nc(c(-c5c(F)c(F)c(F)c(F)c5F)c5ccc2[nH]5)C=C4)C=C3)cc1
REMARK SMILES IDX 22 1 21 2 20 3 18 4 19 5 15 7 16 8 17 9 14 10 13 11 12 12
REMARK SMILES IDX 4 13 5 14 6 15 10 16 9 17 11 18 3 19 2 20 1 21 7 22 8 23
REMARK SMILES IDX 23 25 24 26 25 27 26 28 27 29 28 30 29 32 30 33 31 34 92 35
REMARK SMILES IDX 32 36 91 37 33 38 34 39 35 40 85 41 36 42 90 43 84 44 86 45
REMARK SMILES IDX 37 46 89 47 83 48 82 49 38 51 70 52 50 53 69 54 51 55 54 56
REMARK SMILES IDX 68 57 87 58 52 59 53 60 67 62 88 63 55 64 39 65 40 66 48 67
REMARK SMILES IDX 41 68 42 69 46 70 49 71 43 72 44 73 47 74 45 75 71 76 72 77
REMARK SMILES IDX 80 78 73 79 74 80 78 81 81 82 75 83 76 84 79 85 77 86 56 87
REMARK SMILES IDX 57 88 65 89 58 90 59 91 63 92 66 93 60 94 61 95 64 96 62 97
REMARK H PARENT 20 6 8 24 27 31 86 50 54 61
REMARK Flexibility Score: inf
ROOT
ATOM      1  C   UNL A   1      33.293  28.972  25.354  1.00  0.00     0.021 C 
ENDROOT
BRANCH   1   2
ATOM      2  C   UNL A   1      32.196  27.927  25.213  1.00  0.00     0.116 C 
BRANCH   2   3
ATOM      3  N   UNL A   1      31.394  28.133  24.019  1.00  0.00    -0.356 N 
ATOM      4  C   UNL A   1      31.383  27.520  22.797  1.00  0.00     0.229 C 
ATOM      5  O   UNL A   1      30.543  27.933  21.995  1.00  0.00    -0.274 OA
ATOM      6  H   UNL A   1      30.730  28.854  24.107  1.00  0.00     0.163 HD
BRANCH   4   7
ATOM      7  C   UNL A   1      32.367  26.387  22.448  1.00  0.00     0.077 C 
ATOM      8  C   UNL A   1      33.791  26.957  22.457  1.00  0.00     0.025 C 
ATOM      9  C   UNL A   1      31.998  25.814  21.058  1.00  0.00     0.025 C 
BRANCH   7  10
ATOM     10  C   UNL A   1      32.167  25.164  23.426  1.00  0.00     0.246 C 
BRANCH  10  11
ATOM     11  O   UNL A   1      33.264  24.559  24.118  1.00  0.00    -0.487 OA
BRANCH  11  12
ATOM     12  C   UNL A   1      33.212  23.302  24.648  1.00  0.00     0.175 A 
ATOM     13  C   UNL A   1      34.204  22.434  24.147  1.00  0.00     0.162 A 
ATOM     14  C   UNL A   1      34.080  21.055  24.322  1.00  0.00     0.056 A 
ATOM     15  C   UNL A   1      32.984  20.516  25.003  1.00  0.00    -0.018 A 
ATOM     16  C   UNL A   1      32.278  22.781  25.550  1.00  0.00     0.064 A 
ATOM     17  C   UNL A   1      32.131  21.392  25.678  1.00  0.00     0.026 A 
ATOM     18  Br  UNL A   1      31.222  23.828  26.740  1.00  0.00    -0.047 Br
BRANCH  13  19
ATOM     19  O   UNL A   1      35.337  23.013  23.633  1.00  0.00    -0.490 OA
BRANCH  19  20
ATOM     20  C   UNL A   1      36.599  22.672  24.200  1.00  0.00     0.226 C 
ATOM     21  C   UNL A   1      37.134  23.724  25.162  1.00  0.00     0.049 C 
ENDBRANCH  19  20
ENDBRANCH  13  19
BRANCH  15  22
ATOM     22  C   UNL A   1      32.803  19.026  25.105  1.00  0.00     0.191 C 
BRANCH  22  23
ATOM     23  O   UNL A   1      32.625  18.624  26.460  1.00  0.00    -0.392 OA
ATOM     24  H   UNL A   1      33.402  18.123  26.753  1.00  0.00     0.211 HD
ENDBRANCH  22  23
ENDBRANCH  15  22
ENDBRANCH  11  12
ENDBRANCH  10  11
ENDBRANCH   7  10
ENDBRANCH   4   7
ENDBRANCH   2   3
ENDBRANCH   1   2
BRANCH   1  25
ATOM     25  C   UNL A   1      32.927  30.134  26.278  1.00  0.00     0.002 C 
BRANCH  25  26
ATOM     26  C   UNL A   1      31.543  30.744  26.028  1.00  0.00     0.002 C 
BRANCH  26  27
ATOM     27  C   UNL A   1      31.327  32.134  26.633  1.00  0.00     0.021 C 
BRANCH  27  28
ATOM     28  C   UNL A   1      32.583  32.771  27.214  1.00  0.00     0.116 C 
BRANCH  28  29
ATOM     29  N   UNL A   1      32.379  34.169  27.552  1.00  0.00    -0.352 N 
ATOM     30  C   UNL A   1      32.971  34.916  28.536  1.00  0.00     0.251 C 
ATOM     31  H   UNL A   1      31.722  34.647  26.996  1.00  0.00     0.163 HD
ATOM     32  O   UNL A   1      32.536  36.031  28.817  1.00  0.00    -0.269 OA
BRANCH  30  33
ATOM     33  C   UNL A   1      34.126  34.368  29.270  1.00  0.00     0.039 A 
ATOM     34  C   UNL A   1      33.900  33.644  30.442  1.00  0.00     0.014 A 
ATOM     35  C   UNL A   1      35.428  34.564  28.799  1.00  0.00     0.014 A 
ATOM     36  C   UNL A   1      34.979  33.072  31.118  1.00  0.00     0.010 A 
ATOM     37  C   UNL A   1      36.492  33.925  29.426  1.00  0.00     0.010 A 
ATOM     38  C   UNL A   1      36.279  33.181  30.597  1.00  0.00    -0.014 A 
BRANCH  38  39
ATOM     39  C   UNL A   1      37.430  32.528  31.267  1.00  0.00     0.031 A 
ATOM     40  C   UNL A   1      38.152  31.395  30.593  1.00  0.00     0.074 A 
ATOM     41  C   UNL A   1      37.787  32.919  32.505  1.00  0.00     0.049 A 
ATOM     42  N   UNL A   1      39.150  30.670  31.033  1.00  0.00    -0.248 NA
ATOM     43  C   UNL A   1      37.669  31.005  29.260  1.00  0.00     0.031 C 
ATOM     44  C   UNL A   1      37.137  33.981  33.276  1.00  0.00     0.029 A 
ATOM     45  N   UNL A   1      38.782  32.467  33.334  1.00  0.00    -0.354 N 
ATOM     46  C   UNL A   1      39.399  29.731  30.042  1.00  0.00     0.074 A 
ATOM     47  C   UNL A   1      38.413  29.940  29.004  1.00  0.00     0.031 C 
ATOM     48  C   UNL A   1      37.775  34.124  34.448  1.00  0.00     0.029 A 
ATOM     49  C   UNL A   1      38.845  33.136  34.532  1.00  0.00     0.049 A 
ATOM     50  H   UNL A   1      39.391  31.731  33.094  1.00  0.00     0.167 HD
ATOM     51  C   UNL A   1      40.376  28.794  29.991  1.00  0.00     0.037 A 
ATOM     52  C   UNL A   1      39.675  32.969  35.579  1.00  0.00     0.037 A 
ATOM     53  C   UNL A   1      41.366  28.607  31.020  1.00  0.00     0.049 A 
ATOM     54  C   UNL A   1      40.734  31.902  35.510  1.00  0.00     0.074 A 
ATOM     55  C   UNL A   1      42.442  27.738  31.035  1.00  0.00     0.029 A 
ATOM     56  N   UNL A   1      41.393  29.296  32.225  1.00  0.00    -0.354 N 
ATOM     57  N   UNL A   1      41.016  31.074  34.532  1.00  0.00    -0.248 NA
ATOM     58  C   UNL A   1      41.593  31.749  36.691  1.00  0.00     0.031 C 
ATOM     59  C   UNL A   1      43.078  27.851  32.275  1.00  0.00     0.029 A 
ATOM     60  C   UNL A   1      42.443  28.841  33.007  1.00  0.00     0.049 A 
ATOM     61  H   UNL A   1      40.759  30.003  32.486  1.00  0.00     0.167 HD
ATOM     62  C   UNL A   1      42.104  30.328  34.965  1.00  0.00     0.074 A 
ATOM     63  C   UNL A   1      42.439  30.811  36.289  1.00  0.00     0.031 C 
ATOM     64  C   UNL A   1      42.768  29.336  34.322  1.00  0.00     0.037 A 
BRANCH  51  65
ATOM     65  C   UNL A   1      40.409  27.889  28.792  1.00  0.00     0.064 A 
ATOM     66  C   UNL A   1      39.729  26.662  28.767  1.00  0.00     0.173 A 
ATOM     67  C   UNL A   1      41.123  28.261  27.642  1.00  0.00     0.173 A 
ATOM     68  F   UNL A   1      39.038  26.250  29.841  1.00  0.00    -0.203 F 
ATOM     69  C   UNL A   1      39.797  25.823  27.656  1.00  0.00     0.198 A 
ATOM     70  C   UNL A   1      41.159  27.439  26.519  1.00  0.00     0.198 A 
ATOM     71  F   UNL A   1      41.788  29.427  27.606  1.00  0.00    -0.203 F 
ATOM     72  F   UNL A   1      39.194  24.627  27.684  1.00  0.00    -0.200 F 
ATOM     73  C   UNL A   1      40.507  26.216  26.531  1.00  0.00     0.200 A 
ATOM     74  F   UNL A   1      41.832  27.827  25.427  1.00  0.00    -0.200 F 
ATOM     75  F   UNL A   1      40.571  25.410  25.463  1.00  0.00    -0.200 F 
ENDBRANCH  51  65
BRANCH  52  76
ATOM     76  C   UNL A   1      39.565  33.858  36.764  1.00  0.00     0.064 A 
ATOM     77  C   UNL A   1      40.241  35.087  36.802  1.00  0.00     0.173 A 
ATOM     78  C   UNL A   1      38.791  33.505  37.879  1.00  0.00     0.173 A 
ATOM     79  F   UNL A   1      41.010  35.459  35.769  1.00  0.00    -0.203 F 
ATOM     80  C   UNL A   1      40.162  35.918  37.918  1.00  0.00     0.198 A 
ATOM     81  C   UNL A   1      38.689  34.352  38.981  1.00  0.00     0.198 A 
ATOM     82  F   UNL A   1      38.120  32.345  37.892  1.00  0.00    -0.203 F 
ATOM     83  F   UNL A   1      40.856  37.064  37.945  1.00  0.00    -0.200 F 
ATOM     84  C   UNL A   1      39.382  35.554  39.003  1.00  0.00     0.200 A 
ATOM     85  F   UNL A   1      37.919  34.004  40.022  1.00  0.00    -0.200 F 
ATOM     86  F   UNL A   1      39.302  36.356  40.073  1.00  0.00    -0.200 F 
ENDBRANCH  52  76
BRANCH  64  87
ATOM     87  C   UNL A   1      43.953  28.733  35.023  1.00  0.00     0.064 A 
ATOM     88  C   UNL A   1      43.832  27.607  35.850  1.00  0.00     0.173 A 
ATOM     89  C   UNL A   1      45.237  29.269  34.831  1.00  0.00     0.173 A 
ATOM     90  F   UNL A   1      42.627  27.064  36.080  1.00  0.00    -0.203 F 
ATOM     91  C   UNL A   1      44.945  27.059  36.483  1.00  0.00     0.198 A 
ATOM     92  C   UNL A   1      46.352  28.698  35.435  1.00  0.00     0.198 A 
ATOM     93  F   UNL A   1      45.412  30.342  34.043  1.00  0.00    -0.203 F 
ATOM     94  F   UNL A   1      44.797  26.018  37.313  1.00  0.00    -0.200 F 
ATOM     95  C   UNL A   1      46.205  27.599  36.268  1.00  0.00     0.200 A 
ATOM     96  F   UNL A   1      47.570  29.210  35.212  1.00  0.00    -0.200 F 
ATOM     97  F   UNL A   1      47.276  27.065  36.871  1.00  0.00    -0.200 F 
ENDBRANCH  64  87
ENDBRANCH  38  39
ENDBRANCH  30  33
ENDBRANCH  28  29
ENDBRANCH  27  28
ENDBRANCH  26  27
ENDBRANCH  25  26
ENDBRANCH   1  25
TORSDOF 20
ENDMDL
MODEL 2
REMARK VINA RESULT:     -11.1      0.699      1.788
REMARK SMILES CCOc1cc(CO)cc(Br)c1OCC(C)(C)C(=O)NCCCCCCNC(=O)c1ccc(-c2c3nc(c(-c4c(F)c(F)c(F)c(F)c4F)c4ccc([nH]4)c(-c4c(F)c(F)c(F)c(F)c4F)c4nc(c(-c5c(F)c(F)c(F)c(F)c5F)c5ccc2[nH]5)C=C4)C=C3)cc1
REMARK SMILES IDX 22 1 21 2 20 3 18 4 19 5 15 7 16 8 17 9 14 10 13 11 12 12
REMARK SMILES IDX 4 13 5 14 6 15 10 16 9 17 11 18 3 19 2 20 1 21 7 22 8 23
REMARK SMILES IDX 23 25 24 26 25 27 26 28 27 29 28 30 29 32 30 33 31 34 92 35
REMARK SMILES IDX 32 36 91 37 33 38 34 39 35 40 85 41 36 42 90 43 84 44 86 45
REMARK SMILES IDX 37 46 89 47 83 48 82 49 38 51 70 52 50 53 69 54 51 55 54 56
REMARK SMILES IDX 68 57 87 58 52 59 53 60 67 62 88 63 55 64 39 65 40 66 48 67
REMARK SMILES IDX 41 68 42 69 46 70 49 71 43 72 44 73 47 74 45 75 71 76 72 77
REMARK SMILES IDX 80 78 73 79 74 80 78 81 81 82 75 83 76 84 79 85 77 86 56 87
REMARK SMILES IDX 57 88 65 89 58 90 59 91 63 92 66 93 60 94 61 95 64 96 62 97
REMARK H PARENT 20 6 8 24 27 31 86 50 54 61
REMARK Flexibility Score: inf
ROOT
ATOM      1  C   UNL A   1      31.659  28.548  27.341  1.00  0.00     0.021 C 
ENDROOT
BRANCH   1   2
ATOM      2  C   UNL A   1      32.301  27.334  26.685  1.00  0.00     0.116 C 
BRANCH   2   3
ATOM      3  N   UNL A   1      33.266  27.710  25.666  1.00  0.00    -0.356 N 
ATOM      4  C   UNL A   1      33.287  27.546  24.309  1.00  0.00     0.229 C 
ATOM      5  O   UNL A   1      34.268  28.011  23.724  1.00  0.00    -0.274 OA
ATOM      6  H   UNL A   1      34.059  28.172  26.021  1.00  0.00     0.163 HD
BRANCH   4   7
ATOM      7  C   UNL A   1      32.153  26.818  23.561  1.00  0.00     0.077 C 
ATOM      8  C   UNL A   1      32.488  26.802  22.063  1.00  0.00     0.025 C 
ATOM      9  C   UNL A   1      30.820  27.557  23.832  1.00  0.00     0.025 C 
BRANCH   7  10
ATOM     10  C   UNL A   1      31.921  25.383  24.175  1.00  0.00     0.246 C 
BRANCH  10  11
ATOM     11  O   UNL A   1      32.911  24.735  24.980  1.00  0.00    -0.487 OA
BRANCH  11  12
ATOM     12  C   UNL A   1      32.908  23.393  25.231  1.00  0.00     0.175 A 
ATOM     13  C   UNL A   1      34.114  22.749  24.884  1.00  0.00     0.162 A 
ATOM     14  C   UNL A   1      34.155  21.360  24.757  1.00  0.00     0.056 A 
ATOM     15  C   UNL A   1      33.012  20.587  24.983  1.00  0.00    -0.018 A 
ATOM     16  C   UNL A   1      31.859  22.604  25.715  1.00  0.00     0.064 A 
ATOM     17  C   UNL A   1      31.891  21.213  25.535  1.00  0.00     0.026 A 
ATOM     18  Br  UNL A   1      30.385  23.264  26.724  1.00  0.00    -0.047 Br
BRANCH  13  19
ATOM     19  O   UNL A   1      35.243  23.527  24.833  1.00  0.00    -0.490 OA
BRANCH  19  20
ATOM     20  C   UNL A   1      36.477  22.922  24.455  1.00  0.00     0.226 C 
ATOM     21  C   UNL A   1      36.717  22.924  22.952  1.00  0.00     0.049 C 
ENDBRANCH  19  20
ENDBRANCH  13  19
BRANCH  15  22
ATOM     22  C   UNL A   1      33.033  19.101  24.751  1.00  0.00     0.191 C 
BRANCH  22  23
ATOM     23  O   UNL A   1      32.197  18.425  25.686  1.00  0.00    -0.392 OA
ATOM     24  H   UNL A   1      31.691  17.736  25.227  1.00  0.00     0.211 HD
ENDBRANCH  22  23
ENDBRANCH  15  22
ENDBRANCH  11  12
ENDBRANCH  10  11
ENDBRANCH   7  10
ENDBRANCH   4   7
ENDBRANCH   2   3
ENDBRANCH   1   2
BRANCH   1  25
ATOM     25  C   UNL A   1      32.350  29.870  27.006  1.00  0.00     0.002 C 
BRANCH  25  26
ATOM     26  C   UNL A   1      31.569  30.781  26.053  1.00  0.00     0.002 C 
BRANCH  26  27
ATOM     27  C   UNL A   1      31.370  32.218  26.544  1.00  0.00     0.021 C 
BRANCH  27  28
ATOM     28  C   UNL A   1      32.562  32.798  27.295  1.00  0.00     0.116 C 
BRANCH  28  29
ATOM     29  N   UNL A   1      32.374  34.203  27.613  1.00  0.00    -0.352 N 
ATOM     30  C   UNL A   1      32.983  34.959  28.579  1.00  0.00     0.251 C 
ATOM     31  H   UNL A   1      31.716  34.678  27.056  1.00  0.00     0.163 HD
ATOM     32  O   UNL A   1      32.562  36.082  28.847  1.00  0.00    -0.269 OA
BRANCH  30  33
ATOM     33  C   UNL A   1      34.141  34.411  29.311  1.00  0.00     0.039 A 
ATOM     34  C   UNL A   1      33.919  33.704  30.493  1.00  0.00     0.014 A 
ATOM     35  C   UNL A   1      35.440  34.591  28.826  1.00  0.00     0.014 A 
ATOM     36  C   UNL A   1      34.999  33.132  31.167  1.00  0.00     0.010 A 
ATOM     37  C   UNL A   1      36.504  33.952  29.451  1.00  0.00     0.010 A 
ATOM     38  C   UNL A   1      36.296  33.224  30.633  1.00  0.00    -0.014 A 
BRANCH  38  39
ATOM     39  C   UNL A   1      37.448  32.571  31.302  1.00  0.00     0.031 A 
ATOM     40  C   UNL A   1      38.182  31.453  30.617  1.00  0.00     0.074 A 
ATOM     41  C   UNL A   1      37.794  32.948  32.547  1.00  0.00     0.049 A 
ATOM     42  N   UNL A   1      39.182  30.729  31.053  1.00  0.00    -0.248 NA
ATOM     43  C   UNL A   1      37.710  31.077  29.276  1.00  0.00     0.031 C 
ATOM     44  C   UNL A   1      37.132  33.994  33.328  1.00  0.00     0.029 A 
ATOM     45  N   UNL A   1      38.787  32.492  33.377  1.00  0.00    -0.354 N 
ATOM     46  C   UNL A   1      39.445  29.806  30.051  1.00  0.00     0.074 A 
ATOM     47  C   UNL A   1      38.463  30.021  29.010  1.00  0.00     0.031 C 
ATOM     48  C   UNL A   1      37.761  34.126  34.506  1.00  0.00     0.029 A 
ATOM     49  C   UNL A   1      38.838  33.145  34.583  1.00  0.00     0.049 A 
ATOM     50  H   UNL A   1      39.403  31.764  33.130  1.00  0.00     0.167 HD
ATOM     51  C   UNL A   1      40.429  28.877  29.994  1.00  0.00     0.037 A 
ATOM     52  C   UNL A   1      39.663  32.970  35.633  1.00  0.00     0.037 A 
ATOM     53  C   UNL A   1      41.414  28.683  31.026  1.00  0.00     0.049 A 
ATOM     54  C   UNL A   1      40.730  31.912  35.556  1.00  0.00     0.074 A 
ATOM     55  C   UNL A   1      42.497  27.822  31.036  1.00  0.00     0.029 A 
ATOM     56  N   UNL A   1      41.429  29.356  32.241  1.00  0.00    -0.354 N 
ATOM     57  N   UNL A   1      41.024  31.099  34.569  1.00  0.00    -0.248 NA
ATOM     58  C   UNL A   1      41.583  31.749  36.741  1.00  0.00     0.031 C 
ATOM     59  C   UNL A   1      43.125  27.922  32.282  1.00  0.00     0.029 A 
ATOM     60  C   UNL A   1      42.477  28.898  33.023  1.00  0.00     0.049 A 
ATOM     61  H   UNL A   1      40.787  30.055  32.507  1.00  0.00     0.167 HD
ATOM     62  C   UNL A   1      42.115  30.356  34.999  1.00  0.00     0.074 A 
ATOM     63  C   UNL A   1      42.438  30.823  36.332  1.00  0.00     0.031 C 
ATOM     64  C   UNL A   1      42.790  29.377  34.347  1.00  0.00     0.037 A 
BRANCH  51  65
ATOM     65  C   UNL A   1      40.477  27.988  28.783  1.00  0.00     0.064 A 
ATOM     66  C   UNL A   1      39.784  26.769  28.727  1.00  0.00     0.173 A 
ATOM     67  C   UNL A   1      41.217  28.369  27.653  1.00  0.00     0.173 A 
ATOM     68  F   UNL A   1      39.067  26.349  29.782  1.00  0.00    -0.203 F 
ATOM     69  C   UNL A   1      39.865  25.945  27.606  1.00  0.00     0.198 A 
ATOM     70  C   UNL A   1      41.267  27.562  26.519  1.00  0.00     0.198 A 
ATOM     71  F   UNL A   1      41.894  29.528  27.646  1.00  0.00    -0.203 F 
ATOM     72  F   UNL A   1      39.249  24.755  27.605  1.00  0.00    -0.200 F 
ATOM     73  C   UNL A   1      40.601  26.346  26.501  1.00  0.00     0.200 A 
ATOM     74  F   UNL A   1      41.964  27.958  25.446  1.00  0.00    -0.200 F 
ATOM     75  F   UNL A   1      40.677  25.555  25.422  1.00  0.00    -0.200 F 
ENDBRANCH  51  65
BRANCH  52  76
ATOM     76  C   UNL A   1      39.539  33.842  36.830  1.00  0.00     0.064 A 
ATOM     77  C   UNL A   1      38.796  33.426  37.944  1.00  0.00     0.173 A 
ATOM     78  C   UNL A   1      40.152  35.102  36.888  1.00  0.00     0.173 A 
ATOM     79  F   UNL A   1      38.175  32.237  37.928  1.00  0.00    -0.203 F 
ATOM     80  C   UNL A   1      38.655  34.245  39.062  1.00  0.00     0.198 A 
ATOM     81  C   UNL A   1      40.034  35.907  38.020  1.00  0.00     0.198 A 
ATOM     82  F   UNL A   1      40.877  35.546  35.853  1.00  0.00    -0.203 F 
ATOM     83  F   UNL A   1      37.901  33.840  40.094  1.00  0.00    -0.200 F 
ATOM     84  C   UNL A   1      39.279  35.481  39.103  1.00  0.00     0.200 A 
ATOM     85  F   UNL A   1      40.653  37.095  38.062  1.00  0.00    -0.200 F 
ATOM     86  F   UNL A   1      39.147  36.265  40.181  1.00  0.00    -0.200 F 
ENDBRANCH  52  76
BRANCH  64  87
ATOM     87  C   UNL A   1      43.976  28.774  35.046  1.00  0.00     0.064 A 
ATOM     88  C   UNL A   1      45.264  29.317  34.926  1.00  0.00     0.173 A 
ATOM     89  C   UNL A   1      43.812  27.655  35.879  1.00  0.00     0.173 A 
ATOM     90  F   UNL A   1      45.478  30.376  34.131  1.00  0.00    -0.203 F 
ATOM     91  C   UNL A   1      46.347  28.747  35.590  1.00  0.00     0.198 A 
ATOM     92  C   UNL A   1      44.890  27.110  36.570  1.00  0.00     0.198 A 
ATOM     93  F   UNL A   1      42.601  27.099  36.036  1.00  0.00    -0.203 F 
ATOM     94  F   UNL A   1      47.576  29.249  35.417  1.00  0.00    -0.200 F 
ATOM     95  C   UNL A   1      46.158  27.650  36.418  1.00  0.00     0.200 A 
ATOM     96  F   UNL A   1      44.701  26.061  37.383  1.00  0.00    -0.200 F 
ATOM     97  F   UNL A   1      47.200  27.107  37.063  1.00  0.00    -0.200 F 
ENDBRANCH  64  87
ENDBRANCH  38  39
ENDBRANCH  30  33
ENDBRANCH  28  29
ENDBRANCH  27  28
ENDBRANCH  26  27
ENDBRANCH  25  26
ENDBRANCH   1  25
TORSDOF 20
ENDMDL
MODEL 3
REMARK VINA RESULT:     -11.1      0.508      7.210
REMARK SMILES CCOc1cc(CO)cc(Br)c1OCC(C)(C)C(=O)NCCCCCCNC(=O)c1ccc(-c2c3nc(c(-c4c(F)c(F)c(F)c(F)c4F)c4ccc([nH]4)c(-c4c(F)c(F)c(F)c(F)c4F)c4nc(c(-c5c(F)c(F)c(F)c(F)c5F)c5ccc2[nH]5)C=C4)C=C3)cc1
REMARK SMILES IDX 22 1 21 2 20 3 18 4 19 5 15 7 16 8 17 9 14 10 13 11 12 12
REMARK SMILES IDX 4 13 5 14 6 15 10 16 9 17 11 18 3 19 2 20 1 21 7 22 8 23
REMARK SMILES IDX 23 25 24 26 25 27 26 28 27 29 28 30 29 32 30 33 31 34 92 35
REMARK SMILES IDX 32 36 91 37 33 38 34 39 35 40 85 41 36 42 90 43 84 44 86 45
REMARK SMILES IDX 37 46 89 47 83 48 82 49 38 51 70 52 50 53 69 54 51 55 54 56
REMARK SMILES IDX 68 57 87 58 52 59 53 60 67 62 88 63 55 64 39 65 40 66 48 67
REMARK SMILES IDX 41 68 42 69 46 70 49 71 43 72 44 73 47 74 45 75 71 76 72 77
REMARK SMILES IDX 80 78 73 79 74 80 78 81 81 82 75 83 76 84 79 85 77 86 56 87
REMARK SMILES IDX 57 88 65 89 58 90 59 91 63 92 66 93 60 94 61 95 64 96 62 97
REMARK H PARENT 20 6 8 24 27 31 86 50 54 61
REMARK Flexibility Score: inf
ROOT
ATOM      1  C   UNL A   1      33.135  29.122  25.365  1.00  0.00     0.021 C 
ENDROOT
BRANCH   1   2
ATOM      2  C   UNL A   1      32.149  27.984  25.140  1.00  0.00     0.116 C 
BRANCH   2   3
ATOM      3  N   UNL A   1      31.334  28.193  23.956  1.00  0.00    -0.356 N 
ATOM      4  C   UNL A   1      31.312  27.586  22.731  1.00  0.00     0.229 C 
ATOM      5  O   UNL A   1      30.462  27.999  21.939  1.00  0.00    -0.274 OA
ATOM      6  H   UNL A   1      30.668  28.911  24.053  1.00  0.00     0.163 HD
BRANCH   4   7
ATOM      7  C   UNL A   1      32.296  26.458  22.366  1.00  0.00     0.077 C 
ATOM      8  C   UNL A   1      33.724  27.017  22.428  1.00  0.00     0.025 C 
ATOM      9  C   UNL A   1      31.957  25.936  20.948  1.00  0.00     0.025 C 
BRANCH   7  10
ATOM     10  C   UNL A   1      32.065  25.203  23.297  1.00  0.00     0.246 C 
BRANCH  10  11
ATOM     11  O   UNL A   1      33.096  24.689  24.145  1.00  0.00    -0.487 OA
BRANCH  11  12
ATOM     12  C   UNL A   1      33.112  23.404  24.607  1.00  0.00     0.175 A 
ATOM     13  C   UNL A   1      34.194  22.641  24.122  1.00  0.00     0.162 A 
ATOM     14  C   UNL A   1      34.168  21.250  24.219  1.00  0.00     0.056 A 
ATOM     15  C   UNL A   1      33.081  20.594  24.806  1.00  0.00    -0.018 A 
ATOM     16  C   UNL A   1      32.173  22.767  25.425  1.00  0.00     0.064 A 
ATOM     17  C   UNL A   1      32.126  21.365  25.473  1.00  0.00     0.026 A 
ATOM     18  Br  UNL A   1      30.975  23.665  26.602  1.00  0.00    -0.047 Br
BRANCH  13  19
ATOM     19  O   UNL A   1      35.305  23.330  23.706  1.00  0.00    -0.490 OA
BRANCH  19  20
ATOM     20  C   UNL A   1      36.525  23.162  24.423  1.00  0.00     0.226 C 
ATOM     21  C   UNL A   1      36.514  23.817  25.798  1.00  0.00     0.049 C 
ENDBRANCH  19  20
ENDBRANCH  13  19
BRANCH  15  22
ATOM     22  C   UNL A   1      33.010  19.091  24.821  1.00  0.00     0.191 C 
BRANCH  22  23
ATOM     23  O   UNL A   1      32.333  18.623  25.984  1.00  0.00    -0.392 OA
ATOM     24  H   UNL A   1      31.534  19.154  26.129  1.00  0.00     0.211 HD
ENDBRANCH  22  23
ENDBRANCH  15  22
ENDBRANCH  11  12
ENDBRANCH  10  11
ENDBRANCH   7  10
ENDBRANCH   4   7
ENDBRANCH   2   3
ENDBRANCH   1   2
BRANCH   1  25
ATOM     25  C   UNL A   1      32.661  30.160  26.382  1.00  0.00     0.002 C 
BRANCH  25  26
ATOM     26  C   UNL A   1      31.372  30.896  25.997  1.00  0.00     0.002 C 
BRANCH  26  27
ATOM     27  C   UNL A   1      31.247  32.319  26.547  1.00  0.00     0.021 C 
BRANCH  27  28
ATOM     28  C   UNL A   1      32.518  32.860  27.191  1.00  0.00     0.116 C 
BRANCH  28  29
ATOM     29  N   UNL A   1      32.371  34.244  27.606  1.00  0.00    -0.352 N 
ATOM     30  C   UNL A   1      33.018  34.919  28.607  1.00  0.00     0.251 C 
ATOM     31  H   UNL A   1      31.714  34.771  27.098  1.00  0.00     0.163 HD
ATOM     32  O   UNL A   1      32.631  36.031  28.959  1.00  0.00    -0.269 OA
BRANCH  30  33
ATOM     33  C   UNL A   1      34.178  34.297  29.274  1.00  0.00     0.039 A 
ATOM     34  C   UNL A   1      33.959  33.480  30.384  1.00  0.00     0.014 A 
ATOM     35  C   UNL A   1      35.475  34.515  28.799  1.00  0.00     0.014 A 
ATOM     36  C   UNL A   1      35.040  32.840  30.991  1.00  0.00     0.010 A 
ATOM     37  C   UNL A   1      36.539  33.812  29.352  1.00  0.00     0.010 A 
ATOM     38  C   UNL A   1      36.334  32.975  30.460  1.00  0.00    -0.014 A 
BRANCH  38  39
ATOM     39  C   UNL A   1      37.486  32.254  31.054  1.00  0.00     0.031 A 
ATOM     40  C   UNL A   1      37.970  32.611  32.431  1.00  0.00     0.074 A 
ATOM     41  C   UNL A   1      38.130  31.320  30.329  1.00  0.00     0.049 A 
ATOM     42  N   UNL A   1      38.985  32.128  33.104  1.00  0.00    -0.248 NA
ATOM     43  C   UNL A   1      37.235  33.673  33.134  1.00  0.00     0.031 C 
ATOM     44  C   UNL A   1      37.777  30.915  28.967  1.00  0.00     0.029 A 
ATOM     45  N   UNL A   1      39.217  30.542  30.636  1.00  0.00    -0.354 N 
ATOM     46  C   UNL A   1      39.018  32.838  34.296  1.00  0.00     0.074 A 
ATOM     47  C   UNL A   1      37.961  33.823  34.232  1.00  0.00     0.031 C 
ATOM     48  C   UNL A   1      38.607  29.938  28.571  1.00  0.00     0.029 A 
ATOM     49  C   UNL A   1      39.578  29.680  29.630  1.00  0.00     0.049 A 
ATOM     50  H   UNL A   1      39.695  30.599  31.495  1.00  0.00     0.167 HD
ATOM     51  C   UNL A   1      39.843  32.669  35.358  1.00  0.00     0.037 A 
ATOM     52  C   UNL A   1      40.580  28.783  29.570  1.00  0.00     0.037 A 
ATOM     53  C   UNL A   1      40.879  31.671  35.421  1.00  0.00     0.049 A 
ATOM     54  C   UNL A   1      41.500  28.634  30.752  1.00  0.00     0.074 A 
ATOM     55  C   UNL A   1      41.721  31.367  36.476  1.00  0.00     0.029 A 
ATOM     56  N   UNL A   1      41.223  30.822  34.378  1.00  0.00    -0.354 N 
ATOM     57  N   UNL A   1      41.473  29.253  31.908  1.00  0.00    -0.248 NA
ATOM     58  C   UNL A   1      42.591  27.659  30.619  1.00  0.00     0.031 C 
ATOM     59  C   UNL A   1      42.619  30.384  36.049  1.00  0.00     0.029 A 
ATOM     60  C   UNL A   1      42.293  30.023  34.751  1.00  0.00     0.049 A 
ATOM     61  H   UNL A   1      40.775  30.794  33.501  1.00  0.00     0.167 HD
ATOM     62  C   UNL A   1      42.515  28.717  32.652  1.00  0.00     0.074 A 
ATOM     63  C   UNL A   1      43.149  27.715  31.820  1.00  0.00     0.031 C 
ATOM     64  C   UNL A   1      42.910  29.025  33.912  1.00  0.00     0.037 A 
BRANCH  51  65
ATOM     65  C   UNL A   1      39.667  33.594  36.529  1.00  0.00     0.064 A 
ATOM     66  C   UNL A   1      38.844  33.269  37.618  1.00  0.00     0.173 A 
ATOM     67  C   UNL A   1      40.344  34.823  36.568  1.00  0.00     0.173 A 
ATOM     68  F   UNL A   1      38.164  32.111  37.630  1.00  0.00    -0.203 F 
ATOM     69  C   UNL A   1      38.671  34.155  38.679  1.00  0.00     0.198 A 
ATOM     70  C   UNL A   1      40.199  35.691  37.648  1.00  0.00     0.198 A 
ATOM     71  F   UNL A   1      41.150  35.185  35.558  1.00  0.00    -0.203 F 
ATOM     72  F   UNL A   1      37.827  33.849  39.675  1.00  0.00    -0.200 F 
ATOM     73  C   UNL A   1      39.354  35.362  38.696  1.00  0.00     0.200 A 
ATOM     74  F   UNL A   1      40.872  36.849  37.670  1.00  0.00    -0.200 F 
ATOM     75  F   UNL A   1      39.189  36.213  39.718  1.00  0.00    -0.200 F 
ENDBRANCH  51  65
BRANCH  52  76
ATOM     76  C   UNL A   1      40.742  27.929  28.365  1.00  0.00     0.064 A 
ATOM     77  C   UNL A   1      40.133  26.668  28.295  1.00  0.00     0.173 A 
ATOM     78  C   UNL A   1      41.505  28.346  27.264  1.00  0.00     0.173 A 
ATOM     79  F   UNL A   1      39.410  26.216  29.331  1.00  0.00    -0.203 F 
ATOM     80  C   UNL A   1      40.296  25.849  27.180  1.00  0.00     0.198 A 
ATOM     81  C   UNL A   1      41.642  27.539  26.137  1.00  0.00     0.198 A 
ATOM     82  F   UNL A   1      42.105  29.545  27.277  1.00  0.00    -0.203 F 
ATOM     83  F   UNL A   1      39.740  24.630  27.160  1.00  0.00    -0.200 F 
ATOM     84  C   UNL A   1      41.045  26.287  26.099  1.00  0.00     0.200 A 
ATOM     85  F   UNL A   1      42.353  27.973  25.087  1.00  0.00    -0.200 F 
ATOM     86  F   UNL A   1      41.197  25.502  25.024  1.00  0.00    -0.200 F 
ENDBRANCH  52  76
BRANCH  64  87
ATOM     87  C   UNL A   1      44.055  28.240  34.488  1.00  0.00     0.064 A 
ATOM     88  C   UNL A   1      43.858  27.018  35.148  1.00  0.00     0.173 A 
ATOM     89  C   UNL A   1      45.373  28.701  34.343  1.00  0.00     0.173 A 
ATOM     90  F   UNL A   1      42.618  26.539  35.328  1.00  0.00    -0.203 F 
ATOM     91  C   UNL A   1      44.935  26.302  35.666  1.00  0.00     0.198 A 
ATOM     92  C   UNL A   1      46.450  27.966  34.830  1.00  0.00     0.198 A 
ATOM     93  F   UNL A   1      45.619  29.861  33.714  1.00  0.00    -0.203 F 
ATOM     94  F   UNL A   1      44.718  25.165  36.341  1.00  0.00    -0.200 F 
ATOM     95  C   UNL A   1      46.229  26.772  35.499  1.00  0.00     0.200 A 
ATOM     96  F   UNL A   1      47.700  28.413  34.651  1.00  0.00    -0.200 F 
ATOM     97  F   UNL A   1      47.265  26.078  35.991  1.00  0.00    -0.200 F 
ENDBRANCH  64  87
ENDBRANCH  38  39
ENDBRANCH  30  33
ENDBRANCH  28  29
ENDBRANCH  27  28
ENDBRANCH  26  27
ENDBRANCH  25  26
ENDBRANCH   1  25
TORSDOF 20
ENDMDL
