MODEL 1
REMARK VINA RESULT:     -12.2      0.000      0.000
REMARK SMILES O=C(CC1CCN(C(=O)NCc2ccccn2)CC1)NCCCCCCNC(=O)c1ccc(-c2c3nc(c(-c4c(F)c(F)c(F)c(F)c4F)c4ccc([nH]4)c(-c4c(F)c(F)c(F)c(F)c4F)c4nc(c(-c5c(F)c(F)c(F)c(F)c5F)c5ccc2[nH]5)C=C4)C=C3)cc1
REMARK SMILES IDX 23 1 22 2 21 3 20 4 1 5 2 6 3 8 4 9 5 10 19 11 6 12 18 13
REMARK SMILES IDX 7 14 8 15 9 16 10 17 11 19 12 20 13 21 17 22 14 23 16 24
REMARK SMILES IDX 15 25 24 26 25 27 26 28 27 29 28 30 29 32 30 33 31 34 92 35
REMARK SMILES IDX 32 36 91 37 33 38 34 39 35 40 85 41 36 42 90 43 84 44 86 45
REMARK SMILES IDX 37 46 89 47 83 48 82 49 38 51 70 52 50 53 69 54 51 55 54 56
REMARK SMILES IDX 68 57 87 58 52 59 53 60 67 62 88 63 55 64 39 65 40 66 48 67
REMARK SMILES IDX 41 68 42 69 46 70 49 71 43 72 44 73 47 74 45 75 71 76 72 77
REMARK SMILES IDX 80 78 73 79 74 80 78 81 81 82 75 83 76 84 79 85 77 86 56 87
REMARK SMILES IDX 57 88 65 89 58 90 59 91 63 92 66 93 60 94 61 95 64 96 62 97
REMARK H PARENT 20 7 10 18 27 31 86 50 54 61
REMARK Flexibility Score: inf
ROOT
ATOM      1  C   UNL A   1      41.293  21.574  27.417  1.00  0.00     0.002 C 
ENDROOT
BRANCH   1   2
ATOM      2  C   UNL A   1      39.983  22.365  27.285  1.00  0.00     0.021 C 
BRANCH   2   3
ATOM      3  C   UNL A   1      39.204  22.103  25.998  1.00  0.00     0.116 C 
BRANCH   3   4
ATOM      4  N   UNL A   1      37.777  22.261  26.187  1.00  0.00    -0.356 N 
ATOM      5  O   UNL A   1      37.181  21.458  24.122  1.00  0.00    -0.275 OA
ATOM      6  C   UNL A   1      36.869  21.839  25.244  1.00  0.00     0.220 C 
ATOM      7  H   UNL A   1      37.447  22.681  27.013  1.00  0.00     0.163 HD
BRANCH   6   8
ATOM      8  C   UNL A   1      35.442  21.802  25.758  1.00  0.00     0.103 C 
BRANCH   8   9
ATOM      9  C   UNL A   1      35.019  23.013  26.624  1.00  0.00     0.002 C 
ATOM     10  C   UNL A   1      34.066  22.602  27.759  1.00  0.00     0.026 C 
ATOM     11  C   UNL A   1      34.393  24.209  25.896  1.00  0.00     0.026 C 
ATOM     12  C   UNL A   1      32.630  22.380  27.281  1.00  0.00     0.121 C 
ATOM     13  C   UNL A   1      32.960  23.963  25.441  1.00  0.00     0.121 C 
ATOM     14  N   UNL A   1      32.093  23.515  26.516  1.00  0.00    -0.325 N 
ATOM     15  C   UNL A   1      30.761  23.780  26.681  1.00  0.00     0.317 C 
ATOM     16  O   UNL A   1      30.081  23.135  27.491  1.00  0.00    -0.249 OA
ATOM     17  N   UNL A   1      30.074  24.708  26.012  1.00  0.00    -0.332 N 
ATOM     18  H   UNL A   1      29.122  24.633  26.251  1.00  0.00     0.165 HD
BRANCH  17  19
ATOM     19  C   UNL A   1      30.237  25.792  25.053  1.00  0.00     0.174 C 
BRANCH  19  20
ATOM     20  C   UNL A   1      30.879  27.013  25.690  1.00  0.00     0.060 A 
ATOM     21  C   UNL A   1      31.382  28.034  24.886  1.00  0.00     0.026 A 
ATOM     22  N   UNL A   1      30.944  27.063  27.046  1.00  0.00    -0.259 NA
ATOM     23  C   UNL A   1      31.941  29.156  25.493  1.00  0.00     0.004 A 
ATOM     24  C   UNL A   1      31.497  28.158  27.607  1.00  0.00     0.111 A 
ATOM     25  C   UNL A   1      31.993  29.225  26.880  1.00  0.00     0.020 A 
ENDBRANCH  19  20
ENDBRANCH  17  19
ENDBRANCH   8   9
ENDBRANCH   6   8
ENDBRANCH   3   4
ENDBRANCH   2   3
ENDBRANCH   1   2
BRANCH   1  26
ATOM     26  C   UNL A   1      41.932  21.118  26.103  1.00  0.00     0.002 C 
BRANCH  26  27
ATOM     27  C   UNL A   1      41.975  19.607  25.889  1.00  0.00     0.021 C 
BRANCH  27  28
ATOM     28  C   UNL A   1      43.304  18.946  26.236  1.00  0.00     0.116 C 
BRANCH  28  29
ATOM     29  N   UNL A   1      44.076  18.554  25.065  1.00  0.00    -0.352 N 
ATOM     30  C   UNL A   1      44.801  19.336  24.193  1.00  0.00     0.251 C 
ATOM     31  H   UNL A   1      44.081  17.590  24.867  1.00  0.00     0.163 HD
ATOM     32  O   UNL A   1      45.254  18.870  23.157  1.00  0.00    -0.269 OA
BRANCH  30  33
ATOM     33  C   UNL A   1      44.993  20.771  24.491  1.00  0.00     0.039 A 
ATOM     34  C   UNL A   1      44.540  21.731  23.580  1.00  0.00     0.014 A 
ATOM     35  C   UNL A   1      45.604  21.164  25.682  1.00  0.00     0.014 A 
ATOM     36  C   UNL A   1      44.632  23.089  23.899  1.00  0.00     0.010 A 
ATOM     37  C   UNL A   1      45.612  22.506  26.037  1.00  0.00     0.010 A 
ATOM     38  C   UNL A   1      45.138  23.482  25.147  1.00  0.00    -0.014 A 
BRANCH  38  39
ATOM     39  C   UNL A   1      45.251  24.906  25.552  1.00  0.00     0.031 A 
ATOM     40  C   UNL A   1      46.605  25.562  25.504  1.00  0.00     0.074 A 
ATOM     41  C   UNL A   1      44.193  25.555  26.073  1.00  0.00     0.049 A 
ATOM     42  N   UNL A   1      46.997  26.698  26.021  1.00  0.00    -0.248 NA
ATOM     43  C   UNL A   1      47.675  24.812  24.823  1.00  0.00     0.031 C 
ATOM     44  C   UNL A   1      42.838  25.014  26.196  1.00  0.00     0.029 A 
ATOM     45  N   UNL A   1      44.101  26.806  26.633  1.00  0.00    -0.354 N 
ATOM     46  C   UNL A   1      48.360  26.773  25.768  1.00  0.00     0.074 A 
ATOM     47  C   UNL A   1      48.738  25.555  25.088  1.00  0.00     0.031 C 
ATOM     48  C   UNL A   1      42.052  25.927  26.792  1.00  0.00     0.029 A 
ATOM     49  C   UNL A   1      42.856  27.094  27.140  1.00  0.00     0.049 A 
ATOM     50  H   UNL A   1      44.856  27.438  26.667  1.00  0.00     0.167 HD
ATOM     51  C   UNL A   1      49.215  27.780  26.065  1.00  0.00     0.037 A 
ATOM     52  C   UNL A   1      42.427  28.168  27.832  1.00  0.00     0.037 A 
ATOM     53  C   UNL A   1      48.815  29.012  26.687  1.00  0.00     0.049 A 
ATOM     54  C   UNL A   1      43.403  29.275  28.141  1.00  0.00     0.074 A 
ATOM     55  C   UNL A   1      49.585  30.130  26.953  1.00  0.00     0.029 A 
ATOM     56  N   UNL A   1      47.532  29.288  27.136  1.00  0.00    -0.354 N 
ATOM     57  N   UNL A   1      44.676  29.367  27.840  1.00  0.00    -0.248 NA
ATOM     58  C   UNL A   1      42.883  30.432  28.885  1.00  0.00     0.031 C 
ATOM     59  C   UNL A   1      48.780  31.064  27.610  1.00  0.00     0.029 A 
ATOM     60  C   UNL A   1      47.495  30.553  27.697  1.00  0.00     0.049 A 
ATOM     61  H   UNL A   1      46.764  28.676  27.065  1.00  0.00     0.167 HD
ATOM     62  C   UNL A   1      45.093  30.605  28.313  1.00  0.00     0.074 A 
ATOM     63  C   UNL A   1      43.937  31.233  28.915  1.00  0.00     0.031 C 
ATOM     64  C   UNL A   1      46.322  31.173  28.255  1.00  0.00     0.037 A 
BRANCH  51  65
ATOM     65  C   UNL A   1      50.665  27.603  25.719  1.00  0.00     0.064 A 
ATOM     66  C   UNL A   1      51.162  27.901  24.442  1.00  0.00     0.173 A 
ATOM     67  C   UNL A   1      51.581  27.201  26.703  1.00  0.00     0.173 A 
ATOM     68  F   UNL A   1      50.327  28.277  23.462  1.00  0.00    -0.203 F 
ATOM     69  C   UNL A   1      52.521  27.788  24.158  1.00  0.00     0.198 A 
ATOM     70  C   UNL A   1      52.942  27.120  26.425  1.00  0.00     0.198 A 
ATOM     71  F   UNL A   1      51.158  26.906  27.941  1.00  0.00    -0.203 F 
ATOM     72  F   UNL A   1      52.968  28.042  22.921  1.00  0.00    -0.200 F 
ATOM     73  C   UNL A   1      53.411  27.409  25.153  1.00  0.00     0.200 A 
ATOM     74  F   UNL A   1      53.802  26.769  27.392  1.00  0.00    -0.200 F 
ATOM     75  F   UNL A   1      54.721  27.322  24.884  1.00  0.00    -0.200 F 
ENDBRANCH  51  65
BRANCH  52  76
ATOM     76  C   UNL A   1      41.011  28.264  28.287  1.00  0.00     0.064 A 
ATOM     77  C   UNL A   1      40.042  28.890  27.488  1.00  0.00     0.173 A 
ATOM     78  C   UNL A   1      40.607  27.785  29.542  1.00  0.00     0.173 A 
ATOM     79  F   UNL A   1      40.382  29.382  26.288  1.00  0.00    -0.203 F 
ATOM     80  C   UNL A   1      38.738  29.070  27.943  1.00  0.00     0.198 A 
ATOM     81  C   UNL A   1      39.293  27.935  29.981  1.00  0.00     0.198 A 
ATOM     82  F   UNL A   1      41.489  27.172  30.344  1.00  0.00    -0.203 F 
ATOM     83  F   UNL A   1      37.854  29.736  27.188  1.00  0.00    -0.200 F 
ATOM     84  C   UNL A   1      38.364  28.591  29.188  1.00  0.00     0.200 A 
ATOM     85  F   UNL A   1      38.930  27.454  31.178  1.00  0.00    -0.200 F 
ATOM     86  F   UNL A   1      37.111  28.772  29.630  1.00  0.00    -0.200 F 
ENDBRANCH  52  76
BRANCH  64  87
ATOM     87  C   UNL A   1      46.470  32.569  28.786  1.00  0.00     0.064 A 
ATOM     88  C   UNL A   1      46.846  32.821  30.113  1.00  0.00     0.173 A 
ATOM     89  C   UNL A   1      46.297  33.667  27.930  1.00  0.00     0.173 A 
ATOM     90  F   UNL A   1      47.011  31.805  30.974  1.00  0.00    -0.203 F 
ATOM     91  C   UNL A   1      47.022  34.124  30.569  1.00  0.00     0.198 A 
ATOM     92  C   UNL A   1      46.507  34.967  28.381  1.00  0.00     0.198 A 
ATOM     93  F   UNL A   1      45.947  33.479  26.649  1.00  0.00    -0.203 F 
ATOM     94  F   UNL A   1      47.338  34.346  31.852  1.00  0.00    -0.200 F 
ATOM     95  C   UNL A   1      46.862  35.195  29.700  1.00  0.00     0.200 A 
ATOM     96  F   UNL A   1      46.372  35.998  27.534  1.00  0.00    -0.200 F 
ATOM     97  F   UNL A   1      47.050  36.448  30.138  1.00  0.00    -0.200 F 
ENDBRANCH  64  87
ENDBRANCH  38  39
ENDBRANCH  30  33
ENDBRANCH  28  29
ENDBRANCH  27  28
ENDBRANCH  26  27
ENDBRANCH   1  26
TORSDOF 16
ENDMDL
MODEL 2
REMARK VINA RESULT:     -12.2      1.758      3.373
REMARK SMILES O=C(CC1CCN(C(=O)NCc2ccccn2)CC1)NCCCCCCNC(=O)c1ccc(-c2c3nc(c(-c4c(F)c(F)c(F)c(F)c4F)c4ccc([nH]4)c(-c4c(F)c(F)c(F)c(F)c4F)c4nc(c(-c5c(F)c(F)c(F)c(F)c5F)c5ccc2[nH]5)C=C4)C=C3)cc1
REMARK SMILES IDX 23 1 22 2 21 3 20 4 1 5 2 6 3 8 4 9 5 10 19 11 6 12 18 13
REMARK SMILES IDX 7 14 8 15 9 16 10 17 11 19 12 20 13 21 17 22 14 23 16 24
REMARK SMILES IDX 15 25 24 26 25 27 26 28 27 29 28 30 29 32 30 33 31 34 92 35
REMARK SMILES IDX 32 36 91 37 33 38 34 39 35 40 85 41 36 42 90 43 84 44 86 45
REMARK SMILES IDX 37 46 89 47 83 48 82 49 38 51 70 52 50 53 69 54 51 55 54 56
REMARK SMILES IDX 68 57 87 58 52 59 53 60 67 62 88 63 55 64 39 65 40 66 48 67
REMARK SMILES IDX 41 68 42 69 46 70 49 71 43 72 44 73 47 74 45 75 71 76 72 77
REMARK SMILES IDX 80 78 73 79 74 80 78 81 81 82 75 83 76 84 79 85 77 86 56 87
REMARK SMILES IDX 57 88 65 89 58 90 59 91 63 92 66 93 60 94 61 95 64 96 62 97
REMARK H PARENT 20 7 10 18 27 31 86 50 54 61
REMARK Flexibility Score: inf
ROOT
ATOM      1  C   UNL A   1      42.283  21.199  27.501  1.00  0.00     0.002 C 
ENDROOT
BRANCH   1   2
ATOM      2  C   UNL A   1      41.091  22.162  27.399  1.00  0.00     0.021 C 
BRANCH   2   3
ATOM      3  C   UNL A   1      40.207  21.959  26.171  1.00  0.00     0.116 C 
BRANCH   3   4
ATOM      4  N   UNL A   1      38.811  22.212  26.459  1.00  0.00    -0.356 N 
ATOM      5  O   UNL A   1      38.916  24.481  26.129  1.00  0.00    -0.275 OA
ATOM      6  C   UNL A   1      38.259  23.465  26.331  1.00  0.00     0.220 C 
ATOM      7  H   UNL A   1      38.241  21.467  26.756  1.00  0.00     0.163 HD
BRANCH   6   8
ATOM      8  C   UNL A   1      36.742  23.461  26.369  1.00  0.00     0.103 C 
BRANCH   8   9
ATOM      9  C   UNL A   1      36.046  23.741  25.015  1.00  0.00     0.002 C 
ATOM     10  C   UNL A   1      34.681  24.425  25.201  1.00  0.00     0.026 C 
ATOM     11  C   UNL A   1      35.848  22.548  24.071  1.00  0.00     0.026 C 
ATOM     12  C   UNL A   1      33.579  23.452  25.623  1.00  0.00     0.121 C 
ATOM     13  C   UNL A   1      34.737  21.602  24.509  1.00  0.00     0.121 C 
ATOM     14  N   UNL A   1      33.474  22.280  24.741  1.00  0.00    -0.325 N 
ATOM     15  C   UNL A   1      32.213  21.793  24.530  1.00  0.00     0.317 C 
ATOM     16  O   UNL A   1      31.223  22.367  25.004  1.00  0.00    -0.249 OA
ATOM     17  N   UNL A   1      31.921  20.691  23.836  1.00  0.00    -0.332 N 
ATOM     18  H   UNL A   1      30.956  20.514  23.911  1.00  0.00     0.165 HD
BRANCH  17  19
ATOM     19  C   UNL A   1      32.529  19.661  23.005  1.00  0.00     0.174 C 
BRANCH  19  20
ATOM     20  C   UNL A   1      32.811  18.395  23.797  1.00  0.00     0.060 A 
ATOM     21  C   UNL A   1      33.609  17.394  23.248  1.00  0.00     0.026 A 
ATOM     22  N   UNL A   1      32.261  18.283  25.034  1.00  0.00    -0.259 NA
ATOM     23  C   UNL A   1      33.877  16.255  24.004  1.00  0.00     0.004 A 
ATOM     24  C   UNL A   1      32.530  17.167  25.741  1.00  0.00     0.111 A 
ATOM     25  C   UNL A   1      33.335  16.141  25.278  1.00  0.00     0.020 A 
ENDBRANCH  19  20
ENDBRANCH  17  19
ENDBRANCH   8   9
ENDBRANCH   6   8
ENDBRANCH   3   4
ENDBRANCH   2   3
ENDBRANCH   1   2
BRANCH   1  26
ATOM     26  C   UNL A   1      41.937  19.739  27.802  1.00  0.00     0.002 C 
BRANCH  26  27
ATOM     27  C   UNL A   1      42.484  18.721  26.805  1.00  0.00     0.021 C 
BRANCH  27  28
ATOM     28  C   UNL A   1      42.678  19.250  25.388  1.00  0.00     0.116 C 
BRANCH  28  29
ATOM     29  N   UNL A   1      43.858  18.708  24.726  1.00  0.00    -0.352 N 
ATOM     30  C   UNL A   1      44.972  19.364  24.252  1.00  0.00     0.251 C 
ATOM     31  H   UNL A   1      43.858  17.732  24.599  1.00  0.00     0.163 HD
ATOM     32  O   UNL A   1      45.800  18.781  23.567  1.00  0.00    -0.269 OA
BRANCH  30  33
ATOM     33  C   UNL A   1      45.145  20.804  24.536  1.00  0.00     0.039 A 
ATOM     34  C   UNL A   1      44.781  21.746  23.568  1.00  0.00     0.014 A 
ATOM     35  C   UNL A   1      45.649  21.220  25.769  1.00  0.00     0.014 A 
ATOM     36  C   UNL A   1      44.851  23.110  23.867  1.00  0.00     0.010 A 
ATOM     37  C   UNL A   1      45.634  22.569  26.095  1.00  0.00     0.010 A 
ATOM     38  C   UNL A   1      45.246  23.527  25.146  1.00  0.00    -0.014 A 
BRANCH  38  39
ATOM     39  C   UNL A   1      45.332  24.959  25.530  1.00  0.00     0.031 A 
ATOM     40  C   UNL A   1      46.674  25.639  25.480  1.00  0.00     0.074 A 
ATOM     41  C   UNL A   1      44.259  25.596  26.036  1.00  0.00     0.049 A 
ATOM     42  N   UNL A   1      47.041  26.790  25.981  1.00  0.00    -0.248 NA
ATOM     43  C   UNL A   1      47.761  24.898  24.816  1.00  0.00     0.031 C 
ATOM     44  C   UNL A   1      42.913  25.033  26.159  1.00  0.00     0.029 A 
ATOM     45  N   UNL A   1      44.141  26.854  26.576  1.00  0.00    -0.354 N 
ATOM     46  C   UNL A   1      48.405  26.886  25.734  1.00  0.00     0.074 A 
ATOM     47  C   UNL A   1      48.809  25.665  25.076  1.00  0.00     0.031 C 
ATOM     48  C   UNL A   1      42.108  25.940  26.737  1.00  0.00     0.029 A 
ATOM     49  C   UNL A   1      42.888  27.127  27.072  1.00  0.00     0.049 A 
ATOM     50  H   UNL A   1      44.884  27.499  26.605  1.00  0.00     0.167 HD
ATOM     51  C   UNL A   1      49.239  27.912  26.021  1.00  0.00     0.037 A 
ATOM     52  C   UNL A   1      42.435  28.203  27.745  1.00  0.00     0.037 A 
ATOM     53  C   UNL A   1      48.814  29.146  26.622  1.00  0.00     0.049 A 
ATOM     54  C   UNL A   1      43.390  29.333  28.042  1.00  0.00     0.074 A 
ATOM     55  C   UNL A   1      49.562  30.282  26.875  1.00  0.00     0.029 A 
ATOM     56  N   UNL A   1      47.524  29.406  27.060  1.00  0.00    -0.354 N 
ATOM     57  N   UNL A   1      44.663  29.443  27.747  1.00  0.00    -0.248 NA
ATOM     58  C   UNL A   1      42.844  30.491  28.766  1.00  0.00     0.031 C 
ATOM     59  C   UNL A   1      48.736  31.211  27.514  1.00  0.00     0.029 A 
ATOM     60  C   UNL A   1      47.460  30.678  27.601  1.00  0.00     0.049 A 
ATOM     61  H   UNL A   1      46.767  28.779  26.994  1.00  0.00     0.167 HD
ATOM     62  C   UNL A   1      45.054  30.695  28.203  1.00  0.00     0.074 A 
ATOM     63  C   UNL A   1      43.883  31.311  28.790  1.00  0.00     0.031 C 
ATOM     64  C   UNL A   1      46.273  31.284  28.143  1.00  0.00     0.037 A 
BRANCH  51  65
ATOM     65  C   UNL A   1      50.694  27.757  25.686  1.00  0.00     0.064 A 
ATOM     66  C   UNL A   1      51.637  27.369  26.649  1.00  0.00     0.173 A 
ATOM     67  C   UNL A   1      51.136  27.926  24.364  1.00  0.00     0.173 A 
ATOM     68  F   UNL A   1      51.269  27.206  27.928  1.00  0.00    -0.203 F 
ATOM     69  C   UNL A   1      52.973  27.172  26.304  1.00  0.00     0.198 A 
ATOM     70  C   UNL A   1      52.464  27.697  24.018  1.00  0.00     0.198 A 
ATOM     71  F   UNL A   1      50.275  28.294  23.405  1.00  0.00    -0.203 F 
ATOM     72  F   UNL A   1      53.863  26.837  27.248  1.00  0.00    -0.200 F 
ATOM     73  C   UNL A   1      53.382  27.325  24.988  1.00  0.00     0.200 A 
ATOM     74  F   UNL A   1      52.855  27.830  22.742  1.00  0.00    -0.200 F 
ATOM     75  F   UNL A   1      54.663  27.112  24.654  1.00  0.00    -0.200 F 
ENDBRANCH  51  65
BRANCH  52  76
ATOM     76  C   UNL A   1      41.016  28.279  28.190  1.00  0.00     0.064 A 
ATOM     77  C   UNL A   1      40.039  28.867  27.373  1.00  0.00     0.173 A 
ATOM     78  C   UNL A   1      40.615  27.821  29.454  1.00  0.00     0.173 A 
ATOM     79  F   UNL A   1      40.375  29.339  26.164  1.00  0.00    -0.203 F 
ATOM     80  C   UNL A   1      38.728  29.030  27.818  1.00  0.00     0.198 A 
ATOM     81  C   UNL A   1      39.296  27.954  29.883  1.00  0.00     0.198 A 
ATOM     82  F   UNL A   1      41.505  27.245  30.275  1.00  0.00    -0.203 F 
ATOM     83  F   UNL A   1      37.835  29.661  27.043  1.00  0.00    -0.200 F 
ATOM     84  C   UNL A   1      38.357  28.572  29.072  1.00  0.00     0.200 A 
ATOM     85  F   UNL A   1      38.936  27.493  31.090  1.00  0.00    -0.200 F 
ATOM     86  F   UNL A   1      37.099  28.737  29.503  1.00  0.00    -0.200 F 
ENDBRANCH  52  76
BRANCH  64  87
ATOM     87  C   UNL A   1      46.393  32.691  28.654  1.00  0.00     0.064 A 
ATOM     88  C   UNL A   1      46.830  32.972  29.956  1.00  0.00     0.173 A 
ATOM     89  C   UNL A   1      46.128  33.772  27.800  1.00  0.00     0.173 A 
ATOM     90  F   UNL A   1      47.084  31.972  30.815  1.00  0.00    -0.203 F 
ATOM     91  C   UNL A   1      46.977  34.286  30.391  1.00  0.00     0.198 A 
ATOM     92  C   UNL A   1      46.309  35.084  28.228  1.00  0.00     0.198 A 
ATOM     93  F   UNL A   1      45.716  33.556  26.542  1.00  0.00    -0.203 F 
ATOM     94  F   UNL A   1      47.354  34.534  31.653  1.00  0.00    -0.200 F 
ATOM     95  C   UNL A   1      46.726  35.340  29.524  1.00  0.00     0.200 A 
ATOM     96  F   UNL A   1      46.085  36.099  27.382  1.00  0.00    -0.200 F 
ATOM     97  F   UNL A   1      46.886  36.604  29.940  1.00  0.00    -0.200 F 
ENDBRANCH  64  87
ENDBRANCH  38  39
ENDBRANCH  30  33
ENDBRANCH  28  29
ENDBRANCH  27  28
ENDBRANCH  26  27
ENDBRANCH   1  26
TORSDOF 16
ENDMDL
MODEL 3
REMARK VINA RESULT:     -12.0      6.764     12.511
REMARK SMILES O=C(CC1CCN(C(=O)NCc2ccccn2)CC1)NCCCCCCNC(=O)c1ccc(-c2c3nc(c(-c4c(F)c(F)c(F)c(F)c4F)c4ccc([nH]4)c(-c4c(F)c(F)c(F)c(F)c4F)c4nc(c(-c5c(F)c(F)c(F)c(F)c5F)c5ccc2[nH]5)C=C4)C=C3)cc1
REMARK SMILES IDX 23 1 22 2 21 3 20 4 1 5 2 6 3 8 4 9 5 10 19 11 6 12 18 13
REMARK SMILES IDX 7 14 8 15 9 16 10 17 11 19 12 20 13 21 17 22 14 23 16 24
REMARK SMILES IDX 15 25 24 26 25 27 26 28 27 29 28 30 29 32 30 33 31 34 92 35
REMARK SMILES IDX 32 36 91 37 33 38 34 39 35 40 85 41 36 42 90 43 84 44 86 45
REMARK SMILES IDX 37 46 89 47 83 48 82 49 38 51 70 52 50 53 69 54 51 55 54 56
REMARK SMILES IDX 68 57 87 58 52 59 53 60 67 62 88 63 55 64 39 65 40 66 48 67
REMARK SMILES IDX 41 68 42 69 46 70 49 71 43 72 44 73 47 74 45 75 71 76 72 77
REMARK SMILES IDX 80 78 73 79 74 80 78 81 81 82 75 83 76 84 79 85 77 86 56 87
REMARK SMILES IDX 57 88 65 89 58 90 59 91 63 92 66 93 60 94 61 95 64 96 62 97
REMARK H PARENT 20 7 10 18 27 31 86 50 54 61
REMARK Flexibility Score: inf
ROOT
ATOM      1  C   UNL A   1      35.413  33.541  28.986  1.00  0.00     0.002 C 
ENDROOT
BRANCH   1   2
ATOM      2  C   UNL A   1      34.553  32.271  29.071  1.00  0.00     0.021 C 
BRANCH   2   3
ATOM      3  C   UNL A   1      34.030  31.761  27.730  1.00  0.00     0.116 C 
BRANCH   3   4
ATOM      4  N   UNL A   1      33.613  30.376  27.802  1.00  0.00    -0.356 N 
ATOM      5  O   UNL A   1      31.685  30.653  26.588  1.00  0.00    -0.275 OA
ATOM      6  C   UNL A   1      32.496  29.919  27.142  1.00  0.00     0.220 C 
ATOM      7  H   UNL A   1      34.143  29.744  28.339  1.00  0.00     0.163 HD
BRANCH   6   8
ATOM      8  C   UNL A   1      32.410  28.405  27.082  1.00  0.00     0.103 C 
BRANCH   8   9
ATOM      9  C   UNL A   1      33.450  27.720  26.162  1.00  0.00     0.002 C 
ATOM     10  C   UNL A   1      33.410  28.283  24.732  1.00  0.00     0.026 C 
ATOM     11  C   UNL A   1      33.397  26.190  26.066  1.00  0.00     0.026 C 
ATOM     12  C   UNL A   1      32.244  27.733  23.907  1.00  0.00     0.121 C 
ATOM     13  C   UNL A   1      32.234  25.672  25.230  1.00  0.00     0.121 C 
ATOM     14  N   UNL A   1      32.179  26.265  23.906  1.00  0.00    -0.325 N 
ATOM     15  C   UNL A   1      31.754  25.680  22.745  1.00  0.00     0.317 C 
ATOM     16  O   UNL A   1      31.514  26.363  21.740  1.00  0.00    -0.249 OA
ATOM     17  N   UNL A   1      31.545  24.372  22.576  1.00  0.00    -0.332 N 
ATOM     18  H   UNL A   1      31.157  24.225  21.683  1.00  0.00     0.165 HD
BRANCH  17  19
ATOM     19  C   UNL A   1      31.690  23.088  23.247  1.00  0.00     0.174 C 
BRANCH  19  20
ATOM     20  C   UNL A   1      33.128  22.834  23.669  1.00  0.00     0.060 A 
ATOM     21  C   UNL A   1      34.176  23.203  22.828  1.00  0.00     0.026 A 
ATOM     22  N   UNL A   1      33.342  22.242  24.872  1.00  0.00    -0.259 NA
ATOM     23  C   UNL A   1      35.486  22.985  23.249  1.00  0.00     0.004 A 
ATOM     24  C   UNL A   1      34.620  22.036  25.252  1.00  0.00     0.111 A 
ATOM     25  C   UNL A   1      35.714  22.399  24.487  1.00  0.00     0.020 A 
ENDBRANCH  19  20
ENDBRANCH  17  19
ENDBRANCH   8   9
ENDBRANCH   6   8
ENDBRANCH   3   4
ENDBRANCH   2   3
ENDBRANCH   1   2
BRANCH   1  26
ATOM     26  C   UNL A   1      34.863  34.660  28.099  1.00  0.00     0.002 C 
BRANCH  26  27
ATOM     27  C   UNL A   1      34.036  35.719  28.823  1.00  0.00     0.021 C 
BRANCH  27  28
ATOM     28  C   UNL A   1      32.877  35.174  29.650  1.00  0.00     0.116 C 
BRANCH  28  29
ATOM     29  N   UNL A   1      32.438  36.085  30.699  1.00  0.00    -0.352 N 
ATOM     30  C   UNL A   1      32.808  36.136  32.024  1.00  0.00     0.251 C 
ATOM     31  H   UNL A   1      31.781  36.762  30.419  1.00  0.00     0.163 HD
ATOM     32  O   UNL A   1      32.216  36.857  32.815  1.00  0.00    -0.269 OA
BRANCH  30  33
ATOM     33  C   UNL A   1      33.905  35.271  32.507  1.00  0.00     0.039 A 
ATOM     34  C   UNL A   1      33.614  33.985  32.974  1.00  0.00     0.014 A 
ATOM     35  C   UNL A   1      35.223  35.728  32.476  1.00  0.00     0.014 A 
ATOM     36  C   UNL A   1      34.656  33.128  33.341  1.00  0.00     0.010 A 
ATOM     37  C   UNL A   1      36.260  34.848  32.755  1.00  0.00     0.010 A 
ATOM     38  C   UNL A   1      35.988  33.545  33.200  1.00  0.00    -0.014 A 
BRANCH  38  39
ATOM     39  C   UNL A   1      37.140  32.680  33.561  1.00  0.00     0.031 A 
ATOM     40  C   UNL A   1      37.877  32.961  34.843  1.00  0.00     0.074 A 
ATOM     41  C   UNL A   1      37.594  31.751  32.699  1.00  0.00     0.049 A 
ATOM     42  N   UNL A   1      39.034  32.509  35.253  1.00  0.00    -0.248 NA
ATOM     43  C   UNL A   1      37.246  33.920  35.767  1.00  0.00     0.031 C 
ATOM     44  C   UNL A   1      36.980  31.408  31.415  1.00  0.00     0.029 A 
ATOM     45  N   UNL A   1      38.705  30.946  32.759  1.00  0.00    -0.354 N 
ATOM     46  C   UNL A   1      39.286  33.162  36.452  1.00  0.00     0.074 A 
ATOM     47  C   UNL A   1      38.187  34.069  36.687  1.00  0.00     0.031 C 
ATOM     48  C   UNL A   1      37.721  30.464  30.811  1.00  0.00     0.029 A 
ATOM     49  C   UNL A   1      38.889  30.173  31.636  1.00  0.00     0.049 A 
ATOM     50  H   UNL A   1      39.314  30.925  33.533  1.00  0.00     0.167 HD
ATOM     51  C   UNL A   1      40.339  33.004  37.288  1.00  0.00     0.037 A 
ATOM     52  C   UNL A   1      39.902  29.348  31.306  1.00  0.00     0.037 A 
ATOM     53  C   UNL A   1      41.396  32.055  37.074  1.00  0.00     0.049 A 
ATOM     54  C   UNL A   1      41.056  29.189  32.263  1.00  0.00     0.074 A 
ATOM     55  C   UNL A   1      42.463  31.754  37.902  1.00  0.00     0.029 A 
ATOM     56  N   UNL A   1      41.517  31.250  35.951  1.00  0.00    -0.354 N 
ATOM     57  N   UNL A   1      41.255  29.762  33.426  1.00  0.00    -0.248 NA
ATOM     58  C   UNL A   1      42.129  28.266  31.864  1.00  0.00     0.031 C 
ATOM     59  C   UNL A   1      43.258  30.804  37.256  1.00  0.00     0.029 A 
ATOM     60  C   UNL A   1      42.654  30.467  36.056  1.00  0.00     0.049 A 
ATOM     61  H   UNL A   1      40.888  31.238  35.194  1.00  0.00     0.167 HD
ATOM     62  C   UNL A   1      42.443  29.234  33.914  1.00  0.00     0.074 A 
ATOM     63  C   UNL A   1      42.919  28.291  32.926  1.00  0.00     0.031 C 
ATOM     64  C   UNL A   1      43.085  29.506  35.076  1.00  0.00     0.037 A 
BRANCH  51  65
ATOM     65  C   UNL A   1      40.403  33.865  38.516  1.00  0.00     0.064 A 
ATOM     66  C   UNL A   1      39.778  33.492  39.715  1.00  0.00     0.173 A 
ATOM     67  C   UNL A   1      41.165  35.044  38.512  1.00  0.00     0.173 A 
ATOM     68  F   UNL A   1      39.028  32.381  39.769  1.00  0.00    -0.203 F 
ATOM     69  C   UNL A   1      39.901  34.276  40.861  1.00  0.00     0.198 A 
ATOM     70  C   UNL A   1      41.311  35.807  39.666  1.00  0.00     0.198 A 
ATOM     71  F   UNL A   1      41.785  35.445  37.392  1.00  0.00    -0.203 F 
ATOM     72  F   UNL A   1      39.265  33.918  41.984  1.00  0.00    -0.200 F 
ATOM     73  C   UNL A   1      40.676  35.425  40.838  1.00  0.00     0.200 A 
ATOM     74  F   UNL A   1      42.073  36.910  39.647  1.00  0.00    -0.200 F 
ATOM     75  F   UNL A   1      40.811  36.166  41.947  1.00  0.00    -0.200 F 
ENDBRANCH  51  65
BRANCH  52  76
ATOM     76  C   UNL A   1      39.885  28.603  30.016  1.00  0.00     0.064 A 
ATOM     77  C   UNL A   1      39.335  27.315  29.939  1.00  0.00     0.173 A 
ATOM     78  C   UNL A   1      40.462  29.133  28.852  1.00  0.00     0.173 A 
ATOM     79  F   UNL A   1      38.788  26.756  31.028  1.00  0.00    -0.203 F 
ATOM     80  C   UNL A   1      39.399  26.571  28.763  1.00  0.00     0.198 A 
ATOM     81  C   UNL A   1      40.495  28.400  27.666  1.00  0.00     0.198 A 
ATOM     82  F   UNL A   1      40.998  30.362  28.865  1.00  0.00    -0.203 F 
ATOM     83  F   UNL A   1      38.930  25.316  28.740  1.00  0.00    -0.200 F 
ATOM     84  C   UNL A   1      39.977  27.115  27.627  1.00  0.00     0.200 A 
ATOM     85  F   UNL A   1      41.039  28.936  26.565  1.00  0.00    -0.200 F 
ATOM     86  F   UNL A   1      40.047  26.396  26.498  1.00  0.00    -0.200 F 
ENDBRANCH  52  76
BRANCH  64  87
ATOM     87  C   UNL A   1      44.329  28.723  35.384  1.00  0.00     0.064 A 
ATOM     88  C   UNL A   1      44.285  27.501  36.070  1.00  0.00     0.173 A 
ATOM     89  C   UNL A   1      45.575  29.176  34.924  1.00  0.00     0.173 A 
ATOM     90  F   UNL A   1      43.119  27.032  36.541  1.00  0.00    -0.203 F 
ATOM     91  C   UNL A   1      45.448  26.772  36.303  1.00  0.00     0.198 A 
ATOM     92  C   UNL A   1      46.730  28.427  35.129  1.00  0.00     0.198 A 
ATOM     93  F   UNL A   1      45.669  30.335  34.255  1.00  0.00    -0.203 F 
ATOM     94  F   UNL A   1      45.390  25.628  36.999  1.00  0.00    -0.200 F 
ATOM     95  C   UNL A   1      46.667  27.230  35.824  1.00  0.00     0.200 A 
ATOM     96  F   UNL A   1      47.903  28.863  34.648  1.00  0.00    -0.200 F 
ATOM     97  F   UNL A   1      47.782  26.517  36.034  1.00  0.00    -0.200 F 
ENDBRANCH  64  87
ENDBRANCH  38  39
ENDBRANCH  30  33
ENDBRANCH  28  29
ENDBRANCH  27  28
ENDBRANCH  26  27
ENDBRANCH   1  26
TORSDOF 16
ENDMDL
