MODEL 1
REMARK VINA RESULT:     -11.6      0.000      0.000
REMARK SMILES CCC[N@H+](CC(=O)NCCCCCCNC(=O)c1ccc(-c2c3nc(c(-c4c(F)c(F)c(F)c(F)c4F)c4ccc([nH]4)c(-c4c(F)c(F)c(F)c(F)c4F)c4nc(c(-c5c(F)c(F)c(F)c(F)c5F)c5ccc2[nH]5)C=C4)C=C3)cc1)[C@H]1CCOC2(CCCCC2)C1
REMARK SMILES IDX 11 1 10 2 9 3 8 4 6 5 7 6 5 8 4 9 3 11 2 12 1 13 81 14 82 15
REMARK SMILES IDX 91 16 83 17 85 18 84 19 86 20 90 21 87 22 89 23 88 24 12 25
REMARK SMILES IDX 13 26 14 27 15 28 16 29 17 31 18 32 19 33 80 34 20 35 79 36
REMARK SMILES IDX 21 37 22 38 23 39 73 40 24 41 78 42 72 43 74 44 25 45 77 46
REMARK SMILES IDX 71 47 70 48 26 50 58 51 38 52 57 53 39 54 42 55 56 56 75 57
REMARK SMILES IDX 40 58 41 59 55 61 76 62 43 63 27 64 28 65 36 66 29 67 30 68
REMARK SMILES IDX 34 69 37 70 31 71 32 72 35 73 33 74 59 75 60 76 68 77 61 78
REMARK SMILES IDX 62 79 66 80 69 81 63 82 64 83 67 84 65 85 44 86 45 87 53 88
REMARK SMILES IDX 46 89 47 90 51 91 54 92 48 93 49 94 52 95 50 96
REMARK H PARENT 8 7 4 10 15 30 74 49 42 60
REMARK Flexibility Score: inf
ROOT
ATOM      1  C   UNL A   1      32.768  30.051  26.887  1.00  0.00     0.002 C 
ENDROOT
BRANCH   1   2
ATOM      2  C   UNL A   1      32.685  28.581  27.294  1.00  0.00     0.021 C 
BRANCH   2   3
ATOM      3  C   UNL A   1      31.364  27.888  26.942  1.00  0.00     0.116 C 
BRANCH   3   4
ATOM      4  N   UNL A   1      31.530  26.445  26.876  1.00  0.00    -0.351 N 
ATOM      5  C   UNL A   1      30.922  25.512  26.079  1.00  0.00     0.275 C 
ATOM      6  O   UNL A   1      31.162  24.323  26.311  1.00  0.00    -0.269 OA
ATOM      7  H   UNL A   1      32.189  26.078  27.510  1.00  0.00     0.163 HD
BRANCH   5   8
ATOM      8  C   UNL A   1      30.014  25.936  24.909  1.00  0.00     0.363 C 
BRANCH   8   9
ATOM      9  N   UNL A   1      30.716  26.728  23.841  1.00  0.00    -0.325 N 
ATOM     10  H   UNL A   1      31.480  27.292  24.215  1.00  0.00     0.348 HD
BRANCH   9  11
ATOM     11  C   UNL A   1      31.355  25.800  22.893  1.00  0.00     0.262 C 
BRANCH  11  12
ATOM     12  C   UNL A   1      32.867  25.556  22.850  1.00  0.00     0.058 C 
ATOM     13  C   UNL A   1      33.654  26.502  23.740  1.00  0.00     0.010 C 
ENDBRANCH  11  12
ENDBRANCH   9  11
BRANCH   9  14
ATOM     14  C   UNL A   1      29.767  27.715  23.255  1.00  0.00     0.189 C 
ATOM     15  C   UNL A   1      28.311  27.393  23.619  1.00  0.00     0.093 C 
ATOM     16  C   UNL A   1      30.118  29.189  23.521  1.00  0.00     0.100 C 
ATOM     17  C   UNL A   1      27.348  28.457  23.121  1.00  0.00     0.167 C 
ATOM     18  C   UNL A   1      29.049  30.167  23.003  1.00  0.00     0.074 C 
ATOM     19  O   UNL A   1      27.764  29.765  23.501  1.00  0.00    -0.375 OA
ATOM     20  C   UNL A   1      29.047  30.290  21.463  1.00  0.00     0.036 C 
ATOM     21  C   UNL A   1      29.345  31.564  23.601  1.00  0.00     0.036 C 
ATOM     22  C   UNL A   1      28.028  31.326  20.982  1.00  0.00     0.003 C 
ATOM     23  C   UNL A   1      28.360  32.629  23.120  1.00  0.00     0.003 C 
ATOM     24  C   UNL A   1      28.293  32.696  21.599  1.00  0.00     0.000 C 
ENDBRANCH   9  14
ENDBRANCH   8   9
ENDBRANCH   5   8
ENDBRANCH   3   4
ENDBRANCH   2   3
ENDBRANCH   1   2
BRANCH   1  25
ATOM     25  C   UNL A   1      31.423  30.712  26.583  1.00  0.00     0.002 C 
BRANCH  25  26
ATOM     26  C   UNL A   1      31.406  32.243  26.656  1.00  0.00     0.021 C 
BRANCH  26  27
ATOM     27  C   UNL A   1      32.716  32.893  27.097  1.00  0.00     0.116 C 
BRANCH  27  28
ATOM     28  N   UNL A   1      32.516  34.231  27.626  1.00  0.00    -0.352 N 
ATOM     29  C   UNL A   1      33.092  34.834  28.715  1.00  0.00     0.251 C 
ATOM     30  H   UNL A   1      31.872  34.786  27.130  1.00  0.00     0.163 HD
ATOM     31  O   UNL A   1      32.654  35.899  29.137  1.00  0.00    -0.269 OA
BRANCH  29  32
ATOM     32  C   UNL A   1      34.238  34.194  29.392  1.00  0.00     0.039 A 
ATOM     33  C   UNL A   1      35.534  34.519  28.981  1.00  0.00     0.014 A 
ATOM     34  C   UNL A   1      34.035  33.253  30.406  1.00  0.00     0.014 A 
ATOM     35  C   UNL A   1      36.630  33.939  29.623  1.00  0.00     0.010 A 
ATOM     36  C   UNL A   1      35.129  32.721  31.085  1.00  0.00     0.010 A 
ATOM     37  C   UNL A   1      36.436  33.054  30.696  1.00  0.00    -0.014 A 
BRANCH  37  38
ATOM     38  C   UNL A   1      37.587  32.448  31.412  1.00  0.00     0.031 A 
ATOM     39  C   UNL A   1      38.332  31.298  30.795  1.00  0.00     0.074 A 
ATOM     40  C   UNL A   1      37.919  32.889  32.640  1.00  0.00     0.049 A 
ATOM     41  N   UNL A   1      39.301  30.574  31.296  1.00  0.00    -0.248 NA
ATOM     42  C   UNL A   1      37.913  30.889  29.445  1.00  0.00     0.031 C 
ATOM     43  C   UNL A   1      37.247  33.973  33.360  1.00  0.00     0.029 A 
ATOM     44  N   UNL A   1      38.895  32.469  33.508  1.00  0.00    -0.354 N 
ATOM     45  C   UNL A   1      39.592  29.615  30.335  1.00  0.00     0.074 A 
ATOM     46  C   UNL A   1      38.670  29.821  29.238  1.00  0.00     0.031 C 
ATOM     47  C   UNL A   1      37.839  34.139  34.553  1.00  0.00     0.029 A 
ATOM     48  C   UNL A   1      38.908  33.154  34.697  1.00  0.00     0.049 A 
ATOM     49  H   UNL A   1      39.528  31.743  33.298  1.00  0.00     0.167 HD
ATOM     50  C   UNL A   1      40.556  28.663  30.355  1.00  0.00     0.037 A 
ATOM     51  C   UNL A   1      39.687  33.000  35.784  1.00  0.00     0.037 A 
ATOM     52  C   UNL A   1      41.493  28.484  31.431  1.00  0.00     0.049 A 
ATOM     53  C   UNL A   1      40.756  31.940  35.777  1.00  0.00     0.074 A 
ATOM     54  C   UNL A   1      42.544  27.587  31.521  1.00  0.00     0.029 A 
ATOM     55  N   UNL A   1      41.495  29.222  32.606  1.00  0.00    -0.354 N 
ATOM     56  N   UNL A   1      41.060  31.078  34.837  1.00  0.00    -0.248 NA
ATOM     57  C   UNL A   1      41.595  31.835  36.980  1.00  0.00     0.031 C 
ATOM     58  C   UNL A   1      43.159  27.757  32.766  1.00  0.00     0.029 A 
ATOM     59  C   UNL A   1      42.520  28.789  33.433  1.00  0.00     0.049 A 
ATOM     60  H   UNL A   1      40.863  29.945  32.821  1.00  0.00     0.167 HD
ATOM     61  C   UNL A   1      42.142  30.353  35.320  1.00  0.00     0.074 A 
ATOM     62  C   UNL A   1      42.447  30.882  36.633  1.00  0.00     0.031 C 
ATOM     63  C   UNL A   1      42.819  29.340  34.729  1.00  0.00     0.037 A 
BRANCH  50  64
ATOM     64  C   UNL A   1      40.648  27.743  29.174  1.00  0.00     0.064 A 
ATOM     65  C   UNL A   1      39.793  26.638  29.036  1.00  0.00     0.173 A 
ATOM     66  C   UNL A   1      41.572  27.991  28.148  1.00  0.00     0.173 A 
ATOM     67  F   UNL A   1      38.900  26.352  29.995  1.00  0.00    -0.203 F 
ATOM     68  C   UNL A   1      39.877  25.802  27.926  1.00  0.00     0.198 A 
ATOM     69  C   UNL A   1      41.634  27.168  27.026  1.00  0.00     0.198 A 
ATOM     70  F   UNL A   1      42.408  29.036  28.229  1.00  0.00    -0.203 F 
ATOM     71  F   UNL A   1      39.081  24.728  27.836  1.00  0.00    -0.200 F 
ATOM     72  C   UNL A   1      40.793  26.072  26.919  1.00  0.00     0.200 A 
ATOM     73  F   UNL A   1      42.511  27.436  26.048  1.00  0.00    -0.200 F 
ATOM     74  F   UNL A   1      40.867  25.270  25.847  1.00  0.00    -0.200 F 
ENDBRANCH  50  64
BRANCH  51  75
ATOM     75  C   UNL A   1      39.505  33.885  36.963  1.00  0.00     0.064 A 
ATOM     76  C   UNL A   1      40.107  35.149  37.011  1.00  0.00     0.173 A 
ATOM     77  C   UNL A   1      38.734  33.485  38.064  1.00  0.00     0.173 A 
ATOM     78  F   UNL A   1      40.870  35.567  35.991  1.00  0.00    -0.203 F 
ATOM     79  C   UNL A   1      39.964  35.973  38.127  1.00  0.00     0.198 A 
ATOM     80  C   UNL A   1      38.570  34.320  39.168  1.00  0.00     0.198 A 
ATOM     81  F   UNL A   1      38.132  32.287  38.064  1.00  0.00    -0.203 F 
ATOM     82  F   UNL A   1      40.588  37.158  38.166  1.00  0.00    -0.200 F 
ATOM     83  C   UNL A   1      39.192  35.560  39.202  1.00  0.00     0.200 A 
ATOM     84  F   UNL A   1      37.813  33.924  40.199  1.00  0.00    -0.200 F 
ATOM     85  F   UNL A   1      39.053  36.352  40.273  1.00  0.00    -0.200 F 
ENDBRANCH  51  75
BRANCH  63  86
ATOM     86  C   UNL A   1      43.986  28.765  35.476  1.00  0.00     0.064 A 
ATOM     87  C   UNL A   1      43.831  27.697  36.372  1.00  0.00     0.173 A 
ATOM     88  C   UNL A   1      45.281  29.259  35.257  1.00  0.00     0.173 A 
ATOM     89  F   UNL A   1      42.612  27.200  36.627  1.00  0.00    -0.203 F 
ATOM     90  C   UNL A   1      44.930  27.159  37.038  1.00  0.00     0.198 A 
ATOM     91  C   UNL A   1      46.380  28.702  35.903  1.00  0.00     0.198 A 
ATOM     92  F   UNL A   1      45.481  30.276  34.405  1.00  0.00    -0.203 F 
ATOM     93  F   UNL A   1      44.755  26.166  37.920  1.00  0.00    -0.200 F 
ATOM     94  C   UNL A   1      46.203  27.656  36.797  1.00  0.00     0.200 A 
ATOM     95  F   UNL A   1      47.609  29.175  35.662  1.00  0.00    -0.200 F 
ATOM     96  F   UNL A   1      47.259  27.131  37.433  1.00  0.00    -0.200 F 
ENDBRANCH  63  86
ENDBRANCH  37  38
ENDBRANCH  29  32
ENDBRANCH  27  28
ENDBRANCH  26  27
ENDBRANCH  25  26
ENDBRANCH   1  25
TORSDOF 17
ENDMDL
MODEL 2
REMARK VINA RESULT:     -11.3      6.251     11.736
REMARK SMILES CCC[N@H+](CC(=O)NCCCCCCNC(=O)c1ccc(-c2c3nc(c(-c4c(F)c(F)c(F)c(F)c4F)c4ccc([nH]4)c(-c4c(F)c(F)c(F)c(F)c4F)c4nc(c(-c5c(F)c(F)c(F)c(F)c5F)c5ccc2[nH]5)C=C4)C=C3)cc1)[C@H]1CCOC2(CCCCC2)C1
REMARK SMILES IDX 11 1 10 2 9 3 8 4 6 5 7 6 5 8 4 9 3 11 2 12 1 13 81 14 82 15
REMARK SMILES IDX 91 16 83 17 85 18 84 19 86 20 90 21 87 22 89 23 88 24 12 25
REMARK SMILES IDX 13 26 14 27 15 28 16 29 17 31 18 32 19 33 80 34 20 35 79 36
REMARK SMILES IDX 21 37 22 38 23 39 73 40 24 41 78 42 72 43 74 44 25 45 77 46
REMARK SMILES IDX 71 47 70 48 26 50 58 51 38 52 57 53 39 54 42 55 56 56 75 57
REMARK SMILES IDX 40 58 41 59 55 61 76 62 43 63 27 64 28 65 36 66 29 67 30 68
REMARK SMILES IDX 34 69 37 70 31 71 32 72 35 73 33 74 59 75 60 76 68 77 61 78
REMARK SMILES IDX 62 79 66 80 69 81 63 82 64 83 67 84 65 85 44 86 45 87 53 88
REMARK SMILES IDX 46 89 47 90 51 91 54 92 48 93 49 94 52 95 50 96
REMARK H PARENT 8 7 4 10 15 30 74 49 42 60
REMARK Flexibility Score: inf
ROOT
ATOM      1  C   UNL A   1      38.236  22.439  25.720  1.00  0.00     0.002 C 
ENDROOT
BRANCH   1   2
ATOM      2  C   UNL A   1      37.372  23.698  25.768  1.00  0.00     0.021 C 
BRANCH   2   3
ATOM      3  C   UNL A   1      35.865  23.452  25.622  1.00  0.00     0.116 C 
BRANCH   3   4
ATOM      4  N   UNL A   1      35.285  24.329  24.619  1.00  0.00    -0.351 N 
ATOM      5  C   UNL A   1      34.506  24.046  23.528  1.00  0.00     0.275 C 
ATOM      6  O   UNL A   1      34.242  24.976  22.761  1.00  0.00    -0.269 OA
ATOM      7  H   UNL A   1      35.485  25.286  24.744  1.00  0.00     0.163 HD
BRANCH   5   8
ATOM      8  C   UNL A   1      33.945  22.629  23.299  1.00  0.00     0.363 C 
BRANCH   8   9
ATOM      9  N   UNL A   1      32.878  22.225  24.278  1.00  0.00    -0.325 N 
ATOM     10  H   UNL A   1      33.148  22.410  25.244  1.00  0.00     0.348 HD
BRANCH   9  11
ATOM     11  C   UNL A   1      31.678  23.046  24.052  1.00  0.00     0.262 C 
BRANCH  11  12
ATOM     12  C   UNL A   1      30.896  23.718  25.185  1.00  0.00     0.058 C 
ATOM     13  C   UNL A   1      31.270  23.197  26.563  1.00  0.00     0.010 C 
ENDBRANCH  11  12
ENDBRANCH   9  11
BRANCH   9  14
ATOM     14  C   UNL A   1      32.685  20.749  24.214  1.00  0.00     0.189 C 
ATOM     15  C   UNL A   1      32.155  20.300  22.845  1.00  0.00     0.093 C 
ATOM     16  C   UNL A   1      33.897  19.916  24.666  1.00  0.00     0.100 C 
ATOM     17  C   UNL A   1      32.063  18.788  22.735  1.00  0.00     0.167 C 
ATOM     18  C   UNL A   1      33.697  18.403  24.471  1.00  0.00     0.074 C 
ATOM     19  O   UNL A   1      33.280  18.156  23.119  1.00  0.00    -0.375 OA
ATOM     20  C   UNL A   1      32.708  17.793  25.489  1.00  0.00     0.036 C 
ATOM     21  C   UNL A   1      35.068  17.709  24.650  1.00  0.00     0.036 C 
ATOM     22  C   UNL A   1      32.589  16.276  25.320  1.00  0.00     0.003 C 
ATOM     23  C   UNL A   1      34.981  16.189  24.512  1.00  0.00     0.003 C 
ATOM     24  C   UNL A   1      33.946  15.592  25.458  1.00  0.00     0.000 C 
ENDBRANCH   9  14
ENDBRANCH   8   9
ENDBRANCH   5   8
ENDBRANCH   3   4
ENDBRANCH   2   3
ENDBRANCH   1   2
BRANCH   1  25
ATOM     25  C   UNL A   1      37.665  21.296  24.881  1.00  0.00     0.002 C 
BRANCH  25  26
ATOM     26  C   UNL A   1      38.413  19.962  24.983  1.00  0.00     0.021 C 
BRANCH  26  27
ATOM     27  C   UNL A   1      39.151  19.723  26.299  1.00  0.00     0.116 C 
BRANCH  27  28
ATOM     28  N   UNL A   1      40.320  18.879  26.127  1.00  0.00    -0.352 N 
ATOM     29  C   UNL A   1      41.644  19.229  26.038  1.00  0.00     0.251 C 
ATOM     30  H   UNL A   1      40.137  17.914  26.067  1.00  0.00     0.163 HD
ATOM     31  O   UNL A   1      42.481  18.403  25.689  1.00  0.00    -0.269 OA
BRANCH  29  32
ATOM     32  C   UNL A   1      42.064  20.610  26.350  1.00  0.00     0.039 A 
ATOM     33  C   UNL A   1      42.277  20.967  27.684  1.00  0.00     0.014 A 
ATOM     34  C   UNL A   1      42.217  21.559  25.334  1.00  0.00     0.014 A 
ATOM     35  C   UNL A   1      42.694  22.263  27.997  1.00  0.00     0.010 A 
ATOM     36  C   UNL A   1      42.689  22.832  25.641  1.00  0.00     0.010 A 
ATOM     37  C   UNL A   1      42.927  23.198  26.976  1.00  0.00    -0.014 A 
BRANCH  37  38
ATOM     38  C   UNL A   1      43.398  24.572  27.283  1.00  0.00     0.031 A 
ATOM     39  C   UNL A   1      42.436  25.590  27.827  1.00  0.00     0.074 A 
ATOM     40  C   UNL A   1      44.670  24.919  27.011  1.00  0.00     0.049 A 
ATOM     41  N   UNL A   1      42.626  26.862  28.072  1.00  0.00    -0.248 NA
ATOM     42  C   UNL A   1      41.069  25.123  28.107  1.00  0.00     0.031 C 
ATOM     43  C   UNL A   1      45.688  24.031  26.446  1.00  0.00     0.029 A 
ATOM     44  N   UNL A   1      45.321  26.118  27.160  1.00  0.00    -0.354 N 
ATOM     45  C   UNL A   1      41.403  27.349  28.515  1.00  0.00     0.074 A 
ATOM     46  C   UNL A   1      40.465  26.247  28.463  1.00  0.00     0.031 C 
ATOM     47  C   UNL A   1      46.836  24.713  26.308  1.00  0.00     0.029 A 
ATOM     48  C   UNL A   1      46.628  26.092  26.741  1.00  0.00     0.049 A 
ATOM     49  H   UNL A   1      44.891  26.923  27.532  1.00  0.00     0.167 HD
ATOM     50  C   UNL A   1      41.095  28.596  28.944  1.00  0.00     0.037 A 
ATOM     51  C   UNL A   1      47.552  27.071  26.703  1.00  0.00     0.037 A 
ATOM     52  C   UNL A   1      42.038  29.679  29.027  1.00  0.00     0.049 A 
ATOM     53  C   UNL A   1      47.186  28.446  27.195  1.00  0.00     0.074 A 
ATOM     54  C   UNL A   1      41.839  30.963  29.503  1.00  0.00     0.029 A 
ATOM     55  N   UNL A   1      43.364  29.603  28.624  1.00  0.00    -0.354 N 
ATOM     56  N   UNL A   1      46.041  28.878  27.666  1.00  0.00    -0.248 NA
ATOM     57  C   UNL A   1      48.242  29.467  27.155  1.00  0.00     0.031 C 
ATOM     58  C   UNL A   1      43.034  31.675  29.357  1.00  0.00     0.029 A 
ATOM     59  C   UNL A   1      43.989  30.822  28.829  1.00  0.00     0.049 A 
ATOM     60  H   UNL A   1      43.795  28.802  28.249  1.00  0.00     0.167 HD
ATOM     61  C   UNL A   1      46.247  30.208  28.009  1.00  0.00     0.074 A 
ATOM     62  C   UNL A   1      47.630  30.509  27.699  1.00  0.00     0.031 C 
ATOM     63  C   UNL A   1      45.371  31.098  28.531  1.00  0.00     0.037 A 
BRANCH  50  64
ATOM     64  C   UNL A   1      39.678  28.856  29.364  1.00  0.00     0.064 A 
ATOM     65  C   UNL A   1      39.251  28.634  30.682  1.00  0.00     0.173 A 
ATOM     66  C   UNL A   1      38.748  29.373  28.450  1.00  0.00     0.173 A 
ATOM     67  F   UNL A   1      40.100  28.131  31.591  1.00  0.00    -0.203 F 
ATOM     68  C   UNL A   1      37.938  28.896  31.063  1.00  0.00     0.198 A 
ATOM     69  C   UNL A   1      37.443  29.660  28.842  1.00  0.00     0.198 A 
ATOM     70  F   UNL A   1      39.107  29.607  27.179  1.00  0.00    -0.203 F 
ATOM     71  F   UNL A   1      37.541  28.636  32.317  1.00  0.00    -0.200 F 
ATOM     72  C   UNL A   1      37.037  29.416  30.145  1.00  0.00     0.200 A 
ATOM     73  F   UNL A   1      36.577  30.173  27.957  1.00  0.00    -0.200 F 
ATOM     74  F   UNL A   1      35.775  29.675  30.515  1.00  0.00    -0.200 F 
ENDBRANCH  50  64
BRANCH  51  75
ATOM     75  C   UNL A   1      48.920  26.784  26.203  1.00  0.00     0.064 A 
ATOM     76  C   UNL A   1      49.254  27.000  24.859  1.00  0.00     0.173 A 
ATOM     77  C   UNL A   1      49.918  26.282  27.051  1.00  0.00     0.173 A 
ATOM     78  F   UNL A   1      48.327  27.459  24.004  1.00  0.00    -0.203 F 
ATOM     79  C   UNL A   1      50.527  26.705  24.376  1.00  0.00     0.198 A 
ATOM     80  C   UNL A   1      51.199  26.013  26.574  1.00  0.00     0.198 A 
ATOM     81  F   UNL A   1      49.651  26.064  28.347  1.00  0.00    -0.203 F 
ATOM     82  F   UNL A   1      50.806  26.878  23.077  1.00  0.00    -0.200 F 
ATOM     83  C   UNL A   1      51.501  26.217  25.235  1.00  0.00     0.200 A 
ATOM     84  F   UNL A   1      52.141  25.554  27.409  1.00  0.00    -0.200 F 
ATOM     85  F   UNL A   1      52.726  25.935  24.772  1.00  0.00    -0.200 F 
ENDBRANCH  51  75
BRANCH  63  86
ATOM     86  C   UNL A   1      45.888  32.471  28.842  1.00  0.00     0.064 A 
ATOM     87  C   UNL A   1      45.771  33.527  27.927  1.00  0.00     0.173 A 
ATOM     88  C   UNL A   1      46.467  32.743  30.092  1.00  0.00     0.173 A 
ATOM     89  F   UNL A   1      45.239  33.313  26.714  1.00  0.00    -0.203 F 
ATOM     90  C   UNL A   1      46.235  34.801  28.244  1.00  0.00     0.198 A 
ATOM     91  C   UNL A   1      46.905  34.023  30.415  1.00  0.00     0.198 A 
ATOM     92  F   UNL A   1      46.596  31.767  31.003  1.00  0.00    -0.203 F 
ATOM     93  F   UNL A   1      46.150  35.786  27.340  1.00  0.00    -0.200 F 
ATOM     94  C   UNL A   1      46.793  35.050  29.490  1.00  0.00     0.200 A 
ATOM     95  F   UNL A   1      47.434  34.264  31.622  1.00  0.00    -0.200 F 
ATOM     96  F   UNL A   1      47.231  36.279  29.795  1.00  0.00    -0.200 F 
ENDBRANCH  63  86
ENDBRANCH  37  38
ENDBRANCH  29  32
ENDBRANCH  27  28
ENDBRANCH  26  27
ENDBRANCH  25  26
ENDBRANCH   1  25
TORSDOF 17
ENDMDL
MODEL 3
REMARK VINA RESULT:     -11.3      0.692      2.042
REMARK SMILES CCC[N@H+](CC(=O)NCCCCCCNC(=O)c1ccc(-c2c3nc(c(-c4c(F)c(F)c(F)c(F)c4F)c4ccc([nH]4)c(-c4c(F)c(F)c(F)c(F)c4F)c4nc(c(-c5c(F)c(F)c(F)c(F)c5F)c5ccc2[nH]5)C=C4)C=C3)cc1)[C@H]1CCOC2(CCCCC2)C1
REMARK SMILES IDX 11 1 10 2 9 3 8 4 6 5 7 6 5 8 4 9 3 11 2 12 1 13 81 14 82 15
REMARK SMILES IDX 91 16 83 17 85 18 84 19 86 20 90 21 87 22 89 23 88 24 12 25
REMARK SMILES IDX 13 26 14 27 15 28 16 29 17 31 18 32 19 33 80 34 20 35 79 36
REMARK SMILES IDX 21 37 22 38 23 39 73 40 24 41 78 42 72 43 74 44 25 45 77 46
REMARK SMILES IDX 71 47 70 48 26 50 58 51 38 52 57 53 39 54 42 55 56 56 75 57
REMARK SMILES IDX 40 58 41 59 55 61 76 62 43 63 27 64 28 65 36 66 29 67 30 68
REMARK SMILES IDX 34 69 37 70 31 71 32 72 35 73 33 74 59 75 60 76 68 77 61 78
REMARK SMILES IDX 62 79 66 80 69 81 63 82 64 83 67 84 65 85 44 86 45 87 53 88
REMARK SMILES IDX 46 89 47 90 51 91 54 92 48 93 49 94 52 95 50 96
REMARK H PARENT 8 7 4 10 15 30 74 49 42 60
REMARK Flexibility Score: inf
ROOT
ATOM      1  C   UNL A   1      32.553  29.633  27.156  1.00  0.00     0.002 C 
ENDROOT
BRANCH   1   2
ATOM      2  C   UNL A   1      32.093  28.281  27.698  1.00  0.00     0.021 C 
BRANCH   2   3
ATOM      3  C   UNL A   1      31.082  27.542  26.813  1.00  0.00     0.116 C 
BRANCH   3   4
ATOM      4  N   UNL A   1      31.445  26.143  26.660  1.00  0.00    -0.351 N 
ATOM      5  C   UNL A   1      31.114  25.236  25.687  1.00  0.00     0.275 C 
ATOM      6  O   UNL A   1      31.463  24.065  25.860  1.00  0.00    -0.269 OA
ATOM      7  H   UNL A   1      32.025  25.788  27.373  1.00  0.00     0.163 HD
BRANCH   5   8
ATOM      8  C   UNL A   1      30.379  25.677  24.407  1.00  0.00     0.363 C 
BRANCH   8   9
ATOM      9  N   UNL A   1      31.052  26.797  23.665  1.00  0.00    -0.325 N 
ATOM     10  H   UNL A   1      31.625  27.379  24.277  1.00  0.00     0.348 HD
BRANCH   9  11
ATOM     11  C   UNL A   1      31.994  26.230  22.686  1.00  0.00     0.262 C 
BRANCH  11  12
ATOM     12  C   UNL A   1      33.491  26.553  22.677  1.00  0.00     0.058 C 
ATOM     13  C   UNL A   1      33.805  27.928  22.112  1.00  0.00     0.010 C 
ENDBRANCH  11  12
ENDBRANCH   9  11
BRANCH   9  14
ATOM     14  C   UNL A   1      30.017  27.721  23.122  1.00  0.00     0.189 C 
ATOM     15  C   UNL A   1      28.599  27.289  23.522  1.00  0.00     0.093 C 
ATOM     16  C   UNL A   1      30.268  29.213  23.404  1.00  0.00     0.100 C 
ATOM     17  C   UNL A   1      27.548  28.287  23.069  1.00  0.00     0.167 C 
ATOM     18  C   UNL A   1      29.117  30.118  22.932  1.00  0.00     0.074 C 
ATOM     19  O   UNL A   1      27.879  29.617  23.459  1.00  0.00    -0.375 OA
ATOM     20  C   UNL A   1      29.061  30.263  21.395  1.00  0.00     0.036 C 
ATOM     21  C   UNL A   1      29.328  31.523  23.545  1.00  0.00     0.036 C 
ATOM     22  C   UNL A   1      27.956  31.230  20.960  1.00  0.00     0.003 C 
ATOM     23  C   UNL A   1      28.255  32.521  23.111  1.00  0.00     0.003 C 
ATOM     24  C   UNL A   1      28.140  32.606  21.593  1.00  0.00     0.000 C 
ENDBRANCH   9  14
ENDBRANCH   8   9
ENDBRANCH   5   8
ENDBRANCH   3   4
ENDBRANCH   2   3
ENDBRANCH   1   2
BRANCH   1  25
ATOM     25  C   UNL A   1      31.500  30.399  26.354  1.00  0.00     0.002 C 
BRANCH  25  26
ATOM     26  C   UNL A   1      31.408  31.900  26.647  1.00  0.00     0.021 C 
BRANCH  26  27
ATOM     27  C   UNL A   1      32.731  32.586  26.982  1.00  0.00     0.116 C 
BRANCH  27  28
ATOM     28  N   UNL A   1      32.537  33.918  27.529  1.00  0.00    -0.352 N 
ATOM     29  C   UNL A   1      33.151  34.521  28.597  1.00  0.00     0.251 C 
ATOM     30  H   UNL A   1      31.866  34.468  27.065  1.00  0.00     0.163 HD
ATOM     31  O   UNL A   1      32.719  35.577  29.045  1.00  0.00    -0.269 OA
BRANCH  29  32
ATOM     32  C   UNL A   1      34.332  33.890  29.221  1.00  0.00     0.039 A 
ATOM     33  C   UNL A   1      35.605  34.366  28.894  1.00  0.00     0.014 A 
ATOM     34  C   UNL A   1      34.187  32.812  30.099  1.00  0.00     0.014 A 
ATOM     35  C   UNL A   1      36.732  33.795  29.489  1.00  0.00     0.010 A 
ATOM     36  C   UNL A   1      35.307  32.284  30.737  1.00  0.00     0.010 A 
ATOM     37  C   UNL A   1      36.591  32.766  30.433  1.00  0.00    -0.014 A 
BRANCH  37  38
ATOM     38  C   UNL A   1      37.773  32.165  31.100  1.00  0.00     0.031 A 
ATOM     39  C   UNL A   1      38.577  31.111  30.392  1.00  0.00     0.074 A 
ATOM     40  C   UNL A   1      38.082  32.518  32.361  1.00  0.00     0.049 A 
ATOM     41  N   UNL A   1      39.584  30.400  30.833  1.00  0.00    -0.248 NA
ATOM     42  C   UNL A   1      38.179  30.794  29.011  1.00  0.00     0.031 C 
ATOM     43  C   UNL A   1      37.354  33.501  33.167  1.00  0.00     0.029 A 
ATOM     44  N   UNL A   1      39.080  32.080  33.195  1.00  0.00    -0.354 N 
ATOM     45  C   UNL A   1      39.925  29.542  29.796  1.00  0.00     0.074 A 
ATOM     46  C   UNL A   1      38.991  29.789  28.718  1.00  0.00     0.031 C 
ATOM     47  C   UNL A   1      37.938  33.598  34.372  1.00  0.00     0.029 A 
ATOM     48  C   UNL A   1      39.058  32.662  34.437  1.00  0.00     0.049 A 
ATOM     49  H   UNL A   1      39.750  31.409  32.927  1.00  0.00     0.167 HD
ATOM     50  C   UNL A   1      40.937  28.644  29.741  1.00  0.00     0.037 A 
ATOM     51  C   UNL A   1      39.846  32.460  35.510  1.00  0.00     0.037 A 
ATOM     52  C   UNL A   1      41.885  28.426  30.801  1.00  0.00     0.049 A 
ATOM     53  C   UNL A   1      40.969  31.462  35.418  1.00  0.00     0.074 A 
ATOM     54  C   UNL A   1      42.981  27.582  30.819  1.00  0.00     0.029 A 
ATOM     55  N   UNL A   1      41.849  29.062  32.034  1.00  0.00    -0.354 N 
ATOM     56  N   UNL A   1      41.318  30.700  34.411  1.00  0.00    -0.248 NA
ATOM     57  C   UNL A   1      41.813  31.303  36.610  1.00  0.00     0.031 C 
ATOM     58  C   UNL A   1      43.588  27.680  32.076  1.00  0.00     0.029 A 
ATOM     59  C   UNL A   1      42.896  28.617  32.825  1.00  0.00     0.049 A 
ATOM     60  H   UNL A   1      41.179  29.730  32.305  1.00  0.00     0.167 HD
ATOM     61  C   UNL A   1      42.437  29.995  34.834  1.00  0.00     0.074 A 
ATOM     62  C   UNL A   1      42.715  30.428  36.188  1.00  0.00     0.031 C 
ATOM     63  C   UNL A   1      43.167  29.072  34.163  1.00  0.00     0.037 A 
BRANCH  50  64
ATOM     64  C   UNL A   1      41.077  27.832  28.487  1.00  0.00     0.064 A 
ATOM     65  C   UNL A   1      41.903  28.247  27.431  1.00  0.00     0.173 A 
ATOM     66  C   UNL A   1      40.412  26.603  28.357  1.00  0.00     0.173 A 
ATOM     67  F   UNL A   1      42.552  29.419  27.503  1.00  0.00    -0.203 F 
ATOM     68  C   UNL A   1      42.038  27.475  26.281  1.00  0.00     0.198 A 
ATOM     69  C   UNL A   1      40.571  25.820  27.216  1.00  0.00     0.198 A 
ATOM     70  F   UNL A   1      39.615  26.158  29.339  1.00  0.00    -0.203 F 
ATOM     71  F   UNL A   1      42.798  27.913  25.267  1.00  0.00    -0.200 F 
ATOM     72  C   UNL A   1      41.377  26.259  26.177  1.00  0.00     0.200 A 
ATOM     73  F   UNL A   1      39.942  24.641  27.122  1.00  0.00    -0.200 F 
ATOM     74  F   UNL A   1      41.514  25.513  25.072  1.00  0.00    -0.200 F 
ENDBRANCH  50  64
BRANCH  51  75
ATOM     75  C   UNL A   1      39.617  33.232  36.758  1.00  0.00     0.064 A 
ATOM     76  C   UNL A   1      38.707  32.783  37.724  1.00  0.00     0.173 A 
ATOM     77  C   UNL A   1      40.295  34.434  37.007  1.00  0.00     0.173 A 
ATOM     78  F   UNL A   1      38.020  31.649  37.521  1.00  0.00    -0.203 F 
ATOM     79  C   UNL A   1      38.466  33.518  38.883  1.00  0.00     0.198 A 
ATOM     80  C   UNL A   1      40.073  35.155  38.179  1.00  0.00     0.198 A 
ATOM     81  F   UNL A   1      41.180  34.904  36.116  1.00  0.00    -0.203 F 
ATOM     82  F   UNL A   1      37.557  33.089  39.769  1.00  0.00    -0.200 F 
ATOM     83  C   UNL A   1      39.153  34.701  39.112  1.00  0.00     0.200 A 
ATOM     84  F   UNL A   1      40.748  36.290  38.403  1.00  0.00    -0.200 F 
ATOM     85  F   UNL A   1      38.923  35.406  40.227  1.00  0.00    -0.200 F 
ENDBRANCH  51  75
BRANCH  63  86
ATOM     86  C   UNL A   1      44.363  28.500  34.863  1.00  0.00     0.064 A 
ATOM     87  C   UNL A   1      45.622  29.114  34.791  1.00  0.00     0.173 A 
ATOM     88  C   UNL A   1      44.237  27.346  35.654  1.00  0.00     0.173 A 
ATOM     89  F   UNL A   1      45.796  30.209  34.036  1.00  0.00    -0.203 F 
ATOM     90  C   UNL A   1      46.715  28.581  35.469  1.00  0.00     0.198 A 
ATOM     91  C   UNL A   1      45.326  26.833  36.351  1.00  0.00     0.198 A 
ATOM     92  F   UNL A   1      43.052  26.726  35.758  1.00  0.00    -0.203 F 
ATOM     93  F   UNL A   1      47.918  29.161  35.354  1.00  0.00    -0.200 F 
ATOM     94  C   UNL A   1      46.565  27.448  36.254  1.00  0.00     0.200 A 
ATOM     95  F   UNL A   1      45.176  25.744  37.116  1.00  0.00    -0.200 F 
ATOM     96  F   UNL A   1      47.618  26.942  36.912  1.00  0.00    -0.200 F 
ENDBRANCH  63  86
ENDBRANCH  37  38
ENDBRANCH  29  32
ENDBRANCH  27  28
ENDBRANCH  26  27
ENDBRANCH  25  26
ENDBRANCH   1  25
TORSDOF 17
ENDMDL
