MODEL 1
REMARK VINA RESULT:     -12.1      0.000      0.000
REMARK SMILES C[C@@H]1CCC[C@H](C)[N@H+]1Cc1cc2c(cc1Cl)C=C(C(=O)NCCCCCCNC(=O)c1ccc(-c3c4nc(c(-c5c(F)c(F)c(F)c(F)c5F)c5ccc([nH]5)c(-c5c(F)c(F)c(F)c(F)c5F)c5nc(c(-c6c(F)c(F)c(F)c(F)c6F)c6ccc3[nH]6)C=C5)C=C4)cc1)[C@@H](C(F)(F)F)O2
REMARK SMILES IDX 24 1 23 2 22 3 21 4 19 5 20 6 18 8 10 9 11 10 15 11 12 12
REMARK SMILES IDX 14 13 16 14 13 15 99 16 17 17 94 18 9 19 8 20 7 21 6 22 5 23
REMARK SMILES IDX 4 24 2 25 3 27 1 28 95 29 96 30 97 31 98 32 25 33 26 34
REMARK SMILES IDX 27 35 28 36 29 37 30 39 31 40 32 41 93 42 33 43 92 44 34 45
REMARK SMILES IDX 35 46 36 47 86 48 37 49 91 50 85 51 87 52 38 53 90 54 84 55
REMARK SMILES IDX 83 56 39 58 71 59 51 60 70 61 52 62 55 63 69 64 88 65 53 66
REMARK SMILES IDX 54 67 68 69 89 70 56 71 40 72 41 73 49 74 42 75 43 76 47 77
REMARK SMILES IDX 50 78 44 79 45 80 48 81 46 82 72 83 73 84 81 85 74 86 75 87
REMARK SMILES IDX 79 88 82 89 76 90 77 91 80 92 78 93 57 94 58 95 66 96 59 97
REMARK SMILES IDX 60 98 64 99 67 100 61 101 62 102 65 103 63 104
REMARK H PARENT 21 7 8 26 28 38 87 57 55 68
REMARK Flexibility Score: inf
ROOT
ATOM      1  C   UNL A   1      34.712  31.562  28.558  1.00  0.00     0.002 C 
ENDROOT
BRANCH   1   2
ATOM      2  C   UNL A   1      34.105  31.043  27.250  1.00  0.00     0.021 C 
BRANCH   2   3
ATOM      3  C   UNL A   1      32.806  30.262  27.429  1.00  0.00     0.116 C 
BRANCH   3   4
ATOM      4  N   UNL A   1      32.025  30.242  26.207  1.00  0.00    -0.352 N 
ATOM      5  C   UNL A   1      31.530  29.308  25.365  1.00  0.00     0.251 C 
ATOM      6  O   UNL A   1      30.836  29.751  24.444  1.00  0.00    -0.270 OA
ATOM      7  H   UNL A   1      31.796  31.153  25.910  1.00  0.00     0.163 HD
BRANCH   5   8
ATOM      8  C   UNL A   1      31.772  27.840  25.461  1.00  0.00     0.067 C 
ATOM      9  C   UNL A   1      33.960  23.389  26.421  1.00  0.00     0.029 A 
ATOM     10  C   UNL A   1      32.645  23.881  26.488  1.00  0.00     0.058 A 
ATOM     11  C   UNL A   1      34.939  24.214  25.837  1.00  0.00     0.050 A 
ATOM     12  C   UNL A   1      32.357  25.192  26.127  1.00  0.00     0.128 A 
ATOM     13  C   UNL A   1      34.651  25.544  25.506  1.00  0.00     0.033 A 
ATOM     14  Cl  UNL A   1      36.543  23.663  25.504  1.00  0.00    -0.084 Cl
ATOM     15  C   UNL A   1      33.366  26.048  25.692  1.00  0.00     0.019 A 
ATOM     16  O   UNL A   1      31.068  25.609  26.295  1.00  0.00    -0.475 OA
ATOM     17  C   UNL A   1      33.064  27.463  25.515  1.00  0.00     0.025 C 
ATOM     18  C   UNL A   1      30.700  26.788  25.523  1.00  0.00     0.314 C 
BRANCH   9  19
ATOM     19  C   UNL A   1      34.256  22.041  27.046  1.00  0.00     0.301 C 
BRANCH  19  20
ATOM     20  N   UNL A   1      34.162  20.864  26.153  1.00  0.00    -0.327 N 
ATOM     21  C   UNL A   1      35.675  19.642  24.626  1.00  0.00     0.075 C 
ATOM     22  C   UNL A   1      34.925  20.954  24.898  1.00  0.00     0.181 C 
ATOM     23  C   UNL A   1      34.099  21.365  23.664  1.00  0.00     0.065 C 
ATOM     24  C   UNL A   1      32.766  20.636  23.555  1.00  0.00     0.012 C 
ATOM     25  C   UNL A   1      32.824  20.260  26.074  1.00  0.00     0.181 C 
ATOM     26  H   UNL A   1      34.692  20.145  26.645  1.00  0.00     0.348 HD
ATOM     27  C   UNL A   1      31.998  20.727  24.865  1.00  0.00     0.065 C 
ATOM     28  C   UNL A   1      32.903  18.729  26.126  1.00  0.00     0.075 C 
ENDBRANCH  19  20
ENDBRANCH   9  19
BRANCH  18  29
ATOM     29  C   UNL A   1      30.220  26.369  24.120  1.00  0.00     0.429 C 
ATOM     30  F   UNL A   1      29.089  27.038  23.783  1.00  0.00    -0.167 F 
ATOM     31  F   UNL A   1      31.132  26.654  23.159  1.00  0.00    -0.167 F 
ATOM     32  F   UNL A   1      29.954  25.047  24.025  1.00  0.00    -0.167 F 
ENDBRANCH  18  29
ENDBRANCH   5   8
ENDBRANCH   3   4
ENDBRANCH   2   3
ENDBRANCH   1   2
BRANCH   1  33
ATOM     33  C   UNL A   1      34.907  33.081  28.639  1.00  0.00     0.002 C 
BRANCH  33  34
ATOM     34  C   UNL A   1      33.625  33.911  28.736  1.00  0.00     0.021 C 
BRANCH  34  35
ATOM     35  C   UNL A   1      33.836  35.372  29.115  1.00  0.00     0.116 C 
BRANCH  35  36
ATOM     36  N   UNL A   1      32.840  35.854  30.059  1.00  0.00    -0.352 N 
ATOM     37  C   UNL A   1      32.778  35.667  31.419  1.00  0.00     0.251 C 
ATOM     38  H   UNL A   1      32.111  36.390  29.669  1.00  0.00     0.163 HD
ATOM     39  O   UNL A   1      31.792  36.018  32.057  1.00  0.00    -0.269 OA
BRANCH  37  40
ATOM     40  C   UNL A   1      33.902  34.995  32.102  1.00  0.00     0.039 A 
ATOM     41  C   UNL A   1      35.117  35.662  32.282  1.00  0.00     0.014 A 
ATOM     42  C   UNL A   1      33.752  33.670  32.518  1.00  0.00     0.014 A 
ATOM     43  C   UNL A   1      36.227  34.953  32.726  1.00  0.00     0.010 A 
ATOM     44  C   UNL A   1      34.853  32.982  33.036  1.00  0.00     0.010 A 
ATOM     45  C   UNL A   1      36.110  33.603  33.095  1.00  0.00    -0.014 A 
BRANCH  45  46
ATOM     46  C   UNL A   1      37.321  32.856  33.522  1.00  0.00     0.031 A 
ATOM     47  C   UNL A   1      37.961  31.845  32.610  1.00  0.00     0.074 A 
ATOM     48  C   UNL A   1      37.881  33.139  34.714  1.00  0.00     0.049 A 
ATOM     49  N   UNL A   1      39.027  31.112  32.809  1.00  0.00    -0.248 NA
ATOM     50  C   UNL A   1      37.321  31.626  31.302  1.00  0.00     0.031 C 
ATOM     51  C   UNL A   1      37.362  34.114  35.674  1.00  0.00     0.029 A 
ATOM     52  N   UNL A   1      39.020  32.658  35.307  1.00  0.00    -0.354 N 
ATOM     53  C   UNL A   1      39.175  30.336  31.666  1.00  0.00     0.074 A 
ATOM     54  C   UNL A   1      38.077  30.668  30.785  1.00  0.00     0.031 C 
ATOM     55  C   UNL A   1      38.208  34.199  36.711  1.00  0.00     0.029 A 
ATOM     56  C   UNL A   1      39.294  33.244  36.518  1.00  0.00     0.049 A 
ATOM     57  H   UNL A   1      39.585  31.961  34.904  1.00  0.00     0.167 HD
ATOM     58  C   UNL A   1      40.149  29.440  31.376  1.00  0.00     0.037 A 
ATOM     59  C   UNL A   1      40.304  33.030  37.381  1.00  0.00     0.037 A 
ATOM     60  C   UNL A   1      41.255  29.131  32.243  1.00  0.00     0.049 A 
ATOM     61  C   UNL A   1      41.347  32.001  37.050  1.00  0.00     0.074 A 
ATOM     62  C   UNL A   1      42.297  28.245  32.030  1.00  0.00     0.029 A 
ATOM     63  N   UNL A   1      41.466  29.704  33.489  1.00  0.00    -0.354 N 
ATOM     64  N   UNL A   1      41.471  31.269  35.971  1.00  0.00    -0.248 NA
ATOM     65  C   UNL A   1      42.385  31.761  38.063  1.00  0.00     0.031 C 
ATOM     66  C   UNL A   1      43.119  28.255  33.160  1.00  0.00     0.029 A 
ATOM     67  C   UNL A   1      42.614  29.179  34.061  1.00  0.00     0.049 A 
ATOM     68  H   UNL A   1      40.887  30.383  33.904  1.00  0.00     0.167 HD
ATOM     69  C   UNL A   1      42.600  30.489  36.168  1.00  0.00     0.074 A 
ATOM     70  C   UNL A   1      43.139  30.851  37.462  1.00  0.00     0.031 C 
ATOM     71  C   UNL A   1      43.136  29.551  35.350  1.00  0.00     0.037 A 
BRANCH  58  72
ATOM     72  C   UNL A   1      40.068  28.718  30.063  1.00  0.00     0.064 A 
ATOM     73  C   UNL A   1      40.651  29.241  28.901  1.00  0.00     0.173 A 
ATOM     74  C   UNL A   1      39.464  27.453  29.984  1.00  0.00     0.173 A 
ATOM     75  F   UNL A   1      41.228  30.452  28.922  1.00  0.00    -0.203 F 
ATOM     76  C   UNL A   1      40.623  28.531  27.703  1.00  0.00     0.198 A 
ATOM     77  C   UNL A   1      39.459  26.734  28.791  1.00  0.00     0.198 A 
ATOM     78  F   UNL A   1      38.897  26.905  31.069  1.00  0.00    -0.203 F 
ATOM     79  F   UNL A   1      41.163  29.062  26.597  1.00  0.00    -0.200 F 
ATOM     80  C   UNL A   1      40.037  27.274  27.651  1.00  0.00     0.200 A 
ATOM     81  F   UNL A   1      38.902  25.517  28.745  1.00  0.00    -0.200 F 
ATOM     82  F   UNL A   1      40.025  26.585  26.502  1.00  0.00    -0.200 F 
ENDBRANCH  58  72
BRANCH  59  83
ATOM     83  C   UNL A   1      40.372  33.820  38.636  1.00  0.00     0.064 A 
ATOM     84  C   UNL A   1      41.136  34.993  38.706  1.00  0.00     0.173 A 
ATOM     85  C   UNL A   1      39.649  33.441  39.776  1.00  0.00     0.173 A 
ATOM     86  F   UNL A   1      41.860  35.383  37.648  1.00  0.00    -0.203 F 
ATOM     87  C   UNL A   1      41.173  35.757  39.870  1.00  0.00     0.198 A 
ATOM     88  C   UNL A   1      39.665  34.220  40.931  1.00  0.00     0.198 A 
ATOM     89  F   UNL A   1      38.901  32.328  39.756  1.00  0.00    -0.203 F 
ATOM     90  F   UNL A   1      41.929  36.862  39.920  1.00  0.00    -0.200 F 
ATOM     91  C   UNL A   1      40.430  35.376  40.978  1.00  0.00     0.200 A 
ATOM     92  F   UNL A   1      38.934  33.856  41.992  1.00  0.00    -0.200 F 
ATOM     93  F   UNL A   1      40.453  36.120  42.091  1.00  0.00    -0.200 F 
ENDBRANCH  59  83
BRANCH  71  94
ATOM     94  C   UNL A   1      44.378  28.856  35.822  1.00  0.00     0.064 A 
ATOM     95  C   UNL A   1      45.652  29.377  35.553  1.00  0.00     0.173 A 
ATOM     96  C   UNL A   1      44.291  27.692  36.601  1.00  0.00     0.173 A 
ATOM     97  F   UNL A   1      45.785  30.478  34.800  1.00  0.00    -0.203 F 
ATOM     98  C   UNL A   1      46.796  28.749  36.037  1.00  0.00     0.198 A 
ATOM     99  C   UNL A   1      45.435  27.082  37.104  1.00  0.00     0.198 A 
ATOM    100  F   UNL A   1      43.093  27.161  36.890  1.00  0.00    -0.203 F 
ATOM    101  F   UNL A   1      48.005  29.245  35.742  1.00  0.00    -0.200 F 
ATOM    102  C   UNL A   1      46.686  27.609  36.819  1.00  0.00     0.200 A 
ATOM    103  F   UNL A   1      45.328  25.987  37.868  1.00  0.00    -0.200 F 
ATOM    104  F   UNL A   1      47.788  27.013  37.294  1.00  0.00    -0.200 F 
ENDBRANCH  71  94
ENDBRANCH  45  46
ENDBRANCH  37  40
ENDBRANCH  35  36
ENDBRANCH  34  35
ENDBRANCH  33  34
ENDBRANCH   1  33
TORSDOF 16
ENDMDL
MODEL 2
REMARK VINA RESULT:     -11.9      6.408     11.933
REMARK SMILES C[C@@H]1CCC[C@H](C)[N@H+]1Cc1cc2c(cc1Cl)C=C(C(=O)NCCCCCCNC(=O)c1ccc(-c3c4nc(c(-c5c(F)c(F)c(F)c(F)c5F)c5ccc([nH]5)c(-c5c(F)c(F)c(F)c(F)c5F)c5nc(c(-c6c(F)c(F)c(F)c(F)c6F)c6ccc3[nH]6)C=C5)C=C4)cc1)[C@@H](C(F)(F)F)O2
REMARK SMILES IDX 24 1 23 2 22 3 21 4 19 5 20 6 18 8 10 9 11 10 15 11 12 12
REMARK SMILES IDX 14 13 16 14 13 15 99 16 17 17 94 18 9 19 8 20 7 21 6 22 5 23
REMARK SMILES IDX 4 24 2 25 3 27 1 28 95 29 96 30 97 31 98 32 25 33 26 34
REMARK SMILES IDX 27 35 28 36 29 37 30 39 31 40 32 41 93 42 33 43 92 44 34 45
REMARK SMILES IDX 35 46 36 47 86 48 37 49 91 50 85 51 87 52 38 53 90 54 84 55
REMARK SMILES IDX 83 56 39 58 71 59 51 60 70 61 52 62 55 63 69 64 88 65 53 66
REMARK SMILES IDX 54 67 68 69 89 70 56 71 40 72 41 73 49 74 42 75 43 76 47 77
REMARK SMILES IDX 50 78 44 79 45 80 48 81 46 82 72 83 73 84 81 85 74 86 75 87
REMARK SMILES IDX 79 88 82 89 76 90 77 91 80 92 78 93 57 94 58 95 66 96 59 97
REMARK SMILES IDX 60 98 64 99 67 100 61 101 62 102 65 103 63 104
REMARK H PARENT 21 7 8 26 28 38 87 57 55 68
REMARK Flexibility Score: inf
ROOT
ATOM      1  C   UNL A   1      39.926  22.179  26.754  1.00  0.00     0.002 C 
ENDROOT
BRANCH   1   2
ATOM      2  C   UNL A   1      39.162  21.266  25.789  1.00  0.00     0.021 C 
BRANCH   2   3
ATOM      3  C   UNL A   1      37.958  21.926  25.123  1.00  0.00     0.116 C 
BRANCH   3   4
ATOM      4  N   UNL A   1      36.791  21.066  25.162  1.00  0.00    -0.352 N 
ATOM      5  C   UNL A   1      35.473  21.174  24.884  1.00  0.00     0.251 C 
ATOM      6  O   UNL A   1      34.827  20.127  25.001  1.00  0.00    -0.270 OA
ATOM      7  H   UNL A   1      37.020  20.161  25.477  1.00  0.00     0.163 HD
BRANCH   5   8
ATOM      8  C   UNL A   1      34.773  22.427  24.480  1.00  0.00     0.067 C 
ATOM      9  C   UNL A   1      33.615  27.313  23.927  1.00  0.00     0.029 A 
ATOM     10  C   UNL A   1      33.533  26.177  23.104  1.00  0.00     0.058 A 
ATOM     11  C   UNL A   1      33.964  27.121  25.277  1.00  0.00     0.050 A 
ATOM     12  C   UNL A   1      33.928  24.929  23.573  1.00  0.00     0.128 A 
ATOM     13  C   UNL A   1      34.393  25.869  25.735  1.00  0.00     0.033 A 
ATOM     14  Cl  UNL A   1      33.904  28.393  26.444  1.00  0.00    -0.084 Cl
ATOM     15  C   UNL A   1      34.416  24.778  24.869  1.00  0.00     0.019 A 
ATOM     16  O   UNL A   1      33.886  23.894  22.683  1.00  0.00    -0.475 OA
ATOM     17  C   UNL A   1      35.006  23.502  25.257  1.00  0.00     0.025 C 
ATOM     18  C   UNL A   1      33.872  22.569  23.286  1.00  0.00     0.314 C 
BRANCH   9  19
ATOM     19  C   UNL A   1      33.400  28.674  23.298  1.00  0.00     0.301 C 
BRANCH  19  20
ATOM     20  N   UNL A   1      32.022  29.213  23.344  1.00  0.00    -0.327 N 
ATOM     21  C   UNL A   1      30.652  30.509  24.945  1.00  0.00     0.075 C 
ATOM     22  C   UNL A   1      31.369  29.180  24.662  1.00  0.00     0.181 C 
ATOM     23  C   UNL A   1      30.409  27.995  24.882  1.00  0.00     0.065 C 
ATOM     24  C   UNL A   1      29.483  27.736  23.702  1.00  0.00     0.012 C 
ATOM     25  C   UNL A   1      31.188  28.866  22.183  1.00  0.00     0.181 C 
ATOM     26  H   UNL A   1      32.151  30.218  23.222  1.00  0.00     0.348 HD
ATOM     27  C   UNL A   1      30.279  27.648  22.407  1.00  0.00     0.065 C 
ATOM     28  C   UNL A   1      30.377  30.076  21.703  1.00  0.00     0.075 C 
ENDBRANCH  19  20
ENDBRANCH   9  19
BRANCH  18  29
ATOM     29  C   UNL A   1      32.422  22.153  23.604  1.00  0.00     0.429 C 
ATOM     30  F   UNL A   1      32.212  22.141  24.944  1.00  0.00    -0.167 F 
ATOM     31  F   UNL A   1      31.515  23.015  23.084  1.00  0.00    -0.167 F 
ATOM     32  F   UNL A   1      32.109  20.926  23.133  1.00  0.00    -0.167 F 
ENDBRANCH  18  29
ENDBRANCH   5   8
ENDBRANCH   3   4
ENDBRANCH   2   3
ENDBRANCH   1   2
BRANCH   1  33
ATOM     33  C   UNL A   1      40.990  21.489  27.616  1.00  0.00     0.002 C 
BRANCH  33  34
ATOM     34  C   UNL A   1      41.122  19.977  27.422  1.00  0.00     0.021 C 
BRANCH  34  35
ATOM     35  C   UNL A   1      42.542  19.438  27.545  1.00  0.00     0.116 C 
BRANCH  35  36
ATOM     36  N   UNL A   1      43.026  18.845  26.309  1.00  0.00    -0.352 N 
ATOM     37  C   UNL A   1      43.668  19.450  25.256  1.00  0.00     0.251 C 
ATOM     38  H   UNL A   1      42.874  17.876  26.215  1.00  0.00     0.163 HD
ATOM     39  O   UNL A   1      43.885  18.837  24.216  1.00  0.00    -0.269 OA
BRANCH  37  40
ATOM     40  C   UNL A   1      44.061  20.869  25.374  1.00  0.00     0.039 A 
ATOM     41  C   UNL A   1      45.192  21.228  26.112  1.00  0.00     0.014 A 
ATOM     42  C   UNL A   1      43.258  21.849  24.785  1.00  0.00     0.014 A 
ATOM     43  C   UNL A   1      45.425  22.569  26.397  1.00  0.00     0.010 A 
ATOM     44  C   UNL A   1      43.540  23.199  25.011  1.00  0.00     0.010 A 
ATOM     45  C   UNL A   1      44.595  23.567  25.860  1.00  0.00    -0.014 A 
BRANCH  45  46
ATOM     46  C   UNL A   1      44.838  24.988  26.217  1.00  0.00     0.031 A 
ATOM     47  C   UNL A   1      43.748  25.823  26.832  1.00  0.00     0.074 A 
ATOM     48  C   UNL A   1      46.069  25.507  26.045  1.00  0.00     0.049 A 
ATOM     49  N   UNL A   1      43.785  27.073  27.220  1.00  0.00    -0.248 NA
ATOM     50  C   UNL A   1      42.444  25.172  27.038  1.00  0.00     0.031 C 
ATOM     51  C   UNL A   1      47.210  24.788  25.477  1.00  0.00     0.029 A 
ATOM     52  N   UNL A   1      46.572  26.745  26.352  1.00  0.00    -0.354 N 
ATOM     53  C   UNL A   1      42.512  27.362  27.697  1.00  0.00     0.074 A 
ATOM     54  C   UNL A   1      41.716  26.166  27.529  1.00  0.00     0.031 C 
ATOM     55  C   UNL A   1      48.294  25.577  25.528  1.00  0.00     0.029 A 
ATOM     56  C   UNL A   1      47.910  26.875  26.073  1.00  0.00     0.049 A 
ATOM     57  H   UNL A   1      46.028  27.469  26.736  1.00  0.00     0.167 HD
ATOM     58  C   UNL A   1      42.057  28.517  28.239  1.00  0.00     0.037 A 
ATOM     59  C   UNL A   1      48.736  27.926  26.232  1.00  0.00     0.037 A 
ATOM     60  C   UNL A   1      42.859  29.698  28.430  1.00  0.00     0.049 A 
ATOM     61  C   UNL A   1      48.193  29.207  26.798  1.00  0.00     0.074 A 
ATOM     62  C   UNL A   1      42.489  30.912  28.981  1.00  0.00     0.029 A 
ATOM     63  N   UNL A   1      44.197  29.809  28.080  1.00  0.00    -0.354 N 
ATOM     64  N   UNL A   1      46.987  29.469  27.237  1.00  0.00    -0.248 NA
ATOM     65  C   UNL A   1      49.124  30.341  26.881  1.00  0.00     0.031 C 
ATOM     66  C   UNL A   1      43.591  31.770  28.932  1.00  0.00     0.029 A 
ATOM     67  C   UNL A   1      44.661  31.077  28.390  1.00  0.00     0.049 A 
ATOM     68  H   UNL A   1      44.736  29.093  27.672  1.00  0.00     0.167 HD
ATOM     69  C   UNL A   1      47.013  30.791  27.654  1.00  0.00     0.074 A 
ATOM     70  C   UNL A   1      48.362  31.273  27.437  1.00  0.00     0.031 C 
ATOM     71  C   UNL A   1      46.006  31.540  28.167  1.00  0.00     0.037 A 
BRANCH  58  72
ATOM     72  C   UNL A   1      40.621  28.572  28.666  1.00  0.00     0.064 A 
ATOM     73  C   UNL A   1      40.233  28.260  29.977  1.00  0.00     0.173 A 
ATOM     74  C   UNL A   1      39.630  29.012  27.775  1.00  0.00     0.173 A 
ATOM     75  F   UNL A   1      41.140  27.823  30.863  1.00  0.00    -0.203 F 
ATOM     76  C   UNL A   1      38.904  28.377  30.378  1.00  0.00     0.198 A 
ATOM     77  C   UNL A   1      38.306  29.151  28.185  1.00  0.00     0.198 A 
ATOM     78  F   UNL A   1      39.950  29.329  26.511  1.00  0.00    -0.203 F 
ATOM     79  F   UNL A   1      38.551  28.048  31.628  1.00  0.00    -0.200 F 
ATOM     80  C   UNL A   1      37.943  28.831  29.485  1.00  0.00     0.200 A 
ATOM     81  F   UNL A   1      37.382  29.600  27.325  1.00  0.00    -0.200 F 
ATOM     82  F   UNL A   1      36.668  28.958  29.877  1.00  0.00    -0.200 F 
ENDBRANCH  58  72
BRANCH  59  83
ATOM     83  C   UNL A   1      50.166  27.796  25.853  1.00  0.00     0.064 A 
ATOM     84  C   UNL A   1      51.152  27.600  26.828  1.00  0.00     0.173 A 
ATOM     85  C   UNL A   1      50.569  27.828  24.511  1.00  0.00     0.173 A 
ATOM     86  F   UNL A   1      50.815  27.582  28.126  1.00  0.00    -0.203 F 
ATOM     87  C   UNL A   1      52.490  27.440  26.475  1.00  0.00     0.198 A 
ATOM     88  C   UNL A   1      51.903  27.641  24.156  1.00  0.00     0.198 A 
ATOM     89  F   UNL A   1      49.661  28.010  23.541  1.00  0.00    -0.203 F 
ATOM     90  F   UNL A   1      53.417  27.277  27.428  1.00  0.00    -0.200 F 
ATOM     91  C   UNL A   1      52.863  27.451  25.139  1.00  0.00     0.200 A 
ATOM     92  F   UNL A   1      52.257  27.638  22.864  1.00  0.00    -0.200 F 
ATOM     93  F   UNL A   1      54.148  27.281  24.799  1.00  0.00    -0.200 F 
ENDBRANCH  59  83
BRANCH  71  94
ATOM     94  C   UNL A   1      46.323  32.957  28.540  1.00  0.00     0.064 A 
ATOM     95  C   UNL A   1      46.172  34.003  27.620  1.00  0.00     0.173 A 
ATOM     96  C   UNL A   1      46.720  33.277  29.847  1.00  0.00     0.173 A 
ATOM     97  F   UNL A   1      45.809  33.744  26.355  1.00  0.00    -0.203 F 
ATOM     98  C   UNL A   1      46.422  35.321  27.991  1.00  0.00     0.198 A 
ATOM     99  C   UNL A   1      46.944  34.598  30.221  1.00  0.00     0.198 A 
ATOM    100  F   UNL A   1      46.870  32.309  30.764  1.00  0.00    -0.203 F 
ATOM    101  F   UNL A   1      46.304  36.304  27.088  1.00  0.00    -0.200 F 
ATOM    102  C   UNL A   1      46.799  35.618  29.293  1.00  0.00     0.200 A 
ATOM    103  F   UNL A   1      47.298  34.884  31.482  1.00  0.00    -0.200 F 
ATOM    104  F   UNL A   1      47.027  36.888  29.652  1.00  0.00    -0.200 F 
ENDBRANCH  71  94
ENDBRANCH  45  46
ENDBRANCH  37  40
ENDBRANCH  35  36
ENDBRANCH  34  35
ENDBRANCH  33  34
ENDBRANCH   1  33
TORSDOF 16
ENDMDL
MODEL 3
REMARK VINA RESULT:     -11.8      5.420     11.629
REMARK SMILES C[C@@H]1CCC[C@H](C)[N@H+]1Cc1cc2c(cc1Cl)C=C(C(=O)NCCCCCCNC(=O)c1ccc(-c3c4nc(c(-c5c(F)c(F)c(F)c(F)c5F)c5ccc([nH]5)c(-c5c(F)c(F)c(F)c(F)c5F)c5nc(c(-c6c(F)c(F)c(F)c(F)c6F)c6ccc3[nH]6)C=C5)C=C4)cc1)[C@@H](C(F)(F)F)O2
REMARK SMILES IDX 24 1 23 2 22 3 21 4 19 5 20 6 18 8 10 9 11 10 15 11 12 12
REMARK SMILES IDX 14 13 16 14 13 15 99 16 17 17 94 18 9 19 8 20 7 21 6 22 5 23
REMARK SMILES IDX 4 24 2 25 3 27 1 28 95 29 96 30 97 31 98 32 25 33 26 34
REMARK SMILES IDX 27 35 28 36 29 37 30 39 31 40 32 41 93 42 33 43 92 44 34 45
REMARK SMILES IDX 35 46 36 47 86 48 37 49 91 50 85 51 87 52 38 53 90 54 84 55
REMARK SMILES IDX 83 56 39 58 71 59 51 60 70 61 52 62 55 63 69 64 88 65 53 66
REMARK SMILES IDX 54 67 68 69 89 70 56 71 40 72 41 73 49 74 42 75 43 76 47 77
REMARK SMILES IDX 50 78 44 79 45 80 48 81 46 82 72 83 73 84 81 85 74 86 75 87
REMARK SMILES IDX 79 88 82 89 76 90 77 91 80 92 78 93 57 94 58 95 66 96 59 97
REMARK SMILES IDX 60 98 64 99 67 100 61 101 62 102 65 103 63 104
REMARK H PARENT 21 7 8 26 28 38 87 57 55 68
REMARK Flexibility Score: inf
ROOT
ATOM      1  C   UNL A   1      38.388  34.234  30.767  1.00  0.00     0.002 C 
ENDROOT
BRANCH   1   2
ATOM      2  C   UNL A   1      37.456  34.306  31.981  1.00  0.00     0.021 C 
BRANCH   2   3
ATOM      3  C   UNL A   1      38.160  34.642  33.293  1.00  0.00     0.116 C 
BRANCH   3   4
ATOM      4  N   UNL A   1      37.452  34.090  34.432  1.00  0.00    -0.352 N 
ATOM      5  C   UNL A   1      37.618  33.065  35.297  1.00  0.00     0.251 C 
ATOM      6  O   UNL A   1      36.772  32.998  36.196  1.00  0.00    -0.270 OA
ATOM      7  H   UNL A   1      36.632  34.597  34.628  1.00  0.00     0.163 HD
BRANCH   5   8
ATOM      8  C   UNL A   1      38.699  32.041  35.230  1.00  0.00     0.067 C 
ATOM      9  C   UNL A   1      42.753  29.257  36.387  1.00  0.00     0.029 A 
ATOM     10  C   UNL A   1      41.510  28.993  35.787  1.00  0.00     0.058 A 
ATOM     11  C   UNL A   1      43.089  30.600  36.637  1.00  0.00     0.050 A 
ATOM     12  C   UNL A   1      40.586  30.014  35.586  1.00  0.00     0.128 A 
ATOM     13  C   UNL A   1      42.144  31.619  36.464  1.00  0.00     0.033 A 
ATOM     14  Cl  UNL A   1      44.657  31.082  37.178  1.00  0.00    -0.084 Cl
ATOM     15  C   UNL A   1      40.873  31.319  35.977  1.00  0.00     0.019 A 
ATOM     16  O   UNL A   1      39.375  29.656  35.066  1.00  0.00    -0.475 OA
ATOM     17  C   UNL A   1      39.812  32.318  35.936  1.00  0.00     0.025 C 
ATOM     18  C   UNL A   1      38.621  30.748  34.467  1.00  0.00     0.314 C 
BRANCH   9  19
ATOM     19  C   UNL A   1      43.617  28.081  36.796  1.00  0.00     0.301 C 
BRANCH  19  20
ATOM     20  N   UNL A   1      44.533  27.545  35.766  1.00  0.00    -0.327 N 
ATOM     21  C   UNL A   1      46.398  28.413  34.393  1.00  0.00     0.075 C 
ATOM     22  C   UNL A   1      44.892  28.477  34.684  1.00  0.00     0.181 C 
ATOM     23  C   UNL A   1      44.085  28.303  33.384  1.00  0.00     0.065 C 
ATOM     24  C   UNL A   1      43.932  26.851  32.953  1.00  0.00     0.012 C 
ATOM     25  C   UNL A   1      44.273  26.150  35.379  1.00  0.00     0.181 C 
ATOM     26  H   UNL A   1      45.426  27.468  36.253  1.00  0.00     0.348 HD
ATOM     27  C   UNL A   1      43.421  26.002  34.109  1.00  0.00     0.065 C 
ATOM     28  C   UNL A   1      45.579  25.355  35.259  1.00  0.00     0.075 C 
ENDBRANCH  19  20
ENDBRANCH   9  19
BRANCH  18  29
ATOM     29  C   UNL A   1      39.031  30.922  32.991  1.00  0.00     0.429 C 
ATOM     30  F   UNL A   1      37.943  31.172  32.220  1.00  0.00    -0.167 F 
ATOM     31  F   UNL A   1      39.874  31.968  32.813  1.00  0.00    -0.167 F 
ATOM     32  F   UNL A   1      39.647  29.832  32.482  1.00  0.00    -0.167 F 
ENDBRANCH  18  29
ENDBRANCH   5   8
ENDBRANCH   3   4
ENDBRANCH   2   3
ENDBRANCH   1   2
BRANCH   1  33
ATOM     33  C   UNL A   1      37.918  33.327  29.624  1.00  0.00     0.002 C 
BRANCH  33  34
ATOM     34  C   UNL A   1      36.403  33.236  29.430  1.00  0.00     0.021 C 
BRANCH  34  35
ATOM     35  C   UNL A   1      35.959  32.893  28.013  1.00  0.00     0.116 C 
BRANCH  35  36
ATOM     36  N   UNL A   1      34.935  31.860  27.981  1.00  0.00    -0.352 N 
ATOM     37  C   UNL A   1      35.089  30.495  27.941  1.00  0.00     0.251 C 
ATOM     38  H   UNL A   1      34.005  32.184  27.990  1.00  0.00     0.163 HD
ATOM     39  O   UNL A   1      34.123  29.759  27.771  1.00  0.00    -0.269 OA
BRANCH  37  40
ATOM     40  C   UNL A   1      36.445  29.922  28.066  1.00  0.00     0.039 A 
ATOM     41  C   UNL A   1      36.870  29.377  29.280  1.00  0.00     0.014 A 
ATOM     42  C   UNL A   1      37.312  29.980  26.972  1.00  0.00     0.014 A 
ATOM     43  C   UNL A   1      38.209  29.043  29.448  1.00  0.00     0.010 A 
ATOM     44  C   UNL A   1      38.639  29.570  27.122  1.00  0.00     0.010 A 
ATOM     45  C   UNL A   1      39.110  29.147  28.374  1.00  0.00    -0.014 A 
BRANCH  45  46
ATOM     46  C   UNL A   1      40.544  28.828  28.592  1.00  0.00     0.031 A 
ATOM     47  C   UNL A   1      41.439  29.783  29.334  1.00  0.00     0.074 A 
ATOM     48  C   UNL A   1      41.023  27.640  28.174  1.00  0.00     0.049 A 
ATOM     49  N   UNL A   1      42.710  29.662  29.629  1.00  0.00    -0.248 NA
ATOM     50  C   UNL A   1      40.833  31.038  29.806  1.00  0.00     0.031 C 
ATOM     51  C   UNL A   1      40.245  26.626  27.463  1.00  0.00     0.029 A 
ATOM     52  N   UNL A   1      42.265  27.076  28.310  1.00  0.00    -0.354 N 
ATOM     53  C   UNL A   1      43.056  30.828  30.303  1.00  0.00     0.074 A 
ATOM     54  C   UNL A   1      41.871  31.655  30.353  1.00  0.00     0.031 C 
ATOM     55  C   UNL A   1      41.010  25.541  27.273  1.00  0.00     0.029 A 
ATOM     56  C   UNL A   1      42.348  25.807  27.793  1.00  0.00     0.049 A 
ATOM     57  H   UNL A   1      43.023  27.535  28.736  1.00  0.00     0.167 HD
ATOM     58  C   UNL A   1      44.252  31.166  30.841  1.00  0.00     0.037 A 
ATOM     59  C   UNL A   1      43.387  24.953  27.738  1.00  0.00     0.037 A 
ATOM     60  C   UNL A   1      45.423  30.330  30.813  1.00  0.00     0.049 A 
ATOM     61  C   UNL A   1      44.712  25.372  28.307  1.00  0.00     0.074 A 
ATOM     62  C   UNL A   1      46.677  30.582  31.342  1.00  0.00     0.029 A 
ATOM     63  N   UNL A   1      45.483  29.073  30.228  1.00  0.00    -0.354 N 
ATOM     64  N   UNL A   1      45.028  26.480  28.933  1.00  0.00    -0.248 NA
ATOM     65  C   UNL A   1      45.828  24.428  28.154  1.00  0.00     0.031 C 
ATOM     66  C   UNL A   1      47.504  29.496  31.046  1.00  0.00     0.029 A 
ATOM     67  C   UNL A   1      46.756  28.546  30.371  1.00  0.00     0.049 A 
ATOM     68  H   UNL A   1      44.731  28.623  29.779  1.00  0.00     0.167 HD
ATOM     69  C   UNL A   1      46.372  26.364  29.254  1.00  0.00     0.074 A 
ATOM     70  C   UNL A   1      46.808  25.069  28.774  1.00  0.00     0.031 C 
ATOM     71  C   UNL A   1      47.173  27.256  29.886  1.00  0.00     0.037 A 
BRANCH  58  72
ATOM     72  C   UNL A   1      44.366  32.505  31.509  1.00  0.00     0.064 A 
ATOM     73  C   UNL A   1      44.696  33.660  30.786  1.00  0.00     0.173 A 
ATOM     74  C   UNL A   1      44.071  32.645  32.874  1.00  0.00     0.173 A 
ATOM     75  F   UNL A   1      44.999  33.577  29.483  1.00  0.00    -0.203 F 
ATOM     76  C   UNL A   1      44.737  34.906  31.408  1.00  0.00     0.198 A 
ATOM     77  C   UNL A   1      44.088  33.895  33.487  1.00  0.00     0.198 A 
ATOM     78  F   UNL A   1      43.744  31.571  33.609  1.00  0.00    -0.203 F 
ATOM     79  F   UNL A   1      45.080  35.993  30.704  1.00  0.00    -0.200 F 
ATOM     80  C   UNL A   1      44.423  35.024  32.754  1.00  0.00     0.200 A 
ATOM     81  F   UNL A   1      43.776  34.009  34.785  1.00  0.00    -0.200 F 
ATOM     82  F   UNL A   1      44.447  36.226  33.347  1.00  0.00    -0.200 F 
ENDBRANCH  58  72
BRANCH  59  83
ATOM     83  C   UNL A   1      43.201  23.614  27.123  1.00  0.00     0.064 A 
ATOM     84  C   UNL A   1      43.705  23.334  25.847  1.00  0.00     0.173 A 
ATOM     85  C   UNL A   1      42.551  22.581  27.812  1.00  0.00     0.173 A 
ATOM     86  F   UNL A   1      44.316  24.297  25.142  1.00  0.00    -0.203 F 
ATOM     87  C   UNL A   1      43.565  22.068  25.282  1.00  0.00     0.198 A 
ATOM     88  C   UNL A   1      42.435  21.308  27.258  1.00  0.00     0.198 A 
ATOM     89  F   UNL A   1      42.054  22.800  29.039  1.00  0.00    -0.203 F 
ATOM     90  F   UNL A   1      44.034  21.832  24.049  1.00  0.00    -0.200 F 
ATOM     91  C   UNL A   1      42.939  21.055  25.991  1.00  0.00     0.200 A 
ATOM     92  F   UNL A   1      41.843  20.328  27.953  1.00  0.00    -0.200 F 
ATOM     93  F   UNL A   1      42.820  19.833  25.454  1.00  0.00    -0.200 F 
ENDBRANCH  59  83
BRANCH  71  94
ATOM     94  C   UNL A   1      48.602  26.861  30.107  1.00  0.00     0.064 A 
ATOM     95  C   UNL A   1      49.609  27.234  29.205  1.00  0.00     0.173 A 
ATOM     96  C   UNL A   1      48.976  26.159  31.263  1.00  0.00     0.173 A 
ATOM     97  F   UNL A   1      49.297  27.893  28.080  1.00  0.00    -0.203 F 
ATOM     98  C   UNL A   1      50.939  26.904  29.445  1.00  0.00     0.198 A 
ATOM     99  C   UNL A   1      50.311  25.854  31.512  1.00  0.00     0.198 A 
ATOM    100  F   UNL A   1      48.049  25.788  32.158  1.00  0.00    -0.203 F 
ATOM    101  F   UNL A   1      51.882  27.241  28.555  1.00  0.00    -0.200 F 
ATOM    102  C   UNL A   1      51.290  26.223  30.602  1.00  0.00     0.200 A 
ATOM    103  F   UNL A   1      50.650  25.205  32.635  1.00  0.00    -0.200 F 
ATOM    104  F   UNL A   1      52.573  25.917  30.837  1.00  0.00    -0.200 F 
ENDBRANCH  71  94
ENDBRANCH  45  46
ENDBRANCH  37  40
ENDBRANCH  35  36
ENDBRANCH  34  35
ENDBRANCH  33  34
ENDBRANCH   1  33
TORSDOF 16
ENDMDL
