MODEL 1
REMARK VINA RESULT:     -10.6      0.000      0.000
REMARK SMILES CC(C)[C@H](NC(=O)OCc1ccccc1)C(=O)NCC(=O)NCCCCCCNC(=O)c1ccc(-c2c3nc(c(-c4c(F)c(F)c(F)c(F)c4F)c4ccc([nH]4)c(-c4c(F)c(F)c(F)c(F)c4F)c4nc(c(-c5c(F)c(F)c(F)c(F)c5F)c5ccc2[nH]5)C=C4)C=C3)cc1
REMARK SMILES IDX 23 1 22 2 20 3 21 4 19 6 18 7 16 8 17 9 4 11 2 12 1 13 3 14
REMARK SMILES IDX 5 15 6 16 7 18 8 19 9 20 10 21 11 22 15 23 12 24 14 25 13 26
REMARK SMILES IDX 24 27 25 28 26 29 27 30 28 31 29 32 30 33 31 35 32 36 33 37
REMARK SMILES IDX 94 38 34 39 93 40 35 41 36 42 37 43 87 44 38 45 92 46 86 47
REMARK SMILES IDX 88 48 39 49 91 50 85 51 84 52 40 54 72 55 52 56 71 57 53 58
REMARK SMILES IDX 56 59 70 60 89 61 54 62 55 63 69 65 90 66 57 67 41 68 42 69
REMARK SMILES IDX 50 70 43 71 44 72 48 73 51 74 45 75 46 76 49 77 47 78 73 79
REMARK SMILES IDX 74 80 82 81 75 82 76 83 80 84 83 85 77 86 78 87 81 88 79 89
REMARK SMILES IDX 58 90 59 91 67 92 60 93 61 94 65 95 68 96 62 97 63 98 66 99
REMARK SMILES IDX 64 100
REMARK H PARENT 22 5 18 10 5 17 29 34 88 53 56 64
REMARK Flexibility Score: inf
ROOT
ATOM      1  C   UNL A   1      34.021  30.789  27.789  1.00  0.00     0.116 C 
ENDROOT
BRANCH   1   2
ATOM      2  N   UNL A   1      33.835  30.378  26.416  1.00  0.00    -0.355 N 
ATOM      3  C   UNL A   1      33.128  29.352  25.874  1.00  0.00     0.239 C 
ATOM      4  O   UNL A   1      33.106  29.273  24.642  1.00  0.00    -0.273 OA
ATOM      5  H   UNL A   1      34.304  30.939  25.757  1.00  0.00     0.163 HD
BRANCH   3   6
ATOM      6  C   UNL A   1      32.205  28.464  26.716  1.00  0.00     0.216 C 
BRANCH   6   7
ATOM      7  N   UNL A   1      31.060  27.851  26.065  1.00  0.00    -0.345 N 
ATOM      8  C   UNL A   1      30.918  26.735  25.298  1.00  0.00     0.243 C 
ATOM      9  O   UNL A   1      29.755  26.405  25.033  1.00  0.00    -0.273 OA
ATOM     10  H   UNL A   1      30.217  28.341  26.207  1.00  0.00     0.164 HD
BRANCH   8  11
ATOM     11  C   UNL A   1      32.099  25.828  24.853  1.00  0.00     0.177 C 
BRANCH  11  12
ATOM     12  C   UNL A   1      33.014  25.362  26.013  1.00  0.00     0.015 C 
ATOM     13  C   UNL A   1      32.681  23.985  26.590  1.00  0.00     0.010 C 
ATOM     14  C   UNL A   1      34.486  25.396  25.596  1.00  0.00     0.010 C 
ENDBRANCH  11  12
BRANCH  11  15
ATOM     15  N   UNL A   1      32.892  26.341  23.733  1.00  0.00    -0.309 N 
ATOM     16  C   UNL A   1      33.123  25.718  22.541  1.00  0.00     0.408 C 
ATOM     17  H   UNL A   1      33.301  27.228  23.854  1.00  0.00     0.167 HD
ATOM     18  O   UNL A   1      33.865  26.224  21.715  1.00  0.00    -0.225 OA
BRANCH  16  19
ATOM     19  O   UNL A   1      32.449  24.553  22.391  1.00  0.00    -0.445 OA
BRANCH  19  20
ATOM     20  C   UNL A   1      33.223  23.446  21.894  1.00  0.00     0.270 C 
BRANCH  20  21
ATOM     21  C   UNL A   1      34.017  22.707  22.952  1.00  0.00    -0.011 A 
ATOM     22  C   UNL A   1      35.374  22.964  23.191  1.00  0.00     0.007 A 
ATOM     23  C   UNL A   1      33.356  21.796  23.792  1.00  0.00     0.007 A 
ATOM     24  C   UNL A   1      36.053  22.316  24.227  1.00  0.00     0.000 A 
ATOM     25  C   UNL A   1      34.035  21.148  24.828  1.00  0.00     0.000 A 
ATOM     26  C   UNL A   1      35.386  21.408  25.044  1.00  0.00     0.000 A 
ENDBRANCH  20  21
ENDBRANCH  19  20
ENDBRANCH  16  19
ENDBRANCH  11  15
ENDBRANCH   8  11
ENDBRANCH   6   7
ENDBRANCH   3   6
ENDBRANCH   1   2
BRANCH   1  27
ATOM     27  C   UNL A   1      35.315  31.570  27.967  1.00  0.00     0.021 C 
BRANCH  27  28
ATOM     28  C   UNL A   1      35.109  33.084  28.013  1.00  0.00     0.002 C 
BRANCH  28  29
ATOM     29  C   UNL A   1      34.320  33.580  29.231  1.00  0.00     0.002 C 
BRANCH  29  30
ATOM     30  C   UNL A   1      33.189  34.559  28.907  1.00  0.00     0.021 C 
BRANCH  30  31
ATOM     31  C   UNL A   1      33.352  35.943  29.525  1.00  0.00     0.116 C 
BRANCH  31  32
ATOM     32  N   UNL A   1      32.465  36.133  30.659  1.00  0.00    -0.352 N 
ATOM     33  C   UNL A   1      32.546  35.641  31.931  1.00  0.00     0.251 C 
ATOM     34  H   UNL A   1      31.684  36.706  30.484  1.00  0.00     0.163 HD
ATOM     35  O   UNL A   1      31.581  35.739  32.684  1.00  0.00    -0.269 OA
BRANCH  33  36
ATOM     36  C   UNL A   1      33.782  34.985  32.402  1.00  0.00     0.039 A 
ATOM     37  C   UNL A   1      33.682  33.697  32.933  1.00  0.00     0.014 A 
ATOM     38  C   UNL A   1      35.019  35.635  32.368  1.00  0.00     0.014 A 
ATOM     39  C   UNL A   1      34.824  33.055  33.404  1.00  0.00     0.010 A 
ATOM     40  C   UNL A   1      36.173  34.960  32.756  1.00  0.00     0.010 A 
ATOM     41  C   UNL A   1      36.084  33.669  33.296  1.00  0.00    -0.014 A 
BRANCH  41  42
ATOM     42  C   UNL A   1      37.298  32.944  33.740  1.00  0.00     0.031 A 
ATOM     43  C   UNL A   1      37.969  31.937  32.850  1.00  0.00     0.074 A 
ATOM     44  C   UNL A   1      37.792  33.195  34.966  1.00  0.00     0.049 A 
ATOM     45  N   UNL A   1      39.086  31.280  33.042  1.00  0.00    -0.248 NA
ATOM     46  C   UNL A   1      37.284  31.598  31.594  1.00  0.00     0.031 C 
ATOM     47  C   UNL A   1      37.180  34.091  35.950  1.00  0.00     0.029 A 
ATOM     48  N   UNL A   1      38.922  32.733  35.590  1.00  0.00    -0.354 N 
ATOM     49  C   UNL A   1      39.233  30.451  31.938  1.00  0.00     0.074 A 
ATOM     50  C   UNL A   1      38.060  30.639  31.112  1.00  0.00     0.031 C 
ATOM     51  C   UNL A   1      37.964  34.147  37.037  1.00  0.00     0.029 A 
ATOM     52  C   UNL A   1      39.112  33.268  36.840  1.00  0.00     0.049 A 
ATOM     53  H   UNL A   1      39.536  32.082  35.183  1.00  0.00     0.167 HD
ATOM     54  C   UNL A   1      40.263  29.625  31.631  1.00  0.00     0.037 A 
ATOM     55  C   UNL A   1      40.106  33.076  37.728  1.00  0.00     0.037 A 
ATOM     56  C   UNL A   1      41.429  29.449  32.462  1.00  0.00     0.049 A 
ATOM     57  C   UNL A   1      41.255  32.184  37.355  1.00  0.00     0.074 A 
ATOM     58  C   UNL A   1      42.563  28.698  32.210  1.00  0.00     0.029 A 
ATOM     59  N   UNL A   1      41.598  30.018  33.717  1.00  0.00    -0.354 N 
ATOM     60  N   UNL A   1      41.439  31.485  36.260  1.00  0.00    -0.248 NA
ATOM     61  C   UNL A   1      42.345  32.070  38.331  1.00  0.00     0.031 C 
ATOM     62  C   UNL A   1      43.385  28.754  33.342  1.00  0.00     0.029 A 
ATOM     63  C   UNL A   1      42.802  29.606  34.268  1.00  0.00     0.049 A 
ATOM     64  H   UNL A   1      40.958  30.627  34.152  1.00  0.00     0.167 HD
ATOM     65  C   UNL A   1      42.673  30.866  36.404  1.00  0.00     0.074 A 
ATOM     66  C   UNL A   1      43.202  31.293  37.684  1.00  0.00     0.031 C 
ATOM     67  C   UNL A   1      43.311  30.022  35.553  1.00  0.00     0.037 A 
BRANCH  54  68
ATOM     68  C   UNL A   1      40.162  28.835  30.354  1.00  0.00     0.064 A 
ATOM     69  C   UNL A   1      39.511  27.591  30.295  1.00  0.00     0.173 A 
ATOM     70  C   UNL A   1      40.719  29.333  29.166  1.00  0.00     0.173 A 
ATOM     71  F   UNL A   1      38.965  27.061  31.401  1.00  0.00    -0.203 F 
ATOM     72  C   UNL A   1      39.467  26.858  29.112  1.00  0.00     0.198 A 
ATOM     73  C   UNL A   1      40.639  28.615  27.976  1.00  0.00     0.198 A 
ATOM     74  F   UNL A   1      41.345  30.519  29.158  1.00  0.00    -0.203 F 
ATOM     75  F   UNL A   1      38.904  25.641  29.101  1.00  0.00    -0.200 F 
ATOM     76  C   UNL A   1      40.025  27.372  27.953  1.00  0.00     0.200 A 
ATOM     77  F   UNL A   1      41.163  29.122  26.851  1.00  0.00    -0.200 F 
ATOM     78  F   UNL A   1      39.982  26.664  26.815  1.00  0.00    -0.200 F 
ENDBRANCH  54  68
BRANCH  55  79
ATOM     79  C   UNL A   1      40.055  33.777  39.036  1.00  0.00     0.064 A 
ATOM     80  C   UNL A   1      40.719  34.996  39.236  1.00  0.00     0.173 A 
ATOM     81  C   UNL A   1      39.300  33.264  40.102  1.00  0.00     0.173 A 
ATOM     82  F   UNL A   1      41.464  35.523  38.252  1.00  0.00    -0.203 F 
ATOM     83  C   UNL A   1      40.638  35.667  40.454  1.00  0.00     0.198 A 
ATOM     84  C   UNL A   1      39.194  33.952  41.307  1.00  0.00     0.198 A 
ATOM     85  F   UNL A   1      38.635  32.108  39.957  1.00  0.00    -0.203 F 
ATOM     86  F   UNL A   1      41.309  36.814  40.630  1.00  0.00    -0.200 F 
ATOM     87  C   UNL A   1      39.869  35.150  41.485  1.00  0.00     0.200 A 
ATOM     88  F   UNL A   1      38.429  33.460  42.291  1.00  0.00    -0.200 F 
ATOM     89  F   UNL A   1      39.775  35.805  42.650  1.00  0.00    -0.200 F 
ENDBRANCH  55  79
BRANCH  67  90
ATOM     90  C   UNL A   1      44.668  29.528  35.971  1.00  0.00     0.064 A 
ATOM     91  C   UNL A   1      44.836  28.335  36.691  1.00  0.00     0.173 A 
ATOM     92  C   UNL A   1      45.821  30.258  35.641  1.00  0.00     0.173 A 
ATOM     93  F   UNL A   1      43.768  27.602  37.043  1.00  0.00    -0.203 F 
ATOM     94  C   UNL A   1      46.098  27.918  37.107  1.00  0.00     0.198 A 
ATOM     95  C   UNL A   1      47.085  29.817  36.023  1.00  0.00     0.198 A 
ATOM     96  F   UNL A   1      45.723  31.401  34.945  1.00  0.00    -0.203 F 
ATOM     97  F   UNL A   1      46.224  26.815  37.856  1.00  0.00    -0.200 F 
ATOM     98  C   UNL A   1      47.222  28.656  36.768  1.00  0.00     0.200 A 
ATOM     99  F   UNL A   1      48.172  30.523  35.678  1.00  0.00    -0.200 F 
ATOM    100  F   UNL A   1      48.435  28.256  37.170  1.00  0.00    -0.200 F 
ENDBRANCH  67  90
ENDBRANCH  41  42
ENDBRANCH  33  36
ENDBRANCH  31  32
ENDBRANCH  30  31
ENDBRANCH  29  30
ENDBRANCH  28  29
ENDBRANCH  27  28
ENDBRANCH   1  27
TORSDOF 20
ENDMDL
MODEL 2
REMARK VINA RESULT:     -10.6      0.952      7.378
REMARK SMILES CC(C)[C@H](NC(=O)OCc1ccccc1)C(=O)NCC(=O)NCCCCCCNC(=O)c1ccc(-c2c3nc(c(-c4c(F)c(F)c(F)c(F)c4F)c4ccc([nH]4)c(-c4c(F)c(F)c(F)c(F)c4F)c4nc(c(-c5c(F)c(F)c(F)c(F)c5F)c5ccc2[nH]5)C=C4)C=C3)cc1
REMARK SMILES IDX 23 1 22 2 20 3 21 4 19 6 18 7 16 8 17 9 4 11 2 12 1 13 3 14
REMARK SMILES IDX 5 15 6 16 7 18 8 19 9 20 10 21 11 22 15 23 12 24 14 25 13 26
REMARK SMILES IDX 24 27 25 28 26 29 27 30 28 31 29 32 30 33 31 35 32 36 33 37
REMARK SMILES IDX 94 38 34 39 93 40 35 41 36 42 37 43 87 44 38 45 92 46 86 47
REMARK SMILES IDX 88 48 39 49 91 50 85 51 84 52 40 54 72 55 52 56 71 57 53 58
REMARK SMILES IDX 56 59 70 60 89 61 54 62 55 63 69 65 90 66 57 67 41 68 42 69
REMARK SMILES IDX 50 70 43 71 44 72 48 73 51 74 45 75 46 76 49 77 47 78 73 79
REMARK SMILES IDX 74 80 82 81 75 82 76 83 80 84 83 85 77 86 78 87 81 88 79 89
REMARK SMILES IDX 58 90 59 91 67 92 60 93 61 94 65 95 68 96 62 97 63 98 66 99
REMARK SMILES IDX 64 100
REMARK H PARENT 22 5 18 10 5 17 29 34 88 53 56 64
REMARK Flexibility Score: inf
ROOT
ATOM      1  C   UNL A   1      34.271  30.802  27.810  1.00  0.00     0.116 C 
ENDROOT
BRANCH   1   2
ATOM      2  N   UNL A   1      34.007  30.398  26.447  1.00  0.00    -0.355 N 
ATOM      3  C   UNL A   1      33.367  29.312  25.942  1.00  0.00     0.239 C 
ATOM      4  O   UNL A   1      33.242  29.253  24.715  1.00  0.00    -0.273 OA
ATOM      5  H   UNL A   1      34.352  31.019  25.766  1.00  0.00     0.163 HD
BRANCH   3   6
ATOM      6  C   UNL A   1      32.622  28.314  26.837  1.00  0.00     0.216 C 
BRANCH   6   7
ATOM      7  N   UNL A   1      31.412  27.698  26.320  1.00  0.00    -0.345 N 
ATOM      8  C   UNL A   1      31.185  26.572  25.589  1.00  0.00     0.243 C 
ATOM      9  O   UNL A   1      29.999  26.245  25.453  1.00  0.00    -0.273 OA
ATOM     10  H   UNL A   1      30.591  28.194  26.544  1.00  0.00     0.164 HD
BRANCH   8  11
ATOM     11  C   UNL A   1      32.309  25.653  25.034  1.00  0.00     0.177 C 
BRANCH  11  12
ATOM     12  C   UNL A   1      33.211  25.023  26.125  1.00  0.00     0.015 C 
ATOM     13  C   UNL A   1      32.775  23.639  26.608  1.00  0.00     0.010 C 
ATOM     14  C   UNL A   1      34.668  24.965  25.663  1.00  0.00     0.010 C 
ENDBRANCH  11  12
BRANCH  11  15
ATOM     15  N   UNL A   1      33.115  26.233  23.958  1.00  0.00    -0.309 N 
ATOM     16  C   UNL A   1      33.266  25.743  22.693  1.00  0.00     0.408 C 
ATOM     17  H   UNL A   1      33.599  27.063  24.169  1.00  0.00     0.167 HD
ATOM     18  O   UNL A   1      34.028  26.285  21.908  1.00  0.00    -0.225 OA
BRANCH  16  19
ATOM     19  O   UNL A   1      32.494  24.662  22.427  1.00  0.00    -0.445 OA
BRANCH  19  20
ATOM     20  C   UNL A   1      33.201  23.479  22.015  1.00  0.00     0.270 C 
BRANCH  20  21
ATOM     21  C   UNL A   1      33.362  22.431  23.097  1.00  0.00    -0.011 A 
ATOM     22  C   UNL A   1      32.320  21.574  23.476  1.00  0.00     0.007 A 
ATOM     23  C   UNL A   1      34.625  22.238  23.680  1.00  0.00     0.007 A 
ATOM     24  C   UNL A   1      32.530  20.568  24.424  1.00  0.00     0.000 A 
ATOM     25  C   UNL A   1      34.835  21.233  24.628  1.00  0.00     0.000 A 
ATOM     26  C   UNL A   1      33.785  20.398  25.001  1.00  0.00     0.000 A 
ENDBRANCH  20  21
ENDBRANCH  19  20
ENDBRANCH  16  19
ENDBRANCH  11  15
ENDBRANCH   8  11
ENDBRANCH   6   7
ENDBRANCH   3   6
ENDBRANCH   1   2
BRANCH   1  27
ATOM     27  C   UNL A   1      35.485  31.716  27.895  1.00  0.00     0.021 C 
BRANCH  27  28
ATOM     28  C   UNL A   1      35.130  33.166  28.227  1.00  0.00     0.002 C 
BRANCH  28  29
ATOM     29  C   UNL A   1      33.720  33.360  28.796  1.00  0.00     0.002 C 
BRANCH  29  30
ATOM     30  C   UNL A   1      33.050  34.682  28.414  1.00  0.00     0.021 C 
BRANCH  30  31
ATOM     31  C   UNL A   1      33.456  35.871  29.276  1.00  0.00     0.116 C 
BRANCH  31  32
ATOM     32  N   UNL A   1      32.638  35.973  30.472  1.00  0.00    -0.352 N 
ATOM     33  C   UNL A   1      32.779  35.368  31.689  1.00  0.00     0.251 C 
ATOM     34  H   UNL A   1      31.861  36.571  30.393  1.00  0.00     0.163 HD
ATOM     35  O   UNL A   1      31.860  35.412  32.501  1.00  0.00    -0.269 OA
BRANCH  33  36
ATOM     36  C   UNL A   1      34.026  34.653  32.028  1.00  0.00     0.039 A 
ATOM     37  C   UNL A   1      35.237  35.330  31.871  1.00  0.00     0.014 A 
ATOM     38  C   UNL A   1      34.017  33.321  32.453  1.00  0.00     0.014 A 
ATOM     39  C   UNL A   1      36.433  34.681  32.164  1.00  0.00     0.010 A 
ATOM     40  C   UNL A   1      35.206  32.702  32.831  1.00  0.00     0.010 A 
ATOM     41  C   UNL A   1      36.428  33.370  32.671  1.00  0.00    -0.014 A 
BRANCH  41  42
ATOM     42  C   UNL A   1      37.707  32.717  33.042  1.00  0.00     0.031 A 
ATOM     43  C   UNL A   1      38.403  33.052  34.329  1.00  0.00     0.074 A 
ATOM     44  C   UNL A   1      38.245  31.819  32.196  1.00  0.00     0.049 A 
ATOM     45  N   UNL A   1      39.477  32.513  34.851  1.00  0.00    -0.248 NA
ATOM     46  C   UNL A   1      37.842  34.155  35.123  1.00  0.00     0.031 C 
ATOM     47  C   UNL A   1      37.703  31.474  30.881  1.00  0.00     0.029 A 
ATOM     48  N   UNL A   1      39.357  31.026  32.320  1.00  0.00    -0.354 N 
ATOM     49  C   UNL A   1      39.720  33.212  36.026  1.00  0.00     0.074 A 
ATOM     50  C   UNL A   1      38.721  34.256  36.107  1.00  0.00     0.031 C 
ATOM     51  C   UNL A   1      38.458  30.508  30.337  1.00  0.00     0.029 A 
ATOM     52  C   UNL A   1      39.553  30.191  31.248  1.00  0.00     0.049 A 
ATOM     53  H   UNL A   1      39.956  31.052  33.099  1.00  0.00     0.167 HD
ATOM     54  C   UNL A   1      40.676  32.989  36.961  1.00  0.00     0.037 A 
ATOM     55  C   UNL A   1      40.507  29.268  31.026  1.00  0.00     0.037 A 
ATOM     56  C   UNL A   1      41.664  31.943  36.869  1.00  0.00     0.049 A 
ATOM     57  C   UNL A   1      41.537  29.012  32.089  1.00  0.00     0.074 A 
ATOM     58  C   UNL A   1      42.627  31.581  37.793  1.00  0.00     0.029 A 
ATOM     59  N   UNL A   1      41.826  31.103  35.775  1.00  0.00    -0.354 N 
ATOM     60  N   UNL A   1      41.695  29.606  33.248  1.00  0.00    -0.248 NA
ATOM     61  C   UNL A   1      42.506  27.943  31.824  1.00  0.00     0.031 C 
ATOM     62  C   UNL A   1      43.418  30.572  37.230  1.00  0.00     0.029 A 
ATOM     63  C   UNL A   1      42.898  30.248  35.987  1.00  0.00     0.049 A 
ATOM     64  H   UNL A   1      41.263  31.112  34.968  1.00  0.00     0.167 HD
ATOM     65  C   UNL A   1      42.767  28.971  33.861  1.00  0.00     0.074 A 
ATOM     66  C   UNL A   1      43.204  27.930  32.952  1.00  0.00     0.031 C 
ATOM     67  C   UNL A   1      43.336  29.226  35.066  1.00  0.00     0.037 A 
BRANCH  54  68
ATOM     68  C   UNL A   1      40.709  33.909  38.151  1.00  0.00     0.064 A 
ATOM     69  C   UNL A   1      41.533  35.047  38.193  1.00  0.00     0.173 A 
ATOM     70  C   UNL A   1      39.897  33.654  39.268  1.00  0.00     0.173 A 
ATOM     71  F   UNL A   1      42.336  35.338  37.159  1.00  0.00    -0.203 F 
ATOM     72  C   UNL A   1      41.579  35.860  39.323  1.00  0.00     0.198 A 
ATOM     73  C   UNL A   1      39.916  34.492  40.380  1.00  0.00     0.198 A 
ATOM     74  F   UNL A   1      39.083  32.588  39.283  1.00  0.00    -0.203 F 
ATOM     75  F   UNL A   1      42.428  36.897  39.366  1.00  0.00    -0.200 F 
ATOM     76  C   UNL A   1      40.767  35.586  40.412  1.00  0.00     0.200 A 
ATOM     77  F   UNL A   1      39.118  34.235  41.425  1.00  0.00    -0.200 F 
ATOM     78  F   UNL A   1      40.813  36.370  41.499  1.00  0.00    -0.200 F 
ENDBRANCH  54  68
BRANCH  55  79
ATOM     79  C   UNL A   1      40.495  28.504  29.752  1.00  0.00     0.064 A 
ATOM     80  C   UNL A   1      39.695  27.364  29.593  1.00  0.00     0.173 A 
ATOM     81  C   UNL A   1      41.251  28.929  28.648  1.00  0.00     0.173 A 
ATOM     82  F   UNL A   1      38.964  26.910  30.622  1.00  0.00    -0.203 F 
ATOM     83  C   UNL A   1      39.661  26.673  28.384  1.00  0.00     0.198 A 
ATOM     84  C   UNL A   1      41.190  28.257  27.431  1.00  0.00     0.198 A 
ATOM     85  F   UNL A   1      42.021  30.023  28.745  1.00  0.00    -0.203 F 
ATOM     86  F   UNL A   1      38.913  25.566  28.268  1.00  0.00    -0.200 F 
ATOM     87  C   UNL A   1      40.400  27.124  27.301  1.00  0.00     0.200 A 
ATOM     88  F   UNL A   1      41.887  28.712  26.382  1.00  0.00    -0.200 F 
ATOM     89  F   UNL A   1      40.352  26.471  26.133  1.00  0.00    -0.200 F 
ENDBRANCH  55  79
BRANCH  67  90
ATOM     90  C   UNL A   1      44.479  28.342  35.482  1.00  0.00     0.064 A 
ATOM     91  C   UNL A   1      45.813  28.663  35.187  1.00  0.00     0.173 A 
ATOM     92  C   UNL A   1      44.235  27.156  36.191  1.00  0.00     0.173 A 
ATOM     93  F   UNL A   1      46.104  29.779  34.501  1.00  0.00    -0.203 F 
ATOM     94  C   UNL A   1      46.853  27.807  35.543  1.00  0.00     0.198 A 
ATOM     95  C   UNL A   1      45.280  26.323  36.582  1.00  0.00     0.198 A 
ATOM     96  F   UNL A   1      42.980  26.803  36.511  1.00  0.00    -0.203 F 
ATOM     97  F   UNL A   1      48.111  28.100  35.185  1.00  0.00    -0.200 F 
ATOM     98  C   UNL A   1      46.587  26.642  36.245  1.00  0.00     0.200 A 
ATOM     99  F   UNL A   1      45.022  25.205  37.276  1.00  0.00    -0.200 F 
ATOM    100  F   UNL A   1      47.587  25.819  36.584  1.00  0.00    -0.200 F 
ENDBRANCH  67  90
ENDBRANCH  41  42
ENDBRANCH  33  36
ENDBRANCH  31  32
ENDBRANCH  30  31
ENDBRANCH  29  30
ENDBRANCH  28  29
ENDBRANCH  27  28
ENDBRANCH   1  27
TORSDOF 20
ENDMDL
MODEL 3
REMARK VINA RESULT:     -10.5      5.211      9.619
REMARK SMILES CC(C)[C@H](NC(=O)OCc1ccccc1)C(=O)NCC(=O)NCCCCCCNC(=O)c1ccc(-c2c3nc(c(-c4c(F)c(F)c(F)c(F)c4F)c4ccc([nH]4)c(-c4c(F)c(F)c(F)c(F)c4F)c4nc(c(-c5c(F)c(F)c(F)c(F)c5F)c5ccc2[nH]5)C=C4)C=C3)cc1
REMARK SMILES IDX 23 1 22 2 20 3 21 4 19 6 18 7 16 8 17 9 4 11 2 12 1 13 3 14
REMARK SMILES IDX 5 15 6 16 7 18 8 19 9 20 10 21 11 22 15 23 12 24 14 25 13 26
REMARK SMILES IDX 24 27 25 28 26 29 27 30 28 31 29 32 30 33 31 35 32 36 33 37
REMARK SMILES IDX 94 38 34 39 93 40 35 41 36 42 37 43 87 44 38 45 92 46 86 47
REMARK SMILES IDX 88 48 39 49 91 50 85 51 84 52 40 54 72 55 52 56 71 57 53 58
REMARK SMILES IDX 56 59 70 60 89 61 54 62 55 63 69 65 90 66 57 67 41 68 42 69
REMARK SMILES IDX 50 70 43 71 44 72 48 73 51 74 45 75 46 76 49 77 47 78 73 79
REMARK SMILES IDX 74 80 82 81 75 82 76 83 80 84 83 85 77 86 78 87 81 88 79 89
REMARK SMILES IDX 58 90 59 91 67 92 60 93 61 94 65 95 68 96 62 97 63 98 66 99
REMARK SMILES IDX 64 100
REMARK H PARENT 22 5 18 10 5 17 29 34 88 53 56 64
REMARK Flexibility Score: inf
ROOT
ATOM      1  C   UNL A   1      31.905  23.193  23.285  1.00  0.00     0.116 C 
ENDROOT
BRANCH   1   2
ATOM      2  N   UNL A   1      32.188  23.869  22.038  1.00  0.00    -0.355 N 
ATOM      3  C   UNL A   1      32.859  25.020  21.774  1.00  0.00     0.239 C 
ATOM      4  O   UNL A   1      32.993  25.334  20.588  1.00  0.00    -0.273 OA
ATOM      5  H   UNL A   1      31.831  23.416  21.241  1.00  0.00     0.163 HD
BRANCH   3   6
ATOM      6  C   UNL A   1      33.623  25.786  22.861  1.00  0.00     0.216 C 
BRANCH   6   7
ATOM      7  N   UNL A   1      33.649  27.237  22.789  1.00  0.00    -0.345 N 
ATOM      8  C   UNL A   1      33.041  28.212  23.520  1.00  0.00     0.243 C 
ATOM      9  O   UNL A   1      33.413  29.370  23.292  1.00  0.00    -0.273 OA
ATOM     10  H   UNL A   1      34.222  27.586  22.068  1.00  0.00     0.164 HD
BRANCH   8  11
ATOM     11  C   UNL A   1      32.024  27.937  24.663  1.00  0.00     0.177 C 
BRANCH  11  12
ATOM     12  C   UNL A   1      32.659  27.860  26.074  1.00  0.00     0.015 C 
ATOM     13  C   UNL A   1      31.715  28.195  27.230  1.00  0.00     0.010 C 
ATOM     14  C   UNL A   1      33.291  26.487  26.315  1.00  0.00     0.010 C 
ENDBRANCH  11  12
BRANCH  11  15
ATOM     15  N   UNL A   1      31.118  26.810  24.434  1.00  0.00    -0.309 N 
ATOM     16  C   UNL A   1      30.047  26.780  23.588  1.00  0.00     0.408 C 
ATOM     17  H   UNL A   1      31.300  25.988  24.943  1.00  0.00     0.167 HD
ATOM     18  O   UNL A   1      29.325  25.796  23.542  1.00  0.00    -0.225 OA
BRANCH  16  19
ATOM     19  O   UNL A   1      29.909  27.898  22.837  1.00  0.00    -0.445 OA
BRANCH  19  20
ATOM     20  C   UNL A   1      28.597  28.487  22.833  1.00  0.00     0.270 C 
BRANCH  20  21
ATOM     21  C   UNL A   1      28.570  29.965  22.502  1.00  0.00    -0.011 A 
ATOM     22  C   UNL A   1      28.175  30.449  21.247  1.00  0.00     0.007 A 
ATOM     23  C   UNL A   1      28.857  30.898  23.512  1.00  0.00     0.007 A 
ATOM     24  C   UNL A   1      28.089  31.823  21.004  1.00  0.00     0.000 A 
ATOM     25  C   UNL A   1      28.772  32.272  23.269  1.00  0.00     0.000 A 
ATOM     26  C   UNL A   1      28.388  32.734  22.013  1.00  0.00     0.000 A 
ENDBRANCH  20  21
ENDBRANCH  19  20
ENDBRANCH  16  19
ENDBRANCH  11  15
ENDBRANCH   8  11
ENDBRANCH   6   7
ENDBRANCH   3   6
ENDBRANCH   1   2
BRANCH   1  27
ATOM     27  C   UNL A   1      32.158  21.696  23.177  1.00  0.00     0.021 C 
BRANCH  27  28
ATOM     28  C   UNL A   1      33.133  21.169  24.230  1.00  0.00     0.002 C 
BRANCH  28  29
ATOM     29  C   UNL A   1      34.436  21.969  24.347  1.00  0.00     0.002 C 
BRANCH  29  30
ATOM     30  C   UNL A   1      35.119  21.886  25.714  1.00  0.00     0.021 C 
BRANCH  30  31
ATOM     31  C   UNL A   1      36.530  22.461  25.753  1.00  0.00     0.116 C 
BRANCH  31  32
ATOM     32  N   UNL A   1      37.530  21.420  25.912  1.00  0.00    -0.352 N 
ATOM     33  C   UNL A   1      38.871  21.518  26.156  1.00  0.00     0.251 C 
ATOM     34  H   UNL A   1      37.189  20.501  25.831  1.00  0.00     0.163 HD
ATOM     35  O   UNL A   1      39.586  20.526  26.040  1.00  0.00    -0.269 OA
BRANCH  33  36
ATOM     36  C   UNL A   1      39.467  22.810  26.550  1.00  0.00     0.039 A 
ATOM     37  C   UNL A   1      40.428  22.811  27.563  1.00  0.00     0.014 A 
ATOM     38  C   UNL A   1      39.060  24.015  25.968  1.00  0.00     0.014 A 
ATOM     39  C   UNL A   1      40.998  24.014  27.972  1.00  0.00     0.010 A 
ATOM     40  C   UNL A   1      39.694  25.206  26.314  1.00  0.00     0.010 A 
ATOM     41  C   UNL A   1      40.655  25.219  27.334  1.00  0.00    -0.014 A 
BRANCH  41  42
ATOM     42  C   UNL A   1      41.321  26.482  27.736  1.00  0.00     0.031 A 
ATOM     43  C   UNL A   1      42.735  26.777  27.327  1.00  0.00     0.074 A 
ATOM     44  C   UNL A   1      40.638  27.364  28.488  1.00  0.00     0.049 A 
ATOM     45  N   UNL A   1      43.439  27.866  27.513  1.00  0.00    -0.248 NA
ATOM     46  C   UNL A   1      43.470  25.701  26.645  1.00  0.00     0.031 C 
ATOM     47  C   UNL A   1      39.288  27.151  29.014  1.00  0.00     0.029 A 
ATOM     48  N   UNL A   1      40.976  28.617  28.930  1.00  0.00    -0.354 N 
ATOM     49  C   UNL A   1      44.693  27.605  26.979  1.00  0.00     0.074 A 
ATOM     50  C   UNL A   1      44.676  26.232  26.520  1.00  0.00     0.031 C 
ATOM     51  C   UNL A   1      38.896  28.253  29.671  1.00  0.00     0.029 A 
ATOM     52  C   UNL A   1      39.976  29.234  29.640  1.00  0.00     0.049 A 
ATOM     53  H   UNL A   1      41.849  29.035  28.755  1.00  0.00     0.167 HD
ATOM     54  C   UNL A   1      45.754  28.440  26.863  1.00  0.00     0.037 A 
ATOM     55  C   UNL A   1      39.933  30.457  30.201  1.00  0.00     0.037 A 
ATOM     56  C   UNL A   1      45.757  29.807  27.321  1.00  0.00     0.049 A 
ATOM     57  C   UNL A   1      41.105  31.380  30.031  1.00  0.00     0.074 A 
ATOM     58  C   UNL A   1      46.749  30.761  27.186  1.00  0.00     0.029 A 
ATOM     59  N   UNL A   1      44.721  30.406  28.025  1.00  0.00    -0.354 N 
ATOM     60  N   UNL A   1      42.250  31.161  29.429  1.00  0.00    -0.248 NA
ATOM     61  C   UNL A   1      40.972  32.726  30.599  1.00  0.00     0.031 C 
ATOM     62  C   UNL A   1      46.344  31.914  27.869  1.00  0.00     0.029 A 
ATOM     63  C   UNL A   1      45.065  31.707  28.362  1.00  0.00     0.049 A 
ATOM     64  H   UNL A   1      43.867  29.973  28.251  1.00  0.00     0.167 HD
ATOM     65  C   UNL A   1      42.967  32.346  29.526  1.00  0.00     0.074 A 
ATOM     66  C   UNL A   1      42.114  33.287  30.225  1.00  0.00     0.031 C 
ATOM     67  C   UNL A   1      44.215  32.631  29.075  1.00  0.00     0.037 A 
BRANCH  54  68
ATOM     68  C   UNL A   1      47.005  27.888  26.233  1.00  0.00     0.064 A 
ATOM     69  C   UNL A   1      47.164  27.802  24.840  1.00  0.00     0.173 A 
ATOM     70  C   UNL A   1      48.066  27.442  27.037  1.00  0.00     0.173 A 
ATOM     71  F   UNL A   1      46.181  28.206  24.021  1.00  0.00    -0.203 F 
ATOM     72  C   UNL A   1      48.312  27.247  24.279  1.00  0.00     0.198 A 
ATOM     73  C   UNL A   1      49.229  26.924  26.472  1.00  0.00     0.198 A 
ATOM     74  F   UNL A   1      47.976  27.506  28.373  1.00  0.00    -0.203 F 
ATOM     75  F   UNL A   1      48.407  27.110  22.949  1.00  0.00    -0.200 F 
ATOM     76  C   UNL A   1      49.345  26.814  25.095  1.00  0.00     0.200 A 
ATOM     77  F   UNL A   1      50.235  26.522  27.262  1.00  0.00    -0.200 F 
ATOM     78  F   UNL A   1      50.450  26.280  24.554  1.00  0.00    -0.200 F 
ENDBRANCH  54  68
BRANCH  55  79
ATOM     79  C   UNL A   1      38.714  30.872  30.941  1.00  0.00     0.064 A 
ATOM     80  C   UNL A   1      38.634  30.761  32.336  1.00  0.00     0.173 A 
ATOM     81  C   UNL A   1      37.618  31.436  30.268  1.00  0.00     0.173 A 
ATOM     82  F   UNL A   1      39.650  30.218  33.024  1.00  0.00    -0.203 F 
ATOM     83  C   UNL A   1      37.502  31.186  33.027  1.00  0.00     0.198 A 
ATOM     84  C   UNL A   1      36.501  31.890  30.963  1.00  0.00     0.198 A 
ATOM     85  F   UNL A   1      37.651  31.577  28.935  1.00  0.00    -0.203 F 
ATOM     86  F   UNL A   1      37.437  31.038  34.358  1.00  0.00    -0.200 F 
ATOM     87  C   UNL A   1      36.441  31.758  32.343  1.00  0.00     0.200 A 
ATOM     88  F   UNL A   1      35.490  32.465  30.299  1.00  0.00    -0.200 F 
ATOM     89  F   UNL A   1      35.360  32.185  33.009  1.00  0.00    -0.200 F 
ENDBRANCH  55  79
BRANCH  67  90
ATOM     90  C   UNL A   1      44.722  34.027  29.303  1.00  0.00     0.064 A 
ATOM     91  C   UNL A   1      45.463  34.374  30.443  1.00  0.00     0.173 A 
ATOM     92  C   UNL A   1      44.465  35.036  28.361  1.00  0.00     0.173 A 
ATOM     93  F   UNL A   1      45.728  33.453  31.383  1.00  0.00    -0.203 F 
ATOM     94  C   UNL A   1      45.884  35.685  30.655  1.00  0.00     0.198 A 
ATOM     95  C   UNL A   1      44.923  36.336  28.556  1.00  0.00     0.198 A 
ATOM     96  F   UNL A   1      43.771  34.762  27.246  1.00  0.00    -0.203 F 
ATOM     97  F   UNL A   1      46.525  36.005  31.787  1.00  0.00    -0.200 F 
ATOM     98  C   UNL A   1      45.619  36.663  29.710  1.00  0.00     0.200 A 
ATOM     99  F   UNL A   1      44.681  37.277  27.631  1.00  0.00    -0.200 F 
ATOM    100  F   UNL A   1      46.023  37.923  29.916  1.00  0.00    -0.200 F 
ENDBRANCH  67  90
ENDBRANCH  41  42
ENDBRANCH  33  36
ENDBRANCH  31  32
ENDBRANCH  30  31
ENDBRANCH  29  30
ENDBRANCH  28  29
ENDBRANCH  27  28
ENDBRANCH   1  27
TORSDOF 20
ENDMDL
