MODEL 1
REMARK VINA RESULT:     -12.1      0.000      0.000
REMARK SMILES O=C(NCCCCCCNC(=O)c1ccc2c(=O)n(CCC[NH+]3CCOCC3)c(=O)[nH]c2c1)c1ccc(-c2c3nc(c(-c4c(F)c(F)c(F)c(F)c4F)c4ccc([nH]4)c(-c4c(F)c(F)c(F)c(F)c4F)c4nc(c(-c5c(F)c(F)c(F)c(F)c5F)c5ccc2[nH]5)C=C4)C=C3)cc1
REMARK SMILES IDX 7 1 6 2 5 3 4 4 3 5 1 6 2 7 34 9 35 10 96 11 36 12 95 13
REMARK SMILES IDX 37 14 38 15 39 16 89 17 40 18 94 19 88 20 90 21 41 22 93 23
REMARK SMILES IDX 87 24 86 25 42 27 74 28 54 29 73 30 55 31 58 32 72 33 91 34
REMARK SMILES IDX 56 35 57 36 71 38 92 39 59 40 43 41 44 42 52 43 45 44 46 45
REMARK SMILES IDX 50 46 53 47 47 48 48 49 51 50 49 51 75 52 76 53 84 54 77 55
REMARK SMILES IDX 78 56 82 57 85 58 79 59 80 60 83 61 81 62 60 63 61 64 69 65
REMARK SMILES IDX 62 66 63 67 67 68 70 69 64 70 65 71 68 72 66 73 8 74 9 75
REMARK SMILES IDX 10 76 11 77 12 79 13 80 14 81 33 82 15 83 32 84 16 85 31 86
REMARK SMILES IDX 17 87 29 88 18 90 19 91 30 92 20 93 21 94 22 95 23 96 24 97
REMARK SMILES IDX 28 98 25 100 27 101 26 102
REMARK H PARENT 3 8 90 26 58 37 10 78 31 89 23 99
REMARK Flexibility Score: inf
ROOT
ATOM      1  C   UNL A   1      35.382  19.572  25.037  1.00  0.00     0.002 C 
ENDROOT
BRANCH   1   2
ATOM      2  C   UNL A   1      36.569  20.539  25.014  1.00  0.00     0.002 C 
BRANCH   2   3
ATOM      3  C   UNL A   1      37.930  19.893  24.749  1.00  0.00     0.021 C 
BRANCH   3   4
ATOM      4  C   UNL A   1      39.029  20.280  25.734  1.00  0.00     0.116 C 
BRANCH   4   5
ATOM      5  N   UNL A   1      40.053  19.256  25.846  1.00  0.00    -0.352 N 
ATOM      6  O   UNL A   1      42.139  18.417  25.959  1.00  0.00    -0.269 OA
ATOM      7  C   UNL A   1      41.397  19.388  26.078  1.00  0.00     0.251 C 
ATOM      8  H   UNL A   1      39.733  18.330  25.740  1.00  0.00     0.163 HD
BRANCH   7   9
ATOM      9  C   UNL A   1      41.965  20.697  26.466  1.00  0.00     0.039 A 
ATOM     10  C   UNL A   1      42.173  20.962  27.824  1.00  0.00     0.014 A 
ATOM     11  C   UNL A   1      42.229  21.683  25.512  1.00  0.00     0.014 A 
ATOM     12  C   UNL A   1      42.669  22.206  28.222  1.00  0.00     0.010 A 
ATOM     13  C   UNL A   1      42.778  22.902  25.905  1.00  0.00     0.010 A 
ATOM     14  C   UNL A   1      42.983  23.181  27.263  1.00  0.00    -0.014 A 
BRANCH  14  15
ATOM     15  C   UNL A   1      43.451  24.532  27.661  1.00  0.00     0.031 A 
ATOM     16  C   UNL A   1      42.440  25.582  28.034  1.00  0.00     0.074 A 
ATOM     17  C   UNL A   1      44.764  24.827  27.659  1.00  0.00     0.049 A 
ATOM     18  N   UNL A   1      42.619  26.854  28.284  1.00  0.00    -0.248 NA
ATOM     19  C   UNL A   1      41.038  25.143  28.122  1.00  0.00     0.031 C 
ATOM     20  C   UNL A   1      45.841  23.892  27.335  1.00  0.00     0.029 A 
ATOM     21  N   UNL A   1      45.415  26.003  27.938  1.00  0.00    -0.354 N 
ATOM     22  C   UNL A   1      41.354  27.366  28.548  1.00  0.00     0.074 A 
ATOM     23  C   UNL A   1      40.412  26.282  28.383  1.00  0.00     0.031 C 
ATOM     24  C   UNL A   1      47.020  24.523  27.457  1.00  0.00     0.029 A 
ATOM     25  C   UNL A   1      46.780  25.917  27.821  1.00  0.00     0.049 A 
ATOM     26  H   UNL A   1      44.946  26.830  28.196  1.00  0.00     0.167 HD
ATOM     27  C   UNL A   1      41.014  28.623  28.919  1.00  0.00     0.037 A 
ATOM     28  C   UNL A   1      47.727  26.862  27.981  1.00  0.00     0.037 A 
ATOM     29  C   UNL A   1      41.955  29.696  29.105  1.00  0.00     0.049 A 
ATOM     30  C   UNL A   1      47.314  28.264  28.341  1.00  0.00     0.074 A 
ATOM     31  C   UNL A   1      41.707  31.010  29.463  1.00  0.00     0.029 A 
ATOM     32  N   UNL A   1      43.328  29.572  28.962  1.00  0.00    -0.354 N 
ATOM     33  N   UNL A   1      46.116  28.744  28.565  1.00  0.00    -0.248 NA
ATOM     34  C   UNL A   1      48.390  29.259  28.466  1.00  0.00     0.031 C 
ATOM     35  C   UNL A   1      42.928  31.687  29.514  1.00  0.00     0.029 A 
ATOM     36  C   UNL A   1      43.941  30.785  29.228  1.00  0.00     0.049 A 
ATOM     37  H   UNL A   1      43.798  28.745  28.710  1.00  0.00     0.167 HD
ATOM     38  C   UNL A   1      46.294  30.082  28.891  1.00  0.00     0.074 A 
ATOM     39  C   UNL A   1      47.718  30.337  28.844  1.00  0.00     0.031 C 
ATOM     40  C   UNL A   1      45.361  31.015  29.200  1.00  0.00     0.037 A 
BRANCH  27  41
ATOM     41  C   UNL A   1      39.562  28.908  29.166  1.00  0.00     0.064 A 
ATOM     42  C   UNL A   1      39.004  28.782  30.447  1.00  0.00     0.173 A 
ATOM     43  C   UNL A   1      38.736  29.370  28.131  1.00  0.00     0.173 A 
ATOM     44  F   UNL A   1      39.749  28.328  31.466  1.00  0.00    -0.203 F 
ATOM     45  C   UNL A   1      37.668  29.098  30.680  1.00  0.00     0.198 A 
ATOM     46  C   UNL A   1      37.408  29.710  28.374  1.00  0.00     0.198 A 
ATOM     47  F   UNL A   1      39.222  29.509  26.888  1.00  0.00    -0.203 F 
ATOM     48  F   UNL A   1      37.148  28.938  31.905  1.00  0.00    -0.200 F 
ATOM     49  C   UNL A   1      36.874  29.571  29.646  1.00  0.00     0.200 A 
ATOM     50  F   UNL A   1      36.645  30.179  27.376  1.00  0.00    -0.200 F 
ATOM     51  F   UNL A   1      35.594  29.890  29.876  1.00  0.00    -0.200 F 
ENDBRANCH  27  41
BRANCH  28  52
ATOM     52  C   UNL A   1      49.163  26.512  27.830  1.00  0.00     0.064 A 
ATOM     53  C   UNL A   1      49.965  26.286  28.958  1.00  0.00     0.173 A 
ATOM     54  C   UNL A   1      49.766  26.406  26.569  1.00  0.00     0.173 A 
ATOM     55  F   UNL A   1      49.438  26.398  30.187  1.00  0.00    -0.203 F 
ATOM     56  C   UNL A   1      51.318  25.984  28.832  1.00  0.00     0.198 A 
ATOM     57  C   UNL A   1      51.116  26.078  26.443  1.00  0.00     0.198 A 
ATOM     58  F   UNL A   1      49.044  26.613  25.458  1.00  0.00    -0.203 F 
ATOM     59  F   UNL A   1      52.070  25.816  29.928  1.00  0.00    -0.200 F 
ATOM     60  C   UNL A   1      51.891  25.874  27.574  1.00  0.00     0.200 A 
ATOM     61  F   UNL A   1      51.663  25.961  25.225  1.00  0.00    -0.200 F 
ATOM     62  F   UNL A   1      53.193  25.580  27.452  1.00  0.00    -0.200 F 
ENDBRANCH  28  52
BRANCH  40  63
ATOM     63  C   UNL A   1      45.849  32.387  29.562  1.00  0.00     0.064 A 
ATOM     64  C   UNL A   1      45.981  33.399  28.601  1.00  0.00     0.173 A 
ATOM     65  C   UNL A   1      46.135  32.705  30.898  1.00  0.00     0.173 A 
ATOM     66  F   UNL A   1      45.730  33.140  27.309  1.00  0.00    -0.203 F 
ATOM     67  C   UNL A   1      46.403  34.675  28.961  1.00  0.00     0.198 A 
ATOM     68  C   UNL A   1      46.531  33.989  31.259  1.00  0.00     0.198 A 
ATOM     69  F   UNL A   1      46.016  31.774  31.857  1.00  0.00    -0.203 F 
ATOM     70  F   UNL A   1      46.562  35.617  28.022  1.00  0.00    -0.200 F 
ATOM     71  C   UNL A   1      46.670  34.972  30.291  1.00  0.00     0.200 A 
ATOM     72  F   UNL A   1      46.774  34.278  32.546  1.00  0.00    -0.200 F 
ATOM     73  F   UNL A   1      47.067  36.204  30.637  1.00  0.00    -0.200 F 
ENDBRANCH  40  63
ENDBRANCH  14  15
ENDBRANCH   7   9
ENDBRANCH   4   5
ENDBRANCH   3   4
ENDBRANCH   2   3
ENDBRANCH   1   2
BRANCH   1  74
ATOM     74  C   UNL A   1      34.059  20.144  24.515  1.00  0.00     0.021 C 
BRANCH  74  75
ATOM     75  C   UNL A   1      32.922  20.173  25.538  1.00  0.00     0.116 C 
BRANCH  75  76
ATOM     76  N   UNL A   1      33.332  20.846  26.760  1.00  0.00    -0.352 N 
ATOM     77  C   UNL A   1      33.616  22.169  26.960  1.00  0.00     0.251 C 
ATOM     78  H   UNL A   1      33.415  20.270  27.553  1.00  0.00     0.163 HD
ATOM     79  O   UNL A   1      34.178  22.550  27.979  1.00  0.00    -0.269 OA
BRANCH  77  80
ATOM     80  C   UNL A   1      33.228  23.150  25.937  1.00  0.00     0.041 A 
ATOM     81  C   UNL A   1      34.207  23.686  25.089  1.00  0.00     0.015 A 
ATOM     82  C   UNL A   1      31.880  23.497  25.803  1.00  0.00     0.040 A 
ATOM     83  C   UNL A   1      33.831  24.582  24.094  1.00  0.00     0.017 A 
ATOM     84  C   UNL A   1      31.523  24.433  24.836  1.00  0.00     0.056 A 
ATOM     85  C   UNL A   1      32.485  24.948  23.975  1.00  0.00     0.064 A 
ATOM     86  N   UNL A   1      30.213  24.897  24.750  1.00  0.00    -0.307 N 
ATOM     87  C   UNL A   1      32.063  25.919  22.956  1.00  0.00     0.264 A 
ATOM     88  C   UNL A   1      29.833  25.948  23.958  1.00  0.00     0.328 A 
ATOM     89  H   UNL A   1      29.523  24.444  25.287  1.00  0.00     0.171 HD
ATOM     90  O   UNL A   1      32.841  26.188  22.047  1.00  0.00    -0.268 OA
ATOM     91  N   UNL A   1      30.808  26.489  23.133  1.00  0.00    -0.260 N 
ATOM     92  O   UNL A   1      28.677  26.362  24.034  1.00  0.00    -0.248 OA
BRANCH  91  93
ATOM     93  C   UNL A   1      30.497  27.706  22.384  1.00  0.00     0.137 C 
BRANCH  93  94
ATOM     94  C   UNL A   1      31.318  28.901  22.907  1.00  0.00     0.083 C 
BRANCH  94  95
ATOM     95  C   UNL A   1      30.981  29.318  24.348  1.00  0.00     0.264 C 
BRANCH  95  96
ATOM     96  N   UNL A   1      32.137  29.952  24.996  1.00  0.00    -0.331 N 
ATOM     97  C   UNL A   1      33.365  29.132  24.896  1.00  0.00     0.291 C 
ATOM     98  C   UNL A   1      31.893  30.244  26.425  1.00  0.00     0.291 C 
ATOM     99  H   UNL A   1      32.273  30.825  24.488  1.00  0.00     0.348 HD
ATOM    100  C   UNL A   1      33.376  27.906  25.821  1.00  0.00     0.221 C 
ATOM    101  C   UNL A   1      31.938  29.001  27.335  1.00  0.00     0.221 C 
ATOM    102  O   UNL A   1      33.169  28.284  27.189  1.00  0.00    -0.370 OA
ENDBRANCH  95  96
ENDBRANCH  94  95
ENDBRANCH  93  94
ENDBRANCH  91  93
ENDBRANCH  77  80
ENDBRANCH  75  76
ENDBRANCH  74  75
ENDBRANCH   1  74
TORSDOF 17
ENDMDL
MODEL 2
REMARK VINA RESULT:     -11.9      1.492      2.711
REMARK SMILES O=C(NCCCCCCNC(=O)c1ccc2c(=O)n(CCC[NH+]3CCOCC3)c(=O)[nH]c2c1)c1ccc(-c2c3nc(c(-c4c(F)c(F)c(F)c(F)c4F)c4ccc([nH]4)c(-c4c(F)c(F)c(F)c(F)c4F)c4nc(c(-c5c(F)c(F)c(F)c(F)c5F)c5ccc2[nH]5)C=C4)C=C3)cc1
REMARK SMILES IDX 7 1 6 2 5 3 4 4 3 5 1 6 2 7 34 9 35 10 96 11 36 12 95 13
REMARK SMILES IDX 37 14 38 15 39 16 89 17 40 18 94 19 88 20 90 21 41 22 93 23
REMARK SMILES IDX 87 24 86 25 42 27 74 28 54 29 73 30 55 31 58 32 72 33 91 34
REMARK SMILES IDX 56 35 57 36 71 38 92 39 59 40 43 41 44 42 52 43 45 44 46 45
REMARK SMILES IDX 50 46 53 47 47 48 48 49 51 50 49 51 75 52 76 53 84 54 77 55
REMARK SMILES IDX 78 56 82 57 85 58 79 59 80 60 83 61 81 62 60 63 61 64 69 65
REMARK SMILES IDX 62 66 63 67 67 68 70 69 64 70 65 71 68 72 66 73 8 74 9 75
REMARK SMILES IDX 10 76 11 77 12 79 13 80 14 81 33 82 15 83 32 84 16 85 31 86
REMARK SMILES IDX 17 87 29 88 18 90 19 91 30 92 20 93 21 94 22 95 23 96 24 97
REMARK SMILES IDX 28 98 25 100 27 101 26 102
REMARK H PARENT 3 8 90 26 58 37 10 78 31 89 23 99
REMARK Flexibility Score: inf
ROOT
ATOM      1  C   UNL A   1      35.665  20.677  25.436  1.00  0.00     0.002 C 
ENDROOT
BRANCH   1   2
ATOM      2  C   UNL A   1      36.962  20.686  24.622  1.00  0.00     0.002 C 
BRANCH   2   3
ATOM      3  C   UNL A   1      38.000  19.643  25.042  1.00  0.00     0.021 C 
BRANCH   3   4
ATOM      4  C   UNL A   1      39.250  20.212  25.706  1.00  0.00     0.116 C 
BRANCH   4   5
ATOM      5  N   UNL A   1      40.276  19.202  25.902  1.00  0.00    -0.352 N 
ATOM      6  O   UNL A   1      42.363  18.378  26.080  1.00  0.00    -0.269 OA
ATOM      7  C   UNL A   1      41.621  19.355  26.117  1.00  0.00     0.251 C 
ATOM      8  H   UNL A   1      39.957  18.271  25.877  1.00  0.00     0.163 HD
BRANCH   7   9
ATOM      9  C   UNL A   1      42.188  20.694  26.390  1.00  0.00     0.039 A 
ATOM     10  C   UNL A   1      42.421  21.066  27.718  1.00  0.00     0.014 A 
ATOM     11  C   UNL A   1      42.427  21.603  25.356  1.00  0.00     0.014 A 
ATOM     12  C   UNL A   1      42.916  22.340  28.008  1.00  0.00     0.010 A 
ATOM     13  C   UNL A   1      42.976  22.851  25.641  1.00  0.00     0.010 A 
ATOM     14  C   UNL A   1      43.206  23.238  26.969  1.00  0.00    -0.014 A 
BRANCH  14  15
ATOM     15  C   UNL A   1      43.673  24.618  27.250  1.00  0.00     0.031 A 
ATOM     16  C   UNL A   1      42.693  25.638  27.759  1.00  0.00     0.074 A 
ATOM     17  C   UNL A   1      44.953  24.964  27.023  1.00  0.00     0.049 A 
ATOM     18  N   UNL A   1      42.853  26.924  27.944  1.00  0.00    -0.248 NA
ATOM     19  C   UNL A   1      41.345  25.148  28.090  1.00  0.00     0.031 C 
ATOM     20  C   UNL A   1      46.003  24.062  26.547  1.00  0.00     0.029 A 
ATOM     21  N   UNL A   1      45.589  26.173  27.160  1.00  0.00    -0.354 N 
ATOM     22  C   UNL A   1      41.629  27.394  28.402  1.00  0.00     0.074 A 
ATOM     23  C   UNL A   1      40.721  26.269  28.422  1.00  0.00     0.031 C 
ATOM     24  C   UNL A   1      47.156  24.743  26.456  1.00  0.00     0.029 A 
ATOM     25  C   UNL A   1      46.919  26.137  26.820  1.00  0.00     0.049 A 
ATOM     26  H   UNL A   1      45.134  26.988  27.471  1.00  0.00     0.167 HD
ATOM     27  C   UNL A   1      41.299  28.648  28.793  1.00  0.00     0.037 A 
ATOM     28  C   UNL A   1      47.836  27.123  26.797  1.00  0.00     0.037 A 
ATOM     29  C   UNL A   1      42.210  29.763  28.793  1.00  0.00     0.049 A 
ATOM     30  C   UNL A   1      47.427  28.519  27.185  1.00  0.00     0.074 A 
ATOM     31  C   UNL A   1      41.967  31.076  29.155  1.00  0.00     0.029 A 
ATOM     32  N   UNL A   1      43.544  29.688  28.427  1.00  0.00    -0.354 N 
ATOM     33  N   UNL A   1      46.262  28.958  27.593  1.00  0.00    -0.248 NA
ATOM     34  C   UNL A   1      48.464  29.558  27.105  1.00  0.00     0.031 C 
ATOM     35  C   UNL A   1      43.149  31.802  28.985  1.00  0.00     0.029 A 
ATOM     36  C   UNL A   1      44.139  30.932  28.557  1.00  0.00     0.049 A 
ATOM     37  H   UNL A   1      44.003  28.873  28.121  1.00  0.00     0.167 HD
ATOM     38  C   UNL A   1      46.434  30.311  27.852  1.00  0.00     0.074 A 
ATOM     39  C   UNL A   1      47.817  30.621  27.563  1.00  0.00     0.031 C 
ATOM     40  C   UNL A   1      45.524  31.216  28.288  1.00  0.00     0.037 A 
BRANCH  27  41
ATOM     41  C   UNL A   1      39.897  28.883  29.270  1.00  0.00     0.064 A 
ATOM     42  C   UNL A   1      38.881  29.266  28.382  1.00  0.00     0.173 A 
ATOM     43  C   UNL A   1      39.549  28.662  30.611  1.00  0.00     0.173 A 
ATOM     44  F   UNL A   1      39.167  29.506  27.093  1.00  0.00    -0.203 F 
ATOM     45  C   UNL A   1      37.570  29.433  28.821  1.00  0.00     0.198 A 
ATOM     46  C   UNL A   1      38.232  28.803  31.040  1.00  0.00     0.198 A 
ATOM     47  F   UNL A   1      40.483  28.292  31.500  1.00  0.00    -0.203 F 
ATOM     48  F   UNL A   1      36.623  29.833  27.961  1.00  0.00    -0.200 F 
ATOM     49  C   UNL A   1      37.246  29.191  30.147  1.00  0.00     0.200 A 
ATOM     50  F   UNL A   1      37.917  28.557  32.320  1.00  0.00    -0.200 F 
ATOM     51  F   UNL A   1      35.981  29.335  30.564  1.00  0.00    -0.200 F 
ENDBRANCH  27  41
BRANCH  28  52
ATOM     52  C   UNL A   1      49.243  26.825  26.418  1.00  0.00     0.064 A 
ATOM     53  C   UNL A   1      49.656  26.918  25.082  1.00  0.00     0.173 A 
ATOM     54  C   UNL A   1      50.194  26.434  27.371  1.00  0.00     0.173 A 
ATOM     55  F   UNL A   1      48.775  27.265  24.132  1.00  0.00    -0.203 F 
ATOM     56  C   UNL A   1      50.963  26.616  24.709  1.00  0.00     0.198 A 
ATOM     57  C   UNL A   1      51.510  26.157  27.000  1.00  0.00     0.198 A 
ATOM     58  F   UNL A   1      49.850  26.329  28.663  1.00  0.00    -0.203 F 
ATOM     59  F   UNL A   1      51.319  26.671  23.419  1.00  0.00    -0.200 F 
ATOM     60  C   UNL A   1      51.890  26.242  25.670  1.00  0.00     0.200 A 
ATOM     61  F   UNL A   1      52.406  25.807  27.933  1.00  0.00    -0.200 F 
ATOM     62  F   UNL A   1      53.150  25.953  25.312  1.00  0.00    -0.200 F 
ENDBRANCH  28  52
BRANCH  40  63
ATOM     63  C   UNL A   1      46.004  32.617  28.530  1.00  0.00     0.064 A 
ATOM     64  C   UNL A   1      46.498  33.022  29.778  1.00  0.00     0.173 A 
ATOM     65  C   UNL A   1      46.020  33.549  27.481  1.00  0.00     0.173 A 
ATOM     66  F   UNL A   1      46.491  32.171  30.814  1.00  0.00    -0.203 F 
ATOM     67  C   UNL A   1      46.969  34.317  29.973  1.00  0.00     0.198 A 
ATOM     68  C   UNL A   1      46.518  34.834  27.672  1.00  0.00     0.198 A 
ATOM     69  F   UNL A   1      45.567  33.207  26.264  1.00  0.00    -0.203 F 
ATOM     70  F   UNL A   1      47.398  34.697  31.185  1.00  0.00    -0.200 F 
ATOM     71  C   UNL A   1      46.986  35.219  28.919  1.00  0.00     0.200 A 
ATOM     72  F   UNL A   1      46.548  35.700  26.649  1.00  0.00    -0.200 F 
ATOM     73  F   UNL A   1      47.451  36.463  29.108  1.00  0.00    -0.200 F 
ENDBRANCH  40  63
ENDBRANCH  14  15
ENDBRANCH   7   9
ENDBRANCH   4   5
ENDBRANCH   3   4
ENDBRANCH   2   3
ENDBRANCH   1   2
BRANCH   1  74
ATOM     74  C   UNL A   1      34.387  20.416  24.631  1.00  0.00     0.021 C 
BRANCH  74  75
ATOM     75  C   UNL A   1      33.111  20.305  25.468  1.00  0.00     0.116 C 
BRANCH  75  76
ATOM     76  N   UNL A   1      33.271  20.954  26.758  1.00  0.00    -0.352 N 
ATOM     77  C   UNL A   1      33.364  22.289  27.045  1.00  0.00     0.251 C 
ATOM     78  H   UNL A   1      33.317  20.350  27.533  1.00  0.00     0.163 HD
ATOM     79  O   UNL A   1      33.735  22.677  28.146  1.00  0.00    -0.269 OA
BRANCH  77  80
ATOM     80  C   UNL A   1      33.000  23.272  26.016  1.00  0.00     0.041 A 
ATOM     81  C   UNL A   1      34.006  23.866  25.243  1.00  0.00     0.015 A 
ATOM     82  C   UNL A   1      31.649  23.563  25.800  1.00  0.00     0.040 A 
ATOM     83  C   UNL A   1      33.656  24.765  24.241  1.00  0.00     0.017 A 
ATOM     84  C   UNL A   1      31.314  24.502  24.827  1.00  0.00     0.056 A 
ATOM     85  C   UNL A   1      32.306  25.074  24.040  1.00  0.00     0.064 A 
ATOM     86  N   UNL A   1      29.994  24.910  24.663  1.00  0.00    -0.307 N 
ATOM     87  C   UNL A   1      31.908  26.046  23.012  1.00  0.00     0.264 A 
ATOM     88  C   UNL A   1      29.619  25.959  23.866  1.00  0.00     0.328 A 
ATOM     89  H   UNL A   1      29.291  24.418  25.146  1.00  0.00     0.171 HD
ATOM     90  O   UNL A   1      32.730  26.366  22.160  1.00  0.00    -0.268 OA
ATOM     91  N   UNL A   1      30.620  26.558  23.116  1.00  0.00    -0.260 N 
ATOM     92  O   UNL A   1      28.443  26.321  23.874  1.00  0.00    -0.248 OA
BRANCH  91  93
ATOM     93  C   UNL A   1      30.304  27.775  22.369  1.00  0.00     0.137 C 
BRANCH  93  94
ATOM     94  C   UNL A   1      30.481  29.026  23.252  1.00  0.00     0.083 C 
BRANCH  94  95
ATOM     95  C   UNL A   1      30.093  30.345  22.563  1.00  0.00     0.264 C 
BRANCH  95  96
ATOM     96  N   UNL A   1      28.652  30.600  22.691  1.00  0.00    -0.331 N 
ATOM     97  C   UNL A   1      27.985  30.761  21.380  1.00  0.00     0.291 C 
ATOM     98  C   UNL A   1      28.362  31.801  23.506  1.00  0.00     0.291 C 
ATOM     99  H   UNL A   1      28.282  29.774  23.158  1.00  0.00     0.348 HD
ATOM    100  C   UNL A   1      28.276  32.101  20.689  1.00  0.00     0.221 C 
ATOM    101  C   UNL A   1      28.635  33.132  22.779  1.00  0.00     0.221 C 
ATOM    102  O   UNL A   1      27.932  33.207  21.533  1.00  0.00    -0.370 OA
ENDBRANCH  95  96
ENDBRANCH  94  95
ENDBRANCH  93  94
ENDBRANCH  91  93
ENDBRANCH  77  80
ENDBRANCH  75  76
ENDBRANCH  74  75
ENDBRANCH   1  74
TORSDOF 17
ENDMDL
MODEL 3
REMARK VINA RESULT:     -11.9      2.016      7.570
REMARK SMILES O=C(NCCCCCCNC(=O)c1ccc2c(=O)n(CCC[NH+]3CCOCC3)c(=O)[nH]c2c1)c1ccc(-c2c3nc(c(-c4c(F)c(F)c(F)c(F)c4F)c4ccc([nH]4)c(-c4c(F)c(F)c(F)c(F)c4F)c4nc(c(-c5c(F)c(F)c(F)c(F)c5F)c5ccc2[nH]5)C=C4)C=C3)cc1
REMARK SMILES IDX 7 1 6 2 5 3 4 4 3 5 1 6 2 7 34 9 35 10 96 11 36 12 95 13
REMARK SMILES IDX 37 14 38 15 39 16 89 17 40 18 94 19 88 20 90 21 41 22 93 23
REMARK SMILES IDX 87 24 86 25 42 27 74 28 54 29 73 30 55 31 58 32 72 33 91 34
REMARK SMILES IDX 56 35 57 36 71 38 92 39 59 40 43 41 44 42 52 43 45 44 46 45
REMARK SMILES IDX 50 46 53 47 47 48 48 49 51 50 49 51 75 52 76 53 84 54 77 55
REMARK SMILES IDX 78 56 82 57 85 58 79 59 80 60 83 61 81 62 60 63 61 64 69 65
REMARK SMILES IDX 62 66 63 67 67 68 70 69 64 70 65 71 68 72 66 73 8 74 9 75
REMARK SMILES IDX 10 76 11 77 12 79 13 80 14 81 33 82 15 83 32 84 16 85 31 86
REMARK SMILES IDX 17 87 29 88 18 90 19 91 30 92 20 93 21 94 22 95 23 96 24 97
REMARK SMILES IDX 28 98 25 100 27 101 26 102
REMARK H PARENT 3 8 90 26 58 37 10 78 31 89 23 99
REMARK Flexibility Score: inf
ROOT
ATOM      1  C   UNL A   1      41.272  21.845  26.142  1.00  0.00     0.002 C 
ENDROOT
BRANCH   1   2
ATOM      2  C   UNL A   1      41.779  20.562  26.808  1.00  0.00     0.002 C 
BRANCH   2   3
ATOM      3  C   UNL A   1      42.037  19.393  25.854  1.00  0.00     0.021 C 
BRANCH   3   4
ATOM      4  C   UNL A   1      43.329  18.625  26.112  1.00  0.00     0.116 C 
BRANCH   4   5
ATOM      5  N   UNL A   1      44.133  18.483  24.911  1.00  0.00    -0.352 N 
ATOM      6  O   UNL A   1      45.239  19.152  23.068  1.00  0.00    -0.269 OA
ATOM      7  C   UNL A   1      44.752  19.445  24.156  1.00  0.00     0.251 C 
ATOM      8  H   UNL A   1      44.250  17.558  24.592  1.00  0.00     0.163 HD
BRANCH   7   9
ATOM      9  C   UNL A   1      44.835  20.839  24.642  1.00  0.00     0.039 A 
ATOM     10  C   UNL A   1      44.363  21.867  23.818  1.00  0.00     0.014 A 
ATOM     11  C   UNL A   1      45.430  21.143  25.870  1.00  0.00     0.014 A 
ATOM     12  C   UNL A   1      44.467  23.196  24.235  1.00  0.00     0.010 A 
ATOM     13  C   UNL A   1      45.479  22.464  26.310  1.00  0.00     0.010 A 
ATOM     14  C   UNL A   1      45.018  23.503  25.488  1.00  0.00    -0.014 A 
BRANCH  14  15
ATOM     15  C   UNL A   1      45.198  24.908  25.930  1.00  0.00     0.031 A 
ATOM     16  C   UNL A   1      46.549  25.555  25.796  1.00  0.00     0.074 A 
ATOM     17  C   UNL A   1      44.172  25.588  26.473  1.00  0.00     0.049 A 
ATOM     18  N   UNL A   1      46.959  26.718  26.234  1.00  0.00    -0.248 NA
ATOM     19  C   UNL A   1      47.581  24.782  25.086  1.00  0.00     0.031 C 
ATOM     20  C   UNL A   1      42.811  25.079  26.641  1.00  0.00     0.029 A 
ATOM     21  N   UNL A   1      44.118  26.860  26.989  1.00  0.00    -0.354 N 
ATOM     22  C   UNL A   1      48.295  26.810  25.862  1.00  0.00     0.074 A 
ATOM     23  C   UNL A   1      48.641  25.569  25.206  1.00  0.00     0.031 C 
ATOM     24  C   UNL A   1      42.050  26.035  27.195  1.00  0.00     0.029 A 
ATOM     25  C   UNL A   1      42.878  27.207  27.466  1.00  0.00     0.049 A 
ATOM     26  H   UNL A   1      44.894  27.464  27.014  1.00  0.00     0.167 HD
ATOM     27  C   UNL A   1      49.148  27.847  26.033  1.00  0.00     0.037 A 
ATOM     28  C   UNL A   1      42.465  28.341  28.064  1.00  0.00     0.037 A 
ATOM     29  C   UNL A   1      48.797  29.090  26.667  1.00  0.00     0.049 A 
ATOM     30  C   UNL A   1      43.450  29.457  28.290  1.00  0.00     0.074 A 
ATOM     31  C   UNL A   1      49.596  30.195  26.903  1.00  0.00     0.029 A 
ATOM     32  N   UNL A   1      47.535  29.397  27.152  1.00  0.00    -0.354 N 
ATOM     33  N   UNL A   1      44.715  29.524  27.957  1.00  0.00    -0.248 NA
ATOM     34  C   UNL A   1      42.947  30.654  28.979  1.00  0.00     0.031 C 
ATOM     35  C   UNL A   1      48.823  31.163  27.552  1.00  0.00     0.029 A 
ATOM     36  C   UNL A   1      47.533  30.676  27.683  1.00  0.00     0.049 A 
ATOM     37  H   UNL A   1      46.756  28.796  27.122  1.00  0.00     0.167 HD
ATOM     38  C   UNL A   1      45.150  30.780  28.362  1.00  0.00     0.074 A 
ATOM     39  C   UNL A   1      44.011  31.444  28.959  1.00  0.00     0.031 C 
ATOM     40  C   UNL A   1      46.383  31.331  28.251  1.00  0.00     0.037 A 
BRANCH  27  41
ATOM     41  C   UNL A   1      50.546  27.691  25.513  1.00  0.00     0.064 A 
ATOM     42  C   UNL A   1      51.604  27.336  26.363  1.00  0.00     0.173 A 
ATOM     43  C   UNL A   1      50.823  27.835  24.145  1.00  0.00     0.173 A 
ATOM     44  F   UNL A   1      51.393  27.203  27.682  1.00  0.00    -0.203 F 
ATOM     45  C   UNL A   1      52.890  27.142  25.866  1.00  0.00     0.198 A 
ATOM     46  C   UNL A   1      52.104  27.614  23.647  1.00  0.00     0.198 A 
ATOM     47  F   UNL A   1      49.846  28.172  23.289  1.00  0.00    -0.203 F 
ATOM     48  F   UNL A   1      53.891  26.836  26.702  1.00  0.00    -0.200 F 
ATOM     49  C   UNL A   1      53.136  27.271  24.507  1.00  0.00     0.200 A 
ATOM     50  F   UNL A   1      52.339  27.728  22.332  1.00  0.00    -0.200 F 
ATOM     51  F   UNL A   1      54.371  27.068  24.028  1.00  0.00    -0.200 F 
ENDBRANCH  27  41
BRANCH  28  52
ATOM     52  C   UNL A   1      41.043  28.495  28.470  1.00  0.00     0.064 A 
ATOM     53  C   UNL A   1      40.625  28.125  29.756  1.00  0.00     0.173 A 
ATOM     54  C   UNL A   1      40.077  29.000  27.589  1.00  0.00     0.173 A 
ATOM     55  F   UNL A   1      41.509  27.615  30.626  1.00  0.00    -0.203 F 
ATOM     56  C   UNL A   1      39.291  28.238  30.141  1.00  0.00     0.198 A 
ATOM     57  C   UNL A   1      38.746  29.137  27.984  1.00  0.00     0.198 A 
ATOM     58  F   UNL A   1      40.424  29.367  26.347  1.00  0.00    -0.203 F 
ATOM     59  F   UNL A   1      38.912  27.837  31.362  1.00  0.00    -0.200 F 
ATOM     60  C   UNL A   1      38.354  28.750  29.257  1.00  0.00     0.200 A 
ATOM     61  F   UNL A   1      37.845  29.643  27.131  1.00  0.00    -0.200 F 
ATOM     62  F   UNL A   1      37.071  28.862  29.627  1.00  0.00    -0.200 F 
ENDBRANCH  28  52
BRANCH  40  63
ATOM     63  C   UNL A   1      46.558  32.739  28.738  1.00  0.00     0.064 A 
ATOM     64  C   UNL A   1      46.945  33.020  30.055  1.00  0.00     0.173 A 
ATOM     65  C   UNL A   1      46.388  33.817  27.856  1.00  0.00     0.173 A 
ATOM     66  F   UNL A   1      47.107  32.024  30.938  1.00  0.00    -0.203 F 
ATOM     67  C   UNL A   1      47.134  34.332  30.480  1.00  0.00     0.198 A 
ATOM     68  C   UNL A   1      46.605  35.126  28.276  1.00  0.00     0.198 A 
ATOM     69  F   UNL A   1      46.028  33.600  26.582  1.00  0.00    -0.203 F 
ATOM     70  F   UNL A   1      47.464  34.582  31.754  1.00  0.00    -0.200 F 
ATOM     71  C   UNL A   1      46.972  35.383  29.588  1.00  0.00     0.200 A 
ATOM     72  F   UNL A   1      46.463  36.139  27.410  1.00  0.00    -0.200 F 
ATOM     73  F   UNL A   1      47.165  36.645  29.997  1.00  0.00    -0.200 F 
ENDBRANCH  40  63
ENDBRANCH  14  15
ENDBRANCH   7   9
ENDBRANCH   4   5
ENDBRANCH   3   4
ENDBRANCH   2   3
ENDBRANCH   1   2
BRANCH   1  74
ATOM     74  C   UNL A   1      40.094  22.527  26.847  1.00  0.00     0.021 C 
BRANCH  74  75
ATOM     75  C   UNL A   1      38.754  22.413  26.117  1.00  0.00     0.116 C 
BRANCH  75  76
ATOM     76  N   UNL A   1      38.533  21.060  25.633  1.00  0.00    -0.352 N 
ATOM     77  C   UNL A   1      37.430  20.535  25.018  1.00  0.00     0.251 C 
ATOM     78  H   UNL A   1      39.282  20.436  25.766  1.00  0.00     0.163 HD
ATOM     79  O   UNL A   1      37.294  19.325  24.882  1.00  0.00    -0.269 OA
BRANCH  77  80
ATOM     80  C   UNL A   1      36.397  21.442  24.499  1.00  0.00     0.041 A 
ATOM     81  C   UNL A   1      36.746  22.418  23.557  1.00  0.00     0.015 A 
ATOM     82  C   UNL A   1      35.074  21.282  24.926  1.00  0.00     0.040 A 
ATOM     83  C   UNL A   1      35.758  23.247  23.036  1.00  0.00     0.017 A 
ATOM     84  C   UNL A   1      34.103  22.151  24.434  1.00  0.00     0.056 A 
ATOM     85  C   UNL A   1      34.439  23.104  23.479  1.00  0.00     0.064 A 
ATOM     86  N   UNL A   1      32.801  22.106  24.923  1.00  0.00    -0.307 N 
ATOM     87  C   UNL A   1      33.381  23.988  22.973  1.00  0.00     0.264 A 
ATOM     88  C   UNL A   1      31.849  23.046  24.629  1.00  0.00     0.328 A 
ATOM     89  H   UNL A   1      32.550  21.358  25.513  1.00  0.00     0.171 HD
ATOM     90  O   UNL A   1      33.607  24.655  21.968  1.00  0.00    -0.268 OA
ATOM     91  N   UNL A   1      32.204  24.023  23.710  1.00  0.00    -0.260 N 
ATOM     92  O   UNL A   1      30.761  22.989  25.200  1.00  0.00    -0.248 OA
BRANCH  91  93
ATOM     93  C   UNL A   1      31.282  25.135  23.478  1.00  0.00     0.137 C 
BRANCH  93  94
ATOM     94  C   UNL A   1      31.906  26.471  23.923  1.00  0.00     0.083 C 
BRANCH  94  95
ATOM     95  C   UNL A   1      32.130  26.591  25.440  1.00  0.00     0.264 C 
BRANCH  95  96
ATOM     96  N   UNL A   1      31.405  27.745  25.988  1.00  0.00    -0.331 N 
ATOM     97  C   UNL A   1      31.521  28.948  25.134  1.00  0.00     0.291 C 
ATOM     98  C   UNL A   1      31.860  28.102  27.350  1.00  0.00     0.291 C 
ATOM     99  H   UNL A   1      30.430  27.449  26.021  1.00  0.00     0.348 HD
ATOM    100  C   UNL A   1      32.893  29.634  25.202  1.00  0.00     0.221 C 
ATOM    101  C   UNL A   1      33.226  28.815  27.387  1.00  0.00     0.221 C 
ATOM    102  O   UNL A   1      33.238  29.977  26.550  1.00  0.00    -0.370 OA
ENDBRANCH  95  96
ENDBRANCH  94  95
ENDBRANCH  93  94
ENDBRANCH  91  93
ENDBRANCH  77  80
ENDBRANCH  75  76
ENDBRANCH  74  75
ENDBRANCH   1  74
TORSDOF 17
ENDMDL
