MODEL 1
REMARK VINA RESULT:     -12.8      0.000      0.000
REMARK SMILES Cc1nn(C)cc1C[NH+]1CCN(C(=O)Cn2ccc(C(=O)NCCCCCCNC(=O)c3ccc(-c4c5nc(c(-c6c(F)c(F)c(F)c(F)c6F)c6ccc([nH]6)c(-c6c(F)c(F)c(F)c(F)c6F)c6nc(c(-c7c(F)c(F)c(F)c(F)c7F)c7ccc4[nH]7)C=C6)C=C5)cc3)n2)CC1
REMARK SMILES IDX 24 1 23 2 22 3 20 4 21 5 19 7 16 8 17 9 95 10 18 11 15 12
REMARK SMILES IDX 13 13 9 14 10 15 97 16 11 18 96 19 12 20 14 21 8 22 7 23
REMARK SMILES IDX 1 24 2 25 3 26 4 27 6 28 5 29 25 30 26 31 27 32 28 33 29 34
REMARK SMILES IDX 30 35 31 37 32 38 33 39 94 40 34 41 93 42 35 43 36 44 37 45
REMARK SMILES IDX 87 46 38 47 92 48 86 49 88 50 39 51 91 52 85 53 84 54 40 56
REMARK SMILES IDX 72 57 52 58 71 59 53 60 56 61 70 62 89 63 54 64 55 65 69 67
REMARK SMILES IDX 90 68 57 69 41 70 42 71 50 72 43 73 44 74 48 75 51 76 45 77
REMARK SMILES IDX 46 78 49 79 47 80 73 81 74 82 82 83 75 84 76 85 80 86 83 87
REMARK SMILES IDX 77 88 78 89 81 90 79 91 58 92 59 93 67 94 60 95 61 96 65 97
REMARK SMILES IDX 68 98 62 99 63 100 66 101 64 102
REMARK H PARENT 22 6 9 17 29 36 88 55 56 66
REMARK Flexibility Score: inf
ROOT
ATOM      1  C   UNL A   1      35.564  21.558  26.056  1.00  0.00     0.021 C 
ENDROOT
BRANCH   1   2
ATOM      2  C   UNL A   1      35.495  20.447  25.010  1.00  0.00     0.116 C 
BRANCH   2   3
ATOM      3  N   UNL A   1      34.303  19.649  25.192  1.00  0.00    -0.351 N 
ATOM      4  C   UNL A   1      32.969  19.892  24.977  1.00  0.00     0.271 C 
ATOM      5  O   UNL A   1      32.216  18.947  25.235  1.00  0.00    -0.267 OA
ATOM      6  H   UNL A   1      34.485  18.747  25.541  1.00  0.00     0.163 HD
BRANCH   4   7
ATOM      7  C   UNL A   1      32.461  21.179  24.451  1.00  0.00     0.150 A 
ATOM      8  N   UNL A   1      31.485  23.091  24.556  1.00  0.00    -0.263 N 
ATOM      9  C   UNL A   1      31.806  22.945  23.242  1.00  0.00     0.110 A 
ATOM     10  N   UNL A   1      31.906  22.061  25.309  1.00  0.00    -0.167 NA
ATOM     11  C   UNL A   1      32.463  21.742  23.145  1.00  0.00     0.056 A 
BRANCH   8  12
ATOM     12  C   UNL A   1      30.884  24.231  25.241  1.00  0.00     0.244 C 
BRANCH  12  13
ATOM     13  C   UNL A   1      31.834  25.403  25.393  1.00  0.00     0.244 C 
ATOM     14  N   UNL A   1      31.088  29.227  23.434  1.00  0.00    -0.328 N 
ATOM     15  C   UNL A   1      32.296  28.959  24.218  1.00  0.00     0.284 C 
ATOM     16  C   UNL A   1      30.537  27.996  22.868  1.00  0.00     0.284 C 
ATOM     17  H   UNL A   1      31.395  29.786  22.638  1.00  0.00     0.348 HD
ATOM     18  C   UNL A   1      32.199  27.808  25.234  1.00  0.00     0.181 C 
ATOM     19  C   UNL A   1      30.429  26.777  23.805  1.00  0.00     0.181 C 
ATOM     20  N   UNL A   1      31.555  26.593  24.723  1.00  0.00    -0.330 N 
ATOM     21  O   UNL A   1      32.812  25.307  26.142  1.00  0.00    -0.273 OA
BRANCH  14  22
ATOM     22  C   UNL A   1      30.130  30.185  23.995  1.00  0.00     0.302 C 
BRANCH  22  23
ATOM     23  C   UNL A   1      29.109  30.668  23.024  1.00  0.00     0.047 A 
ATOM     24  C   UNL A   1      27.220  28.846  23.207  1.00  0.00     0.069 C 
ATOM     25  C   UNL A   1      27.867  30.065  22.661  1.00  0.00     0.068 A 
ATOM     26  N   UNL A   1      27.279  30.717  21.649  1.00  0.00    -0.178 NA
ATOM     27  N   UNL A   1      28.118  31.729  21.384  1.00  0.00    -0.275 N 
ATOM     28  C   UNL A   1      29.133  31.834  22.284  1.00  0.00     0.118 A 
ATOM     29  C   UNL A   1      27.966  32.488  20.167  1.00  0.00     0.173 C 
ENDBRANCH  22  23
ENDBRANCH  14  22
ENDBRANCH  12  13
ENDBRANCH   8  12
ENDBRANCH   4   7
ENDBRANCH   2   3
ENDBRANCH   1   2
BRANCH   1  30
ATOM     30  C   UNL A   1      35.900  22.937  25.469  1.00  0.00     0.002 C 
BRANCH  30  31
ATOM     31  C   UNL A   1      37.276  23.506  25.852  1.00  0.00     0.002 C 
BRANCH  31  32
ATOM     32  C   UNL A   1      38.446  22.510  25.860  1.00  0.00     0.021 C 
BRANCH  32  33
ATOM     33  C   UNL A   1      39.562  22.892  26.818  1.00  0.00     0.116 C 
BRANCH  33  34
ATOM     34  N   UNL A   1      40.883  22.552  26.292  1.00  0.00    -0.352 N 
ATOM     35  C   UNL A   1      41.907  23.399  25.911  1.00  0.00     0.251 C 
ATOM     36  H   UNL A   1      41.068  21.589  26.195  1.00  0.00     0.163 HD
ATOM     37  O   UNL A   1      42.793  23.028  25.165  1.00  0.00    -0.269 OA
BRANCH  35  38
ATOM     38  C   UNL A   1      41.906  24.773  26.441  1.00  0.00     0.039 A 
ATOM     39  C   UNL A   1      41.207  25.802  25.804  1.00  0.00     0.014 A 
ATOM     40  C   UNL A   1      42.610  25.009  27.618  1.00  0.00     0.014 A 
ATOM     41  C   UNL A   1      41.162  27.055  26.409  1.00  0.00     0.010 A 
ATOM     42  C   UNL A   1      42.415  26.180  28.298  1.00  0.00     0.010 A 
ATOM     43  C   UNL A   1      41.757  27.228  27.669  1.00  0.00    -0.014 A 
BRANCH  43  44
ATOM     44  C   UNL A   1      41.621  28.477  28.408  1.00  0.00     0.031 A 
ATOM     45  C   UNL A   1      42.687  29.476  28.126  1.00  0.00     0.074 A 
ATOM     46  C   UNL A   1      40.498  28.787  29.093  1.00  0.00     0.049 A 
ATOM     47  N   UNL A   1      43.563  29.947  28.947  1.00  0.00    -0.248 NA
ATOM     48  C   UNL A   1      42.890  29.908  26.731  1.00  0.00     0.031 C 
ATOM     49  C   UNL A   1      39.247  28.021  29.181  1.00  0.00     0.029 A 
ATOM     50  N   UNL A   1      40.191  29.924  29.774  1.00  0.00    -0.354 N 
ATOM     51  C   UNL A   1      44.304  30.882  28.229  1.00  0.00     0.074 A 
ATOM     52  C   UNL A   1      43.972  30.681  26.844  1.00  0.00     0.031 C 
ATOM     53  C   UNL A   1      38.260  28.811  29.659  1.00  0.00     0.029 A 
ATOM     54  C   UNL A   1      38.842  30.071  30.075  1.00  0.00     0.049 A 
ATOM     55  H   UNL A   1      40.871  30.588  30.032  1.00  0.00     0.167 HD
ATOM     56  C   UNL A   1      44.930  31.911  28.867  1.00  0.00     0.037 A 
ATOM     57  C   UNL A   1      38.243  31.165  30.610  1.00  0.00     0.037 A 
ATOM     58  C   UNL A   1      45.038  31.644  30.280  1.00  0.00     0.049 A 
ATOM     59  C   UNL A   1      39.310  31.984  31.235  1.00  0.00     0.074 A 
ATOM     60  C   UNL A   1      45.648  30.669  31.044  1.00  0.00     0.029 A 
ATOM     61  N   UNL A   1      44.127  32.250  31.108  1.00  0.00    -0.354 N 
ATOM     62  N   UNL A   1      39.981  31.615  32.289  1.00  0.00    -0.248 NA
ATOM     63  C   UNL A   1      39.942  33.006  30.417  1.00  0.00     0.031 C 
ATOM     64  C   UNL A   1      44.744  30.425  32.121  1.00  0.00     0.029 A 
ATOM     65  C   UNL A   1      43.676  31.313  31.999  1.00  0.00     0.049 A 
ATOM     66  H   UNL A   1      43.846  33.193  31.069  1.00  0.00     0.167 HD
ATOM     67  C   UNL A   1      41.284  32.009  32.027  1.00  0.00     0.074 A 
ATOM     68  C   UNL A   1      41.180  32.948  30.914  1.00  0.00     0.031 C 
ATOM     69  C   UNL A   1      42.338  31.311  32.544  1.00  0.00     0.037 A 
BRANCH  56  70
ATOM     70  C   UNL A   1      45.069  33.313  28.312  1.00  0.00     0.064 A 
ATOM     71  C   UNL A   1      46.360  33.874  28.201  1.00  0.00     0.173 A 
ATOM     72  C   UNL A   1      44.002  34.230  28.191  1.00  0.00     0.173 A 
ATOM     73  F   UNL A   1      47.452  33.102  28.306  1.00  0.00    -0.203 F 
ATOM     74  C   UNL A   1      46.562  35.252  28.088  1.00  0.00     0.198 A 
ATOM     75  C   UNL A   1      44.208  35.598  28.023  1.00  0.00     0.198 A 
ATOM     76  F   UNL A   1      42.724  33.867  28.343  1.00  0.00    -0.203 F 
ATOM     77  F   UNL A   1      47.806  35.747  28.132  1.00  0.00    -0.200 F 
ATOM     78  C   UNL A   1      45.485  36.115  28.010  1.00  0.00     0.200 A 
ATOM     79  F   UNL A   1      43.149  36.419  27.965  1.00  0.00    -0.200 F 
ATOM     80  F   UNL A   1      45.674  37.439  27.972  1.00  0.00    -0.200 F 
ENDBRANCH  56  70
BRANCH  57  81
ATOM     81  C   UNL A   1      36.880  31.695  30.378  1.00  0.00     0.064 A 
ATOM     82  C   UNL A   1      35.996  31.909  31.448  1.00  0.00     0.173 A 
ATOM     83  C   UNL A   1      36.526  32.277  29.146  1.00  0.00     0.173 A 
ATOM     84  F   UNL A   1      36.280  31.423  32.664  1.00  0.00    -0.203 F 
ATOM     85  C   UNL A   1      34.845  32.692  31.304  1.00  0.00     0.198 A 
ATOM     86  C   UNL A   1      35.373  33.053  29.001  1.00  0.00     0.198 A 
ATOM     87  F   UNL A   1      37.340  32.187  28.084  1.00  0.00    -0.203 F 
ATOM     88  F   UNL A   1      34.062  32.931  32.365  1.00  0.00    -0.200 F 
ATOM     89  C   UNL A   1      34.542  33.274  30.084  1.00  0.00     0.200 A 
ATOM     90  F   UNL A   1      35.112  33.642  27.825  1.00  0.00    -0.200 F 
ATOM     91  F   UNL A   1      33.478  34.079  29.961  1.00  0.00    -0.200 F 
ENDBRANCH  57  81
BRANCH  69  92
ATOM     92  C   UNL A   1      42.045  30.308  33.626  1.00  0.00     0.064 A 
ATOM     93  C   UNL A   1      41.654  28.977  33.395  1.00  0.00     0.173 A 
ATOM     94  C   UNL A   1      42.286  30.683  34.954  1.00  0.00     0.173 A 
ATOM     95  F   UNL A   1      41.499  28.508  32.152  1.00  0.00    -0.203 F 
ATOM     96  C   UNL A   1      41.465  28.083  34.448  1.00  0.00     0.198 A 
ATOM     97  C   UNL A   1      42.135  29.780  36.001  1.00  0.00     0.198 A 
ATOM     98  F   UNL A   1      42.713  31.925  35.233  1.00  0.00    -0.203 F 
ATOM     99  F   UNL A   1      41.072  26.824  34.202  1.00  0.00    -0.200 F 
ATOM    100  C   UNL A   1      41.712  28.484  35.750  1.00  0.00     0.200 A 
ATOM    101  F   UNL A   1      42.423  30.159  37.253  1.00  0.00    -0.200 F 
ATOM    102  F   UNL A   1      41.566  27.616  36.762  1.00  0.00    -0.200 F 
ENDBRANCH  69  92
ENDBRANCH  43  44
ENDBRANCH  35  38
ENDBRANCH  33  34
ENDBRANCH  32  33
ENDBRANCH  31  32
ENDBRANCH  30  31
ENDBRANCH   1  30
TORSDOF 17
ENDMDL
MODEL 2
REMARK VINA RESULT:     -12.5      3.222      9.598
REMARK SMILES Cc1nn(C)cc1C[NH+]1CCN(C(=O)Cn2ccc(C(=O)NCCCCCCNC(=O)c3ccc(-c4c5nc(c(-c6c(F)c(F)c(F)c(F)c6F)c6ccc([nH]6)c(-c6c(F)c(F)c(F)c(F)c6F)c6nc(c(-c7c(F)c(F)c(F)c(F)c7F)c7ccc4[nH]7)C=C6)C=C5)cc3)n2)CC1
REMARK SMILES IDX 24 1 23 2 22 3 20 4 21 5 19 7 16 8 17 9 95 10 18 11 15 12
REMARK SMILES IDX 13 13 9 14 10 15 97 16 11 18 96 19 12 20 14 21 8 22 7 23
REMARK SMILES IDX 1 24 2 25 3 26 4 27 6 28 5 29 25 30 26 31 27 32 28 33 29 34
REMARK SMILES IDX 30 35 31 37 32 38 33 39 94 40 34 41 93 42 35 43 36 44 37 45
REMARK SMILES IDX 87 46 38 47 92 48 86 49 88 50 39 51 91 52 85 53 84 54 40 56
REMARK SMILES IDX 72 57 52 58 71 59 53 60 56 61 70 62 89 63 54 64 55 65 69 67
REMARK SMILES IDX 90 68 57 69 41 70 42 71 50 72 43 73 44 74 48 75 51 76 45 77
REMARK SMILES IDX 46 78 49 79 47 80 73 81 74 82 82 83 75 84 76 85 80 86 83 87
REMARK SMILES IDX 77 88 78 89 81 90 79 91 58 92 59 93 67 94 60 95 61 96 65 97
REMARK SMILES IDX 68 98 62 99 63 100 66 101 64 102
REMARK H PARENT 22 6 9 17 29 36 88 55 56 66
REMARK Flexibility Score: inf
ROOT
ATOM      1  C   UNL A   1      33.270  29.318  24.325  1.00  0.00     0.021 C 
ENDROOT
BRANCH   1   2
ATOM      2  C   UNL A   1      33.144  28.932  22.851  1.00  0.00     0.116 C 
BRANCH   2   3
ATOM      3  N   UNL A   1      31.784  29.107  22.394  1.00  0.00    -0.351 N 
ATOM      4  C   UNL A   1      30.649  28.342  22.506  1.00  0.00     0.271 C 
ATOM      5  O   UNL A   1      29.636  28.829  21.995  1.00  0.00    -0.267 OA
ATOM      6  H   UNL A   1      31.642  29.947  21.901  1.00  0.00     0.163 HD
BRANCH   4   7
ATOM      7  C   UNL A   1      30.625  27.039  23.209  1.00  0.00     0.150 A 
ATOM      8  N   UNL A   1      31.076  24.957  23.493  1.00  0.00    -0.263 N 
ATOM      9  C   UNL A   1      30.280  25.280  24.548  1.00  0.00     0.110 A 
ATOM     10  N   UNL A   1      31.331  26.010  22.697  1.00  0.00    -0.167 NA
ATOM     11  C   UNL A   1      29.999  26.619  24.414  1.00  0.00     0.056 A 
BRANCH   8  12
ATOM     12  C   UNL A   1      31.761  23.702  23.200  1.00  0.00     0.244 C 
BRANCH  12  13
ATOM     13  C   UNL A   1      33.138  23.615  23.828  1.00  0.00     0.244 C 
ATOM     14  N   UNL A   1      34.691  19.871  25.437  1.00  0.00    -0.328 N 
ATOM     15  C   UNL A   1      35.421  21.137  25.527  1.00  0.00     0.284 C 
ATOM     16  C   UNL A   1      33.247  20.093  25.366  1.00  0.00     0.284 C 
ATOM     17  H   UNL A   1      34.855  19.394  26.323  1.00  0.00     0.348 HD
ATOM     18  C   UNL A   1      35.017  22.222  24.515  1.00  0.00     0.181 C 
ATOM     19  C   UNL A   1      32.749  21.185  24.398  1.00  0.00     0.181 C 
ATOM     20  N   UNL A   1      33.571  22.395  24.347  1.00  0.00    -0.330 N 
ATOM     21  O   UNL A   1      33.876  24.606  23.829  1.00  0.00    -0.273 OA
BRANCH  14  22
ATOM     22  C   UNL A   1      35.246  18.844  24.550  1.00  0.00     0.302 C 
BRANCH  22  23
ATOM     23  C   UNL A   1      34.417  17.611  24.446  1.00  0.00     0.047 A 
ATOM     24  C   UNL A   1      32.949  18.071  22.311  1.00  0.00     0.069 C 
ATOM     25  C   UNL A   1      33.399  17.298  23.495  1.00  0.00     0.068 A 
ATOM     26  N   UNL A   1      32.772  16.154  23.803  1.00  0.00    -0.178 NA
ATOM     27  N   UNL A   1      33.392  15.733  24.916  1.00  0.00    -0.275 N 
ATOM     28  C   UNL A   1      34.481  16.481  25.238  1.00  0.00     0.118 A 
ATOM     29  C   UNL A   1      32.809  14.678  25.706  1.00  0.00     0.173 C 
ENDBRANCH  22  23
ENDBRANCH  14  22
ENDBRANCH  12  13
ENDBRANCH   8  12
ENDBRANCH   4   7
ENDBRANCH   2   3
ENDBRANCH   1   2
BRANCH   1  30
ATOM     30  C   UNL A   1      33.356  28.112  25.272  1.00  0.00     0.002 C 
BRANCH  30  31
ATOM     31  C   UNL A   1      32.838  28.350  26.700  1.00  0.00     0.002 C 
BRANCH  31  32
ATOM     32  C   UNL A   1      32.732  29.815  27.151  1.00  0.00     0.021 C 
BRANCH  32  33
ATOM     33  C   UNL A   1      34.079  30.501  27.307  1.00  0.00     0.116 C 
BRANCH  33  34
ATOM     34  N   UNL A   1      34.062  31.520  28.355  1.00  0.00    -0.352 N 
ATOM     35  C   UNL A   1      34.950  31.702  29.399  1.00  0.00     0.251 C 
ATOM     36  H   UNL A   1      33.317  32.163  28.313  1.00  0.00     0.163 HD
ATOM     37  O   UNL A   1      34.642  32.333  30.392  1.00  0.00    -0.269 OA
BRANCH  35  38
ATOM     38  C   UNL A   1      36.296  31.115  29.277  1.00  0.00     0.039 A 
ATOM     39  C   UNL A   1      37.426  31.914  29.078  1.00  0.00     0.014 A 
ATOM     40  C   UNL A   1      36.409  29.733  29.393  1.00  0.00     0.014 A 
ATOM     41  C   UNL A   1      38.679  31.309  29.073  1.00  0.00     0.010 A 
ATOM     42  C   UNL A   1      37.642  29.169  29.569  1.00  0.00     0.010 A 
ATOM     43  C   UNL A   1      38.778  29.934  29.338  1.00  0.00    -0.014 A 
BRANCH  43  44
ATOM     44  C   UNL A   1      40.071  29.279  29.481  1.00  0.00     0.031 A 
ATOM     45  C   UNL A   1      40.486  29.042  30.890  1.00  0.00     0.074 A 
ATOM     46  C   UNL A   1      40.713  28.720  28.431  1.00  0.00     0.049 A 
ATOM     47  N   UNL A   1      41.503  29.541  31.507  1.00  0.00    -0.248 NA
ATOM     48  C   UNL A   1      39.592  28.258  31.760  1.00  0.00     0.031 C 
ATOM     49  C   UNL A   1      40.251  28.606  27.041  1.00  0.00     0.029 A 
ATOM     50  N   UNL A   1      41.881  28.023  28.407  1.00  0.00    -0.354 N 
ATOM     51  C   UNL A   1      41.495  28.984  32.783  1.00  0.00     0.074 A 
ATOM     52  C   UNL A   1      40.209  28.357  32.939  1.00  0.00     0.031 C 
ATOM     53  C   UNL A   1      40.999  27.692  26.384  1.00  0.00     0.029 A 
ATOM     54  C   UNL A   1      42.095  27.292  27.244  1.00  0.00     0.049 A 
ATOM     55  H   UNL A   1      42.523  28.037  29.154  1.00  0.00     0.167 HD
ATOM     56  C   UNL A   1      42.648  28.868  33.499  1.00  0.00     0.037 A 
ATOM     57  C   UNL A   1      43.093  26.403  27.016  1.00  0.00     0.037 A 
ATOM     58  C   UNL A   1      43.677  29.715  32.948  1.00  0.00     0.049 A 
ATOM     59  C   UNL A   1      44.158  26.677  28.011  1.00  0.00     0.074 A 
ATOM     60  C   UNL A   1      43.818  31.075  32.753  1.00  0.00     0.029 A 
ATOM     61  N   UNL A   1      44.619  29.123  32.145  1.00  0.00    -0.354 N 
ATOM     62  N   UNL A   1      44.882  27.761  28.015  1.00  0.00    -0.248 NA
ATOM     63  C   UNL A   1      44.106  25.955  29.271  1.00  0.00     0.031 C 
ATOM     64  C   UNL A   1      44.495  31.199  31.502  1.00  0.00     0.029 A 
ATOM     65  C   UNL A   1      44.795  29.917  31.043  1.00  0.00     0.049 A 
ATOM     66  H   UNL A   1      45.087  28.276  32.329  1.00  0.00     0.167 HD
ATOM     67  C   UNL A   1      44.998  28.096  29.355  1.00  0.00     0.074 A 
ATOM     68  C   UNL A   1      44.591  26.897  30.083  1.00  0.00     0.031 C 
ATOM     69  C   UNL A   1      45.129  29.401  29.736  1.00  0.00     0.037 A 
BRANCH  56  70
ATOM     70  C   UNL A   1      42.981  27.709  34.416  1.00  0.00     0.064 A 
ATOM     71  C   UNL A   1      43.337  26.471  33.841  1.00  0.00     0.173 A 
ATOM     72  C   UNL A   1      42.661  27.666  35.790  1.00  0.00     0.173 A 
ATOM     73  F   UNL A   1      43.655  26.386  32.540  1.00  0.00    -0.203 F 
ATOM     74  C   UNL A   1      43.272  25.273  34.560  1.00  0.00     0.198 A 
ATOM     75  C   UNL A   1      42.650  26.476  36.517  1.00  0.00     0.198 A 
ATOM     76  F   UNL A   1      42.237  28.741  36.463  1.00  0.00    -0.203 F 
ATOM     77  F   UNL A   1      43.479  24.108  33.932  1.00  0.00    -0.200 F 
ATOM     78  C   UNL A   1      42.918  25.277  35.896  1.00  0.00     0.200 A 
ATOM     79  F   UNL A   1      42.289  26.500  37.808  1.00  0.00    -0.200 F 
ATOM     80  F   UNL A   1      42.785  24.127  36.569  1.00  0.00    -0.200 F 
ENDBRANCH  56  70
BRANCH  57  81
ATOM     81  C   UNL A   1      43.078  25.165  26.202  1.00  0.00     0.064 A 
ATOM     82  C   UNL A   1      44.075  24.918  25.244  1.00  0.00     0.173 A 
ATOM     83  C   UNL A   1      42.262  24.073  26.555  1.00  0.00     0.173 A 
ATOM     84  F   UNL A   1      44.919  25.894  24.883  1.00  0.00    -0.203 F 
ATOM     85  C   UNL A   1      44.268  23.644  24.698  1.00  0.00     0.198 A 
ATOM     86  C   UNL A   1      42.453  22.803  26.006  1.00  0.00     0.198 A 
ATOM     87  F   UNL A   1      41.330  24.193  27.512  1.00  0.00    -0.203 F 
ATOM     88  F   UNL A   1      45.274  23.431  23.838  1.00  0.00    -0.200 F 
ATOM     89  C   UNL A   1      43.466  22.585  25.090  1.00  0.00     0.200 A 
ATOM     90  F   UNL A   1      41.694  21.779  26.421  1.00  0.00    -0.200 F 
ATOM     91  F   UNL A   1      43.694  21.351  24.621  1.00  0.00    -0.200 F 
ENDBRANCH  57  81
BRANCH  69  92
ATOM     92  C   UNL A   1      45.439  30.410  28.664  1.00  0.00     0.064 A 
ATOM     93  C   UNL A   1      44.472  31.084  27.898  1.00  0.00     0.173 A 
ATOM     94  C   UNL A   1      46.775  30.797  28.491  1.00  0.00     0.173 A 
ATOM     95  F   UNL A   1      43.166  30.848  28.071  1.00  0.00    -0.203 F 
ATOM     96  C   UNL A   1      44.831  32.059  26.968  1.00  0.00     0.198 A 
ATOM     97  C   UNL A   1      47.129  31.797  27.592  1.00  0.00     0.198 A 
ATOM     98  F   UNL A   1      47.738  30.228  29.233  1.00  0.00    -0.203 F 
ATOM     99  F   UNL A   1      43.890  32.671  26.235  1.00  0.00    -0.200 F 
ATOM    100  C   UNL A   1      46.160  32.418  26.821  1.00  0.00     0.200 A 
ATOM    101  F   UNL A   1      48.410  32.175  27.489  1.00  0.00    -0.200 F 
ATOM    102  F   UNL A   1      46.505  33.380  25.953  1.00  0.00    -0.200 F 
ENDBRANCH  69  92
ENDBRANCH  43  44
ENDBRANCH  35  38
ENDBRANCH  33  34
ENDBRANCH  32  33
ENDBRANCH  31  32
ENDBRANCH  30  31
ENDBRANCH   1  30
TORSDOF 17
ENDMDL
MODEL 3
REMARK VINA RESULT:     -12.4      3.263      9.264
REMARK SMILES Cc1nn(C)cc1C[NH+]1CCN(C(=O)Cn2ccc(C(=O)NCCCCCCNC(=O)c3ccc(-c4c5nc(c(-c6c(F)c(F)c(F)c(F)c6F)c6ccc([nH]6)c(-c6c(F)c(F)c(F)c(F)c6F)c6nc(c(-c7c(F)c(F)c(F)c(F)c7F)c7ccc4[nH]7)C=C6)C=C5)cc3)n2)CC1
REMARK SMILES IDX 24 1 23 2 22 3 20 4 21 5 19 7 16 8 17 9 95 10 18 11 15 12
REMARK SMILES IDX 13 13 9 14 10 15 97 16 11 18 96 19 12 20 14 21 8 22 7 23
REMARK SMILES IDX 1 24 2 25 3 26 4 27 6 28 5 29 25 30 26 31 27 32 28 33 29 34
REMARK SMILES IDX 30 35 31 37 32 38 33 39 94 40 34 41 93 42 35 43 36 44 37 45
REMARK SMILES IDX 87 46 38 47 92 48 86 49 88 50 39 51 91 52 85 53 84 54 40 56
REMARK SMILES IDX 72 57 52 58 71 59 53 60 56 61 70 62 89 63 54 64 55 65 69 67
REMARK SMILES IDX 90 68 57 69 41 70 42 71 50 72 43 73 44 74 48 75 51 76 45 77
REMARK SMILES IDX 46 78 49 79 47 80 73 81 74 82 82 83 75 84 76 85 80 86 83 87
REMARK SMILES IDX 77 88 78 89 81 90 79 91 58 92 59 93 67 94 60 95 61 96 65 97
REMARK SMILES IDX 68 98 62 99 63 100 66 101 64 102
REMARK H PARENT 22 6 9 17 29 36 88 55 56 66
REMARK Flexibility Score: inf
ROOT
ATOM      1  C   UNL A   1      33.296  29.280  24.351  1.00  0.00     0.021 C 
ENDROOT
BRANCH   1   2
ATOM      2  C   UNL A   1      33.267  29.024  22.845  1.00  0.00     0.116 C 
BRANCH   2   3
ATOM      3  N   UNL A   1      32.005  29.447  22.281  1.00  0.00    -0.351 N 
ATOM      4  C   UNL A   1      30.736  28.923  22.318  1.00  0.00     0.271 C 
ATOM      5  O   UNL A   1      29.880  29.582  21.722  1.00  0.00    -0.267 OA
ATOM      6  H   UNL A   1      32.068  30.282  21.764  1.00  0.00     0.163 HD
BRANCH   4   7
ATOM      7  C   UNL A   1      30.405  27.673  23.040  1.00  0.00     0.150 A 
ATOM      8  N   UNL A   1      30.394  25.551  23.380  1.00  0.00    -0.263 N 
ATOM      9  C   UNL A   1      29.633  26.061  24.386  1.00  0.00     0.110 A 
ATOM     10  N   UNL A   1      30.904  26.505  22.582  1.00  0.00    -0.167 NA
ATOM     11  C   UNL A   1      29.646  27.425  24.216  1.00  0.00     0.056 A 
BRANCH   8  12
ATOM     12  C   UNL A   1      30.814  24.173  23.145  1.00  0.00     0.244 C 
BRANCH  12  13
ATOM     13  C   UNL A   1      32.283  24.051  22.789  1.00  0.00     0.244 C 
ATOM     14  N   UNL A   1      35.380  23.901  25.856  1.00  0.00    -0.328 N 
ATOM     15  C   UNL A   1      35.682  23.910  24.422  1.00  0.00     0.284 C 
ATOM     16  C   UNL A   1      34.105  24.562  26.135  1.00  0.00     0.284 C 
ATOM     17  H   UNL A   1      36.095  24.481  26.292  1.00  0.00     0.348 HD
ATOM     18  C   UNL A   1      34.542  23.464  23.491  1.00  0.00     0.181 C 
ATOM     19  C   UNL A   1      32.910  24.199  25.231  1.00  0.00     0.181 C 
ATOM     20  N   UNL A   1      33.229  24.032  23.812  1.00  0.00    -0.330 N 
ATOM     21  O   UNL A   1      32.619  23.921  21.607  1.00  0.00    -0.273 OA
BRANCH  14  22
ATOM     22  C   UNL A   1      35.656  22.660  26.586  1.00  0.00     0.302 C 
BRANCH  22  23
ATOM     23  C   UNL A   1      35.111  21.435  25.938  1.00  0.00     0.047 A 
ATOM     24  C   UNL A   1      37.239  20.371  24.813  1.00  0.00     0.069 C 
ATOM     25  C   UNL A   1      35.794  20.466  25.142  1.00  0.00     0.068 A 
ATOM     26  N   UNL A   1      34.945  19.576  24.610  1.00  0.00    -0.178 NA
ATOM     27  N   UNL A   1      33.745  19.955  25.076  1.00  0.00    -0.275 N 
ATOM     28  C   UNL A   1      33.818  20.952  25.998  1.00  0.00     0.118 A 
ATOM     29  C   UNL A   1      32.545  19.406  24.495  1.00  0.00     0.173 C 
ENDBRANCH  22  23
ENDBRANCH  14  22
ENDBRANCH  12  13
ENDBRANCH   8  12
ENDBRANCH   4   7
ENDBRANCH   2   3
ENDBRANCH   1   2
BRANCH   1  30
ATOM     30  C   UNL A   1      33.344  27.996  25.193  1.00  0.00     0.002 C 
BRANCH  30  31
ATOM     31  C   UNL A   1      32.767  28.110  26.614  1.00  0.00     0.002 C 
BRANCH  31  32
ATOM     32  C   UNL A   1      32.492  29.533  27.125  1.00  0.00     0.021 C 
BRANCH  32  33
ATOM     33  C   UNL A   1      33.603  30.091  27.997  1.00  0.00     0.116 C 
BRANCH  33  34
ATOM     34  N   UNL A   1      34.068  31.397  27.532  1.00  0.00    -0.352 N 
ATOM     35  C   UNL A   1      35.283  32.015  27.760  1.00  0.00     0.251 C 
ATOM     36  H   UNL A   1      33.428  31.906  26.981  1.00  0.00     0.163 HD
ATOM     37  O   UNL A   1      35.416  33.218  27.638  1.00  0.00    -0.269 OA
BRANCH  35  38
ATOM     38  C   UNL A   1      36.428  31.175  28.150  1.00  0.00     0.039 A 
ATOM     39  C   UNL A   1      36.684  29.951  27.524  1.00  0.00     0.014 A 
ATOM     40  C   UNL A   1      37.267  31.654  29.152  1.00  0.00     0.014 A 
ATOM     41  C   UNL A   1      37.838  29.253  27.867  1.00  0.00     0.010 A 
ATOM     42  C   UNL A   1      38.483  31.063  29.355  1.00  0.00     0.010 A 
ATOM     43  C   UNL A   1      38.742  29.828  28.774  1.00  0.00    -0.014 A 
BRANCH  43  44
ATOM     44  C   UNL A   1      40.028  29.206  29.062  1.00  0.00     0.031 A 
ATOM     45  C   UNL A   1      40.290  28.981  30.510  1.00  0.00     0.074 A 
ATOM     46  C   UNL A   1      40.797  28.663  28.092  1.00  0.00     0.049 A 
ATOM     47  N   UNL A   1      41.219  29.508  31.234  1.00  0.00    -0.248 NA
ATOM     48  C   UNL A   1      39.324  28.175  31.278  1.00  0.00     0.031 C 
ATOM     49  C   UNL A   1      40.495  28.536  26.660  1.00  0.00     0.029 A 
ATOM     50  N   UNL A   1      41.978  27.997  28.201  1.00  0.00    -0.354 N 
ATOM     51  C   UNL A   1      41.083  28.951  32.503  1.00  0.00     0.074 A 
ATOM     52  C   UNL A   1      39.804  28.292  32.518  1.00  0.00     0.031 C 
ATOM     53  C   UNL A   1      41.335  27.641  26.094  1.00  0.00     0.029 A 
ATOM     54  C   UNL A   1      42.338  27.271  27.071  1.00  0.00     0.049 A 
ATOM     55  H   UNL A   1      42.532  28.028  29.014  1.00  0.00     0.167 HD
ATOM     56  C   UNL A   1      42.152  28.865  33.343  1.00  0.00     0.037 A 
ATOM     57  C   UNL A   1      43.378  26.407  26.959  1.00  0.00     0.037 A 
ATOM     58  C   UNL A   1      43.214  29.739  32.906  1.00  0.00     0.049 A 
ATOM     59  C   UNL A   1      44.318  26.710  28.065  1.00  0.00     0.074 A 
ATOM     60  C   UNL A   1      43.341  31.101  32.723  1.00  0.00     0.029 A 
ATOM     61  N   UNL A   1      44.254  29.171  32.216  1.00  0.00    -0.354 N 
ATOM     62  N   UNL A   1      45.009  27.812  28.146  1.00  0.00    -0.248 NA
ATOM     63  C   UNL A   1      44.144  25.988  29.314  1.00  0.00     0.031 C 
ATOM     64  C   UNL A   1      44.149  31.242  31.555  1.00  0.00     0.029 A 
ATOM     65  C   UNL A   1      44.531  29.968  31.137  1.00  0.00     0.049 A 
ATOM     66  H   UNL A   1      44.720  28.336  32.453  1.00  0.00     0.167 HD
ATOM     67  C   UNL A   1      44.967  28.151  29.489  1.00  0.00     0.074 A 
ATOM     68  C   UNL A   1      44.513  26.943  30.172  1.00  0.00     0.031 C 
ATOM     69  C   UNL A   1      45.021  29.459  29.877  1.00  0.00     0.037 A 
BRANCH  56  70
ATOM     70  C   UNL A   1      42.411  27.717  34.296  1.00  0.00     0.064 A 
ATOM     71  C   UNL A   1      43.008  26.541  33.793  1.00  0.00     0.173 A 
ATOM     72  C   UNL A   1      41.821  27.595  35.572  1.00  0.00     0.173 A 
ATOM     73  F   UNL A   1      43.594  26.533  32.586  1.00  0.00    -0.203 F 
ATOM     74  C   UNL A   1      42.923  25.320  34.469  1.00  0.00     0.198 A 
ATOM     75  C   UNL A   1      41.788  26.387  36.267  1.00  0.00     0.198 A 
ATOM     76  F   UNL A   1      41.156  28.598  36.154  1.00  0.00    -0.203 F 
ATOM     77  F   UNL A   1      43.379  24.204  33.884  1.00  0.00    -0.200 F 
ATOM     78  C   UNL A   1      42.303  25.242  35.701  1.00  0.00     0.200 A 
ATOM     79  F   UNL A   1      41.168  26.330  37.455  1.00  0.00    -0.200 F 
ATOM     80  F   UNL A   1      42.159  24.063  36.318  1.00  0.00    -0.200 F 
ENDBRANCH  56  70
BRANCH  57  81
ATOM     81  C   UNL A   1      43.485  25.169  26.153  1.00  0.00     0.064 A 
ATOM     82  C   UNL A   1      44.579  24.953  25.299  1.00  0.00     0.173 A 
ATOM     83  C   UNL A   1      42.675  24.050  26.428  1.00  0.00     0.173 A 
ATOM     84  F   UNL A   1      45.422  25.957  25.020  1.00  0.00    -0.203 F 
ATOM     85  C   UNL A   1      44.868  23.687  24.782  1.00  0.00     0.198 A 
ATOM     86  C   UNL A   1      42.961  22.786  25.906  1.00  0.00     0.198 A 
ATOM     87  F   UNL A   1      41.648  24.139  27.287  1.00  0.00    -0.203 F 
ATOM     88  F   UNL A   1      45.961  23.506  24.026  1.00  0.00    -0.200 F 
ATOM     89  C   UNL A   1      44.067  22.602  25.096  1.00  0.00     0.200 A 
ATOM     90  F   UNL A   1      42.199  21.738  26.249  1.00  0.00    -0.200 F 
ATOM     91  F   UNL A   1      44.381  21.375  24.657  1.00  0.00    -0.200 F 
ENDBRANCH  57  81
BRANCH  69  92
ATOM     92  C   UNL A   1      45.423  30.475  28.842  1.00  0.00     0.064 A 
ATOM     93  C   UNL A   1      46.751  30.761  28.479  1.00  0.00     0.173 A 
ATOM     94  C   UNL A   1      44.409  31.100  28.105  1.00  0.00     0.173 A 
ATOM     95  F   UNL A   1      47.778  30.133  29.064  1.00  0.00    -0.203 F 
ATOM     96  C   UNL A   1      47.046  31.667  27.461  1.00  0.00     0.198 A 
ATOM     97  C   UNL A   1      44.704  31.974  27.064  1.00  0.00     0.198 A 
ATOM     98  F   UNL A   1      43.122  30.827  28.370  1.00  0.00    -0.203 F 
ATOM     99  F   UNL A   1      48.322  31.937  27.148  1.00  0.00    -0.200 F 
ATOM    100  C   UNL A   1      46.021  32.268  26.750  1.00  0.00     0.200 A 
ATOM    101  F   UNL A   1      43.709  32.515  26.348  1.00  0.00    -0.200 F 
ATOM    102  F   UNL A   1      46.302  33.112  25.747  1.00  0.00    -0.200 F 
ENDBRANCH  69  92
ENDBRANCH  43  44
ENDBRANCH  35  38
ENDBRANCH  33  34
ENDBRANCH  32  33
ENDBRANCH  31  32
ENDBRANCH  30  31
ENDBRANCH   1  30
TORSDOF 17
ENDMDL
