MODEL 1
REMARK VINA RESULT:     -12.9      0.000      0.000
REMARK SMILES Cc1cc([N+](=O)[O-])ccc1N1CCC(CC(=O)NCCCCCCNC(=O)c2ccc(-c3c4nc(c(-c5c(F)c(F)c(F)c(F)c5F)c5ccc([nH]5)c(-c5c(F)c(F)c(F)c(F)c5F)c5nc(c(-c6c(F)c(F)c(F)c(F)c6F)c6ccc3[nH]6)C=C5)C=C4)cc2)CC1
REMARK SMILES IDX 21 1 20 2 19 3 18 4 16 5 17 6 15 8 14 9 11 10 12 11 92 12
REMARK SMILES IDX 13 13 91 14 10 15 1 16 2 17 3 18 4 19 9 20 8 21 5 22 6 23
REMARK SMILES IDX 7 24 22 25 23 26 24 27 25 28 26 29 27 31 28 32 29 33 90 34
REMARK SMILES IDX 30 35 89 36 31 37 32 38 33 39 83 40 34 41 88 42 82 43 84 44
REMARK SMILES IDX 35 45 87 46 81 47 80 48 36 50 68 51 48 52 67 53 49 54 52 55
REMARK SMILES IDX 66 56 85 57 50 58 51 59 65 61 86 62 53 63 37 64 38 65 46 66
REMARK SMILES IDX 39 67 40 68 44 69 47 70 41 71 42 72 45 73 43 74 69 75 70 76
REMARK SMILES IDX 78 77 71 78 72 79 76 80 79 81 73 82 74 83 77 84 75 85 54 86
REMARK SMILES IDX 55 87 63 88 56 89 57 90 61 91 64 92 58 93 59 94 62 95 60 96
REMARK H PARENT 18 7 25 30 84 49 52 60
REMARK Flexibility Score: inf
ROOT
ATOM      1  C   UNL A   1      32.440  28.817  24.959  1.00  0.00     0.002 C 
ENDROOT
BRANCH   1   2
ATOM      2  C   UNL A   1      31.529  28.153  23.923  1.00  0.00     0.021 C 
BRANCH   2   3
ATOM      3  C   UNL A   1      31.578  26.618  23.875  1.00  0.00     0.116 C 
BRANCH   3   4
ATOM      4  N   UNL A   1      31.273  26.034  25.172  1.00  0.00    -0.356 N 
ATOM      5  C   UNL A   1      32.070  25.376  26.063  1.00  0.00     0.220 C 
ATOM      6  O   UNL A   1      31.546  24.898  27.072  1.00  0.00    -0.275 OA
ATOM      7  H   UNL A   1      30.335  26.129  25.454  1.00  0.00     0.163 HD
BRANCH   5   8
ATOM      8  C   UNL A   1      33.564  25.233  25.826  1.00  0.00     0.103 C 
BRANCH   8   9
ATOM      9  C   UNL A   1      33.989  23.870  25.236  1.00  0.00     0.002 C 
ATOM     10  N   UNL A   1      36.140  21.987  25.131  1.00  0.00    -0.371 N 
ATOM     11  C   UNL A   1      35.860  22.717  23.912  1.00  0.00     0.117 C 
ATOM     12  C   UNL A   1      35.003  21.605  25.949  1.00  0.00     0.117 C 
ATOM     13  C   UNL A   1      35.201  24.027  24.308  1.00  0.00     0.025 C 
ATOM     14  C   UNL A   1      34.271  22.877  26.390  1.00  0.00     0.025 C 
BRANCH  10  15
ATOM     15  C   UNL A   1      37.409  21.510  25.358  1.00  0.00     0.040 A 
ATOM     16  C   UNL A   1      38.189  23.704  26.406  1.00  0.00     0.047 C 
ATOM     17  C   UNL A   1      38.402  22.270  26.003  1.00  0.00    -0.021 A 
ATOM     18  C   UNL A   1      39.654  21.689  26.278  1.00  0.00     0.091 A 
ATOM     19  C   UNL A   1      39.909  20.358  25.926  1.00  0.00     0.269 A 
ATOM     20  C   UNL A   1      37.698  20.182  24.995  1.00  0.00     0.033 A 
ATOM     21  C   UNL A   1      38.935  19.599  25.276  1.00  0.00     0.088 A 
BRANCH  19  22
ATOM     22  N   UNL A   1      41.201  19.748  26.266  1.00  0.00     0.062 N 
ATOM     23  O   UNL A   1      41.579  19.814  27.445  1.00  0.00    -0.258 OA
ATOM     24  O   UNL A   1      41.830  19.186  25.358  1.00  0.00    -0.258 OA
ENDBRANCH  19  22
ENDBRANCH  10  15
ENDBRANCH   8   9
ENDBRANCH   5   8
ENDBRANCH   3   4
ENDBRANCH   2   3
ENDBRANCH   1   2
BRANCH   1  25
ATOM     25  C   UNL A   1      31.746  29.509  26.141  1.00  0.00     0.002 C 
BRANCH  25  26
ATOM     26  C   UNL A   1      32.532  30.636  26.814  1.00  0.00     0.021 C 
BRANCH  26  27
ATOM     27  C   UNL A   1      33.868  30.206  27.413  1.00  0.00     0.116 C 
BRANCH  27  28
ATOM     28  N   UNL A   1      34.374  31.138  28.414  1.00  0.00    -0.352 N 
ATOM     29  C   UNL A   1      35.536  31.094  29.162  1.00  0.00     0.251 C 
ATOM     30  H   UNL A   1      33.800  31.919  28.582  1.00  0.00     0.163 HD
ATOM     31  O   UNL A   1      35.756  31.950  30.003  1.00  0.00    -0.269 OA
BRANCH  29  32
ATOM     32  C   UNL A   1      36.578  30.093  28.832  1.00  0.00     0.039 A 
ATOM     33  C   UNL A   1      36.923  29.177  29.833  1.00  0.00     0.014 A 
ATOM     34  C   UNL A   1      37.335  30.179  27.666  1.00  0.00     0.014 A 
ATOM     35  C   UNL A   1      38.161  28.545  29.782  1.00  0.00     0.010 A 
ATOM     36  C   UNL A   1      38.596  29.610  27.644  1.00  0.00     0.010 A 
ATOM     37  C   UNL A   1      39.033  28.866  28.743  1.00  0.00    -0.014 A 
BRANCH  37  38
ATOM     38  C   UNL A   1      40.464  28.600  28.826  1.00  0.00     0.031 A 
ATOM     39  C   UNL A   1      41.037  27.347  28.305  1.00  0.00     0.074 A 
ATOM     40  C   UNL A   1      41.261  29.536  29.385  1.00  0.00     0.049 A 
ATOM     41  N   UNL A   1      42.106  26.788  28.766  1.00  0.00    -0.248 NA
ATOM     42  C   UNL A   1      40.403  26.592  27.235  1.00  0.00     0.031 C 
ATOM     43  C   UNL A   1      42.720  29.579  29.389  1.00  0.00     0.029 A 
ATOM     44  N   UNL A   1      40.875  30.559  30.268  1.00  0.00    -0.354 N 
ATOM     45  C   UNL A   1      42.441  25.757  27.917  1.00  0.00     0.074 A 
ATOM     46  C   UNL A   1      41.314  25.638  27.018  1.00  0.00     0.031 C 
ATOM     47  C   UNL A   1      43.123  30.355  30.410  1.00  0.00     0.029 A 
ATOM     48  C   UNL A   1      41.940  30.699  31.182  1.00  0.00     0.049 A 
ATOM     49  H   UNL A   1      40.034  31.072  30.252  1.00  0.00     0.167 HD
ATOM     50  C   UNL A   1      43.692  25.210  27.983  1.00  0.00     0.037 A 
ATOM     51  C   UNL A   1      41.778  30.446  32.512  1.00  0.00     0.037 A 
ATOM     52  C   UNL A   1      44.477  25.813  29.058  1.00  0.00     0.049 A 
ATOM     53  C   UNL A   1      42.709  29.392  33.056  1.00  0.00     0.074 A 
ATOM     54  C   UNL A   1      45.403  26.844  29.058  1.00  0.00     0.029 A 
ATOM     55  N   UNL A   1      44.138  25.585  30.386  1.00  0.00    -0.354 N 
ATOM     56  N   UNL A   1      43.282  28.482  32.322  1.00  0.00    -0.248 NA
ATOM     57  C   UNL A   1      43.002  29.242  34.478  1.00  0.00     0.031 C 
ATOM     58  C   UNL A   1      45.584  27.272  30.394  1.00  0.00     0.029 A 
ATOM     59  C   UNL A   1      44.782  26.492  31.209  1.00  0.00     0.049 A 
ATOM     60  H   UNL A   1      43.526  24.879  30.698  1.00  0.00     0.167 HD
ATOM     61  C   UNL A   1      43.953  27.609  33.138  1.00  0.00     0.074 A 
ATOM     62  C   UNL A   1      43.775  28.144  34.473  1.00  0.00     0.031 C 
ATOM     63  C   UNL A   1      44.571  26.496  32.646  1.00  0.00     0.037 A 
BRANCH  50  64
ATOM     64  C   UNL A   1      44.305  24.388  26.866  1.00  0.00     0.064 A 
ATOM     65  C   UNL A   1      43.991  23.018  26.716  1.00  0.00     0.173 A 
ATOM     66  C   UNL A   1      45.267  24.867  25.960  1.00  0.00     0.173 A 
ATOM     67  F   UNL A   1      42.992  22.448  27.401  1.00  0.00    -0.203 F 
ATOM     68  C   UNL A   1      44.694  22.175  25.852  1.00  0.00     0.198 A 
ATOM     69  C   UNL A   1      46.011  24.015  25.135  1.00  0.00     0.198 A 
ATOM     70  F   UNL A   1      45.477  26.180  25.802  1.00  0.00    -0.203 F 
ATOM     71  F   UNL A   1      44.362  20.878  25.773  1.00  0.00    -0.200 F 
ATOM     72  C   UNL A   1      45.738  22.663  25.097  1.00  0.00     0.200 A 
ATOM     73  F   UNL A   1      46.999  24.517  24.378  1.00  0.00    -0.200 F 
ATOM     74  F   UNL A   1      46.453  21.844  24.315  1.00  0.00    -0.200 F 
ENDBRANCH  50  64
BRANCH  51  75
ATOM     75  C   UNL A   1      40.388  30.637  33.006  1.00  0.00     0.064 A 
ATOM     76  C   UNL A   1      39.867  31.940  33.109  1.00  0.00     0.173 A 
ATOM     77  C   UNL A   1      39.484  29.570  33.079  1.00  0.00     0.173 A 
ATOM     78  F   UNL A   1      40.689  32.999  33.040  1.00  0.00    -0.203 F 
ATOM     79  C   UNL A   1      38.494  32.167  33.188  1.00  0.00     0.198 A 
ATOM     80  C   UNL A   1      38.110  29.801  33.169  1.00  0.00     0.198 A 
ATOM     81  F   UNL A   1      39.913  28.306  32.968  1.00  0.00    -0.203 F 
ATOM     82  F   UNL A   1      38.023  33.423  33.191  1.00  0.00    -0.200 F 
ATOM     83  C   UNL A   1      37.616  31.097  33.196  1.00  0.00     0.200 A 
ATOM     84  F   UNL A   1      37.259  28.766  33.145  1.00  0.00    -0.200 F 
ATOM     85  F   UNL A   1      36.293  31.312  33.196  1.00  0.00    -0.200 F 
ENDBRANCH  51  75
BRANCH  63  86
ATOM     86  C   UNL A   1      45.115  25.372  33.484  1.00  0.00     0.064 A 
ATOM     87  C   UNL A   1      44.304  24.480  34.205  1.00  0.00     0.173 A 
ATOM     88  C   UNL A   1      46.496  25.071  33.470  1.00  0.00     0.173 A 
ATOM     89  F   UNL A   1      42.968  24.590  34.194  1.00  0.00    -0.203 F 
ATOM     90  C   UNL A   1      44.841  23.408  34.923  1.00  0.00     0.198 A 
ATOM     91  C   UNL A   1      47.023  23.969  34.142  1.00  0.00     0.198 A 
ATOM     92  F   UNL A   1      47.367  25.827  32.786  1.00  0.00    -0.203 F 
ATOM     93  F   UNL A   1      44.030  22.613  35.633  1.00  0.00    -0.200 F 
ATOM     94  C   UNL A   1      46.198  23.148  34.883  1.00  0.00     0.200 A 
ATOM     95  F   UNL A   1      48.333  23.698  34.053  1.00  0.00    -0.200 F 
ATOM     96  F   UNL A   1      46.705  22.096  35.540  1.00  0.00    -0.200 F 
ENDBRANCH  63  86
ENDBRANCH  37  38
ENDBRANCH  29  32
ENDBRANCH  27  28
ENDBRANCH  26  27
ENDBRANCH  25  26
ENDBRANCH   1  25
TORSDOF 16
ENDMDL
MODEL 2
REMARK VINA RESULT:     -12.7      2.328      3.144
REMARK SMILES Cc1cc([N+](=O)[O-])ccc1N1CCC(CC(=O)NCCCCCCNC(=O)c2ccc(-c3c4nc(c(-c5c(F)c(F)c(F)c(F)c5F)c5ccc([nH]5)c(-c5c(F)c(F)c(F)c(F)c5F)c5nc(c(-c6c(F)c(F)c(F)c(F)c6F)c6ccc3[nH]6)C=C5)C=C4)cc2)CC1
REMARK SMILES IDX 21 1 20 2 19 3 18 4 16 5 17 6 15 8 14 9 11 10 12 11 92 12
REMARK SMILES IDX 13 13 91 14 10 15 1 16 2 17 3 18 4 19 9 20 8 21 5 22 6 23
REMARK SMILES IDX 7 24 22 25 23 26 24 27 25 28 26 29 27 31 28 32 29 33 90 34
REMARK SMILES IDX 30 35 89 36 31 37 32 38 33 39 83 40 34 41 88 42 82 43 84 44
REMARK SMILES IDX 35 45 87 46 81 47 80 48 36 50 68 51 48 52 67 53 49 54 52 55
REMARK SMILES IDX 66 56 85 57 50 58 51 59 65 61 86 62 53 63 37 64 38 65 46 66
REMARK SMILES IDX 39 67 40 68 44 69 47 70 41 71 42 72 45 73 43 74 69 75 70 76
REMARK SMILES IDX 78 77 71 78 72 79 76 80 79 81 73 82 74 83 77 84 75 85 54 86
REMARK SMILES IDX 55 87 63 88 56 89 57 90 61 91 64 92 58 93 59 94 62 95 60 96
REMARK H PARENT 18 7 25 30 84 49 52 60
REMARK Flexibility Score: inf
ROOT
ATOM      1  C   UNL A   1      32.009  28.863  25.248  1.00  0.00     0.002 C 
ENDROOT
BRANCH   1   2
ATOM      2  C   UNL A   1      30.926  29.350  24.281  1.00  0.00     0.021 C 
BRANCH   2   3
ATOM      3  C   UNL A   1      30.760  28.530  22.993  1.00  0.00     0.116 C 
BRANCH   3   4
ATOM      4  N   UNL A   1      32.047  28.212  22.394  1.00  0.00    -0.356 N 
ATOM      5  C   UNL A   1      32.583  27.015  22.017  1.00  0.00     0.220 C 
ATOM      6  O   UNL A   1      33.744  27.001  21.601  1.00  0.00    -0.275 OA
ATOM      7  H   UNL A   1      32.629  28.990  22.235  1.00  0.00     0.163 HD
BRANCH   5   8
ATOM      8  C   UNL A   1      31.777  25.730  22.101  1.00  0.00     0.103 C 
BRANCH   8   9
ATOM      9  C   UNL A   1      32.025  24.905  23.383  1.00  0.00     0.002 C 
ATOM     10  N   UNL A   1      32.444  22.246  24.354  1.00  0.00    -0.371 N 
ATOM     11  C   UNL A   1      31.177  22.864  24.687  1.00  0.00     0.117 C 
ATOM     12  C   UNL A   1      33.614  23.106  24.334  1.00  0.00     0.117 C 
ATOM     13  C   UNL A   1      30.884  23.905  23.621  1.00  0.00     0.025 C 
ATOM     14  C   UNL A   1      33.398  24.198  23.281  1.00  0.00     0.025 C 
BRANCH  10  15
ATOM     15  C   UNL A   1      32.530  20.877  24.278  1.00  0.00     0.040 A 
ATOM     16  C   UNL A   1      31.869  20.838  21.811  1.00  0.00     0.047 C 
ATOM     17  C   UNL A   1      32.314  20.166  23.083  1.00  0.00    -0.021 A 
ATOM     18  C   UNL A   1      32.502  18.772  23.058  1.00  0.00     0.091 A 
ATOM     19  C   UNL A   1      32.914  18.093  24.211  1.00  0.00     0.269 A 
ATOM     20  C   UNL A   1      32.922  20.168  25.428  1.00  0.00     0.033 A 
ATOM     21  C   UNL A   1      33.120  18.786  25.404  1.00  0.00     0.088 A 
BRANCH  19  22
ATOM     22  N   UNL A   1      33.157  16.645  24.158  1.00  0.00     0.062 N 
ATOM     23  O   UNL A   1      32.817  15.966  25.138  1.00  0.00    -0.258 OA
ATOM     24  O   UNL A   1      33.670  16.184  23.128  1.00  0.00    -0.258 OA
ENDBRANCH  19  22
ENDBRANCH  10  15
ENDBRANCH   8   9
ENDBRANCH   5   8
ENDBRANCH   3   4
ENDBRANCH   2   3
ENDBRANCH   1   2
BRANCH   1  25
ATOM     25  C   UNL A   1      31.839  29.253  26.723  1.00  0.00     0.002 C 
BRANCH  25  26
ATOM     26  C   UNL A   1      32.618  30.485  27.186  1.00  0.00     0.021 C 
BRANCH  26  27
ATOM     27  C   UNL A   1      34.110  30.247  27.401  1.00  0.00     0.116 C 
BRANCH  27  28
ATOM     28  N   UNL A   1      34.685  31.104  28.431  1.00  0.00    -0.352 N 
ATOM     29  C   UNL A   1      35.819  30.930  29.202  1.00  0.00     0.251 C 
ATOM     30  H   UNL A   1      34.189  31.936  28.604  1.00  0.00     0.163 HD
ATOM     31  O   UNL A   1      36.105  31.743  30.066  1.00  0.00    -0.269 OA
BRANCH  29  32
ATOM     32  C   UNL A   1      36.763  29.835  28.873  1.00  0.00     0.039 A 
ATOM     33  C   UNL A   1      37.114  28.962  29.911  1.00  0.00     0.014 A 
ATOM     34  C   UNL A   1      37.438  29.789  27.656  1.00  0.00     0.014 A 
ATOM     35  C   UNL A   1      38.298  28.238  29.821  1.00  0.00     0.010 A 
ATOM     36  C   UNL A   1      38.650  29.127  27.590  1.00  0.00     0.010 A 
ATOM     37  C   UNL A   1      39.113  28.425  28.705  1.00  0.00    -0.014 A 
BRANCH  37  38
ATOM     38  C   UNL A   1      40.524  28.059  28.710  1.00  0.00     0.031 A 
ATOM     39  C   UNL A   1      40.974  26.755  28.196  1.00  0.00     0.074 A 
ATOM     40  C   UNL A   1      41.418  28.951  29.191  1.00  0.00     0.049 A 
ATOM     41  N   UNL A   1      42.028  26.133  28.609  1.00  0.00    -0.248 NA
ATOM     42  C   UNL A   1      40.223  26.019  27.190  1.00  0.00     0.031 C 
ATOM     43  C   UNL A   1      42.874  28.889  29.106  1.00  0.00     0.029 A 
ATOM     44  N   UNL A   1      41.160  30.022  30.063  1.00  0.00    -0.354 N 
ATOM     45  C   UNL A   1      42.237  25.059  27.774  1.00  0.00     0.074 A 
ATOM     46  C   UNL A   1      41.051  24.996  26.948  1.00  0.00     0.031 C 
ATOM     47  C   UNL A   1      43.393  29.661  30.076  1.00  0.00     0.029 A 
ATOM     48  C   UNL A   1      42.287  30.110  30.906  1.00  0.00     0.049 A 
ATOM     49  H   UNL A   1      40.358  30.593  30.082  1.00  0.00     0.167 HD
ATOM     50  C   UNL A   1      43.448  24.425  27.782  1.00  0.00     0.037 A 
ATOM     51  C   UNL A   1      42.191  29.906  32.251  1.00  0.00     0.037 A 
ATOM     52  C   UNL A   1      44.339  24.998  28.788  1.00  0.00     0.049 A 
ATOM     53  C   UNL A   1      43.078  28.803  32.771  1.00  0.00     0.074 A 
ATOM     54  C   UNL A   1      45.333  25.960  28.700  1.00  0.00     0.029 A 
ATOM     55  N   UNL A   1      44.068  24.832  30.141  1.00  0.00    -0.354 N 
ATOM     56  N   UNL A   1      43.539  27.834  32.032  1.00  0.00    -0.248 NA
ATOM     57  C   UNL A   1      43.447  28.671  34.177  1.00  0.00     0.031 C 
ATOM     58  C   UNL A   1      45.626  26.410  30.009  1.00  0.00     0.029 A 
ATOM     59  C   UNL A   1      44.824  25.712  30.894  1.00  0.00     0.049 A 
ATOM     60  H   UNL A   1      43.429  24.180  30.511  1.00  0.00     0.167 HD
ATOM     61  C   UNL A   1      44.197  26.938  32.834  1.00  0.00     0.074 A 
ATOM     62  C   UNL A   1      44.140  27.520  34.160  1.00  0.00     0.031 C 
ATOM     63  C   UNL A   1      44.704  25.770  32.341  1.00  0.00     0.037 A 
BRANCH  50  64
ATOM     64  C   UNL A   1      43.931  23.531  26.656  1.00  0.00     0.064 A 
ATOM     65  C   UNL A   1      43.477  22.197  26.542  1.00  0.00     0.173 A 
ATOM     66  C   UNL A   1      44.899  23.900  25.705  1.00  0.00     0.173 A 
ATOM     67  F   UNL A   1      42.456  21.739  27.276  1.00  0.00    -0.203 F 
ATOM     68  C   UNL A   1      44.059  21.277  25.666  1.00  0.00     0.198 A 
ATOM     69  C   UNL A   1      45.521  22.967  24.867  1.00  0.00     0.198 A 
ATOM     70  F   UNL A   1      45.230  25.184  25.516  1.00  0.00    -0.203 F 
ATOM     71  F   UNL A   1      43.597  20.018  25.623  1.00  0.00    -0.200 F 
ATOM     72  C   UNL A   1      45.114  21.649  24.863  1.00  0.00     0.200 A 
ATOM     73  F   UNL A   1      46.521  23.358  24.063  1.00  0.00    -0.200 F 
ATOM     74  F   UNL A   1      45.712  20.752  24.068  1.00  0.00    -0.200 F 
ENDBRANCH  50  64
BRANCH  51  75
ATOM     75  C   UNL A   1      40.851  30.209  32.822  1.00  0.00     0.064 A 
ATOM     76  C   UNL A   1      40.444  31.550  32.948  1.00  0.00     0.173 A 
ATOM     77  C   UNL A   1      39.869  29.220  32.950  1.00  0.00     0.173 A 
ATOM     78  F   UNL A   1      41.345  32.539  32.828  1.00  0.00    -0.203 F 
ATOM     79  C   UNL A   1      39.101  31.888  33.102  1.00  0.00     0.198 A 
ATOM     80  C   UNL A   1      38.526  29.561  33.116  1.00  0.00     0.198 A 
ATOM     81  F   UNL A   1      40.187  27.924  32.821  1.00  0.00    -0.203 F 
ATOM     82  F   UNL A   1      38.735  33.178  33.126  1.00  0.00    -0.200 F 
ATOM     83  C   UNL A   1      38.141  30.893  33.165  1.00  0.00     0.200 A 
ATOM     84  F   UNL A   1      37.593  28.599  33.146  1.00  0.00    -0.200 F 
ATOM     85  F   UNL A   1      36.842  31.216  33.238  1.00  0.00    -0.200 F 
ENDBRANCH  51  75
BRANCH  63  86
ATOM     86  C   UNL A   1      45.219  24.632  33.179  1.00  0.00     0.064 A 
ATOM     87  C   UNL A   1      46.466  24.649  33.826  1.00  0.00     0.173 A 
ATOM     88  C   UNL A   1      44.391  23.526  33.472  1.00  0.00     0.173 A 
ATOM     89  F   UNL A   1      47.289  25.702  33.722  1.00  0.00    -0.203 F 
ATOM     90  C   UNL A   1      46.886  23.600  34.647  1.00  0.00     0.198 A 
ATOM     91  C   UNL A   1      44.790  22.507  34.335  1.00  0.00     0.198 A 
ATOM     92  F   UNL A   1      43.162  23.416  32.945  1.00  0.00    -0.203 F 
ATOM     93  F   UNL A   1      48.104  23.641  35.204  1.00  0.00    -0.200 F 
ATOM     94  C   UNL A   1      46.045  22.535  34.909  1.00  0.00     0.200 A 
ATOM     95  F   UNL A   1      43.945  21.506  34.622  1.00  0.00    -0.200 F 
ATOM     96  F   UNL A   1      46.436  21.550  35.729  1.00  0.00    -0.200 F 
ENDBRANCH  63  86
ENDBRANCH  37  38
ENDBRANCH  29  32
ENDBRANCH  27  28
ENDBRANCH  26  27
ENDBRANCH  25  26
ENDBRANCH   1  25
TORSDOF 16
ENDMDL
MODEL 3
REMARK VINA RESULT:     -12.7      3.338     10.460
REMARK SMILES Cc1cc([N+](=O)[O-])ccc1N1CCC(CC(=O)NCCCCCCNC(=O)c2ccc(-c3c4nc(c(-c5c(F)c(F)c(F)c(F)c5F)c5ccc([nH]5)c(-c5c(F)c(F)c(F)c(F)c5F)c5nc(c(-c6c(F)c(F)c(F)c(F)c6F)c6ccc3[nH]6)C=C5)C=C4)cc2)CC1
REMARK SMILES IDX 21 1 20 2 19 3 18 4 16 5 17 6 15 8 14 9 11 10 12 11 92 12
REMARK SMILES IDX 13 13 91 14 10 15 1 16 2 17 3 18 4 19 9 20 8 21 5 22 6 23
REMARK SMILES IDX 7 24 22 25 23 26 24 27 25 28 26 29 27 31 28 32 29 33 90 34
REMARK SMILES IDX 30 35 89 36 31 37 32 38 33 39 83 40 34 41 88 42 82 43 84 44
REMARK SMILES IDX 35 45 87 46 81 47 80 48 36 50 68 51 48 52 67 53 49 54 52 55
REMARK SMILES IDX 66 56 85 57 50 58 51 59 65 61 86 62 53 63 37 64 38 65 46 66
REMARK SMILES IDX 39 67 40 68 44 69 47 70 41 71 42 72 45 73 43 74 69 75 70 76
REMARK SMILES IDX 78 77 71 78 72 79 76 80 79 81 73 82 74 83 77 84 75 85 54 86
REMARK SMILES IDX 55 87 63 88 56 89 57 90 61 91 64 92 58 93 59 94 62 95 60 96
REMARK H PARENT 18 7 25 30 84 49 52 60
REMARK Flexibility Score: inf
ROOT
ATOM      1  C   UNL A   1      35.319  21.368  25.991  1.00  0.00     0.002 C 
ENDROOT
BRANCH   1   2
ATOM      2  C   UNL A   1      33.906  20.986  25.541  1.00  0.00     0.021 C 
BRANCH   2   3
ATOM      3  C   UNL A   1      33.007  22.149  25.094  1.00  0.00     0.116 C 
BRANCH   3   4
ATOM      4  N   UNL A   1      33.582  22.862  23.963  1.00  0.00    -0.356 N 
ATOM      5  C   UNL A   1      34.024  24.149  23.851  1.00  0.00     0.220 C 
ATOM      6  O   UNL A   1      34.398  24.542  22.744  1.00  0.00    -0.275 OA
ATOM      7  H   UNL A   1      33.665  22.327  23.141  1.00  0.00     0.163 HD
BRANCH   5   8
ATOM      8  C   UNL A   1      34.059  25.076  25.054  1.00  0.00     0.103 C 
BRANCH   8   9
ATOM      9  C   UNL A   1      32.998  26.197  25.026  1.00  0.00     0.002 C 
ATOM     10  N   UNL A   1      32.480  28.886  25.855  1.00  0.00    -0.371 N 
ATOM     11  C   UNL A   1      31.736  27.846  26.534  1.00  0.00     0.117 C 
ATOM     12  C   UNL A   1      32.738  28.698  24.439  1.00  0.00     0.117 C 
ATOM     13  C   UNL A   1      32.556  26.570  26.449  1.00  0.00     0.025 C 
ATOM     14  C   UNL A   1      33.561  27.418  24.259  1.00  0.00     0.025 C 
BRANCH  10  15
ATOM     15  C   UNL A   1      32.726  30.074  26.501  1.00  0.00     0.040 A 
ATOM     16  C   UNL A   1      35.071  29.358  27.212  1.00  0.00     0.047 C 
ATOM     17  C   UNL A   1      33.956  30.365  27.118  1.00  0.00    -0.021 A 
ATOM     18  C   UNL A   1      34.168  31.634  27.687  1.00  0.00     0.091 A 
ATOM     19  C   UNL A   1      33.166  32.611  27.630  1.00  0.00     0.269 A 
ATOM     20  C   UNL A   1      31.728  31.066  26.476  1.00  0.00     0.033 A 
ATOM     21  C   UNL A   1      31.938  32.330  27.030  1.00  0.00     0.088 A 
BRANCH  19  22
ATOM     22  N   UNL A   1      33.418  33.949  28.181  1.00  0.00     0.062 N 
ATOM     23  O   UNL A   1      34.497  34.493  27.905  1.00  0.00    -0.258 OA
ATOM     24  O   UNL A   1      32.530  34.463  28.875  1.00  0.00    -0.258 OA
ENDBRANCH  19  22
ENDBRANCH  10  15
ENDBRANCH   8   9
ENDBRANCH   5   8
ENDBRANCH   3   4
ENDBRANCH   2   3
ENDBRANCH   1   2
BRANCH   1  25
ATOM     25  C   UNL A   1      36.463  21.024  25.027  1.00  0.00     0.002 C 
BRANCH  25  26
ATOM     26  C   UNL A   1      37.419  22.167  24.684  1.00  0.00     0.021 C 
BRANCH  26  27
ATOM     27  C   UNL A   1      37.921  22.956  25.890  1.00  0.00     0.116 C 
BRANCH  27  28
ATOM     28  N   UNL A   1      39.361  22.842  26.091  1.00  0.00    -0.352 N 
ATOM     29  C   UNL A   1      40.269  23.773  26.558  1.00  0.00     0.251 C 
ATOM     30  H   UNL A   1      39.745  21.966  25.859  1.00  0.00     0.163 HD
ATOM     31  O   UNL A   1      41.459  23.503  26.599  1.00  0.00    -0.269 OA
BRANCH  29  32
ATOM     32  C   UNL A   1      39.776  25.040  27.150  1.00  0.00     0.039 A 
ATOM     33  C   UNL A   1      40.148  26.230  26.512  1.00  0.00     0.014 A 
ATOM     34  C   UNL A   1      39.152  25.074  28.395  1.00  0.00     0.014 A 
ATOM     35  C   UNL A   1      40.135  27.421  27.229  1.00  0.00     0.010 A 
ATOM     36  C   UNL A   1      39.203  26.241  29.136  1.00  0.00     0.010 A 
ATOM     37  C   UNL A   1      39.774  27.387  28.576  1.00  0.00    -0.014 A 
BRANCH  37  38
ATOM     38  C   UNL A   1      40.127  28.460  29.498  1.00  0.00     0.031 A 
ATOM     39  C   UNL A   1      39.162  29.521  29.835  1.00  0.00     0.074 A 
ATOM     40  C   UNL A   1      41.361  28.457  30.047  1.00  0.00     0.049 A 
ATOM     41  N   UNL A   1      39.491  30.723  30.172  1.00  0.00    -0.248 NA
ATOM     42  C   UNL A   1      37.724  29.309  29.769  1.00  0.00     0.031 C 
ATOM     43  C   UNL A   1      41.856  29.296  31.133  1.00  0.00     0.029 A 
ATOM     44  N   UNL A   1      42.504  27.801  29.557  1.00  0.00    -0.354 N 
ATOM     45  C   UNL A   1      38.352  31.366  30.600  1.00  0.00     0.074 A 
ATOM     46  C   UNL A   1      37.271  30.463  30.269  1.00  0.00     0.031 C 
ATOM     47  C   UNL A   1      43.197  29.337  31.066  1.00  0.00     0.029 A 
ATOM     48  C   UNL A   1      43.588  28.657  29.841  1.00  0.00     0.049 A 
ATOM     49  H   UNL A   1      42.539  26.925  29.109  1.00  0.00     0.167 HD
ATOM     50  C   UNL A   1      38.461  32.529  31.310  1.00  0.00     0.037 A 
ATOM     51  C   UNL A   1      44.338  29.213  28.847  1.00  0.00     0.037 A 
ATOM     52  C   UNL A   1      39.857  32.942  31.438  1.00  0.00     0.049 A 
ATOM     53  C   UNL A   1      44.377  30.721  28.876  1.00  0.00     0.074 A 
ATOM     54  C   UNL A   1      40.788  32.749  32.446  1.00  0.00     0.029 A 
ATOM     55  N   UNL A   1      40.565  33.374  30.322  1.00  0.00    -0.354 N 
ATOM     56  N   UNL A   1      43.470  31.459  29.450  1.00  0.00    -0.248 NA
ATOM     57  C   UNL A   1      45.402  31.506  28.195  1.00  0.00     0.031 C 
ATOM     58  C   UNL A   1      42.071  33.021  31.916  1.00  0.00     0.029 A 
ATOM     59  C   UNL A   1      41.921  33.395  30.592  1.00  0.00     0.049 A 
ATOM     60  H   UNL A   1      40.159  33.630  29.462  1.00  0.00     0.167 HD
ATOM     61  C   UNL A   1      43.734  32.777  29.182  1.00  0.00     0.074 A 
ATOM     62  C   UNL A   1      44.968  32.757  28.421  1.00  0.00     0.031 C 
ATOM     63  C   UNL A   1      42.892  33.774  29.579  1.00  0.00     0.037 A 
BRANCH  50  64
ATOM     64  C   UNL A   1      37.346  33.092  32.170  1.00  0.00     0.064 A 
ATOM     65  C   UNL A   1      36.307  33.862  31.599  1.00  0.00     0.173 A 
ATOM     66  C   UNL A   1      37.284  32.978  33.570  1.00  0.00     0.173 A 
ATOM     67  F   UNL A   1      36.142  33.943  30.273  1.00  0.00    -0.203 F 
ATOM     68  C   UNL A   1      35.392  34.583  32.372  1.00  0.00     0.198 A 
ATOM     69  C   UNL A   1      36.406  33.742  34.347  1.00  0.00     0.198 A 
ATOM     70  F   UNL A   1      38.031  32.080  34.225  1.00  0.00    -0.203 F 
ATOM     71  F   UNL A   1      34.444  35.314  31.768  1.00  0.00    -0.200 F 
ATOM     72  C   UNL A   1      35.472  34.562  33.747  1.00  0.00     0.200 A 
ATOM     73  F   UNL A   1      36.474  33.678  35.686  1.00  0.00    -0.200 F 
ATOM     74  F   UNL A   1      34.636  35.300  34.488  1.00  0.00    -0.200 F 
ENDBRANCH  50  64
BRANCH  51  75
ATOM     75  C   UNL A   1      44.367  28.423  27.587  1.00  0.00     0.064 A 
ATOM     76  C   UNL A   1      45.101  27.224  27.545  1.00  0.00     0.173 A 
ATOM     77  C   UNL A   1      43.456  28.662  26.552  1.00  0.00     0.173 A 
ATOM     78  F   UNL A   1      45.984  26.942  28.516  1.00  0.00    -0.203 F 
ATOM     79  C   UNL A   1      44.866  26.265  26.561  1.00  0.00     0.198 A 
ATOM     80  C   UNL A   1      43.231  27.705  25.561  1.00  0.00     0.198 A 
ATOM     81  F   UNL A   1      42.712  29.777  26.544  1.00  0.00    -0.203 F 
ATOM     82  F   UNL A   1      45.515  25.092  26.601  1.00  0.00    -0.200 F 
ATOM     83  C   UNL A   1      43.915  26.498  25.582  1.00  0.00     0.200 A 
ATOM     84  F   UNL A   1      42.289  27.918  24.632  1.00  0.00    -0.200 F 
ATOM     85  F   UNL A   1      43.633  25.549  24.679  1.00  0.00    -0.200 F 
ENDBRANCH  51  75
BRANCH  63  86
ATOM     86  C   UNL A   1      42.975  35.205  29.126  1.00  0.00     0.064 A 
ATOM     87  C   UNL A   1      42.216  35.727  28.064  1.00  0.00     0.173 A 
ATOM     88  C   UNL A   1      43.737  36.146  29.855  1.00  0.00     0.173 A 
ATOM     89  F   UNL A   1      41.363  34.957  27.375  1.00  0.00    -0.203 F 
ATOM     90  C   UNL A   1      42.274  37.077  27.709  1.00  0.00     0.198 A 
ATOM     91  C   UNL A   1      43.750  37.502  29.533  1.00  0.00     0.198 A 
ATOM     92  F   UNL A   1      44.473  35.775  30.913  1.00  0.00    -0.203 F 
ATOM     93  F   UNL A   1      41.566  37.517  26.660  1.00  0.00    -0.200 F 
ATOM     94  C   UNL A   1      43.031  37.965  28.449  1.00  0.00     0.200 A 
ATOM     95  F   UNL A   1      44.448  38.360  30.290  1.00  0.00    -0.200 F 
ATOM     96  F   UNL A   1      43.052  39.266  28.131  1.00  0.00    -0.200 F 
ENDBRANCH  63  86
ENDBRANCH  37  38
ENDBRANCH  29  32
ENDBRANCH  27  28
ENDBRANCH  26  27
ENDBRANCH  25  26
ENDBRANCH   1  25
TORSDOF 16
ENDMDL
