MODEL 1
REMARK VINA RESULT:     -12.4      0.000      0.000
REMARK SMILES C[C@H]1CCC[C@@](NC(=O)N2CCO[C@H](C#N)C2)(C(=O)NCCCCCCNC(=O)c2ccc(-c3c4nc(c(-c5c(F)c(F)c(F)c(F)c5F)c5ccc([nH]5)c(-c5c(F)c(F)c(F)c(F)c5F)c5nc(c(-c6c(F)c(F)c(F)c(F)c6F)c6ccc3[nH]6)C=C5)C=C4)cc2)C1
REMARK SMILES IDX 23 1 22 2 21 3 20 4 18 5 19 6 6 8 1 9 2 10 3 11 93 12 4 13
REMARK SMILES IDX 5 14 7 15 8 16 9 18 10 19 11 20 17 21 12 22 14 23 13 24
REMARK SMILES IDX 15 25 16 26 24 27 25 28 26 29 27 30 28 31 29 33 30 34 31 35
REMARK SMILES IDX 92 36 32 37 91 38 33 39 34 40 35 41 85 42 36 43 90 44 84 45
REMARK SMILES IDX 86 46 37 47 89 48 83 49 82 50 38 52 70 53 50 54 69 55 51 56
REMARK SMILES IDX 54 57 68 58 87 59 52 60 53 61 67 63 88 64 55 65 39 66 40 67
REMARK SMILES IDX 48 68 41 69 42 70 46 71 49 72 43 73 44 74 47 75 45 76 71 77
REMARK SMILES IDX 72 78 80 79 73 80 74 81 78 82 81 83 75 84 76 85 79 86 77 87
REMARK SMILES IDX 56 88 57 89 65 90 58 91 59 92 63 93 66 94 60 95 61 96 64 97
REMARK SMILES IDX 62 98
REMARK H PARENT 20 7 7 17 27 32 86 51 54 62
REMARK Flexibility Score: inf
ROOT
ATOM      1  C   UNL A   1      31.799  29.389  27.198  1.00  0.00     0.002 C 
ENDROOT
BRANCH   1   2
ATOM      2  C   UNL A   1      32.884  28.328  26.999  1.00  0.00     0.021 C 
BRANCH   2   3
ATOM      3  C   UNL A   1      32.268  26.989  26.639  1.00  0.00     0.116 C 
BRANCH   3   4
ATOM      4  N   UNL A   1      33.327  26.071  26.250  1.00  0.00    -0.354 N 
ATOM      5  C   UNL A   1      33.830  25.757  25.023  1.00  0.00     0.245 C 
ATOM      6  O   UNL A   1      34.790  24.980  25.001  1.00  0.00    -0.272 OA
ATOM      7  H   UNL A   1      33.753  25.597  27.000  1.00  0.00     0.163 HD
BRANCH   5   8
ATOM      8  C   UNL A   1      33.156  26.277  23.733  1.00  0.00     0.121 C 
ATOM      9  C   UNL A   1      29.652  28.028  23.273  1.00  0.00     0.008 C 
ATOM     10  C   UNL A   1      31.078  27.621  22.903  1.00  0.00    -0.011 C 
ATOM     11  C   UNL A   1      31.932  28.885  22.788  1.00  0.00     0.003 C 
ATOM     12  C   UNL A   1      31.653  26.615  23.931  1.00  0.00     0.042 C 
ATOM     13  C   UNL A   1      33.351  28.525  22.416  1.00  0.00     0.003 C 
ATOM     14  C   UNL A   1      33.932  27.613  23.475  1.00  0.00     0.039 C 
BRANCH   8  15
ATOM     15  N   UNL A   1      33.319  25.303  22.626  1.00  0.00    -0.323 N 
ATOM     16  C   UNL A   1      32.983  24.008  22.398  1.00  0.00     0.318 C 
ATOM     17  H   UNL A   1      33.794  25.699  21.859  1.00  0.00     0.166 HD
ATOM     18  O   UNL A   1      33.319  23.554  21.300  1.00  0.00    -0.249 OA
BRANCH  16  19
ATOM     19  N   UNL A   1      32.526  23.184  23.392  1.00  0.00    -0.319 N 
ATOM     20  C   UNL A   1      32.799  21.742  23.257  1.00  0.00     0.150 C 
ATOM     21  C   UNL A   1      31.407  23.453  24.319  1.00  0.00     0.169 C 
ATOM     22  C   UNL A   1      32.948  21.089  24.637  1.00  0.00     0.183 C 
ATOM     23  C   UNL A   1      31.618  22.734  25.673  1.00  0.00     0.240 C 
ATOM     24  O   UNL A   1      31.787  21.312  25.445  1.00  0.00    -0.360 OA
BRANCH  23  25
ATOM     25  C   UNL A   1      30.498  22.971  26.600  1.00  0.00     0.096 C 
ATOM     26  N   UNL A   1      29.632  23.189  27.340  1.00  0.00    -0.195 NA
ENDBRANCH  23  25
ENDBRANCH  16  19
ENDBRANCH   8  15
ENDBRANCH   5   8
ENDBRANCH   3   4
ENDBRANCH   2   3
ENDBRANCH   1   2
BRANCH   1  27
ATOM     27  C   UNL A   1      31.737  30.420  26.063  1.00  0.00     0.002 C 
BRANCH  27  28
ATOM     28  C   UNL A   1      31.468  31.846  26.519  1.00  0.00     0.021 C 
BRANCH  28  29
ATOM     29  C   UNL A   1      32.647  32.465  27.242  1.00  0.00     0.116 C 
BRANCH  29  30
ATOM     30  N   UNL A   1      32.412  33.870  27.534  1.00  0.00    -0.352 N 
ATOM     31  C   UNL A   1      32.996  34.651  28.493  1.00  0.00     0.251 C 
ATOM     32  H   UNL A   1      31.744  34.318  26.966  1.00  0.00     0.163 HD
ATOM     33  O   UNL A   1      32.517  35.737  28.794  1.00  0.00    -0.269 OA
BRANCH  31  34
ATOM     34  C   UNL A   1      34.200  34.144  29.176  1.00  0.00     0.039 A 
ATOM     35  C   UNL A   1      34.048  33.233  30.218  1.00  0.00     0.014 A 
ATOM     36  C   UNL A   1      35.475  34.532  28.748  1.00  0.00     0.014 A 
ATOM     37  C   UNL A   1      35.183  32.676  30.799  1.00  0.00     0.010 A 
ATOM     38  C   UNL A   1      36.595  33.882  29.240  1.00  0.00     0.010 A 
ATOM     39  C   UNL A   1      36.463  32.962  30.286  1.00  0.00    -0.014 A 
BRANCH  39  40
ATOM     40  C   UNL A   1      37.661  32.300  30.854  1.00  0.00     0.031 A 
ATOM     41  C   UNL A   1      38.163  32.680  32.218  1.00  0.00     0.074 A 
ATOM     42  C   UNL A   1      38.291  31.355  30.129  1.00  0.00     0.049 A 
ATOM     43  N   UNL A   1      39.162  32.177  32.898  1.00  0.00    -0.248 NA
ATOM     44  C   UNL A   1      37.473  33.784  32.908  1.00  0.00     0.031 C 
ATOM     45  C   UNL A   1      37.931  30.955  28.766  1.00  0.00     0.029 A 
ATOM     46  N   UNL A   1      39.353  30.547  30.440  1.00  0.00    -0.354 N 
ATOM     47  C   UNL A   1      39.208  32.889  34.088  1.00  0.00     0.074 A 
ATOM     48  C   UNL A   1      38.195  33.916  34.010  1.00  0.00     0.031 C 
ATOM     49  C   UNL A   1      38.718  29.938  28.383  1.00  0.00     0.029 A 
ATOM     50  C   UNL A   1      39.670  29.649  29.450  1.00  0.00     0.049 A 
ATOM     51  H   UNL A   1      39.842  30.604  31.292  1.00  0.00     0.167 HD
ATOM     52  C   UNL A   1      39.996  32.678  35.168  1.00  0.00     0.037 A 
ATOM     53  C   UNL A   1      40.624  28.702  29.409  1.00  0.00     0.037 A 
ATOM     54  C   UNL A   1      41.000  31.650  35.241  1.00  0.00     0.049 A 
ATOM     55  C   UNL A   1      41.508  28.520  30.615  1.00  0.00     0.074 A 
ATOM     56  C   UNL A   1      41.836  31.335  36.297  1.00  0.00     0.029 A 
ATOM     57  N   UNL A   1      41.305  30.769  34.213  1.00  0.00    -0.354 N 
ATOM     58  N   UNL A   1      41.486  29.147  31.766  1.00  0.00    -0.248 NA
ATOM     59  C   UNL A   1      42.544  27.483  30.518  1.00  0.00     0.031 C 
ATOM     60  C   UNL A   1      42.687  30.304  35.888  1.00  0.00     0.029 A 
ATOM     61  C   UNL A   1      42.334  29.927  34.603  1.00  0.00     0.049 A 
ATOM     62  H   UNL A   1      40.857  30.747  33.337  1.00  0.00     0.167 HD
ATOM     63  C   UNL A   1      42.480  28.561  32.538  1.00  0.00     0.074 A 
ATOM     64  C   UNL A   1      43.056  27.501  31.738  1.00  0.00     0.031 C 
ATOM     65  C   UNL A   1      42.891  28.875  33.792  1.00  0.00     0.037 A 
BRANCH  52  66
ATOM     66  C   UNL A   1      39.796  33.561  36.366  1.00  0.00     0.064 A 
ATOM     67  C   UNL A   1      40.421  34.815  36.464  1.00  0.00     0.173 A 
ATOM     68  C   UNL A   1      38.917  33.187  37.392  1.00  0.00     0.173 A 
ATOM     69  F   UNL A   1      41.284  35.216  35.517  1.00  0.00    -0.203 F 
ATOM     70  C   UNL A   1      40.183  35.653  37.550  1.00  0.00     0.198 A 
ATOM     71  C   UNL A   1      38.655  34.042  38.460  1.00  0.00     0.198 A 
ATOM     72  F   UNL A   1      38.294  32.000  37.350  1.00  0.00    -0.203 F 
ATOM     73  F   UNL A   1      40.820  36.829  37.639  1.00  0.00    -0.200 F 
ATOM     74  C   UNL A   1      39.291  35.272  38.540  1.00  0.00     0.200 A 
ATOM     75  F   UNL A   1      37.781  33.678  39.408  1.00  0.00    -0.200 F 
ATOM     76  F   UNL A   1      39.045  36.088  39.573  1.00  0.00    -0.200 F 
ENDBRANCH  52  66
BRANCH  53  77
ATOM     77  C   UNL A   1      40.803  27.851  28.201  1.00  0.00     0.064 A 
ATOM     78  C   UNL A   1      40.222  26.578  28.113  1.00  0.00     0.173 A 
ATOM     79  C   UNL A   1      41.615  28.267  27.134  1.00  0.00     0.173 A 
ATOM     80  F   UNL A   1      39.447  26.126  29.111  1.00  0.00    -0.203 F 
ATOM     81  C   UNL A   1      40.492  25.733  27.039  1.00  0.00     0.198 A 
ATOM     82  C   UNL A   1      41.847  27.439  26.037  1.00  0.00     0.198 A 
ATOM     83  F   UNL A   1      42.187  29.480  27.156  1.00  0.00    -0.203 F 
ATOM     84  F   UNL A   1      39.995  24.489  27.028  1.00  0.00    -0.200 F 
ATOM     85  C   UNL A   1      41.302  26.165  26.001  1.00  0.00     0.200 A 
ATOM     86  F   UNL A   1      42.613  27.870  25.027  1.00  0.00    -0.200 F 
ATOM     87  F   UNL A   1      41.573  25.348  24.974  1.00  0.00    -0.200 F 
ENDBRANCH  53  77
BRANCH  65  88
ATOM     88  C   UNL A   1      43.987  28.031  34.380  1.00  0.00     0.064 A 
ATOM     89  C   UNL A   1      45.339  28.392  34.273  1.00  0.00     0.173 A 
ATOM     90  C   UNL A   1      43.682  26.836  35.051  1.00  0.00     0.173 A 
ATOM     91  F   UNL A   1      45.689  29.519  33.635  1.00  0.00    -0.203 F 
ATOM     92  C   UNL A   1      46.344  27.561  34.759  1.00  0.00     0.198 A 
ATOM     93  C   UNL A   1      44.687  26.030  35.578  1.00  0.00     0.198 A 
ATOM     94  F   UNL A   1      42.406  26.448  35.198  1.00  0.00    -0.203 F 
ATOM     95  F   UNL A   1      47.629  27.884  34.564  1.00  0.00    -0.200 F 
ATOM     96  C   UNL A   1      46.017  26.384  35.415  1.00  0.00     0.200 A 
ATOM     97  F   UNL A   1      44.368  24.905  36.231  1.00  0.00    -0.200 F 
ATOM     98  F   UNL A   1      46.986  25.582  35.877  1.00  0.00    -0.200 F 
ENDBRANCH  65  88
ENDBRANCH  39  40
ENDBRANCH  31  34
ENDBRANCH  29  30
ENDBRANCH  28  29
ENDBRANCH  27  28
ENDBRANCH   1  27
TORSDOF 16
ENDMDL
MODEL 2
REMARK VINA RESULT:     -12.4      0.456      1.962
REMARK SMILES C[C@H]1CCC[C@@](NC(=O)N2CCO[C@H](C#N)C2)(C(=O)NCCCCCCNC(=O)c2ccc(-c3c4nc(c(-c5c(F)c(F)c(F)c(F)c5F)c5ccc([nH]5)c(-c5c(F)c(F)c(F)c(F)c5F)c5nc(c(-c6c(F)c(F)c(F)c(F)c6F)c6ccc3[nH]6)C=C5)C=C4)cc2)C1
REMARK SMILES IDX 23 1 22 2 21 3 20 4 18 5 19 6 6 8 1 9 2 10 3 11 93 12 4 13
REMARK SMILES IDX 5 14 7 15 8 16 9 18 10 19 11 20 17 21 12 22 14 23 13 24
REMARK SMILES IDX 15 25 16 26 24 27 25 28 26 29 27 30 28 31 29 33 30 34 31 35
REMARK SMILES IDX 92 36 32 37 91 38 33 39 34 40 35 41 85 42 36 43 90 44 84 45
REMARK SMILES IDX 86 46 37 47 89 48 83 49 82 50 38 52 70 53 50 54 69 55 51 56
REMARK SMILES IDX 54 57 68 58 87 59 52 60 53 61 67 63 88 64 55 65 39 66 40 67
REMARK SMILES IDX 48 68 41 69 42 70 46 71 49 72 43 73 44 74 47 75 45 76 71 77
REMARK SMILES IDX 72 78 80 79 73 80 74 81 78 82 81 83 75 84 76 85 79 86 77 87
REMARK SMILES IDX 56 88 57 89 65 90 58 91 59 92 63 93 66 94 60 95 61 96 64 97
REMARK SMILES IDX 62 98
REMARK H PARENT 20 7 7 17 27 32 86 51 54 62
REMARK Flexibility Score: inf
ROOT
ATOM      1  C   UNL A   1      32.603  29.389  26.945  1.00  0.00     0.002 C 
ENDROOT
BRANCH   1   2
ATOM      2  C   UNL A   1      31.734  28.317  27.608  1.00  0.00     0.021 C 
BRANCH   2   3
ATOM      3  C   UNL A   1      31.505  27.151  26.664  1.00  0.00     0.116 C 
BRANCH   3   4
ATOM      4  N   UNL A   1      32.765  26.452  26.463  1.00  0.00    -0.354 N 
ATOM      5  C   UNL A   1      33.495  26.236  25.332  1.00  0.00     0.245 C 
ATOM      6  O   UNL A   1      34.577  25.658  25.474  1.00  0.00    -0.272 OA
ATOM      7  H   UNL A   1      33.157  26.070  27.281  1.00  0.00     0.163 HD
BRANCH   5   8
ATOM      8  C   UNL A   1      32.933  26.613  23.943  1.00  0.00     0.121 C 
ATOM      9  C   UNL A   1      29.417  28.124  22.990  1.00  0.00     0.008 C 
ATOM     10  C   UNL A   1      30.891  27.769  22.799  1.00  0.00    -0.011 C 
ATOM     11  C   UNL A   1      31.692  29.065  22.662  1.00  0.00     0.003 C 
ATOM     12  C   UNL A   1      31.405  26.882  23.961  1.00  0.00     0.042 C 
ATOM     13  C   UNL A   1      33.158  28.756  22.465  1.00  0.00     0.003 C 
ATOM     14  C   UNL A   1      33.669  27.966  23.650  1.00  0.00     0.039 C 
BRANCH   8  15
ATOM     15  N   UNL A   1      33.257  25.565  22.944  1.00  0.00    -0.323 N 
ATOM     16  C   UNL A   1      33.134  24.215  22.861  1.00  0.00     0.318 C 
ATOM     17  H   UNL A   1      33.665  25.946  22.133  1.00  0.00     0.166 HD
ATOM     18  O   UNL A   1      33.543  23.705  21.813  1.00  0.00    -0.249 OA
BRANCH  16  19
ATOM     19  N   UNL A   1      32.810  23.441  23.942  1.00  0.00    -0.319 N 
ATOM     20  C   UNL A   1      33.549  22.178  24.117  1.00  0.00     0.150 C 
ATOM     21  C   UNL A   1      31.530  23.442  24.681  1.00  0.00     0.169 C 
ATOM     22  C   UNL A   1      33.675  21.826  25.606  1.00  0.00     0.183 C 
ATOM     23  C   UNL A   1      31.739  23.048  26.163  1.00  0.00     0.240 C 
ATOM     24  O   UNL A   1      32.389  21.753  26.233  1.00  0.00    -0.360 OA
BRANCH  23  25
ATOM     25  C   UNL A   1      30.467  23.020  26.907  1.00  0.00     0.096 C 
ATOM     26  N   UNL A   1      29.451  23.012  27.464  1.00  0.00    -0.195 NA
ENDBRANCH  23  25
ENDBRANCH  16  19
ENDBRANCH   8  15
ENDBRANCH   5   8
ENDBRANCH   3   4
ENDBRANCH   2   3
ENDBRANCH   1   2
BRANCH   1  27
ATOM     27  C   UNL A   1      31.808  30.357  26.059  1.00  0.00     0.002 C 
BRANCH  27  28
ATOM     28  C   UNL A   1      31.493  31.696  26.710  1.00  0.00     0.021 C 
BRANCH  28  29
ATOM     29  C   UNL A   1      32.729  32.402  27.229  1.00  0.00     0.116 C 
BRANCH  29  30
ATOM     30  N   UNL A   1      32.462  33.807  27.500  1.00  0.00    -0.352 N 
ATOM     31  C   UNL A   1      33.009  34.607  28.465  1.00  0.00     0.251 C 
ATOM     32  H   UNL A   1      31.801  34.237  26.910  1.00  0.00     0.163 HD
ATOM     33  O   UNL A   1      32.504  35.688  28.741  1.00  0.00    -0.269 OA
BRANCH  31  34
ATOM     34  C   UNL A   1      34.203  34.128  29.183  1.00  0.00     0.039 A 
ATOM     35  C   UNL A   1      34.038  33.249  30.250  1.00  0.00     0.014 A 
ATOM     36  C   UNL A   1      35.483  34.511  28.765  1.00  0.00     0.014 A 
ATOM     37  C   UNL A   1      35.166  32.717  30.867  1.00  0.00     0.010 A 
ATOM     38  C   UNL A   1      36.598  33.882  29.296  1.00  0.00     0.010 A 
ATOM     39  C   UNL A   1      36.452  32.994  30.367  1.00  0.00    -0.014 A 
BRANCH  39  40
ATOM     40  C   UNL A   1      37.644  32.357  30.976  1.00  0.00     0.031 A 
ATOM     41  C   UNL A   1      38.106  32.764  32.347  1.00  0.00     0.074 A 
ATOM     42  C   UNL A   1      38.305  31.410  30.282  1.00  0.00     0.049 A 
ATOM     43  N   UNL A   1      39.094  32.284  33.060  1.00  0.00    -0.248 NA
ATOM     44  C   UNL A   1      37.383  33.868  33.002  1.00  0.00     0.031 C 
ATOM     45  C   UNL A   1      37.985  30.985  28.916  1.00  0.00     0.029 A 
ATOM     46  N   UNL A   1      39.370  30.621  30.632  1.00  0.00    -0.354 N 
ATOM     47  C   UNL A   1      39.099  33.015  34.240  1.00  0.00     0.074 A 
ATOM     48  C   UNL A   1      38.075  34.027  34.120  1.00  0.00     0.031 C 
ATOM     49  C   UNL A   1      38.796  29.973  28.569  1.00  0.00     0.029 A 
ATOM     50  C   UNL A   1      39.724  29.713  29.664  1.00  0.00     0.049 A 
ATOM     51  H   UNL A   1      39.836  30.697  31.496  1.00  0.00     0.167 HD
ATOM     52  C   UNL A   1      39.862  32.830  35.342  1.00  0.00     0.037 A 
ATOM     53  C   UNL A   1      40.691  28.778  29.662  1.00  0.00     0.037 A 
ATOM     54  C   UNL A   1      40.877  31.817  35.457  1.00  0.00     0.049 A 
ATOM     55  C   UNL A   1      41.546  28.626  30.893  1.00  0.00     0.074 A 
ATOM     56  C   UNL A   1      41.689  31.528  36.539  1.00  0.00     0.029 A 
ATOM     57  N   UNL A   1      41.220  30.925  34.451  1.00  0.00    -0.354 N 
ATOM     58  N   UNL A   1      41.486  29.270  32.034  1.00  0.00    -0.248 NA
ATOM     59  C   UNL A   1      42.598  27.603  30.839  1.00  0.00     0.031 C 
ATOM     60  C   UNL A   1      42.564  30.504  36.168  1.00  0.00     0.029 A 
ATOM     61  C   UNL A   1      42.250  30.103  34.879  1.00  0.00     0.049 A 
ATOM     62  H   UNL A   1      40.795  30.884  33.563  1.00  0.00     0.167 HD
ATOM     63  C   UNL A   1      42.467  28.709  32.840  1.00  0.00     0.074 A 
ATOM     64  C   UNL A   1      43.078  27.645  32.070  1.00  0.00     0.031 C 
ATOM     65  C   UNL A   1      42.841  29.047  34.099  1.00  0.00     0.037 A 
BRANCH  52  66
ATOM     66  C   UNL A   1      39.620  33.728  36.522  1.00  0.00     0.064 A 
ATOM     67  C   UNL A   1      38.793  33.332  37.585  1.00  0.00     0.173 A 
ATOM     68  C   UNL A   1      40.274  34.964  36.627  1.00  0.00     0.173 A 
ATOM     69  F   UNL A   1      38.130  32.166  37.529  1.00  0.00    -0.203 F 
ATOM     70  C   UNL A   1      38.622  34.145  38.702  1.00  0.00     0.198 A 
ATOM     71  C   UNL A   1      40.127  35.759  37.761  1.00  0.00     0.198 A 
ATOM     72  F   UNL A   1      41.075  35.392  35.639  1.00  0.00    -0.203 F 
ATOM     73  F   UNL A   1      37.798  33.761  39.688  1.00  0.00    -0.200 F 
ATOM     74  C   UNL A   1      39.299  35.351  38.796  1.00  0.00     0.200 A 
ATOM     75  F   UNL A   1      40.795  36.917  37.855  1.00  0.00    -0.200 F 
ATOM     76  F   UNL A   1      39.151  36.122  39.881  1.00  0.00    -0.200 F 
ENDBRANCH  52  66
BRANCH  53  77
ATOM     77  C   UNL A   1      40.913  27.913  28.472  1.00  0.00     0.064 A 
ATOM     78  C   UNL A   1      41.736  28.326  27.414  1.00  0.00     0.173 A 
ATOM     79  C   UNL A   1      40.253  26.682  28.335  1.00  0.00     0.173 A 
ATOM     80  F   UNL A   1      42.381  29.500  27.488  1.00  0.00    -0.203 F 
ATOM     81  C   UNL A   1      41.844  27.573  26.246  1.00  0.00     0.198 A 
ATOM     82  C   UNL A   1      40.398  25.908  27.186  1.00  0.00     0.198 A 
ATOM     83  F   UNL A   1      39.462  26.229  29.320  1.00  0.00    -0.203 F 
ATOM     84  F   UNL A   1      42.566  28.038  25.218  1.00  0.00    -0.200 F 
ATOM     85  C   UNL A   1      41.176  26.364  26.135  1.00  0.00     0.200 A 
ATOM     86  F   UNL A   1      39.768  24.729  27.092  1.00  0.00    -0.200 F 
ATOM     87  F   UNL A   1      41.270  25.647  25.007  1.00  0.00    -0.200 F 
ENDBRANCH  53  77
BRANCH  65  88
ATOM     88  C   UNL A   1      43.933  28.226  34.728  1.00  0.00     0.064 A 
ATOM     89  C   UNL A   1      43.657  27.053  35.447  1.00  0.00     0.173 A 
ATOM     90  C   UNL A   1      45.274  28.625  34.618  1.00  0.00     0.173 A 
ATOM     91  F   UNL A   1      42.392  26.630  35.591  1.00  0.00    -0.203 F 
ATOM     92  C   UNL A   1      44.673  26.348  36.085  1.00  0.00     0.198 A 
ATOM     93  C   UNL A   1      46.294  27.891  35.217  1.00  0.00     0.198 A 
ATOM     94  F   UNL A   1      45.599  29.729  33.929  1.00  0.00    -0.203 F 
ATOM     95  F   UNL A   1      44.373  25.283  36.841  1.00  0.00    -0.200 F 
ATOM     96  C   UNL A   1      45.990  26.763  35.965  1.00  0.00     0.200 A 
ATOM     97  F   UNL A   1      47.568  28.282  35.081  1.00  0.00    -0.200 F 
ATOM     98  F   UNL A   1      46.967  26.086  36.584  1.00  0.00    -0.200 F 
ENDBRANCH  65  88
ENDBRANCH  39  40
ENDBRANCH  31  34
ENDBRANCH  29  30
ENDBRANCH  28  29
ENDBRANCH  27  28
ENDBRANCH   1  27
TORSDOF 16
ENDMDL
MODEL 3
REMARK VINA RESULT:     -12.4      4.953     10.542
REMARK SMILES C[C@H]1CCC[C@@](NC(=O)N2CCO[C@H](C#N)C2)(C(=O)NCCCCCCNC(=O)c2ccc(-c3c4nc(c(-c5c(F)c(F)c(F)c(F)c5F)c5ccc([nH]5)c(-c5c(F)c(F)c(F)c(F)c5F)c5nc(c(-c6c(F)c(F)c(F)c(F)c6F)c6ccc3[nH]6)C=C5)C=C4)cc2)C1
REMARK SMILES IDX 23 1 22 2 21 3 20 4 18 5 19 6 6 8 1 9 2 10 3 11 93 12 4 13
REMARK SMILES IDX 5 14 7 15 8 16 9 18 10 19 11 20 17 21 12 22 14 23 13 24
REMARK SMILES IDX 15 25 16 26 24 27 25 28 26 29 27 30 28 31 29 33 30 34 31 35
REMARK SMILES IDX 92 36 32 37 91 38 33 39 34 40 35 41 85 42 36 43 90 44 84 45
REMARK SMILES IDX 86 46 37 47 89 48 83 49 82 50 38 52 70 53 50 54 69 55 51 56
REMARK SMILES IDX 54 57 68 58 87 59 52 60 53 61 67 63 88 64 55 65 39 66 40 67
REMARK SMILES IDX 48 68 41 69 42 70 46 71 49 72 43 73 44 74 47 75 45 76 71 77
REMARK SMILES IDX 72 78 80 79 73 80 74 81 78 82 81 83 75 84 76 85 79 86 77 87
REMARK SMILES IDX 56 88 57 89 65 90 58 91 59 92 63 93 66 94 60 95 61 96 64 97
REMARK SMILES IDX 62 98
REMARK H PARENT 20 7 7 17 27 32 86 51 54 62
REMARK Flexibility Score: inf
ROOT
ATOM      1  C   UNL A   1      37.108  22.384  24.765  1.00  0.00     0.002 C 
ENDROOT
BRANCH   1   2
ATOM      2  C   UNL A   1      36.725  22.937  23.390  1.00  0.00     0.021 C 
BRANCH   2   3
ATOM      3  C   UNL A   1      35.257  23.317  23.352  1.00  0.00     0.116 C 
BRANCH   3   4
ATOM      4  N   UNL A   1      35.054  24.500  24.173  1.00  0.00    -0.354 N 
ATOM      5  C   UNL A   1      34.290  24.694  25.286  1.00  0.00     0.245 C 
ATOM      6  O   UNL A   1      34.365  25.804  25.821  1.00  0.00    -0.272 OA
ATOM      7  H   UNL A   1      35.552  25.295  23.876  1.00  0.00     0.163 HD
BRANCH   5   8
ATOM      8  C   UNL A   1      33.313  23.602  25.777  1.00  0.00     0.121 C 
ATOM      9  C   UNL A   1      32.514  20.072  24.210  1.00  0.00     0.008 C 
ATOM     10  C   UNL A   1      32.570  21.146  25.296  1.00  0.00    -0.011 C 
ATOM     11  C   UNL A   1      33.465  20.645  26.432  1.00  0.00     0.003 C 
ATOM     12  C   UNL A   1      33.059  22.497  24.716  1.00  0.00     0.042 C 
ATOM     13  C   UNL A   1      33.542  21.679  27.530  1.00  0.00     0.003 C 
ATOM     14  C   UNL A   1      34.105  22.967  26.970  1.00  0.00     0.039 C 
BRANCH   8  15
ATOM     15  N   UNL A   1      32.026  24.204  26.206  1.00  0.00    -0.323 N 
ATOM     16  C   UNL A   1      31.128  25.079  25.686  1.00  0.00     0.318 C 
ATOM     17  H   UNL A   1      31.754  23.886  27.097  1.00  0.00     0.166 HD
ATOM     18  O   UNL A   1      30.149  25.325  26.397  1.00  0.00    -0.249 OA
BRANCH  16  19
ATOM     19  N   UNL A   1      31.396  25.827  24.571  1.00  0.00    -0.319 N 
ATOM     20  C   UNL A   1      31.021  27.252  24.604  1.00  0.00     0.150 C 
ATOM     21  C   UNL A   1      31.562  25.328  23.190  1.00  0.00     0.169 C 
ATOM     22  C   UNL A   1      31.978  28.083  23.740  1.00  0.00     0.183 C 
ATOM     23  C   UNL A   1      32.514  26.238  22.377  1.00  0.00     0.240 C 
ATOM     24  O   UNL A   1      32.015  27.599  22.392  1.00  0.00    -0.360 OA
BRANCH  23  25
ATOM     25  C   UNL A   1      32.670  25.767  20.990  1.00  0.00     0.096 C 
ATOM     26  N   UNL A   1      32.826  25.387  19.906  1.00  0.00    -0.195 NA
ENDBRANCH  23  25
ENDBRANCH  16  19
ENDBRANCH   8  15
ENDBRANCH   5   8
ENDBRANCH   3   4
ENDBRANCH   2   3
ENDBRANCH   1   2
BRANCH   1  27
ATOM     27  C   UNL A   1      36.670  20.930  24.982  1.00  0.00     0.002 C 
BRANCH  27  28
ATOM     28  C   UNL A   1      37.806  19.917  24.955  1.00  0.00     0.021 C 
BRANCH  28  29
ATOM     29  C   UNL A   1      39.024  20.378  25.729  1.00  0.00     0.116 C 
BRANCH  29  30
ATOM     30  N   UNL A   1      40.001  19.309  25.865  1.00  0.00    -0.352 N 
ATOM     31  C   UNL A   1      41.354  19.410  26.045  1.00  0.00     0.251 C 
ATOM     32  H   UNL A   1      39.642  18.394  25.820  1.00  0.00     0.163 HD
ATOM     33  O   UNL A   1      42.081  18.437  25.882  1.00  0.00    -0.269 OA
BRANCH  31  34
ATOM     34  C   UNL A   1      41.919  20.719  26.414  1.00  0.00     0.039 A 
ATOM     35  C   UNL A   1      42.100  21.677  25.420  1.00  0.00     0.014 A 
ATOM     36  C   UNL A   1      42.220  21.011  27.750  1.00  0.00     0.014 A 
ATOM     37  C   UNL A   1      42.540  22.948  25.779  1.00  0.00     0.010 A 
ATOM     38  C   UNL A   1      42.533  22.309  28.117  1.00  0.00     0.010 A 
ATOM     39  C   UNL A   1      42.717  23.287  27.134  1.00  0.00    -0.014 A 
BRANCH  39  40
ATOM     40  C   UNL A   1      43.104  24.666  27.515  1.00  0.00     0.031 A 
ATOM     41  C   UNL A   1      44.512  25.146  27.301  1.00  0.00     0.074 A 
ATOM     42  C   UNL A   1      42.175  25.479  28.055  1.00  0.00     0.049 A 
ATOM     43  N   UNL A   1      45.021  26.332  27.525  1.00  0.00    -0.248 NA
ATOM     44  C   UNL A   1      45.488  24.169  26.789  1.00  0.00     0.031 C 
ATOM     45  C   UNL A   1      40.796  25.096  28.370  1.00  0.00     0.029 A 
ATOM     46  N   UNL A   1      42.242  26.799  28.418  1.00  0.00    -0.354 N 
ATOM     47  C   UNL A   1      46.359  26.242  27.170  1.00  0.00     0.074 A 
ATOM     48  C   UNL A   1      46.611  24.869  26.797  1.00  0.00     0.031 C 
ATOM     49  C   UNL A   1      40.133  26.172  28.822  1.00  0.00     0.029 A 
ATOM     50  C   UNL A   1      41.051  27.304  28.877  1.00  0.00     0.049 A 
ATOM     51  H   UNL A   1      43.066  27.334  28.355  1.00  0.00     0.167 HD
ATOM     52  C   UNL A   1      47.286  27.227  27.121  1.00  0.00     0.037 A 
ATOM     53  C   UNL A   1      40.737  28.543  29.297  1.00  0.00     0.037 A 
ATOM     54  C   UNL A   1      47.028  28.594  27.489  1.00  0.00     0.049 A 
ATOM     55  C   UNL A   1      41.804  29.606  29.263  1.00  0.00     0.074 A 
ATOM     56  C   UNL A   1      47.890  29.675  27.452  1.00  0.00     0.029 A 
ATOM     57  N   UNL A   1      45.813  29.067  27.966  1.00  0.00    -0.354 N 
ATOM     58  N   UNL A   1      43.046  29.526  28.849  1.00  0.00    -0.248 NA
ATOM     59  C   UNL A   1      41.419  30.939  29.746  1.00  0.00     0.031 C 
ATOM     60  C   UNL A   1      47.216  30.788  27.962  1.00  0.00     0.029 A 
ATOM     61  C   UNL A   1      45.912  30.419  28.249  1.00  0.00     0.049 A 
ATOM     62  H   UNL A   1      45.002  28.522  28.085  1.00  0.00     0.167 HD
ATOM     63  C   UNL A   1      43.577  30.801  28.990  1.00  0.00     0.074 A 
ATOM     64  C   UNL A   1      42.509  31.642  29.489  1.00  0.00     0.031 C 
ATOM     65  C   UNL A   1      44.836  31.240  28.742  1.00  0.00     0.037 A 
BRANCH  52  66
ATOM     66  C   UNL A   1      48.662  26.872  26.634  1.00  0.00     0.064 A 
ATOM     67  C   UNL A   1      49.631  26.339  27.501  1.00  0.00     0.173 A 
ATOM     68  C   UNL A   1      48.995  26.995  25.278  1.00  0.00     0.173 A 
ATOM     69  F   UNL A   1      49.369  26.215  28.812  1.00  0.00    -0.203 F 
ATOM     70  C   UNL A   1      50.883  25.957  27.030  1.00  0.00     0.198 A 
ATOM     71  C   UNL A   1      50.238  26.579  24.804  1.00  0.00     0.198 A 
ATOM     72  F   UNL A   1      48.109  27.498  24.406  1.00  0.00    -0.203 F 
ATOM     73  F   UNL A   1      51.803  25.486  27.883  1.00  0.00    -0.200 F 
ATOM     74  C   UNL A   1      51.181  26.064  25.680  1.00  0.00     0.200 A 
ATOM     75  F   UNL A   1      50.518  26.670  23.497  1.00  0.00    -0.200 F 
ATOM     76  F   UNL A   1      52.379  25.675  25.223  1.00  0.00    -0.200 F 
ENDBRANCH  52  66
BRANCH  53  77
ATOM     77  C   UNL A   1      39.366  28.859  29.785  1.00  0.00     0.064 A 
ATOM     78  C   UNL A   1      38.409  29.441  28.941  1.00  0.00     0.173 A 
ATOM     79  C   UNL A   1      39.005  28.646  31.124  1.00  0.00     0.173 A 
ATOM     80  F   UNL A   1      38.706  29.677  27.654  1.00  0.00    -0.203 F 
ATOM     81  C   UNL A   1      37.170  29.850  29.429  1.00  0.00     0.198 A 
ATOM     82  C   UNL A   1      37.748  29.015  31.600  1.00  0.00     0.198 A 
ATOM     83  F   UNL A   1      39.875  28.082  31.975  1.00  0.00    -0.203 F 
ATOM     84  F   UNL A   1      36.311  30.485  28.620  1.00  0.00    -0.200 F 
ATOM     85  C   UNL A   1      36.840  29.635  30.758  1.00  0.00     0.200 A 
ATOM     86  F   UNL A   1      37.427  28.784  32.881  1.00  0.00    -0.200 F 
ATOM     87  F   UNL A   1      35.654  30.041  31.230  1.00  0.00    -0.200 F 
ENDBRANCH  53  77
BRANCH  65  88
ATOM     88  C   UNL A   1      45.105  32.702  28.970  1.00  0.00     0.064 A 
ATOM     89  C   UNL A   1      44.853  33.664  27.980  1.00  0.00     0.173 A 
ATOM     90  C   UNL A   1      45.633  33.144  30.192  1.00  0.00     0.173 A 
ATOM     91  F   UNL A   1      44.357  33.295  26.789  1.00  0.00    -0.203 F 
ATOM     92  C   UNL A   1      45.178  35.002  28.182  1.00  0.00     0.198 A 
ATOM     93  C   UNL A   1      45.911  34.491  30.409  1.00  0.00     0.198 A 
ATOM     94  F   UNL A   1      45.878  32.272  31.181  1.00  0.00    -0.203 F 
ATOM     95  F   UNL A   1      45.013  35.886  27.189  1.00  0.00    -0.200 F 
ATOM     96  C   UNL A   1      45.702  35.415  29.397  1.00  0.00     0.200 A 
ATOM     97  F   UNL A   1      46.396  34.891  31.592  1.00  0.00    -0.200 F 
ATOM     98  F   UNL A   1      46.019  36.703  29.589  1.00  0.00    -0.200 F 
ENDBRANCH  65  88
ENDBRANCH  39  40
ENDBRANCH  31  34
ENDBRANCH  29  30
ENDBRANCH  28  29
ENDBRANCH  27  28
ENDBRANCH   1  27
TORSDOF 16
ENDMDL
