MODEL 1
REMARK VINA RESULT:     -13.4      0.000      0.000
REMARK SMILES O=C(Cc1ccccc1)Nc1cccc(C(=O)Nc2ccccc2C(=O)NCCCCCCNC(=O)c2ccc(-c3c4nc(c(-c5c(F)c(F)c(F)c(F)c5F)c5ccc([nH]5)c(-c5c(F)c(F)c(F)c(F)c5F)c5nc(c(-c6c(F)c(F)c(F)c(F)c6F)c6ccc3[nH]6)C=C5)C=C4)cc2)c1
REMARK SMILES IDX 29 1 28 2 27 3 25 4 26 5 24 7 19 8 20 9 21 10 23 11 22 12
REMARK SMILES IDX 18 13 16 14 17 15 15 17 11 18 12 19 100 20 13 21 14 22 10 23
REMARK SMILES IDX 1 24 2 25 3 27 4 28 5 29 9 30 6 31 8 32 7 33 30 34 31 35
REMARK SMILES IDX 32 36 33 37 34 38 35 39 36 41 37 42 38 43 99 44 39 45 98 46
REMARK SMILES IDX 40 47 41 48 42 49 92 50 43 51 97 52 91 53 93 54 44 55 96 56
REMARK SMILES IDX 90 57 89 58 45 60 77 61 57 62 76 63 58 64 61 65 75 66 94 67
REMARK SMILES IDX 59 68 60 69 74 71 95 72 62 73 46 74 47 75 55 76 48 77 49 78
REMARK SMILES IDX 53 79 56 80 50 81 51 82 54 83 52 84 78 85 79 86 87 87 80 88
REMARK SMILES IDX 81 89 85 90 88 91 82 92 83 93 86 94 84 95 63 96 64 97 72 98
REMARK SMILES IDX 65 99 66 100 70 101 73 102 67 103 68 104 71 105 69 106
REMARK H PARENT 27 6 18 16 10 26 34 40 93 59 61 70
REMARK Flexibility Score: inf
ROOT
ATOM      1  C   UNL A   1      33.222  28.748  26.152  1.00  0.00     0.021 C 
ENDROOT
BRANCH   1   2
ATOM      2  C   UNL A   1      32.953  27.254  26.084  1.00  0.00     0.116 C 
BRANCH   2   3
ATOM      3  N   UNL A   1      34.119  26.432  25.886  1.00  0.00    -0.352 N 
ATOM      4  C   UNL A   1      34.194  25.102  25.560  1.00  0.00     0.253 C 
ATOM      5  O   UNL A   1      35.320  24.615  25.428  1.00  0.00    -0.269 OA
ATOM      6  H   UNL A   1      34.984  26.890  25.999  1.00  0.00     0.163 HD
BRANCH   4   7
ATOM      7  C   UNL A   1      32.996  24.203  25.482  1.00  0.00     0.063 A 
ATOM      8  C   UNL A   1      32.336  23.680  24.344  1.00  0.00     0.054 A 
ATOM      9  C   UNL A   1      31.109  23.007  24.539  1.00  0.00     0.027 A 
ATOM     10  C   UNL A   1      30.618  22.721  25.815  1.00  0.00     0.002 A 
ATOM     11  C   UNL A   1      32.482  23.886  26.766  1.00  0.00     0.016 A 
ATOM     12  C   UNL A   1      31.320  23.135  26.934  1.00  0.00     0.001 A 
BRANCH   8  13
ATOM     13  N   UNL A   1      32.769  23.645  22.987  1.00  0.00    -0.321 N 
ATOM     14  C   UNL A   1      32.932  24.641  22.032  1.00  0.00     0.255 C 
ATOM     15  O   UNL A   1      33.180  24.343  20.866  1.00  0.00    -0.269 OA
ATOM     16  H   UNL A   1      32.997  22.744  22.664  1.00  0.00     0.170 HD
BRANCH  14  17
ATOM     17  C   UNL A   1      32.837  26.059  22.416  1.00  0.00     0.042 A 
ATOM     18  C   UNL A   1      31.344  27.910  22.648  1.00  0.00     0.041 A 
ATOM     19  C   UNL A   1      32.423  28.786  22.488  1.00  0.00     0.026 A 
ATOM     20  C   UNL A   1      31.583  26.553  22.737  1.00  0.00     0.040 A 
ATOM     21  C   UNL A   1      33.727  28.287  22.398  1.00  0.00     0.003 A 
ATOM     22  C   UNL A   1      33.937  26.910  22.346  1.00  0.00     0.014 A 
BRANCH  18  23
ATOM     23  N   UNL A   1      30.034  28.410  22.592  1.00  0.00    -0.326 N 
ATOM     24  O   UNL A   1      28.865  26.832  23.880  1.00  0.00    -0.274 OA
ATOM     25  C   UNL A   1      28.909  27.846  23.189  1.00  0.00     0.228 C 
ATOM     26  H   UNL A   1      29.897  29.240  22.082  1.00  0.00     0.169 HD
BRANCH  25  27
ATOM     27  C   UNL A   1      27.662  28.660  22.957  1.00  0.00     0.135 C 
BRANCH  27  28
ATOM     28  C   UNL A   1      27.921  30.082  22.514  1.00  0.00    -0.039 A 
ATOM     29  C   UNL A   1      27.962  30.478  21.166  1.00  0.00     0.004 A 
ATOM     30  C   UNL A   1      28.085  31.062  23.501  1.00  0.00     0.004 A 
ATOM     31  C   UNL A   1      28.126  31.816  20.815  1.00  0.00     0.000 A 
ATOM     32  C   UNL A   1      28.269  32.399  23.148  1.00  0.00     0.000 A 
ATOM     33  C   UNL A   1      28.278  32.776  21.807  1.00  0.00     0.000 A 
ENDBRANCH  27  28
ENDBRANCH  25  27
ENDBRANCH  18  23
ENDBRANCH  14  17
ENDBRANCH   8  13
ENDBRANCH   4   7
ENDBRANCH   2   3
ENDBRANCH   1   2
BRANCH   1  34
ATOM     34  C   UNL A   1      32.052  29.659  25.761  1.00  0.00     0.002 C 
BRANCH  34  35
ATOM     35  C   UNL A   1      31.430  30.525  26.861  1.00  0.00     0.002 C 
BRANCH  35  36
ATOM     36  C   UNL A   1      31.445  32.040  26.656  1.00  0.00     0.021 C 
BRANCH  36  37
ATOM     37  C   UNL A   1      32.681  32.763  27.169  1.00  0.00     0.116 C 
BRANCH  37  38
ATOM     38  N   UNL A   1      32.411  34.129  27.581  1.00  0.00    -0.352 N 
ATOM     39  C   UNL A   1      33.002  34.881  28.565  1.00  0.00     0.251 C 
ATOM     40  H   UNL A   1      31.697  34.584  27.078  1.00  0.00     0.163 HD
ATOM     41  O   UNL A   1      32.550  35.984  28.850  1.00  0.00    -0.269 OA
BRANCH  39  42
ATOM     42  C   UNL A   1      34.170  34.352  29.302  1.00  0.00     0.039 A 
ATOM     43  C   UNL A   1      33.944  33.595  30.456  1.00  0.00     0.014 A 
ATOM     44  C   UNL A   1      35.476  34.601  28.872  1.00  0.00     0.014 A 
ATOM     45  C   UNL A   1      35.025  33.042  31.144  1.00  0.00     0.010 A 
ATOM     46  C   UNL A   1      36.546  33.981  29.511  1.00  0.00     0.010 A 
ATOM     47  C   UNL A   1      36.333  33.203  30.657  1.00  0.00    -0.014 A 
BRANCH  47  48
ATOM     48  C   UNL A   1      37.488  32.567  31.341  1.00  0.00     0.031 A 
ATOM     49  C   UNL A   1      38.217  31.427  30.687  1.00  0.00     0.074 A 
ATOM     50  C   UNL A   1      37.841  32.980  32.573  1.00  0.00     0.049 A 
ATOM     51  N   UNL A   1      39.206  30.703  31.147  1.00  0.00    -0.248 NA
ATOM     52  C   UNL A   1      37.757  31.028  29.348  1.00  0.00     0.031 C 
ATOM     53  C   UNL A   1      37.178  34.043  33.331  1.00  0.00     0.029 A 
ATOM     54  N   UNL A   1      38.838  32.549  33.411  1.00  0.00    -0.354 N 
ATOM     55  C   UNL A   1      39.477  29.762  30.162  1.00  0.00     0.074 A 
ATOM     56  C   UNL A   1      38.508  29.964  29.107  1.00  0.00     0.031 C 
ATOM     57  C   UNL A   1      37.801  34.198  34.510  1.00  0.00     0.029 A 
ATOM     58  C   UNL A   1      38.878  33.218  34.611  1.00  0.00     0.049 A 
ATOM     59  H   UNL A   1      39.466  31.828  33.175  1.00  0.00     0.167 HD
ATOM     60  C   UNL A   1      40.461  28.832  30.129  1.00  0.00     0.037 A 
ATOM     61  C   UNL A   1      39.684  33.051  35.676  1.00  0.00     0.037 A 
ATOM     62  C   UNL A   1      41.431  28.647  31.176  1.00  0.00     0.049 A 
ATOM     63  C   UNL A   1      40.759  31.998  35.621  1.00  0.00     0.074 A 
ATOM     64  C   UNL A   1      42.498  27.767  31.219  1.00  0.00     0.029 A 
ATOM     65  N   UNL A   1      41.447  29.353  32.371  1.00  0.00    -0.354 N 
ATOM     66  N   UNL A   1      41.050  31.160  34.655  1.00  0.00    -0.248 NA
ATOM     67  C   UNL A   1      41.624  31.873  36.802  1.00  0.00     0.031 C 
ATOM     68  C   UNL A   1      43.126  27.901  32.461  1.00  0.00     0.029 A 
ATOM     69  C   UNL A   1      42.491  28.910  33.168  1.00  0.00     0.049 A 
ATOM     70  H   UNL A   1      40.812  30.064  32.616  1.00  0.00     0.167 HD
ATOM     71  C   UNL A   1      42.145  30.431  35.098  1.00  0.00     0.074 A 
ATOM     72  C   UNL A   1      42.478  30.938  36.412  1.00  0.00     0.031 C 
ATOM     73  C   UNL A   1      42.815  29.432  34.473  1.00  0.00     0.037 A 
BRANCH  60  74
ATOM     74  C   UNL A   1      40.538  27.945  28.919  1.00  0.00     0.064 A 
ATOM     75  C   UNL A   1      41.357  28.261  27.823  1.00  0.00     0.173 A 
ATOM     76  C   UNL A   1      39.812  26.746  28.865  1.00  0.00     0.173 A 
ATOM     77  F   UNL A   1      42.065  29.402  27.816  1.00  0.00    -0.203 F 
ATOM     78  C   UNL A   1      41.420  27.429  26.709  1.00  0.00     0.198 A 
ATOM     79  C   UNL A   1      39.905  25.898  27.765  1.00  0.00     0.198 A 
ATOM     80  F   UNL A   1      39.018  26.389  29.887  1.00  0.00    -0.203 F 
ATOM     81  F   UNL A   1      42.167  27.781  25.653  1.00  0.00    -0.200 F 
ATOM     82  C   UNL A   1      40.702  26.245  26.684  1.00  0.00     0.200 A 
ATOM     83  F   UNL A   1      39.221  24.745  27.749  1.00  0.00    -0.200 F 
ATOM     84  F   UNL A   1      40.770  25.439  25.615  1.00  0.00    -0.200 F 
ENDBRANCH  60  74
BRANCH  61  85
ATOM     85  C   UNL A   1      39.518  33.912  36.877  1.00  0.00     0.064 A 
ATOM     86  C   UNL A   1      40.099  35.187  36.938  1.00  0.00     0.173 A 
ATOM     87  C   UNL A   1      38.785  33.477  37.990  1.00  0.00     0.173 A 
ATOM     88  F   UNL A   1      40.827  35.641  35.907  1.00  0.00    -0.203 F 
ATOM     89  C   UNL A   1      39.975  35.982  38.076  1.00  0.00     0.198 A 
ATOM     90  C   UNL A   1      38.633  34.286  39.115  1.00  0.00     0.198 A 
ATOM     91  F   UNL A   1      38.206  32.268  37.983  1.00  0.00    -0.203 F 
ATOM     92  F   UNL A   1      40.585  37.173  38.128  1.00  0.00    -0.200 F 
ATOM     93  C   UNL A   1      39.236  35.534  39.160  1.00  0.00     0.200 A 
ATOM     94  F   UNL A   1      37.907  33.855  40.155  1.00  0.00    -0.200 F 
ATOM     95  F   UNL A   1      39.115  36.300  40.254  1.00  0.00    -0.200 F 
ENDBRANCH  61  85
BRANCH  73  96
ATOM     96  C   UNL A   1      44.001  28.846  35.184  1.00  0.00     0.064 A 
ATOM     97  C   UNL A   1      45.293  29.365  35.019  1.00  0.00     0.173 A 
ATOM     98  C   UNL A   1      43.832  27.776  36.076  1.00  0.00     0.173 A 
ATOM     99  F   UNL A   1      45.510  30.380  34.169  1.00  0.00    -0.203 F 
ATOM    100  C   UNL A   1      46.378  28.813  35.697  1.00  0.00     0.198 A 
ATOM    101  C   UNL A   1      44.913  27.251  36.779  1.00  0.00     0.198 A 
ATOM    102  F   UNL A   1      42.616  27.246  36.277  1.00  0.00    -0.203 F 
ATOM    103  F   UNL A   1      47.612  29.292  35.483  1.00  0.00    -0.200 F 
ATOM    104  C   UNL A   1      46.186  27.764  36.582  1.00  0.00     0.200 A 
ATOM    105  F   UNL A   1      44.722  26.247  37.647  1.00  0.00    -0.200 F 
ATOM    106  F   UNL A   1      47.230  27.241  37.241  1.00  0.00    -0.200 F 
ENDBRANCH  73  96
ENDBRANCH  47  48
ENDBRANCH  39  42
ENDBRANCH  37  38
ENDBRANCH  36  37
ENDBRANCH  35  36
ENDBRANCH  34  35
ENDBRANCH   1  34
TORSDOF 18
ENDMDL
MODEL 2
REMARK VINA RESULT:     -13.1      0.527      6.922
REMARK SMILES O=C(Cc1ccccc1)Nc1cccc(C(=O)Nc2ccccc2C(=O)NCCCCCCNC(=O)c2ccc(-c3c4nc(c(-c5c(F)c(F)c(F)c(F)c5F)c5ccc([nH]5)c(-c5c(F)c(F)c(F)c(F)c5F)c5nc(c(-c6c(F)c(F)c(F)c(F)c6F)c6ccc3[nH]6)C=C5)C=C4)cc2)c1
REMARK SMILES IDX 29 1 28 2 27 3 25 4 26 5 24 7 19 8 20 9 21 10 23 11 22 12
REMARK SMILES IDX 18 13 16 14 17 15 15 17 11 18 12 19 100 20 13 21 14 22 10 23
REMARK SMILES IDX 1 24 2 25 3 27 4 28 5 29 9 30 6 31 8 32 7 33 30 34 31 35
REMARK SMILES IDX 32 36 33 37 34 38 35 39 36 41 37 42 38 43 99 44 39 45 98 46
REMARK SMILES IDX 40 47 41 48 42 49 92 50 43 51 97 52 91 53 93 54 44 55 96 56
REMARK SMILES IDX 90 57 89 58 45 60 77 61 57 62 76 63 58 64 61 65 75 66 94 67
REMARK SMILES IDX 59 68 60 69 74 71 95 72 62 73 46 74 47 75 55 76 48 77 49 78
REMARK SMILES IDX 53 79 56 80 50 81 51 82 54 83 52 84 78 85 79 86 87 87 80 88
REMARK SMILES IDX 81 89 85 90 88 91 82 92 83 93 86 94 84 95 63 96 64 97 72 98
REMARK SMILES IDX 65 99 66 100 70 101 73 102 67 103 68 104 71 105 69 106
REMARK H PARENT 27 6 18 16 10 26 34 40 93 59 61 70
REMARK Flexibility Score: inf
ROOT
ATOM      1  C   UNL A   1      33.261  28.520  26.603  1.00  0.00     0.021 C 
ENDROOT
BRANCH   1   2
ATOM      2  C   UNL A   1      32.997  27.109  26.102  1.00  0.00     0.116 C 
BRANCH   2   3
ATOM      3  N   UNL A   1      34.171  26.291  25.936  1.00  0.00    -0.352 N 
ATOM      4  C   UNL A   1      34.258  24.960  25.615  1.00  0.00     0.253 C 
ATOM      5  O   UNL A   1      35.390  24.477  25.514  1.00  0.00    -0.269 OA
ATOM      6  H   UNL A   1      35.031  26.751  26.071  1.00  0.00     0.163 HD
BRANCH   4   7
ATOM      7  C   UNL A   1      33.066  24.057  25.508  1.00  0.00     0.063 A 
ATOM      8  C   UNL A   1      32.409  23.567  24.353  1.00  0.00     0.054 A 
ATOM      9  C   UNL A   1      31.187  22.881  24.526  1.00  0.00     0.027 A 
ATOM     10  C   UNL A   1      30.697  22.550  25.792  1.00  0.00     0.002 A 
ATOM     11  C   UNL A   1      32.554  23.696  26.781  1.00  0.00     0.016 A 
ATOM     12  C   UNL A   1      31.396  22.933  26.924  1.00  0.00     0.001 A 
BRANCH   8  13
ATOM     13  N   UNL A   1      32.843  23.579  22.996  1.00  0.00    -0.321 N 
ATOM     14  C   UNL A   1      32.984  24.604  22.069  1.00  0.00     0.255 C 
ATOM     15  O   UNL A   1      33.239  24.343  20.895  1.00  0.00    -0.269 OA
ATOM     16  H   UNL A   1      33.090  22.692  22.649  1.00  0.00     0.170 HD
BRANCH  14  17
ATOM     17  C   UNL A   1      32.860  26.009  22.492  1.00  0.00     0.042 A 
ATOM     18  C   UNL A   1      31.351  27.851  22.681  1.00  0.00     0.041 A 
ATOM     19  C   UNL A   1      32.436  28.732  22.625  1.00  0.00     0.026 A 
ATOM     20  C   UNL A   1      31.586  26.492  22.741  1.00  0.00     0.040 A 
ATOM     21  C   UNL A   1      33.744  28.236  22.609  1.00  0.00     0.003 A 
ATOM     22  C   UNL A   1      33.960  26.861  22.526  1.00  0.00     0.014 A 
BRANCH  18  23
ATOM     23  N   UNL A   1      30.047  28.353  22.551  1.00  0.00    -0.326 N 
ATOM     24  O   UNL A   1      28.843  26.929  23.978  1.00  0.00    -0.274 OA
ATOM     25  C   UNL A   1      28.908  27.864  23.185  1.00  0.00     0.228 C 
ATOM     26  H   UNL A   1      29.926  29.125  21.953  1.00  0.00     0.169 HD
BRANCH  25  27
ATOM     27  C   UNL A   1      27.672  28.659  22.848  1.00  0.00     0.135 C 
BRANCH  27  28
ATOM     28  C   UNL A   1      27.942  30.100  22.478  1.00  0.00    -0.039 A 
ATOM     29  C   UNL A   1      27.961  30.570  21.153  1.00  0.00     0.004 A 
ATOM     30  C   UNL A   1      28.139  31.022  23.513  1.00  0.00     0.004 A 
ATOM     31  C   UNL A   1      28.136  31.922  20.873  1.00  0.00     0.000 A 
ATOM     32  C   UNL A   1      28.334  32.374  23.231  1.00  0.00     0.000 A 
ATOM     33  C   UNL A   1      28.321  32.825  21.912  1.00  0.00     0.000 A 
ENDBRANCH  27  28
ENDBRANCH  25  27
ENDBRANCH  18  23
ENDBRANCH  14  17
ENDBRANCH   8  13
ENDBRANCH   4   7
ENDBRANCH   2   3
ENDBRANCH   1   2
BRANCH   1  34
ATOM     34  C   UNL A   1      32.259  29.589  26.151  1.00  0.00     0.002 C 
BRANCH  34  35
ATOM     35  C   UNL A   1      31.764  30.585  27.205  1.00  0.00     0.002 C 
BRANCH  35  36
ATOM     36  C   UNL A   1      31.587  32.040  26.770  1.00  0.00     0.021 C 
BRANCH  36  37
ATOM     37  C   UNL A   1      32.804  32.934  26.951  1.00  0.00     0.116 C 
BRANCH  37  38
ATOM     38  N   UNL A   1      32.487  34.209  27.569  1.00  0.00    -0.352 N 
ATOM     39  C   UNL A   1      33.042  34.814  28.669  1.00  0.00     0.251 C 
ATOM     40  H   UNL A   1      31.766  34.717  27.131  1.00  0.00     0.163 HD
ATOM     41  O   UNL A   1      32.552  35.844  29.116  1.00  0.00    -0.269 OA
BRANCH  39  42
ATOM     42  C   UNL A   1      34.216  34.208  29.333  1.00  0.00     0.039 A 
ATOM     43  C   UNL A   1      34.001  33.346  30.414  1.00  0.00     0.014 A 
ATOM     44  C   UNL A   1      35.517  34.487  28.908  1.00  0.00     0.014 A 
ATOM     45  C   UNL A   1      35.087  32.723  31.029  1.00  0.00     0.010 A 
ATOM     46  C   UNL A   1      36.591  33.802  29.469  1.00  0.00     0.010 A 
ATOM     47  C   UNL A   1      36.389  32.920  30.539  1.00  0.00    -0.014 A 
BRANCH  47  48
ATOM     48  C   UNL A   1      37.549  32.214  31.140  1.00  0.00     0.031 A 
ATOM     49  C   UNL A   1      38.044  32.603  32.505  1.00  0.00     0.074 A 
ATOM     50  C   UNL A   1      38.189  31.264  30.433  1.00  0.00     0.049 A 
ATOM     51  N   UNL A   1      39.076  32.151  33.173  1.00  0.00    -0.248 NA
ATOM     52  C   UNL A   1      37.298  33.662  33.203  1.00  0.00     0.031 C 
ATOM     53  C   UNL A   1      37.833  30.834  29.079  1.00  0.00     0.029 A 
ATOM     54  N   UNL A   1      39.280  30.494  30.748  1.00  0.00    -0.354 N 
ATOM     55  C   UNL A   1      39.106  32.874  34.358  1.00  0.00     0.074 A 
ATOM     56  C   UNL A   1      38.029  33.838  34.293  1.00  0.00     0.031 C 
ATOM     57  C   UNL A   1      38.674  29.862  28.690  1.00  0.00     0.029 A 
ATOM     58  C   UNL A   1      39.653  29.629  29.746  1.00  0.00     0.049 A 
ATOM     59  H   UNL A   1      39.752  30.555  31.611  1.00  0.00     0.167 HD
ATOM     60  C   UNL A   1      39.938  32.728  35.417  1.00  0.00     0.037 A 
ATOM     61  C   UNL A   1      40.677  28.757  29.684  1.00  0.00     0.037 A 
ATOM     62  C   UNL A   1      40.997  31.755  35.481  1.00  0.00     0.049 A 
ATOM     63  C   UNL A   1      41.599  28.627  30.867  1.00  0.00     0.074 A 
ATOM     64  C   UNL A   1      41.866  31.492  36.526  1.00  0.00     0.029 A 
ATOM     65  N   UNL A   1      41.336  30.887  34.452  1.00  0.00    -0.354 N 
ATOM     66  N   UNL A   1      41.575  29.267  32.011  1.00  0.00    -0.248 NA
ATOM     67  C   UNL A   1      42.686  27.645  30.753  1.00  0.00     0.031 C 
ATOM     68  C   UNL A   1      42.765  30.505  36.109  1.00  0.00     0.029 A 
ATOM     69  C   UNL A   1      42.418  30.106  34.829  1.00  0.00     0.049 A 
ATOM     70  H   UNL A   1      40.876  30.835  33.583  1.00  0.00     0.167 HD
ATOM     71  C   UNL A   1      42.621  28.748  32.762  1.00  0.00     0.074 A 
ATOM     72  C   UNL A   1      43.248  27.726  31.950  1.00  0.00     0.031 C 
ATOM     73  C   UNL A   1      43.026  29.086  34.011  1.00  0.00     0.037 A 
BRANCH  60  74
ATOM     74  C   UNL A   1      39.734  33.640  36.592  1.00  0.00     0.064 A 
ATOM     75  C   UNL A   1      38.882  33.297  37.654  1.00  0.00     0.173 A 
ATOM     76  C   UNL A   1      40.425  34.858  36.679  1.00  0.00     0.173 A 
ATOM     77  F   UNL A   1      38.188  32.148  37.618  1.00  0.00    -0.203 F 
ATOM     78  C   UNL A   1      38.703  34.152  38.738  1.00  0.00     0.198 A 
ATOM     79  C   UNL A   1      40.272  35.695  37.782  1.00  0.00     0.198 A 
ATOM     80  F   UNL A   1      41.258  35.236  35.697  1.00  0.00    -0.203 F 
ATOM     81  F   UNL A   1      37.842  33.826  39.712  1.00  0.00    -0.200 F 
ATOM     82  C   UNL A   1      39.404  35.345  38.806  1.00  0.00     0.200 A 
ATOM     83  F   UNL A   1      40.963  36.842  37.853  1.00  0.00    -0.200 F 
ATOM     84  F   UNL A   1      39.240  36.163  39.854  1.00  0.00    -0.200 F 
ENDBRANCH  60  74
BRANCH  61  85
ATOM     85  C   UNL A   1      40.873  27.927  28.466  1.00  0.00     0.064 A 
ATOM     86  C   UNL A   1      41.663  28.382  27.401  1.00  0.00     0.173 A 
ATOM     87  C   UNL A   1      40.271  26.667  28.337  1.00  0.00     0.173 A 
ATOM     88  F   UNL A   1      42.245  29.589  27.467  1.00  0.00    -0.203 F 
ATOM     89  C   UNL A   1      41.821  27.621  26.244  1.00  0.00     0.198 A 
ATOM     90  C   UNL A   1      40.456  25.893  27.194  1.00  0.00     0.198 A 
ATOM     91  F   UNL A   1      39.508  26.182  29.328  1.00  0.00    -0.203 F 
ATOM     92  F   UNL A   1      42.537  28.104  25.220  1.00  0.00    -0.200 F 
ATOM     93  C   UNL A   1      41.223  26.375  26.144  1.00  0.00     0.200 A 
ATOM     94  F   UNL A   1      39.888  24.682  27.108  1.00  0.00    -0.200 F 
ATOM     95  F   UNL A   1      41.376  25.642  25.032  1.00  0.00    -0.200 F 
ENDBRANCH  61  85
BRANCH  73  96
ATOM     96  C   UNL A   1      44.177  28.318  34.595  1.00  0.00     0.064 A 
ATOM     97  C   UNL A   1      45.500  28.769  34.481  1.00  0.00     0.173 A 
ATOM     98  C   UNL A   1      43.946  27.135  35.313  1.00  0.00     0.173 A 
ATOM     99  F   UNL A   1      45.776  29.888  33.794  1.00  0.00    -0.203 F 
ATOM    100  C   UNL A   1      46.553  28.047  35.039  1.00  0.00     0.198 A 
ATOM    101  C   UNL A   1      44.997  26.436  35.900  1.00  0.00     0.198 A 
ATOM    102  F   UNL A   1      42.699  26.663  35.458  1.00  0.00    -0.203 F 
ATOM    103  F   UNL A   1      47.814  28.470  34.873  1.00  0.00    -0.200 F 
ATOM    104  C   UNL A   1      46.299  26.888  35.755  1.00  0.00     0.200 A 
ATOM    105  F   UNL A   1      44.748  25.323  36.605  1.00  0.00    -0.200 F 
ATOM    106  F   UNL A   1      47.313  26.199  36.299  1.00  0.00    -0.200 F 
ENDBRANCH  73  96
ENDBRANCH  47  48
ENDBRANCH  39  42
ENDBRANCH  37  38
ENDBRANCH  36  37
ENDBRANCH  35  36
ENDBRANCH  34  35
ENDBRANCH   1  34
TORSDOF 18
ENDMDL
MODEL 3
REMARK VINA RESULT:     -13.1      1.756      7.250
REMARK SMILES O=C(Cc1ccccc1)Nc1cccc(C(=O)Nc2ccccc2C(=O)NCCCCCCNC(=O)c2ccc(-c3c4nc(c(-c5c(F)c(F)c(F)c(F)c5F)c5ccc([nH]5)c(-c5c(F)c(F)c(F)c(F)c5F)c5nc(c(-c6c(F)c(F)c(F)c(F)c6F)c6ccc3[nH]6)C=C5)C=C4)cc2)c1
REMARK SMILES IDX 29 1 28 2 27 3 25 4 26 5 24 7 19 8 20 9 21 10 23 11 22 12
REMARK SMILES IDX 18 13 16 14 17 15 15 17 11 18 12 19 100 20 13 21 14 22 10 23
REMARK SMILES IDX 1 24 2 25 3 27 4 28 5 29 9 30 6 31 8 32 7 33 30 34 31 35
REMARK SMILES IDX 32 36 33 37 34 38 35 39 36 41 37 42 38 43 99 44 39 45 98 46
REMARK SMILES IDX 40 47 41 48 42 49 92 50 43 51 97 52 91 53 93 54 44 55 96 56
REMARK SMILES IDX 90 57 89 58 45 60 77 61 57 62 76 63 58 64 61 65 75 66 94 67
REMARK SMILES IDX 59 68 60 69 74 71 95 72 62 73 46 74 47 75 55 76 48 77 49 78
REMARK SMILES IDX 53 79 56 80 50 81 51 82 54 83 52 84 78 85 79 86 87 87 80 88
REMARK SMILES IDX 81 89 85 90 88 91 82 92 83 93 86 94 84 95 63 96 64 97 72 98
REMARK SMILES IDX 65 99 66 100 70 101 73 102 67 103 68 104 71 105 69 106
REMARK H PARENT 27 6 18 16 10 26 34 40 93 59 61 70
REMARK Flexibility Score: inf
ROOT
ATOM      1  C   UNL A   1      31.831  25.982  26.118  1.00  0.00     0.021 C 
ENDROOT
BRANCH   1   2
ATOM      2  C   UNL A   1      31.174  24.619  26.263  1.00  0.00     0.116 C 
BRANCH   2   3
ATOM      3  N   UNL A   1      30.682  24.046  25.036  1.00  0.00    -0.352 N 
ATOM      4  C   UNL A   1      31.372  23.371  24.061  1.00  0.00     0.253 C 
ATOM      5  O   UNL A   1      30.723  22.956  23.096  1.00  0.00    -0.269 OA
ATOM      6  H   UNL A   1      29.716  24.152  24.876  1.00  0.00     0.163 HD
BRANCH   4   7
ATOM      7  C   UNL A   1      32.864  23.230  24.053  1.00  0.00     0.063 A 
ATOM      8  C   UNL A   1      33.775  23.367  22.977  1.00  0.00     0.054 A 
ATOM      9  C   UNL A   1      35.120  22.994  23.196  1.00  0.00     0.027 A 
ATOM     10  C   UNL A   1      35.594  22.644  24.462  1.00  0.00     0.002 A 
ATOM     11  C   UNL A   1      33.375  22.884  25.331  1.00  0.00     0.016 A 
ATOM     12  C   UNL A   1      34.726  22.616  25.540  1.00  0.00     0.001 A 
BRANCH   8  13
ATOM     13  N   UNL A   1      33.565  23.925  21.683  1.00  0.00    -0.321 N 
ATOM     14  C   UNL A   1      33.037  25.139  21.263  1.00  0.00     0.255 C 
ATOM     15  O   UNL A   1      32.817  25.337  20.070  1.00  0.00    -0.269 OA
ATOM     16  H   UNL A   1      33.847  23.337  20.946  1.00  0.00     0.170 HD
BRANCH  14  17
ATOM     17  C   UNL A   1      32.768  26.208  22.240  1.00  0.00     0.042 A 
ATOM     18  C   UNL A   1      31.146  27.803  22.971  1.00  0.00     0.041 A 
ATOM     19  C   UNL A   1      32.175  28.591  23.497  1.00  0.00     0.026 A 
ATOM     20  C   UNL A   1      31.445  26.556  22.458  1.00  0.00     0.040 A 
ATOM     21  C   UNL A   1      33.495  28.126  23.484  1.00  0.00     0.003 A 
ATOM     22  C   UNL A   1      33.798  26.930  22.835  1.00  0.00     0.014 A 
BRANCH  18  23
ATOM     23  N   UNL A   1      29.854  28.338  22.859  1.00  0.00    -0.326 N 
ATOM     24  O   UNL A   1      28.559  26.684  23.908  1.00  0.00    -0.274 OA
ATOM     25  C   UNL A   1      28.676  27.753  23.315  1.00  0.00     0.228 C 
ATOM     26  H   UNL A   1      29.773  29.213  22.415  1.00  0.00     0.169 HD
BRANCH  25  27
ATOM     27  C   UNL A   1      27.465  28.615  23.061  1.00  0.00     0.135 C 
BRANCH  27  28
ATOM     28  C   UNL A   1      27.788  30.014  22.584  1.00  0.00    -0.039 A 
ATOM     29  C   UNL A   1      28.001  30.342  21.235  1.00  0.00     0.004 A 
ATOM     30  C   UNL A   1      27.831  31.042  23.534  1.00  0.00     0.004 A 
ATOM     31  C   UNL A   1      28.215  31.660  20.842  1.00  0.00     0.000 A 
ATOM     32  C   UNL A   1      28.067  32.359  23.142  1.00  0.00     0.000 A 
ATOM     33  C   UNL A   1      28.247  32.669  21.795  1.00  0.00     0.000 A 
ENDBRANCH  27  28
ENDBRANCH  25  27
ENDBRANCH  18  23
ENDBRANCH  14  17
ENDBRANCH   8  13
ENDBRANCH   4   7
ENDBRANCH   2   3
ENDBRANCH   1   2
BRANCH   1  34
ATOM     34  C   UNL A   1      31.060  27.165  26.715  1.00  0.00     0.002 C 
BRANCH  34  35
ATOM     35  C   UNL A   1      31.874  28.262  27.409  1.00  0.00     0.002 C 
BRANCH  35  36
ATOM     36  C   UNL A   1      31.628  29.706  26.969  1.00  0.00     0.021 C 
BRANCH  36  37
ATOM     37  C   UNL A   1      32.853  30.465  26.483  1.00  0.00     0.116 C 
BRANCH  37  38
ATOM     38  N   UNL A   1      32.806  31.882  26.796  1.00  0.00    -0.352 N 
ATOM     39  C   UNL A   1      33.624  32.629  27.605  1.00  0.00     0.251 C 
ATOM     40  H   UNL A   1      32.078  32.382  26.360  1.00  0.00     0.163 HD
ATOM     41  O   UNL A   1      33.349  33.798  27.845  1.00  0.00    -0.269 OA
BRANCH  39  42
ATOM     42  C   UNL A   1      34.826  32.017  28.212  1.00  0.00     0.039 A 
ATOM     43  C   UNL A   1      35.996  32.779  28.293  1.00  0.00     0.014 A 
ATOM     44  C   UNL A   1      34.811  30.704  28.691  1.00  0.00     0.014 A 
ATOM     45  C   UNL A   1      37.131  32.243  28.903  1.00  0.00     0.010 A 
ATOM     46  C   UNL A   1      35.916  30.203  29.373  1.00  0.00     0.010 A 
ATOM     47  C   UNL A   1      37.088  30.962  29.479  1.00  0.00    -0.014 A 
BRANCH  47  48
ATOM     48  C   UNL A   1      38.266  30.403  30.190  1.00  0.00     0.031 A 
ATOM     49  C   UNL A   1      38.562  30.821  31.603  1.00  0.00     0.074 A 
ATOM     50  C   UNL A   1      39.099  29.566  29.543  1.00  0.00     0.049 A 
ATOM     51  N   UNL A   1      39.572  30.494  32.371  1.00  0.00    -0.248 NA
ATOM     52  C   UNL A   1      37.612  31.752  32.232  1.00  0.00     0.031 C 
ATOM     53  C   UNL A   1      38.944  29.127  28.154  1.00  0.00     0.029 A 
ATOM     54  N   UNL A   1      40.246  28.941  29.962  1.00  0.00    -0.354 N 
ATOM     55  C   UNL A   1      39.382  31.184  33.561  1.00  0.00     0.074 A 
ATOM     56  C   UNL A   1      38.197  31.997  33.394  1.00  0.00     0.031 C 
ATOM     57  C   UNL A   1      39.944  28.286  27.845  1.00  0.00     0.029 A 
ATOM     58  C   UNL A   1      40.833  28.160  28.994  1.00  0.00     0.049 A 
ATOM     59  H   UNL A   1      40.615  29.043  30.869  1.00  0.00     0.167 HD
ATOM     60  C   UNL A   1      40.115  31.124  34.698  1.00  0.00     0.037 A 
ATOM     61  C   UNL A   1      41.967  27.435  29.030  1.00  0.00     0.037 A 
ATOM     62  C   UNL A   1      41.284  30.301  34.862  1.00  0.00     0.049 A 
ATOM     63  C   UNL A   1      42.773  27.399  30.301  1.00  0.00     0.074 A 
ATOM     64  C   UNL A   1      42.070  30.131  35.989  1.00  0.00     0.029 A 
ATOM     65  N   UNL A   1      41.841  29.513  33.864  1.00  0.00    -0.354 N 
ATOM     66  N   UNL A   1      42.546  28.002  31.443  1.00  0.00    -0.248 NA
ATOM     67  C   UNL A   1      43.989  26.575  30.290  1.00  0.00     0.031 C 
ATOM     68  C   UNL A   1      43.132  29.284  35.657  1.00  0.00     0.029 A 
ATOM     69  C   UNL A   1      42.975  28.874  34.343  1.00  0.00     0.049 A 
ATOM     70  H   UNL A   1      41.484  29.421  32.951  1.00  0.00     0.167 HD
ATOM     71  C   UNL A   1      43.570  27.608  32.293  1.00  0.00     0.074 A 
ATOM     72  C   UNL A   1      44.410  26.701  31.540  1.00  0.00     0.031 C 
ATOM     73  C   UNL A   1      43.796  27.966  33.582  1.00  0.00     0.037 A 
BRANCH  60  74
ATOM     74  C   UNL A   1      39.670  31.971  35.856  1.00  0.00     0.064 A 
ATOM     75  C   UNL A   1      40.272  33.207  36.141  1.00  0.00     0.173 A 
ATOM     76  C   UNL A   1      38.605  31.562  36.673  1.00  0.00     0.173 A 
ATOM     77  F   UNL A   1      41.302  33.643  35.399  1.00  0.00    -0.203 F 
ATOM     78  C   UNL A   1      39.848  33.983  37.216  1.00  0.00     0.198 A 
ATOM     79  C   UNL A   1      38.159  32.356  37.725  1.00  0.00     0.198 A 
ATOM     80  F   UNL A   1      37.987  30.392  36.444  1.00  0.00    -0.203 F 
ATOM     81  F   UNL A   1      40.475  35.133  37.500  1.00  0.00    -0.200 F 
ATOM     82  C   UNL A   1      38.787  33.561  38.002  1.00  0.00     0.200 A 
ATOM     83  F   UNL A   1      37.123  31.954  38.475  1.00  0.00    -0.200 F 
ATOM     84  F   UNL A   1      38.373  34.313  39.032  1.00  0.00    -0.200 F 
ENDBRANCH  60  74
BRANCH  61  85
ATOM     85  C   UNL A   1      42.397  26.670  27.830  1.00  0.00     0.064 A 
ATOM     86  C   UNL A   1      41.912  25.377  27.584  1.00  0.00     0.173 A 
ATOM     87  C   UNL A   1      43.308  27.209  26.909  1.00  0.00     0.173 A 
ATOM     88  F   UNL A   1      41.055  24.809  28.446  1.00  0.00    -0.203 F 
ATOM     89  C   UNL A   1      42.341  24.644  26.479  1.00  0.00     0.198 A 
ATOM     90  C   UNL A   1      43.710  26.488  25.786  1.00  0.00     0.198 A 
ATOM     91  F   UNL A   1      43.800  28.442  27.094  1.00  0.00    -0.203 F 
ATOM     92  F   UNL A   1      41.902  23.391  26.298  1.00  0.00    -0.200 F 
ATOM     93  C   UNL A   1      43.234  25.202  25.578  1.00  0.00     0.200 A 
ATOM     94  F   UNL A   1      44.563  27.037  24.911  1.00  0.00    -0.200 F 
ATOM     95  F   UNL A   1      43.644  24.497  24.514  1.00  0.00    -0.200 F 
ENDBRANCH  61  85
BRANCH  73  96
ATOM     96  C   UNL A   1      44.976  27.345  34.273  1.00  0.00     0.064 A 
ATOM     97  C   UNL A   1      46.230  27.971  34.302  1.00  0.00     0.173 A 
ATOM     98  C   UNL A   1      44.836  26.125  34.951  1.00  0.00     0.173 A 
ATOM     99  F   UNL A   1      46.421  29.133  33.659  1.00  0.00    -0.203 F 
ATOM    100  C   UNL A   1      47.309  27.383  34.959  1.00  0.00     0.198 A 
ATOM    101  C   UNL A   1      45.906  25.558  35.637  1.00  0.00     0.198 A 
ATOM    102  F   UNL A   1      43.655  25.487  34.962  1.00  0.00    -0.203 F 
ATOM    103  F   UNL A   1      48.511  27.974  34.929  1.00  0.00    -0.200 F 
ATOM    104  C   UNL A   1      47.143  26.183  35.632  1.00  0.00     0.200 A 
ATOM    105  F   UNL A   1      45.740  24.406  36.301  1.00  0.00    -0.200 F 
ATOM    106  F   UNL A   1      48.181  25.623  36.272  1.00  0.00    -0.200 F 
ENDBRANCH  73  96
ENDBRANCH  47  48
ENDBRANCH  39  42
ENDBRANCH  37  38
ENDBRANCH  36  37
ENDBRANCH  35  36
ENDBRANCH  34  35
ENDBRANCH   1  34
TORSDOF 18
ENDMDL
