MODEL 1
REMARK VINA RESULT:     -11.7      0.000      0.000
REMARK SMILES C[C@@H](c1cccc(F)c1)[C@@](C)(O)C(=O)NCCCCCCNC(=O)c1ccc(-c2c3nc(c(-c4c(F)c(F)c(F)c(F)c4F)c4ccc([nH]4)c(-c4c(F)c(F)c(F)c(F)c4F)c4nc(c(-c5c(F)c(F)c(F)c(F)c5F)c5ccc2[nH]5)C=C4)C=C3)cc1
REMARK SMILES IDX 18 1 17 2 16 3 15 4 13 5 14 6 10 8 11 9 2 10 1 11 3 12 4 13
REMARK SMILES IDX 9 14 5 15 7 16 6 17 8 18 12 19 19 21 20 22 21 23 22 24 23 25
REMARK SMILES IDX 24 27 25 28 26 29 87 30 27 31 86 32 28 33 29 34 30 35 80 36
REMARK SMILES IDX 31 37 85 38 79 39 81 40 32 41 84 42 78 43 77 44 33 46 65 47
REMARK SMILES IDX 45 48 64 49 46 50 49 51 63 52 82 53 47 54 48 55 62 57 83 58
REMARK SMILES IDX 50 59 34 60 35 61 43 62 36 63 37 64 41 65 44 66 38 67 39 68
REMARK SMILES IDX 42 69 40 70 66 71 67 72 75 73 68 74 69 75 73 76 76 77 70 78
REMARK SMILES IDX 71 79 74 80 72 81 51 82 52 83 60 84 53 85 54 86 58 87 61 88
REMARK SMILES IDX 55 89 56 90 59 91 57 92
REMARK H PARENT 15 7 12 20 22 26 81 45 49 56
REMARK Flexibility Score: inf
ROOT
ATOM      1  C   UNL A   1      32.483  29.696  27.255  1.00  0.00     0.002 C 
ENDROOT
BRANCH   1   2
ATOM      2  C   UNL A   1      32.875  28.332  26.673  1.00  0.00     0.021 C 
BRANCH   2   3
ATOM      3  C   UNL A   1      31.721  27.533  26.075  1.00  0.00     0.116 C 
BRANCH   3   4
ATOM      4  N   UNL A   1      32.188  26.522  25.149  1.00  0.00    -0.354 N 
ATOM      5  C   UNL A   1      31.874  26.289  23.843  1.00  0.00     0.252 C 
ATOM      6  O   UNL A   1      32.498  25.373  23.300  1.00  0.00    -0.272 OA
ATOM      7  H   UNL A   1      32.848  25.896  25.527  1.00  0.00     0.163 HD
BRANCH   5   8
ATOM      8  C   UNL A   1      30.882  27.216  23.073  1.00  0.00     0.146 C 
ATOM      9  C   UNL A   1      29.461  26.847  23.538  1.00  0.00     0.053 C 
BRANCH   8  10
ATOM     10  C   UNL A   1      31.154  28.747  23.310  1.00  0.00     0.057 C 
ATOM     11  C   UNL A   1      32.531  29.247  22.839  1.00  0.00     0.016 C 
BRANCH  10  12
ATOM     12  C   UNL A   1      30.012  29.656  22.848  1.00  0.00    -0.039 A 
ATOM     13  C   UNL A   1      29.813  29.995  21.499  1.00  0.00     0.004 A 
ATOM     14  C   UNL A   1      29.120  30.182  23.797  1.00  0.00     0.043 A 
ATOM     15  C   UNL A   1      28.758  30.828  21.111  1.00  0.00     0.003 A 
ATOM     16  C   UNL A   1      28.074  31.013  23.401  1.00  0.00     0.123 A 
ATOM     17  C   UNL A   1      27.886  31.341  22.066  1.00  0.00     0.039 A 
ATOM     18  F   UNL A   1      27.240  31.504  24.326  1.00  0.00    -0.207 F 
ENDBRANCH  10  12
ENDBRANCH   8  10
BRANCH   8  19
ATOM     19  O   UNL A   1      30.924  26.974  21.657  1.00  0.00    -0.380 OA
ATOM     20  H   UNL A   1      30.125  26.496  21.387  1.00  0.00     0.212 HD
ENDBRANCH   8  19
ENDBRANCH   5   8
ENDBRANCH   3   4
ENDBRANCH   2   3
ENDBRANCH   1   2
BRANCH   1  21
ATOM     21  C   UNL A   1      31.798  30.658  26.280  1.00  0.00     0.002 C 
BRANCH  21  22
ATOM     22  C   UNL A   1      31.522  32.058  26.830  1.00  0.00     0.021 C 
BRANCH  22  23
ATOM     23  C   UNL A   1      32.764  32.830  27.252  1.00  0.00     0.116 C 
BRANCH  23  24
ATOM     24  N   UNL A   1      32.466  34.205  27.619  1.00  0.00    -0.352 N 
ATOM     25  C   UNL A   1      33.024  34.966  28.616  1.00  0.00     0.251 C 
ATOM     26  H   UNL A   1      31.770  34.649  27.082  1.00  0.00     0.163 HD
ATOM     27  O   UNL A   1      32.551  36.059  28.911  1.00  0.00    -0.269 OA
BRANCH  25  28
ATOM     28  C   UNL A   1      34.193  34.444  29.353  1.00  0.00     0.039 A 
ATOM     29  C   UNL A   1      33.990  33.758  30.553  1.00  0.00     0.014 A 
ATOM     30  C   UNL A   1      35.483  34.615  28.845  1.00  0.00     0.014 A 
ATOM     31  C   UNL A   1      35.081  33.193  31.217  1.00  0.00     0.010 A 
ATOM     32  C   UNL A   1      36.555  33.985  29.464  1.00  0.00     0.010 A 
ATOM     33  C   UNL A   1      36.367  33.275  30.661  1.00  0.00    -0.014 A 
BRANCH  33  34
ATOM     34  C   UNL A   1      37.544  32.658  31.319  1.00  0.00     0.031 A 
ATOM     35  C   UNL A   1      38.271  31.534  30.636  1.00  0.00     0.074 A 
ATOM     36  C   UNL A   1      37.908  33.046  32.556  1.00  0.00     0.049 A 
ATOM     37  N   UNL A   1      39.231  30.771  31.091  1.00  0.00    -0.248 NA
ATOM     38  C   UNL A   1      37.836  31.203  29.269  1.00  0.00     0.031 C 
ATOM     39  C   UNL A   1      37.264  34.107  33.330  1.00  0.00     0.029 A 
ATOM     40  N   UNL A   1      38.899  32.582  33.385  1.00  0.00    -0.354 N 
ATOM     41  C   UNL A   1      39.497  29.859  30.078  1.00  0.00     0.074 A 
ATOM     42  C   UNL A   1      38.563  30.127  29.008  1.00  0.00     0.031 C 
ATOM     43  C   UNL A   1      37.888  34.225  34.513  1.00  0.00     0.029 A 
ATOM     44  C   UNL A   1      38.944  33.219  34.601  1.00  0.00     0.049 A 
ATOM     45  H   UNL A   1      39.518  31.859  33.132  1.00  0.00     0.167 HD
ATOM     46  C   UNL A   1      40.452  28.900  30.037  1.00  0.00     0.037 A 
ATOM     47  C   UNL A   1      39.736  33.007  35.669  1.00  0.00     0.037 A 
ATOM     48  C   UNL A   1      41.397  28.661  31.093  1.00  0.00     0.049 A 
ATOM     49  C   UNL A   1      40.779  31.926  35.610  1.00  0.00     0.074 A 
ATOM     50  C   UNL A   1      42.439  27.752  31.125  1.00  0.00     0.029 A 
ATOM     51  N   UNL A   1      41.418  29.338  32.305  1.00  0.00    -0.354 N 
ATOM     52  N   UNL A   1      41.051  31.096  34.632  1.00  0.00    -0.248 NA
ATOM     53  C   UNL A   1      41.628  31.749  36.798  1.00  0.00     0.031 C 
ATOM     54  C   UNL A   1      43.056  27.839  32.375  1.00  0.00     0.029 A 
ATOM     55  C   UNL A   1      42.440  28.848  33.100  1.00  0.00     0.049 A 
ATOM     56  H   UNL A   1      40.797  30.059  32.561  1.00  0.00     0.167 HD
ATOM     57  C   UNL A   1      42.117  30.321  35.071  1.00  0.00     0.074 A 
ATOM     58  C   UNL A   1      42.444  30.780  36.405  1.00  0.00     0.031 C 
ATOM     59  C   UNL A   1      42.765  29.325  34.422  1.00  0.00     0.037 A 
BRANCH  46  60
ATOM     60  C   UNL A   1      40.524  28.038  28.810  1.00  0.00     0.064 A 
ATOM     61  C   UNL A   1      41.283  28.442  27.701  1.00  0.00     0.173 A 
ATOM     62  C   UNL A   1      39.804  26.838  28.710  1.00  0.00     0.173 A 
ATOM     63  F   UNL A   1      41.985  29.584  27.741  1.00  0.00    -0.203 F 
ATOM     64  C   UNL A   1      41.310  27.680  26.536  1.00  0.00     0.198 A 
ATOM     65  C   UNL A   1      39.862  26.061  27.555  1.00  0.00     0.198 A 
ATOM     66  F   UNL A   1      39.072  26.400  29.745  1.00  0.00    -0.203 F 
ATOM     67  F   UNL A   1      42.017  28.102  25.479  1.00  0.00    -0.200 F 
ATOM     68  C   UNL A   1      40.607  26.487  26.467  1.00  0.00     0.200 A 
ATOM     69  F   UNL A   1      39.204  24.894  27.502  1.00  0.00    -0.200 F 
ATOM     70  F   UNL A   1      40.651  25.746  25.351  1.00  0.00    -0.200 F 
ENDBRANCH  46  60
BRANCH  47  71
ATOM     71  C   UNL A   1      39.586  33.874  36.867  1.00  0.00     0.064 A 
ATOM     72  C   UNL A   1      38.785  33.491  37.953  1.00  0.00     0.173 A 
ATOM     73  C   UNL A   1      40.199  35.134  36.920  1.00  0.00     0.173 A 
ATOM     74  F   UNL A   1      38.171  32.299  37.947  1.00  0.00    -0.203 F 
ATOM     75  C   UNL A   1      38.579  34.348  39.032  1.00  0.00     0.198 A 
ATOM     76  C   UNL A   1      40.012  35.979  38.012  1.00  0.00     0.198 A 
ATOM     77  F   UNL A   1      40.990  35.536  35.915  1.00  0.00    -0.203 F 
ATOM     78  F   UNL A   1      37.773  33.976  40.036  1.00  0.00    -0.200 F 
ATOM     79  C   UNL A   1      39.194  35.590  39.061  1.00  0.00     0.200 A 
ATOM     80  F   UNL A   1      40.625  37.170  38.046  1.00  0.00    -0.200 F 
ATOM     81  F   UNL A   1      38.997  36.412  40.100  1.00  0.00    -0.200 F 
ENDBRANCH  47  71
BRANCH  59  82
ATOM     82  C   UNL A   1      43.927  28.671  35.112  1.00  0.00     0.064 A 
ATOM     83  C   UNL A   1      43.716  27.573  35.959  1.00  0.00     0.173 A 
ATOM     84  C   UNL A   1      45.222  29.201  35.032  1.00  0.00     0.173 A 
ATOM     85  F   UNL A   1      42.492  27.035  36.078  1.00  0.00    -0.203 F 
ATOM     86  C   UNL A   1      44.752  27.048  36.726  1.00  0.00     0.198 A 
ATOM     87  C   UNL A   1      46.263  28.654  35.778  1.00  0.00     0.198 A 
ATOM     88  F   UNL A   1      45.477  30.243  34.227  1.00  0.00    -0.203 F 
ATOM     89  F   UNL A   1      44.515  26.032  37.566  1.00  0.00    -0.200 F 
ATOM     90  C   UNL A   1      46.025  27.589  36.634  1.00  0.00     0.200 A 
ATOM     91  F   UNL A   1      47.499  29.165  35.674  1.00  0.00    -0.200 F 
ATOM     92  F   UNL A   1      47.023  27.086  37.374  1.00  0.00    -0.200 F 
ENDBRANCH  59  82
ENDBRANCH  33  34
ENDBRANCH  25  28
ENDBRANCH  23  24
ENDBRANCH  22  23
ENDBRANCH  21  22
ENDBRANCH   1  21
TORSDOF 16
ENDMDL
MODEL 2
REMARK VINA RESULT:     -11.5      2.089      3.716
REMARK SMILES C[C@@H](c1cccc(F)c1)[C@@](C)(O)C(=O)NCCCCCCNC(=O)c1ccc(-c2c3nc(c(-c4c(F)c(F)c(F)c(F)c4F)c4ccc([nH]4)c(-c4c(F)c(F)c(F)c(F)c4F)c4nc(c(-c5c(F)c(F)c(F)c(F)c5F)c5ccc2[nH]5)C=C4)C=C3)cc1
REMARK SMILES IDX 18 1 17 2 16 3 15 4 13 5 14 6 10 8 11 9 2 10 1 11 3 12 4 13
REMARK SMILES IDX 9 14 5 15 7 16 6 17 8 18 12 19 19 21 20 22 21 23 22 24 23 25
REMARK SMILES IDX 24 27 25 28 26 29 87 30 27 31 86 32 28 33 29 34 30 35 80 36
REMARK SMILES IDX 31 37 85 38 79 39 81 40 32 41 84 42 78 43 77 44 33 46 65 47
REMARK SMILES IDX 45 48 64 49 46 50 49 51 63 52 82 53 47 54 48 55 62 57 83 58
REMARK SMILES IDX 50 59 34 60 35 61 43 62 36 63 37 64 41 65 44 66 38 67 39 68
REMARK SMILES IDX 42 69 40 70 66 71 67 72 75 73 68 74 69 75 73 76 76 77 70 78
REMARK SMILES IDX 71 79 74 80 72 81 51 82 52 83 60 84 53 85 54 86 58 87 61 88
REMARK SMILES IDX 55 89 56 90 59 91 57 92
REMARK H PARENT 15 7 12 20 22 26 81 45 49 56
REMARK Flexibility Score: inf
ROOT
ATOM      1  C   UNL A   1      32.142  29.657  27.251  1.00  0.00     0.002 C 
ENDROOT
BRANCH   1   2
ATOM      2  C   UNL A   1      32.555  28.249  26.802  1.00  0.00     0.021 C 
BRANCH   2   3
ATOM      3  C   UNL A   1      31.458  27.450  26.104  1.00  0.00     0.116 C 
BRANCH   3   4
ATOM      4  N   UNL A   1      31.227  26.175  26.751  1.00  0.00    -0.354 N 
ATOM      5  C   UNL A   1      31.692  24.926  26.463  1.00  0.00     0.252 C 
ATOM      6  O   UNL A   1      31.358  24.038  27.251  1.00  0.00    -0.272 OA
ATOM      7  H   UNL A   1      30.633  26.217  27.535  1.00  0.00     0.163 HD
BRANCH   5   8
ATOM      8  C   UNL A   1      32.683  24.687  25.282  1.00  0.00     0.146 C 
ATOM      9  C   UNL A   1      34.037  25.295  25.695  1.00  0.00     0.053 C 
BRANCH   8  10
ATOM     10  C   UNL A   1      32.855  23.167  24.914  1.00  0.00     0.057 C 
ATOM     11  C   UNL A   1      32.003  22.680  23.730  1.00  0.00     0.016 C 
BRANCH  10  12
ATOM     12  C   UNL A   1      34.315  22.719  24.808  1.00  0.00    -0.039 A 
ATOM     13  C   UNL A   1      34.980  22.053  25.852  1.00  0.00     0.004 A 
ATOM     14  C   UNL A   1      35.034  22.976  23.629  1.00  0.00     0.043 A 
ATOM     15  C   UNL A   1      36.315  21.656  25.722  1.00  0.00     0.003 A 
ATOM     16  C   UNL A   1      36.364  22.578  23.510  1.00  0.00     0.123 A 
ATOM     17  C   UNL A   1      37.011  21.921  24.547  1.00  0.00     0.039 A 
ATOM     18  F   UNL A   1      37.028  22.838  22.376  1.00  0.00    -0.207 F 
ENDBRANCH  10  12
ENDBRANCH   8  10
BRANCH   8  19
ATOM     19  O   UNL A   1      32.268  25.384  24.095  1.00  0.00    -0.380 OA
ATOM     20  H   UNL A   1      32.959  26.010  23.829  1.00  0.00     0.212 HD
ENDBRANCH   8  19
ENDBRANCH   5   8
ENDBRANCH   3   4
ENDBRANCH   2   3
ENDBRANCH   1   2
BRANCH   1  21
ATOM     21  C   UNL A   1      31.714  30.609  26.130  1.00  0.00     0.002 C 
BRANCH  21  22
ATOM     22  C   UNL A   1      31.459  32.053  26.562  1.00  0.00     0.021 C 
BRANCH  22  23
ATOM     23  C   UNL A   1      32.631  32.721  27.266  1.00  0.00     0.116 C 
BRANCH  23  24
ATOM     24  N   UNL A   1      32.377  34.122  27.561  1.00  0.00    -0.352 N 
ATOM     25  C   UNL A   1      32.964  34.917  28.513  1.00  0.00     0.251 C 
ATOM     26  H   UNL A   1      31.693  34.559  27.002  1.00  0.00     0.163 HD
ATOM     27  O   UNL A   1      32.527  36.039  28.751  1.00  0.00    -0.269 OA
BRANCH  25  28
ATOM     28  C   UNL A   1      34.120  34.399  29.274  1.00  0.00     0.039 A 
ATOM     29  C   UNL A   1      33.894  33.692  30.457  1.00  0.00     0.014 A 
ATOM     30  C   UNL A   1      35.421  34.595  28.803  1.00  0.00     0.014 A 
ATOM     31  C   UNL A   1      34.974  33.131  31.142  1.00  0.00     0.010 A 
ATOM     32  C   UNL A   1      36.484  33.969  29.441  1.00  0.00     0.010 A 
ATOM     33  C   UNL A   1      36.274  33.239  30.621  1.00  0.00    -0.014 A 
BRANCH  33  34
ATOM     34  C   UNL A   1      37.441  32.627  31.301  1.00  0.00     0.031 A 
ATOM     35  C   UNL A   1      38.164  31.482  30.648  1.00  0.00     0.074 A 
ATOM     36  C   UNL A   1      37.799  33.040  32.532  1.00  0.00     0.049 A 
ATOM     37  N   UNL A   1      39.114  30.722  31.127  1.00  0.00    -0.248 NA
ATOM     38  C   UNL A   1      37.735  31.125  29.286  1.00  0.00     0.031 C 
ATOM     39  C   UNL A   1      37.159  34.122  33.278  1.00  0.00     0.029 A 
ATOM     40  N   UNL A   1      38.780  32.585  33.378  1.00  0.00    -0.354 N 
ATOM     41  C   UNL A   1      39.380  29.786  30.136  1.00  0.00     0.074 A 
ATOM     42  C   UNL A   1      38.455  30.038  29.053  1.00  0.00     0.031 C 
ATOM     43  C   UNL A   1      37.775  34.261  34.463  1.00  0.00     0.029 A 
ATOM     44  C   UNL A   1      38.822  33.249  34.580  1.00  0.00     0.049 A 
ATOM     45  H   UNL A   1      39.395  31.853  33.146  1.00  0.00     0.167 HD
ATOM     46  C   UNL A   1      40.327  28.819  30.123  1.00  0.00     0.037 A 
ATOM     47  C   UNL A   1      39.605  33.055  35.659  1.00  0.00     0.037 A 
ATOM     48  C   UNL A   1      41.263  28.596  31.191  1.00  0.00     0.049 A 
ATOM     49  C   UNL A   1      40.640  31.964  35.631  1.00  0.00     0.074 A 
ATOM     50  C   UNL A   1      42.297  27.679  31.251  1.00  0.00     0.029 A 
ATOM     51  N   UNL A   1      41.281  29.298  32.388  1.00  0.00    -0.354 N 
ATOM     52  N   UNL A   1      40.912  31.110  34.673  1.00  0.00    -0.248 NA
ATOM     53  C   UNL A   1      41.478  31.806  36.829  1.00  0.00     0.031 C 
ATOM     54  C   UNL A   1      42.906  27.789  32.503  1.00  0.00     0.029 A 
ATOM     55  C   UNL A   1      42.293  28.818  33.200  1.00  0.00     0.049 A 
ATOM     56  H   UNL A   1      40.664  30.030  32.624  1.00  0.00     0.167 HD
ATOM     57  C   UNL A   1      41.968  30.337  35.137  1.00  0.00     0.074 A 
ATOM     58  C   UNL A   1      42.289  30.823  36.463  1.00  0.00     0.031 C 
ATOM     59  C   UNL A   1      42.612  29.321  34.514  1.00  0.00     0.037 A 
BRANCH  46  60
ATOM     60  C   UNL A   1      40.401  27.929  28.916  1.00  0.00     0.064 A 
ATOM     61  C   UNL A   1      41.172  28.301  27.805  1.00  0.00     0.173 A 
ATOM     62  C   UNL A   1      39.669  26.734  28.836  1.00  0.00     0.173 A 
ATOM     63  F   UNL A   1      41.886  29.437  27.826  1.00  0.00    -0.203 F 
ATOM     64  C   UNL A   1      41.202  27.514  26.657  1.00  0.00     0.198 A 
ATOM     65  C   UNL A   1      39.730  25.932  27.699  1.00  0.00     0.198 A 
ATOM     66  F   UNL A   1      38.925  26.327  29.874  1.00  0.00    -0.203 F 
ATOM     67  F   UNL A   1      41.922  27.906  25.597  1.00  0.00    -0.200 F 
ATOM     68  C   UNL A   1      40.488  26.327  26.608  1.00  0.00     0.200 A 
ATOM     69  F   UNL A   1      39.061  24.770  27.666  1.00  0.00    -0.200 F 
ATOM     70  F   UNL A   1      40.533  25.561  25.509  1.00  0.00    -0.200 F 
ENDBRANCH  46  60
BRANCH  47  71
ATOM     71  C   UNL A   1      39.454  33.949  36.836  1.00  0.00     0.064 A 
ATOM     72  C   UNL A   1      40.127  35.177  36.914  1.00  0.00     0.173 A 
ATOM     73  C   UNL A   1      38.675  33.559  37.934  1.00  0.00     0.173 A 
ATOM     74  F   UNL A   1      40.890  35.592  35.892  1.00  0.00    -0.203 F 
ATOM     75  C   UNL A   1      40.049  35.968  38.059  1.00  0.00     0.198 A 
ATOM     76  C   UNL A   1      38.579  34.363  39.068  1.00  0.00     0.198 A 
ATOM     77  F   UNL A   1      37.998  32.403  37.898  1.00  0.00    -0.203 F 
ATOM     78  F   UNL A   1      40.738  37.115  38.126  1.00  0.00    -0.200 F 
ATOM     79  C   UNL A   1      39.274  35.561  39.134  1.00  0.00     0.200 A 
ATOM     80  F   UNL A   1      37.812  33.976  40.097  1.00  0.00    -0.200 F 
ATOM     81  F   UNL A   1      39.199  36.322  40.234  1.00  0.00    -0.200 F 
ENDBRANCH  47  71
BRANCH  59  82
ATOM     82  C   UNL A   1      43.765  28.673  35.227  1.00  0.00     0.064 A 
ATOM     83  C   UNL A   1      43.532  27.638  36.145  1.00  0.00     0.173 A 
ATOM     84  C   UNL A   1      45.074  29.154  35.095  1.00  0.00     0.173 A 
ATOM     85  F   UNL A   1      42.294  27.149  36.315  1.00  0.00    -0.203 F 
ATOM     86  C   UNL A   1      44.564  27.128  36.927  1.00  0.00     0.198 A 
ATOM     87  C   UNL A   1      46.110  28.621  35.858  1.00  0.00     0.198 A 
ATOM     88  F   UNL A   1      45.349  30.135  34.222  1.00  0.00    -0.203 F 
ATOM     89  F   UNL A   1      44.308  26.175  37.834  1.00  0.00    -0.200 F 
ATOM     90  C   UNL A   1      45.852  27.620  36.783  1.00  0.00     0.200 A 
ATOM     91  F   UNL A   1      47.359  29.083  35.704  1.00  0.00    -0.200 F 
ATOM     92  F   UNL A   1      46.845  27.131  37.539  1.00  0.00    -0.200 F 
ENDBRANCH  59  82
ENDBRANCH  33  34
ENDBRANCH  25  28
ENDBRANCH  23  24
ENDBRANCH  22  23
ENDBRANCH  21  22
ENDBRANCH   1  21
TORSDOF 16
ENDMDL
MODEL 3
REMARK VINA RESULT:     -11.5      6.239     11.598
REMARK SMILES C[C@@H](c1cccc(F)c1)[C@@](C)(O)C(=O)NCCCCCCNC(=O)c1ccc(-c2c3nc(c(-c4c(F)c(F)c(F)c(F)c4F)c4ccc([nH]4)c(-c4c(F)c(F)c(F)c(F)c4F)c4nc(c(-c5c(F)c(F)c(F)c(F)c5F)c5ccc2[nH]5)C=C4)C=C3)cc1
REMARK SMILES IDX 18 1 17 2 16 3 15 4 13 5 14 6 10 8 11 9 2 10 1 11 3 12 4 13
REMARK SMILES IDX 9 14 5 15 7 16 6 17 8 18 12 19 19 21 20 22 21 23 22 24 23 25
REMARK SMILES IDX 24 27 25 28 26 29 87 30 27 31 86 32 28 33 29 34 30 35 80 36
REMARK SMILES IDX 31 37 85 38 79 39 81 40 32 41 84 42 78 43 77 44 33 46 65 47
REMARK SMILES IDX 45 48 64 49 46 50 49 51 63 52 82 53 47 54 48 55 62 57 83 58
REMARK SMILES IDX 50 59 34 60 35 61 43 62 36 63 37 64 41 65 44 66 38 67 39 68
REMARK SMILES IDX 42 69 40 70 66 71 67 72 75 73 68 74 69 75 73 76 76 77 70 78
REMARK SMILES IDX 71 79 74 80 72 81 51 82 52 83 60 84 53 85 54 86 58 87 61 88
REMARK SMILES IDX 55 89 56 90 59 91 57 92
REMARK H PARENT 15 7 12 20 22 26 81 45 49 56
REMARK Flexibility Score: inf
ROOT
ATOM      1  C   UNL A   1      36.904  22.326  24.746  1.00  0.00     0.002 C 
ENDROOT
BRANCH   1   2
ATOM      2  C   UNL A   1      35.917  22.948  23.750  1.00  0.00     0.021 C 
BRANCH   2   3
ATOM      3  C   UNL A   1      35.024  24.042  24.328  1.00  0.00     0.116 C 
BRANCH   3   4
ATOM      4  N   UNL A   1      33.701  24.024  23.741  1.00  0.00    -0.354 N 
ATOM      5  C   UNL A   1      32.511  23.568  24.226  1.00  0.00     0.252 C 
ATOM      6  O   UNL A   1      31.533  23.753  23.497  1.00  0.00    -0.272 OA
ATOM      7  H   UNL A   1      33.651  24.408  22.835  1.00  0.00     0.163 HD
BRANCH   5   8
ATOM      8  C   UNL A   1      32.401  22.974  25.665  1.00  0.00     0.146 C 
ATOM      9  C   UNL A   1      30.954  22.476  25.841  1.00  0.00     0.053 C 
BRANCH   8  10
ATOM     10  C   UNL A   1      33.418  21.804  25.932  1.00  0.00     0.057 C 
ATOM     11  C   UNL A   1      33.800  21.594  27.407  1.00  0.00     0.016 C 
BRANCH  10  12
ATOM     12  C   UNL A   1      33.051  20.494  25.229  1.00  0.00    -0.039 A 
ATOM     13  C   UNL A   1      32.793  20.422  23.850  1.00  0.00     0.004 A 
ATOM     14  C   UNL A   1      32.964  19.309  25.978  1.00  0.00     0.043 A 
ATOM     15  C   UNL A   1      32.461  19.207  23.240  1.00  0.00     0.003 A 
ATOM     16  C   UNL A   1      32.630  18.105  25.362  1.00  0.00     0.123 A 
ATOM     17  C   UNL A   1      32.378  18.044  23.998  1.00  0.00     0.039 A 
ATOM     18  F   UNL A   1      32.551  16.990  26.098  1.00  0.00    -0.207 F 
ENDBRANCH  10  12
ENDBRANCH   8  10
BRANCH   8  19
ATOM     19  O   UNL A   1      32.612  23.980  26.669  1.00  0.00    -0.380 OA
ATOM     20  H   UNL A   1      32.490  24.859  26.277  1.00  0.00     0.212 HD
ENDBRANCH   8  19
ENDBRANCH   5   8
ENDBRANCH   3   4
ENDBRANCH   2   3
ENDBRANCH   1   2
BRANCH   1  21
ATOM     21  C   UNL A   1      36.726  20.827  25.005  1.00  0.00     0.002 C 
BRANCH  21  22
ATOM     22  C   UNL A   1      37.984  19.979  24.822  1.00  0.00     0.021 C 
BRANCH  22  23
ATOM     23  C   UNL A   1      39.133  20.336  25.754  1.00  0.00     0.116 C 
BRANCH  23  24
ATOM     24  N   UNL A   1      40.105  19.262  25.875  1.00  0.00    -0.352 N 
ATOM     25  C   UNL A   1      41.458  19.352  26.088  1.00  0.00     0.251 C 
ATOM     26  H   UNL A   1      39.745  18.349  25.794  1.00  0.00     0.163 HD
ATOM     27  O   UNL A   1      42.174  18.358  26.004  1.00  0.00    -0.269 OA
BRANCH  25  28
ATOM     28  C   UNL A   1      42.055  20.667  26.398  1.00  0.00     0.039 A 
ATOM     29  C   UNL A   1      42.389  21.527  25.349  1.00  0.00     0.014 A 
ATOM     30  C   UNL A   1      42.261  21.055  27.725  1.00  0.00     0.014 A 
ATOM     31  C   UNL A   1      42.881  22.803  25.633  1.00  0.00     0.010 A 
ATOM     32  C   UNL A   1      42.673  22.351  28.006  1.00  0.00     0.010 A 
ATOM     33  C   UNL A   1      42.996  23.236  26.964  1.00  0.00    -0.014 A 
BRANCH  33  34
ATOM     34  C   UNL A   1      43.481  24.596  27.304  1.00  0.00     0.031 A 
ATOM     35  C   UNL A   1      42.520  25.606  27.865  1.00  0.00     0.074 A 
ATOM     36  C   UNL A   1      44.752  24.947  27.034  1.00  0.00     0.049 A 
ATOM     37  N   UNL A   1      42.702  26.880  28.101  1.00  0.00    -0.248 NA
ATOM     38  C   UNL A   1      41.162  25.126  28.170  1.00  0.00     0.031 C 
ATOM     39  C   UNL A   1      45.769  24.063  26.467  1.00  0.00     0.029 A 
ATOM     40  N   UNL A   1      45.401  26.147  27.188  1.00  0.00    -0.354 N 
ATOM     41  C   UNL A   1      41.480  27.354  28.559  1.00  0.00     0.074 A 
ATOM     42  C   UNL A   1      40.550  26.248  28.516  1.00  0.00     0.031 C 
ATOM     43  C   UNL A   1      46.919  24.744  26.337  1.00  0.00     0.029 A 
ATOM     44  C   UNL A   1      46.708  26.124  26.768  1.00  0.00     0.049 A 
ATOM     45  H   UNL A   1      44.969  26.948  27.564  1.00  0.00     0.167 HD
ATOM     46  C   UNL A   1      41.170  28.597  28.998  1.00  0.00     0.037 A 
ATOM     47  C   UNL A   1      47.628  27.107  26.722  1.00  0.00     0.037 A 
ATOM     48  C   UNL A   1      42.110  29.683  29.068  1.00  0.00     0.049 A 
ATOM     49  C   UNL A   1      47.259  28.485  27.199  1.00  0.00     0.074 A 
ATOM     50  C   UNL A   1      41.909  30.964  29.550  1.00  0.00     0.029 A 
ATOM     51  N   UNL A   1      43.429  29.616  28.644  1.00  0.00    -0.354 N 
ATOM     52  N   UNL A   1      46.112  28.915  27.668  1.00  0.00    -0.248 NA
ATOM     53  C   UNL A   1      48.306  29.516  27.142  1.00  0.00     0.031 C 
ATOM     54  C   UNL A   1      43.089  31.688  29.369  1.00  0.00     0.029 A 
ATOM     55  C   UNL A   1      44.046  30.840  28.832  1.00  0.00     0.049 A 
ATOM     56  H   UNL A   1      43.862  28.816  28.265  1.00  0.00     0.167 HD
ATOM     57  C   UNL A   1      46.306  30.251  27.991  1.00  0.00     0.074 A 
ATOM     58  C   UNL A   1      47.682  30.563  27.664  1.00  0.00     0.031 C 
ATOM     59  C   UNL A   1      45.423  31.134  28.515  1.00  0.00     0.037 A 
BRANCH  46  60
ATOM     60  C   UNL A   1      39.758  28.849  29.441  1.00  0.00     0.064 A 
ATOM     61  C   UNL A   1      39.360  28.552  30.753  1.00  0.00     0.173 A 
ATOM     62  C   UNL A   1      38.785  29.337  28.555  1.00  0.00     0.173 A 
ATOM     63  F   UNL A   1      40.248  28.078  31.639  1.00  0.00    -0.203 F 
ATOM     64  C   UNL A   1      38.039  28.727  31.158  1.00  0.00     0.198 A 
ATOM     65  C   UNL A   1      37.473  29.543  28.975  1.00  0.00     0.198 A 
ATOM     66  F   UNL A   1      39.114  29.647  27.293  1.00  0.00    -0.203 F 
ATOM     67  F   UNL A   1      37.677  28.407  32.408  1.00  0.00    -0.200 F 
ATOM     68  C   UNL A   1      37.099  29.229  30.272  1.00  0.00     0.200 A 
ATOM     69  F   UNL A   1      36.572  30.056  28.123  1.00  0.00    -0.200 F 
ATOM     70  F   UNL A   1      35.833  29.415  30.670  1.00  0.00    -0.200 F 
ENDBRANCH  46  60
BRANCH  47  71
ATOM     71  C   UNL A   1      48.998  26.797  26.237  1.00  0.00     0.064 A 
ATOM     72  C   UNL A   1      49.372  27.024  24.905  1.00  0.00     0.173 A 
ATOM     73  C   UNL A   1      49.943  26.210  27.090  1.00  0.00     0.173 A 
ATOM     74  F   UNL A   1      48.503  27.577  24.047  1.00  0.00    -0.203 F 
ATOM     75  C   UNL A   1      50.630  26.648  24.437  1.00  0.00     0.198 A 
ATOM     76  C   UNL A   1      51.209  25.858  26.627  1.00  0.00     0.198 A 
ATOM     77  F   UNL A   1      49.638  25.992  28.377  1.00  0.00    -0.203 F 
ATOM     78  F   UNL A   1      50.947  26.834  23.149  1.00  0.00    -0.200 F 
ATOM     79  C   UNL A   1      51.548  26.067  25.299  1.00  0.00     0.200 A 
ATOM     80  F   UNL A   1      52.100  25.316  27.469  1.00  0.00    -0.200 F 
ATOM     81  F   UNL A   1      52.757  25.707  24.850  1.00  0.00    -0.200 F 
ENDBRANCH  47  71
BRANCH  59  82
ATOM     82  C   UNL A   1      45.906  32.524  28.815  1.00  0.00     0.064 A 
ATOM     83  C   UNL A   1      46.425  32.831  30.082  1.00  0.00     0.173 A 
ATOM     84  C   UNL A   1      45.742  33.571  27.899  1.00  0.00     0.173 A 
ATOM     85  F   UNL A   1      46.592  31.865  30.998  1.00  0.00    -0.203 F 
ATOM     86  C   UNL A   1      46.735  34.142  30.431  1.00  0.00     0.198 A 
ATOM     87  C   UNL A   1      46.082  34.878  28.241  1.00  0.00     0.198 A 
ATOM     88  F   UNL A   1      45.260  33.326  26.671  1.00  0.00    -0.203 F 
ATOM     89  F   UNL A   1      47.182  34.419  31.663  1.00  0.00    -0.200 F 
ATOM     90  C   UNL A   1      46.563  35.164  29.510  1.00  0.00     0.200 A 
ATOM     91  F   UNL A   1      45.934  35.863  27.344  1.00  0.00    -0.200 F 
ATOM     92  F   UNL A   1      46.859  36.427  29.847  1.00  0.00    -0.200 F 
ENDBRANCH  59  82
ENDBRANCH  33  34
ENDBRANCH  25  28
ENDBRANCH  23  24
ENDBRANCH  22  23
ENDBRANCH  21  22
ENDBRANCH   1  21
TORSDOF 16
ENDMDL
