MODEL 1
REMARK VINA RESULT:     -12.2      0.000      0.000
REMARK SMILES Cc1nc(C(=O)NCCCCCCNC(=O)c2ccc(-c3c4nc(c(-c5c(F)c(F)c(F)c(F)c5F)c5ccc([nH]5)c(-c5c(F)c(F)c(F)c(F)c5F)c5nc(c(-c6c(F)c(F)c(F)c(F)c6F)c6ccc3[nH]6)C=C5)C=C4)cc2)nn1-c1cccc(C(F)(F)F)c1
REMARK SMILES IDX 10 1 9 2 8 3 7 4 5 5 6 6 4 8 1 9 2 10 3 11 81 12 80 13 82 14
REMARK SMILES IDX 83 15 91 16 84 17 86 18 85 19 87 20 88 21 89 22 90 23 11 24
REMARK SMILES IDX 12 25 13 26 14 27 15 28 16 30 17 31 18 32 79 33 19 34 78 35
REMARK SMILES IDX 20 36 21 37 22 38 72 39 23 40 77 41 71 42 73 43 24 44 76 45
REMARK SMILES IDX 70 46 69 47 25 49 57 50 37 51 56 52 38 53 41 54 55 55 74 56
REMARK SMILES IDX 39 57 40 58 54 60 75 61 42 62 26 63 27 64 35 65 28 66 29 67
REMARK SMILES IDX 33 68 36 69 30 70 31 71 34 72 32 73 58 74 59 75 67 76 60 77
REMARK SMILES IDX 61 78 65 79 68 80 62 81 63 82 66 83 64 84 43 85 44 86 52 87
REMARK SMILES IDX 45 88 46 89 50 90 53 91 47 92 48 93 51 94 49 95
REMARK H PARENT 7 7 14 29 73 48 41 59
REMARK Flexibility Score: inf
ROOT
ATOM      1  C   UNL A   1      39.442  21.906  25.934  1.00  0.00     0.002 C 
ENDROOT
BRANCH   1   2
ATOM      2  C   UNL A   1      38.825  23.174  26.528  1.00  0.00     0.021 C 
BRANCH   2   3
ATOM      3  C   UNL A   1      37.529  23.651  25.874  1.00  0.00     0.116 C 
BRANCH   3   4
ATOM      4  N   UNL A   1      37.442  23.290  24.469  1.00  0.00    -0.349 N 
ATOM      5  C   UNL A   1      36.336  23.227  23.637  1.00  0.00     0.290 C 
ATOM      6  O   UNL A   1      36.521  22.811  22.491  1.00  0.00    -0.266 OA
ATOM      7  H   UNL A   1      38.299  23.054  24.045  1.00  0.00     0.163 HD
BRANCH   5   8
ATOM      8  C   UNL A   1      34.995  23.612  24.136  1.00  0.00     0.239 A 
ATOM      9  C   UNL A   1      32.122  23.260  26.230  1.00  0.00     0.090 C 
ATOM     10  C   UNL A   1      33.272  23.670  25.390  1.00  0.00     0.130 A 
ATOM     11  N   UNL A   1      34.362  22.959  25.178  1.00  0.00    -0.207 NA
ATOM     12  N   UNL A   1      33.302  24.780  24.569  1.00  0.00    -0.217 N 
ATOM     13  N   UNL A   1      34.250  24.606  23.621  1.00  0.00    -0.140 NA
BRANCH  12  14
ATOM     14  C   UNL A   1      32.643  26.029  24.664  1.00  0.00     0.067 A 
ATOM     15  C   UNL A   1      32.186  26.645  23.491  1.00  0.00     0.028 A 
ATOM     16  C   UNL A   1      32.566  26.709  25.888  1.00  0.00     0.041 A 
ATOM     17  C   UNL A   1      31.607  27.911  23.548  1.00  0.00     0.003 A 
ATOM     18  C   UNL A   1      32.030  28.008  25.940  1.00  0.00     0.058 A 
ATOM     19  C   UNL A   1      31.530  28.589  24.763  1.00  0.00     0.013 A 
BRANCH  18  20
ATOM     20  C   UNL A   1      32.022  28.803  27.225  1.00  0.00     0.416 C 
ATOM     21  F   UNL A   1      31.181  28.273  28.156  1.00  0.00    -0.166 F 
ATOM     22  F   UNL A   1      33.247  28.858  27.812  1.00  0.00    -0.166 F 
ATOM     23  F   UNL A   1      31.625  30.095  27.060  1.00  0.00    -0.166 F 
ENDBRANCH  18  20
ENDBRANCH  12  14
ENDBRANCH   5   8
ENDBRANCH   3   4
ENDBRANCH   2   3
ENDBRANCH   1   2
BRANCH   1  24
ATOM     24  C   UNL A   1      40.493  21.184  26.791  1.00  0.00     0.002 C 
BRANCH  24  25
ATOM     25  C   UNL A   1      41.172  19.949  26.181  1.00  0.00     0.021 C 
BRANCH  25  26
ATOM     26  C   UNL A   1      42.537  19.621  26.765  1.00  0.00     0.116 C 
BRANCH  26  27
ATOM     27  N   UNL A   1      43.587  19.505  25.754  1.00  0.00    -0.352 N 
ATOM     28  C   UNL A   1      44.159  20.511  24.992  1.00  0.00     0.251 C 
ATOM     29  H   UNL A   1      43.932  18.596  25.594  1.00  0.00     0.163 HD
ATOM     30  O   UNL A   1      44.745  20.264  23.952  1.00  0.00    -0.269 OA
BRANCH  28  31
ATOM     31  C   UNL A   1      44.043  21.902  25.467  1.00  0.00     0.039 A 
ATOM     32  C   UNL A   1      43.155  22.808  24.882  1.00  0.00     0.014 A 
ATOM     33  C   UNL A   1      44.833  22.281  26.547  1.00  0.00     0.014 A 
ATOM     34  C   UNL A   1      43.011  24.071  25.454  1.00  0.00     0.010 A 
ATOM     35  C   UNL A   1      44.555  23.442  27.216  1.00  0.00     0.010 A 
ATOM     36  C   UNL A   1      43.702  24.373  26.637  1.00  0.00    -0.014 A 
BRANCH  36  37
ATOM     37  C   UNL A   1      43.513  25.645  27.321  1.00  0.00     0.031 A 
ATOM     38  C   UNL A   1      44.458  26.730  26.944  1.00  0.00     0.074 A 
ATOM     39  C   UNL A   1      42.430  25.901  28.086  1.00  0.00     0.049 A 
ATOM     40  N   UNL A   1      45.330  27.308  27.701  1.00  0.00    -0.248 NA
ATOM     41  C   UNL A   1      44.511  27.164  25.540  1.00  0.00     0.031 C 
ATOM     42  C   UNL A   1      41.239  25.073  28.313  1.00  0.00     0.029 A 
ATOM     43  N   UNL A   1      42.121  27.046  28.749  1.00  0.00    -0.354 N 
ATOM     44  C   UNL A   1      45.942  28.288  26.925  1.00  0.00     0.074 A 
ATOM     45  C   UNL A   1      45.500  28.061  25.572  1.00  0.00     0.031 C 
ATOM     46  C   UNL A   1      40.254  25.832  28.840  1.00  0.00     0.029 A 
ATOM     47  C   UNL A   1      40.797  27.140  29.151  1.00  0.00     0.049 A 
ATOM     48  H   UNL A   1      42.783  27.751  28.929  1.00  0.00     0.167 HD
ATOM     49  C   UNL A   1      46.611  29.327  27.502  1.00  0.00     0.037 A 
ATOM     50  C   UNL A   1      40.190  28.234  29.669  1.00  0.00     0.037 A 
ATOM     51  C   UNL A   1      46.880  29.060  28.893  1.00  0.00     0.049 A 
ATOM     52  C   UNL A   1      41.261  29.125  30.186  1.00  0.00     0.074 A 
ATOM     53  C   UNL A   1      47.574  28.074  29.568  1.00  0.00     0.029 A 
ATOM     54  N   UNL A   1      46.075  29.653  29.836  1.00  0.00    -0.354 N 
ATOM     55  N   UNL A   1      42.009  28.834  31.216  1.00  0.00    -0.248 NA
ATOM     56  C   UNL A   1      41.820  30.110  29.270  1.00  0.00     0.031 C 
ATOM     57  C   UNL A   1      46.774  27.785  30.712  1.00  0.00     0.029 A 
ATOM     58  C   UNL A   1      45.690  28.664  30.705  1.00  0.00     0.049 A 
ATOM     59  H   UNL A   1      45.822  30.604  29.879  1.00  0.00     0.167 HD
ATOM     60  C   UNL A   1      43.283  29.244  30.854  1.00  0.00     0.074 A 
ATOM     61  C   UNL A   1      43.090  30.101  29.684  1.00  0.00     0.031 C 
ATOM     62  C   UNL A   1      44.396  28.623  31.344  1.00  0.00     0.037 A 
BRANCH  49  63
ATOM     63  C   UNL A   1      46.734  30.717  26.927  1.00  0.00     0.064 A 
ATOM     64  C   UNL A   1      47.992  31.356  26.945  1.00  0.00     0.173 A 
ATOM     65  C   UNL A   1      45.632  31.553  26.651  1.00  0.00     0.173 A 
ATOM     66  F   UNL A   1      49.111  30.661  27.202  1.00  0.00    -0.203 F 
ATOM     67  C   UNL A   1      48.122  32.740  26.798  1.00  0.00     0.198 A 
ATOM     68  C   UNL A   1      45.773  32.925  26.449  1.00  0.00     0.198 A 
ATOM     69  F   UNL A   1      44.373  31.102  26.677  1.00  0.00    -0.203 F 
ATOM     70  F   UNL A   1      49.320  33.317  26.959  1.00  0.00    -0.200 F 
ATOM     71  C   UNL A   1      47.010  33.525  26.559  1.00  0.00     0.200 A 
ATOM     72  F   UNL A   1      44.681  33.672  26.232  1.00  0.00    -0.200 F 
ATOM     73  F   UNL A   1      47.119  34.857  26.486  1.00  0.00    -0.200 F 
ENDBRANCH  49  63
BRANCH  50  74
ATOM     74  C   UNL A   1      38.786  28.673  29.486  1.00  0.00     0.064 A 
ATOM     75  C   UNL A   1      37.951  28.908  30.589  1.00  0.00     0.173 A 
ATOM     76  C   UNL A   1      38.315  29.125  28.237  1.00  0.00     0.173 A 
ATOM     77  F   UNL A   1      38.342  28.548  31.820  1.00  0.00    -0.203 F 
ATOM     78  C   UNL A   1      36.731  29.580  30.454  1.00  0.00     0.198 A 
ATOM     79  C   UNL A   1      37.094  29.787  28.102  1.00  0.00     0.198 A 
ATOM     80  F   UNL A   1      39.071  29.018  27.134  1.00  0.00    -0.203 F 
ATOM     81  F   UNL A   1      35.991  29.844  31.540  1.00  0.00    -0.200 F 
ATOM     82  C   UNL A   1      36.309  30.028  29.213  1.00  0.00     0.200 A 
ATOM     83  F   UNL A   1      36.716  30.246  26.901  1.00  0.00    -0.200 F 
ATOM     84  F   UNL A   1      35.171  30.725  29.094  1.00  0.00    -0.200 F 
ENDBRANCH  50  74
BRANCH  62  85
ATOM     85  C   UNL A   1      44.230  27.636  32.466  1.00  0.00     0.064 A 
ATOM     86  C   UNL A   1      44.084  26.249  32.284  1.00  0.00     0.173 A 
ATOM     87  C   UNL A   1      44.391  28.093  33.781  1.00  0.00     0.173 A 
ATOM     88  F   UNL A   1      44.032  25.714  31.059  1.00  0.00    -0.203 F 
ATOM     89  C   UNL A   1      44.055  25.373  33.367  1.00  0.00     0.198 A 
ATOM     90  C   UNL A   1      44.402  27.212  34.860  1.00  0.00     0.198 A 
ATOM     91  F   UNL A   1      44.595  29.400  34.018  1.00  0.00    -0.203 F 
ATOM     92  F   UNL A   1      43.904  24.055  33.163  1.00  0.00    -0.200 F 
ATOM     93  C   UNL A   1      44.223  25.855  34.653  1.00  0.00     0.200 A 
ATOM     94  F   UNL A   1      44.617  27.679  36.097  1.00  0.00    -0.200 F 
ATOM     95  F   UNL A   1      44.239  25.008  35.692  1.00  0.00    -0.200 F 
ENDBRANCH  62  85
ENDBRANCH  36  37
ENDBRANCH  28  31
ENDBRANCH  26  27
ENDBRANCH  25  26
ENDBRANCH  24  25
ENDBRANCH   1  24
TORSDOF 15
ENDMDL
MODEL 2
REMARK VINA RESULT:     -12.1      3.424      8.645
REMARK SMILES Cc1nc(C(=O)NCCCCCCNC(=O)c2ccc(-c3c4nc(c(-c5c(F)c(F)c(F)c(F)c5F)c5ccc([nH]5)c(-c5c(F)c(F)c(F)c(F)c5F)c5nc(c(-c6c(F)c(F)c(F)c(F)c6F)c6ccc3[nH]6)C=C5)C=C4)cc2)nn1-c1cccc(C(F)(F)F)c1
REMARK SMILES IDX 10 1 9 2 8 3 7 4 5 5 6 6 4 8 1 9 2 10 3 11 81 12 80 13 82 14
REMARK SMILES IDX 83 15 91 16 84 17 86 18 85 19 87 20 88 21 89 22 90 23 11 24
REMARK SMILES IDX 12 25 13 26 14 27 15 28 16 30 17 31 18 32 79 33 19 34 78 35
REMARK SMILES IDX 20 36 21 37 22 38 72 39 23 40 77 41 71 42 73 43 24 44 76 45
REMARK SMILES IDX 70 46 69 47 25 49 57 50 37 51 56 52 38 53 41 54 55 55 74 56
REMARK SMILES IDX 39 57 40 58 54 60 75 61 42 62 26 63 27 64 35 65 28 66 29 67
REMARK SMILES IDX 33 68 36 69 30 70 31 71 34 72 32 73 58 74 59 75 67 76 60 77
REMARK SMILES IDX 61 78 65 79 68 80 62 81 63 82 66 83 64 84 43 85 44 86 52 87
REMARK SMILES IDX 45 88 46 89 50 90 53 91 47 92 48 93 51 94 49 95
REMARK H PARENT 7 7 14 29 73 48 41 59
REMARK Flexibility Score: inf
ROOT
ATOM      1  C   UNL A   1      32.876  26.482  25.343  1.00  0.00     0.002 C 
ENDROOT
BRANCH   1   2
ATOM      2  C   UNL A   1      31.382  26.542  25.666  1.00  0.00     0.021 C 
BRANCH   2   3
ATOM      3  C   UNL A   1      30.550  25.353  25.189  1.00  0.00     0.116 C 
BRANCH   3   4
ATOM      4  N   UNL A   1      29.944  24.616  26.283  1.00  0.00    -0.349 N 
ATOM      5  C   UNL A   1      30.300  23.396  26.835  1.00  0.00     0.290 C 
ATOM      6  O   UNL A   1      29.565  22.944  27.716  1.00  0.00    -0.266 OA
ATOM      7  H   UNL A   1      29.160  25.049  26.695  1.00  0.00     0.163 HD
BRANCH   5   8
ATOM      8  C   UNL A   1      31.493  22.668  26.345  1.00  0.00     0.239 A 
ATOM      9  C   UNL A   1      33.176  19.903  24.832  1.00  0.00     0.090 C 
ATOM     10  C   UNL A   1      32.661  21.200  25.332  1.00  0.00     0.130 A 
ATOM     11  N   UNL A   1      31.422  21.440  25.713  1.00  0.00    -0.207 NA
ATOM     12  N   UNL A   1      33.437  22.301  25.634  1.00  0.00    -0.217 N 
ATOM     13  N   UNL A   1      32.759  23.104  26.483  1.00  0.00    -0.140 NA
BRANCH  12  14
ATOM     14  C   UNL A   1      34.673  22.744  25.104  1.00  0.00     0.067 A 
ATOM     15  C   UNL A   1      34.869  22.704  23.717  1.00  0.00     0.028 A 
ATOM     16  C   UNL A   1      35.736  23.086  25.952  1.00  0.00     0.041 A 
ATOM     17  C   UNL A   1      36.104  23.056  23.176  1.00  0.00     0.003 A 
ATOM     18  C   UNL A   1      36.999  23.392  25.412  1.00  0.00     0.058 A 
ATOM     19  C   UNL A   1      37.162  23.397  24.017  1.00  0.00     0.013 A 
BRANCH  18  20
ATOM     20  C   UNL A   1      38.187  23.669  26.303  1.00  0.00     0.416 C 
ATOM     21  F   UNL A   1      37.816  24.077  27.548  1.00  0.00    -0.166 F 
ATOM     22  F   UNL A   1      38.972  22.573  26.483  1.00  0.00    -0.166 F 
ATOM     23  F   UNL A   1      39.007  24.645  25.822  1.00  0.00    -0.166 F 
ENDBRANCH  18  20
ENDBRANCH  12  14
ENDBRANCH   5   8
ENDBRANCH   3   4
ENDBRANCH   2   3
ENDBRANCH   1   2
BRANCH   1  24
ATOM     24  C   UNL A   1      33.606  27.827  25.203  1.00  0.00     0.002 C 
BRANCH  24  25
ATOM     25  C   UNL A   1      33.079  29.005  26.036  1.00  0.00     0.021 C 
BRANCH  25  26
ATOM     26  C   UNL A   1      33.938  29.369  27.237  1.00  0.00     0.116 C 
BRANCH  26  27
ATOM     27  N   UNL A   1      33.865  30.785  27.594  1.00  0.00    -0.352 N 
ATOM     28  C   UNL A   1      34.774  31.533  28.324  1.00  0.00     0.251 C 
ATOM     29  H   UNL A   1      33.068  31.268  27.275  1.00  0.00     0.163 HD
ATOM     30  O   UNL A   1      34.450  32.578  28.861  1.00  0.00    -0.269 OA
BRANCH  28  31
ATOM     31  C   UNL A   1      36.158  31.035  28.441  1.00  0.00     0.039 A 
ATOM     32  C   UNL A   1      37.150  31.769  29.095  1.00  0.00     0.014 A 
ATOM     33  C   UNL A   1      36.440  29.787  27.900  1.00  0.00     0.014 A 
ATOM     34  C   UNL A   1      38.406  31.190  29.272  1.00  0.00     0.010 A 
ATOM     35  C   UNL A   1      37.603  29.149  28.237  1.00  0.00     0.010 A 
ATOM     36  C   UNL A   1      38.617  29.867  28.857  1.00  0.00    -0.014 A 
BRANCH  36  37
ATOM     37  C   UNL A   1      39.883  29.189  29.103  1.00  0.00     0.031 A 
ATOM     38  C   UNL A   1      40.202  28.911  30.529  1.00  0.00     0.074 A 
ATOM     39  C   UNL A   1      40.623  28.655  28.107  1.00  0.00     0.049 A 
ATOM     40  N   UNL A   1      41.183  29.388  31.220  1.00  0.00    -0.248 NA
ATOM     41  C   UNL A   1      39.274  28.079  31.311  1.00  0.00     0.031 C 
ATOM     42  C   UNL A   1      40.312  28.549  26.677  1.00  0.00     0.029 A 
ATOM     43  N   UNL A   1      41.796  27.978  28.203  1.00  0.00    -0.354 N 
ATOM     44  C   UNL A   1      41.100  28.804  32.481  1.00  0.00     0.074 A 
ATOM     45  C   UNL A   1      39.832  28.120  32.524  1.00  0.00     0.031 C 
ATOM     46  C   UNL A   1      41.135  27.646  26.101  1.00  0.00     0.029 A 
ATOM     47  C   UNL A   1      42.136  27.251  27.072  1.00  0.00     0.049 A 
ATOM     48  H   UNL A   1      42.360  28.002  29.010  1.00  0.00     0.167 HD
ATOM     49  C   UNL A   1      42.179  28.775  33.316  1.00  0.00     0.037 A 
ATOM     50  C   UNL A   1      43.150  26.359  26.964  1.00  0.00     0.037 A 
ATOM     51  C   UNL A   1      43.199  29.693  32.874  1.00  0.00     0.049 A 
ATOM     52  C   UNL A   1      44.112  26.656  28.059  1.00  0.00     0.074 A 
ATOM     53  C   UNL A   1      43.241  31.059  32.663  1.00  0.00     0.029 A 
ATOM     54  N   UNL A   1      44.283  29.184  32.199  1.00  0.00    -0.354 N 
ATOM     55  N   UNL A   1      44.835  27.742  28.110  1.00  0.00    -0.248 NA
ATOM     56  C   UNL A   1      43.913  25.979  29.333  1.00  0.00     0.031 C 
ATOM     57  C   UNL A   1      44.006  31.218  31.470  1.00  0.00     0.029 A 
ATOM     58  C   UNL A   1      44.447  29.954  31.077  1.00  0.00     0.049 A 
ATOM     59  H   UNL A   1      44.836  28.415  32.471  1.00  0.00     0.167 HD
ATOM     60  C   UNL A   1      44.805  28.121  29.444  1.00  0.00     0.074 A 
ATOM     61  C   UNL A   1      44.298  26.953  30.163  1.00  0.00     0.031 C 
ATOM     62  C   UNL A   1      44.910  29.432  29.813  1.00  0.00     0.037 A 
BRANCH  49  63
ATOM     63  C   UNL A   1      42.473  27.698  34.331  1.00  0.00     0.064 A 
ATOM     64  C   UNL A   1      43.090  26.503  33.903  1.00  0.00     0.173 A 
ATOM     65  C   UNL A   1      41.905  27.659  35.621  1.00  0.00     0.173 A 
ATOM     66  F   UNL A   1      43.660  26.422  32.691  1.00  0.00    -0.203 F 
ATOM     67  C   UNL A   1      43.051  25.335  34.668  1.00  0.00     0.198 A 
ATOM     68  C   UNL A   1      41.916  26.506  36.404  1.00  0.00     0.198 A 
ATOM     69  F   UNL A   1      41.220  28.691  36.128  1.00  0.00    -0.203 F 
ATOM     70  F   UNL A   1      43.529  24.191  34.160  1.00  0.00    -0.200 F 
ATOM     71  C   UNL A   1      42.455  25.335  35.915  1.00  0.00     0.200 A 
ATOM     72  F   UNL A   1      41.322  26.522  37.606  1.00  0.00    -0.200 F 
ATOM     73  F   UNL A   1      42.354  24.202  36.621  1.00  0.00    -0.200 F 
ENDBRANCH  49  63
BRANCH  50  74
ATOM     74  C   UNL A   1      43.190  25.114  26.163  1.00  0.00     0.064 A 
ATOM     75  C   UNL A   1      44.221  24.878  25.241  1.00  0.00     0.173 A 
ATOM     76  C   UNL A   1      42.368  24.012  26.476  1.00  0.00     0.173 A 
ATOM     77  F   UNL A   1      45.075  25.860  24.919  1.00  0.00    -0.203 F 
ATOM     78  C   UNL A   1      44.432  23.611  24.686  1.00  0.00     0.198 A 
ATOM     79  C   UNL A   1      42.574  22.752  25.916  1.00  0.00     0.198 A 
ATOM     80  F   UNL A   1      41.404  24.112  27.404  1.00  0.00    -0.203 F 
ATOM     81  F   UNL A   1      45.467  23.409  23.857  1.00  0.00    -0.200 F 
ATOM     82  C   UNL A   1      43.616  22.547  25.032  1.00  0.00     0.200 A 
ATOM     83  F   UNL A   1      41.798  21.724  26.287  1.00  0.00    -0.200 F 
ATOM     84  F   UNL A   1      43.857  21.321  24.548  1.00  0.00    -0.200 F 
ENDBRANCH  50  74
BRANCH  62  85
ATOM     85  C   UNL A   1      45.293  30.442  28.766  1.00  0.00     0.064 A 
ATOM     86  C   UNL A   1      44.375  31.092  27.922  1.00  0.00     0.173 A 
ATOM     87  C   UNL A   1      46.621  30.890  28.732  1.00  0.00     0.173 A 
ATOM     88  F   UNL A   1      43.070  30.804  27.967  1.00  0.00    -0.203 F 
ATOM     89  C   UNL A   1      44.778  32.107  27.055  1.00  0.00     0.198 A 
ATOM     90  C   UNL A   1      47.013  31.931  27.893  1.00  0.00     0.198 A 
ATOM     91  F   UNL A   1      47.533  30.351  29.556  1.00  0.00    -0.203 F 
ATOM     92  F   UNL A   1      43.881  32.701  26.254  1.00  0.00    -0.200 F 
ATOM     93  C   UNL A   1      46.095  32.530  27.048  1.00  0.00     0.200 A 
ATOM     94  F   UNL A   1      48.278  32.372  27.929  1.00  0.00    -0.200 F 
ATOM     95  F   UNL A   1      46.475  33.535  26.247  1.00  0.00    -0.200 F 
ENDBRANCH  62  85
ENDBRANCH  36  37
ENDBRANCH  28  31
ENDBRANCH  26  27
ENDBRANCH  25  26
ENDBRANCH  24  25
ENDBRANCH   1  24
TORSDOF 15
ENDMDL
MODEL 3
REMARK VINA RESULT:     -12.0      2.578      3.862
REMARK SMILES Cc1nc(C(=O)NCCCCCCNC(=O)c2ccc(-c3c4nc(c(-c5c(F)c(F)c(F)c(F)c5F)c5ccc([nH]5)c(-c5c(F)c(F)c(F)c(F)c5F)c5nc(c(-c6c(F)c(F)c(F)c(F)c6F)c6ccc3[nH]6)C=C5)C=C4)cc2)nn1-c1cccc(C(F)(F)F)c1
REMARK SMILES IDX 10 1 9 2 8 3 7 4 5 5 6 6 4 8 1 9 2 10 3 11 81 12 80 13 82 14
REMARK SMILES IDX 83 15 91 16 84 17 86 18 85 19 87 20 88 21 89 22 90 23 11 24
REMARK SMILES IDX 12 25 13 26 14 27 15 28 16 30 17 31 18 32 79 33 19 34 78 35
REMARK SMILES IDX 20 36 21 37 22 38 72 39 23 40 77 41 71 42 73 43 24 44 76 45
REMARK SMILES IDX 70 46 69 47 25 49 57 50 37 51 56 52 38 53 41 54 55 55 74 56
REMARK SMILES IDX 39 57 40 58 54 60 75 61 42 62 26 63 27 64 35 65 28 66 29 67
REMARK SMILES IDX 33 68 36 69 30 70 31 71 34 72 32 73 58 74 59 75 67 76 60 77
REMARK SMILES IDX 61 78 65 79 68 80 62 81 63 82 66 83 64 84 43 85 44 86 52 87
REMARK SMILES IDX 45 88 46 89 50 90 53 91 47 92 48 93 51 94 49 95
REMARK H PARENT 7 7 14 29 73 48 41 59
REMARK Flexibility Score: inf
ROOT
ATOM      1  C   UNL A   1      35.312  21.042  24.851  1.00  0.00     0.002 C 
ENDROOT
BRANCH   1   2
ATOM      2  C   UNL A   1      34.257  21.713  25.732  1.00  0.00     0.021 C 
BRANCH   2   3
ATOM      3  C   UNL A   1      32.862  21.836  25.121  1.00  0.00     0.116 C 
BRANCH   3   4
ATOM      4  N   UNL A   1      31.832  22.084  26.115  1.00  0.00    -0.349 N 
ATOM      5  C   UNL A   1      31.241  23.276  26.501  1.00  0.00     0.290 C 
ATOM      6  O   UNL A   1      30.439  23.226  27.436  1.00  0.00    -0.266 OA
ATOM      7  H   UNL A   1      31.506  21.282  26.587  1.00  0.00     0.163 HD
BRANCH   5   8
ATOM      8  C   UNL A   1      31.602  24.546  25.829  1.00  0.00     0.239 A 
ATOM      9  C   UNL A   1      31.604  26.852  23.100  1.00  0.00     0.090 C 
ATOM     10  C   UNL A   1      31.592  26.116  24.386  1.00  0.00     0.130 A 
ATOM     11  N   UNL A   1      31.161  24.882  24.562  1.00  0.00    -0.207 NA
ATOM     12  N   UNL A   1      32.183  26.547  25.557  1.00  0.00    -0.217 N 
ATOM     13  N   UNL A   1      32.405  25.485  26.361  1.00  0.00    -0.140 NA
BRANCH  12  14
ATOM     14  C   UNL A   1      32.429  27.851  26.051  1.00  0.00     0.067 A 
ATOM     15  C   UNL A   1      31.521  28.873  25.745  1.00  0.00     0.028 A 
ATOM     16  C   UNL A   1      33.625  28.153  26.716  1.00  0.00     0.041 A 
ATOM     17  C   UNL A   1      31.780  30.182  26.150  1.00  0.00     0.003 A 
ATOM     18  C   UNL A   1      33.914  29.481  27.080  1.00  0.00     0.058 A 
ATOM     19  C   UNL A   1      32.969  30.484  26.811  1.00  0.00     0.013 A 
BRANCH  18  20
ATOM     20  C   UNL A   1      35.236  29.853  27.711  1.00  0.00     0.416 C 
ATOM     21  F   UNL A   1      35.712  31.044  27.252  1.00  0.00    -0.166 F 
ATOM     22  F   UNL A   1      35.153  29.975  29.063  1.00  0.00    -0.166 F 
ATOM     23  F   UNL A   1      36.222  28.944  27.475  1.00  0.00    -0.166 F 
ENDBRANCH  18  20
ENDBRANCH  12  14
ENDBRANCH   5   8
ENDBRANCH   3   4
ENDBRANCH   2   3
ENDBRANCH   1   2
BRANCH   1  24
ATOM     24  C   UNL A   1      36.780  21.242  25.259  1.00  0.00     0.002 C 
BRANCH  24  25
ATOM     25  C   UNL A   1      37.386  22.637  25.050  1.00  0.00     0.021 C 
BRANCH  25  26
ATOM     26  C   UNL A   1      38.285  23.115  26.178  1.00  0.00     0.116 C 
BRANCH  26  27
ATOM     27  N   UNL A   1      39.530  22.356  26.288  1.00  0.00    -0.352 N 
ATOM     28  C   UNL A   1      40.823  22.842  26.404  1.00  0.00     0.251 C 
ATOM     29  H   UNL A   1      39.439  21.376  26.278  1.00  0.00     0.163 HD
ATOM     30  O   UNL A   1      41.788  22.150  26.126  1.00  0.00    -0.269 OA
BRANCH  28  31
ATOM     31  C   UNL A   1      41.012  24.227  26.874  1.00  0.00     0.039 A 
ATOM     32  C   UNL A   1      40.584  25.324  26.123  1.00  0.00     0.014 A 
ATOM     33  C   UNL A   1      41.610  24.409  28.116  1.00  0.00     0.014 A 
ATOM     34  C   UNL A   1      40.688  26.599  26.677  1.00  0.00     0.010 A 
ATOM     35  C   UNL A   1      41.537  25.628  28.732  1.00  0.00     0.010 A 
ATOM     36  C   UNL A   1      41.147  26.739  27.995  1.00  0.00    -0.014 A 
BRANCH  36  37
ATOM     37  C   UNL A   1      41.186  28.041  28.648  1.00  0.00     0.031 A 
ATOM     38  C   UNL A   1      42.295  28.941  28.233  1.00  0.00     0.074 A 
ATOM     39  C   UNL A   1      40.174  28.494  29.418  1.00  0.00     0.049 A 
ATOM     40  N   UNL A   1      43.263  29.381  28.965  1.00  0.00    -0.248 NA
ATOM     41  C   UNL A   1      42.399  29.327  26.817  1.00  0.00     0.031 C 
ATOM     42  C   UNL A   1      38.864  27.884  29.680  1.00  0.00     0.029 A 
ATOM     43  N   UNL A   1      40.073  29.689  30.055  1.00  0.00    -0.354 N 
ATOM     44  C   UNL A   1      44.020  30.226  28.157  1.00  0.00     0.074 A 
ATOM     45  C   UNL A   1      43.525  30.045  26.815  1.00  0.00     0.031 C 
ATOM     46  C   UNL A   1      38.029  28.811  30.198  1.00  0.00     0.029 A 
ATOM     47  C   UNL A   1      38.790  30.015  30.470  1.00  0.00     0.049 A 
ATOM     48  H   UNL A   1      40.847  30.277  30.210  1.00  0.00     0.167 HD
ATOM     49  C   UNL A   1      44.863  31.150  28.700  1.00  0.00     0.037 A 
ATOM     50  C   UNL A   1      38.384  31.208  30.966  1.00  0.00     0.037 A 
ATOM     51  C   UNL A   1      45.105  30.874  30.094  1.00  0.00     0.049 A 
ATOM     52  C   UNL A   1      39.598  31.917  31.448  1.00  0.00     0.074 A 
ATOM     53  C   UNL A   1      45.633  29.800  30.786  1.00  0.00     0.029 A 
ATOM     54  N   UNL A   1      44.425  31.615  31.031  1.00  0.00    -0.354 N 
ATOM     55  N   UNL A   1      40.301  31.528  32.477  1.00  0.00    -0.248 NA
ATOM     56  C   UNL A   1      40.301  32.772  30.501  1.00  0.00     0.031 C 
ATOM     57  C   UNL A   1      44.813  29.678  31.947  1.00  0.00     0.029 A 
ATOM     58  C   UNL A   1      43.893  30.727  31.930  1.00  0.00     0.049 A 
ATOM     59  H   UNL A   1      44.338  32.597  31.052  1.00  0.00     0.167 HD
ATOM     60  C   UNL A   1      41.621  31.708  32.090  1.00  0.00     0.074 A 
ATOM     61  C   UNL A   1      41.558  32.558  30.901  1.00  0.00     0.031 C 
ATOM     62  C   UNL A   1      42.621  30.919  32.583  1.00  0.00     0.037 A 
BRANCH  49  63
ATOM     63  C   UNL A   1      45.211  32.485  28.089  1.00  0.00     0.064 A 
ATOM     64  C   UNL A   1      44.181  33.422  27.859  1.00  0.00     0.173 A 
ATOM     65  C   UNL A   1      46.436  32.758  27.445  1.00  0.00     0.173 A 
ATOM     66  F   UNL A   1      42.971  33.262  28.417  1.00  0.00    -0.203 F 
ATOM     67  C   UNL A   1      44.338  34.492  26.974  1.00  0.00     0.198 A 
ATOM     68  C   UNL A   1      46.605  33.859  26.605  1.00  0.00     0.198 A 
ATOM     69  F   UNL A   1      47.476  31.919  27.509  1.00  0.00    -0.203 F 
ATOM     70  F   UNL A   1      43.291  35.274  26.683  1.00  0.00    -0.200 F 
ATOM     71  C   UNL A   1      45.548  34.704  26.340  1.00  0.00     0.200 A 
ATOM     72  F   UNL A   1      47.781  34.040  25.989  1.00  0.00    -0.200 F 
ATOM     73  F   UNL A   1      45.682  35.685  25.439  1.00  0.00    -0.200 F 
ENDBRANCH  49  63
BRANCH  50  74
ATOM     74  C   UNL A   1      37.072  31.873  30.787  1.00  0.00     0.064 A 
ATOM     75  C   UNL A   1      36.107  31.858  31.807  1.00  0.00     0.173 A 
ATOM     76  C   UNL A   1      36.838  32.762  29.719  1.00  0.00     0.173 A 
ATOM     77  F   UNL A   1      36.274  31.072  32.880  1.00  0.00    -0.203 F 
ATOM     78  C   UNL A   1      34.991  32.701  31.772  1.00  0.00     0.198 A 
ATOM     79  C   UNL A   1      35.720  33.596  29.681  1.00  0.00     0.198 A 
ATOM     80  F   UNL A   1      37.737  32.909  28.734  1.00  0.00    -0.203 F 
ATOM     81  F   UNL A   1      34.124  32.704  32.795  1.00  0.00    -0.200 F 
ATOM     82  C   UNL A   1      34.804  33.576  30.715  1.00  0.00     0.200 A 
ATOM     83  F   UNL A   1      35.572  34.463  28.669  1.00  0.00    -0.200 F 
ATOM     84  F   UNL A   1      33.768  34.426  30.712  1.00  0.00    -0.200 F 
ENDBRANCH  50  74
BRANCH  62  85
ATOM     85  C   UNL A   1      42.308  30.001  33.732  1.00  0.00     0.064 A 
ATOM     86  C   UNL A   1      41.802  28.697  33.586  1.00  0.00     0.173 A 
ATOM     87  C   UNL A   1      42.690  30.397  35.021  1.00  0.00     0.173 A 
ATOM     88  F   UNL A   1      41.514  28.198  32.379  1.00  0.00    -0.203 F 
ATOM     89  C   UNL A   1      41.647  27.851  34.683  1.00  0.00     0.198 A 
ATOM     90  C   UNL A   1      42.570  29.537  36.110  1.00  0.00     0.198 A 
ATOM     91  F   UNL A   1      43.235  31.609  35.218  1.00  0.00    -0.203 F 
ATOM     92  F   UNL A   1      41.152  26.615  34.514  1.00  0.00    -0.200 F 
ATOM     93  C   UNL A   1      42.039  28.270  35.942  1.00  0.00     0.200 A 
ATOM     94  F   UNL A   1      43.001  29.928  37.317  1.00  0.00    -0.200 F 
ATOM     95  F   UNL A   1      41.930  27.442  36.991  1.00  0.00    -0.200 F 
ENDBRANCH  62  85
ENDBRANCH  36  37
ENDBRANCH  28  31
ENDBRANCH  26  27
ENDBRANCH  25  26
ENDBRANCH  24  25
ENDBRANCH   1  24
TORSDOF 15
ENDMDL
