MODEL 1
REMARK VINA RESULT:     -12.6      0.000      0.000
REMARK SMILES CCc1ccc2[nH]c(C(=O)c3cc(C)ccn3)c(CC(=O)NCCCCCCNC(=O)c3ccc(-c4c5nc(c(-c6c(F)c(F)c(F)c(F)c6F)c6ccc([nH]6)c(-c6c(F)c(F)c(F)c(F)c6F)c6nc(c(-c7c(F)c(F)c(F)c(F)c7F)c7ccc4[nH]7)C=C6)C=C5)cc3)c2c1
REMARK SMILES IDX 25 1 24 2 23 3 22 4 20 5 21 6 19 8 18 9 3 10 4 11 96 12 5 13
REMARK SMILES IDX 95 14 6 15 7 16 8 17 2 19 1 20 9 21 10 22 11 23 12 24 17 25
REMARK SMILES IDX 13 26 16 27 14 28 15 29 26 30 27 31 28 32 29 33 30 34 31 36
REMARK SMILES IDX 32 37 33 38 94 39 34 40 93 41 35 42 36 43 37 44 87 45 38 46
REMARK SMILES IDX 92 47 86 48 88 49 39 50 91 51 85 52 84 53 40 55 72 56 52 57
REMARK SMILES IDX 71 58 53 59 56 60 70 61 89 62 54 63 55 64 69 66 90 67 57 68
REMARK SMILES IDX 41 69 42 70 50 71 43 72 44 73 48 74 51 75 45 76 46 77 49 78
REMARK SMILES IDX 47 79 73 80 74 81 82 82 75 83 76 84 80 85 83 86 77 87 78 88
REMARK SMILES IDX 81 89 79 90 58 91 59 92 67 93 60 94 61 95 65 96 68 97 62 98
REMARK SMILES IDX 63 99 66 100 64 101
REMARK H PARENT 22 7 7 18 29 35 88 54 56 65
REMARK Flexibility Score: inf
ROOT
ATOM      1  C   UNL A   1      35.280  33.269  28.344  1.00  0.00     0.002 C 
ENDROOT
BRANCH   1   2
ATOM      2  C   UNL A   1      34.039  32.404  28.084  1.00  0.00     0.021 C 
BRANCH   2   3
ATOM      3  C   UNL A   1      34.341  31.034  27.477  1.00  0.00     0.116 C 
BRANCH   3   4
ATOM      4  N   UNL A   1      33.318  30.060  27.786  1.00  0.00    -0.356 N 
ATOM      5  C   UNL A   1      32.538  29.315  26.950  1.00  0.00     0.224 C 
ATOM      6  O   UNL A   1      31.868  28.418  27.472  1.00  0.00    -0.275 OA
ATOM      7  H   UNL A   1      33.161  29.912  28.746  1.00  0.00     0.163 HD
BRANCH   5   8
ATOM      8  C   UNL A   1      32.608  29.473  25.436  1.00  0.00     0.138 C 
BRANCH   8   9
ATOM      9  C   UNL A   1      31.629  28.649  24.639  1.00  0.00    -0.002 A 
ATOM     10  C   UNL A   1      28.593  30.592  23.280  1.00  0.00    -0.048 A 
ATOM     11  C   UNL A   1      27.988  29.480  22.683  1.00  0.00     0.006 A 
ATOM     12  C   UNL A   1      29.827  30.427  23.932  1.00  0.00     0.014 A 
ATOM     13  C   UNL A   1      28.565  28.206  22.752  1.00  0.00     0.027 A 
ATOM     14  C   UNL A   1      30.430  29.152  24.022  1.00  0.00     0.004 A 
ATOM     15  C   UNL A   1      29.781  28.077  23.429  1.00  0.00     0.046 A 
ATOM     16  N   UNL A   1      30.557  26.967  23.653  1.00  0.00    -0.352 N 
ATOM     17  C   UNL A   1      31.727  27.296  24.306  1.00  0.00     0.093 A 
ATOM     18  H   UNL A   1      30.311  26.053  23.381  1.00  0.00     0.167 HD
BRANCH  10  19
ATOM     19  C   UNL A   1      27.979  31.971  23.190  1.00  0.00     0.032 C 
ATOM     20  C   UNL A   1      28.996  33.104  23.128  1.00  0.00     0.009 C 
ENDBRANCH  10  19
BRANCH  17  21
ATOM     21  C   UNL A   1      32.816  26.366  24.589  1.00  0.00     0.227 C 
ATOM     22  O   UNL A   1      33.945  26.482  24.116  1.00  0.00    -0.285 OA
BRANCH  21  23
ATOM     23  C   UNL A   1      32.543  25.178  25.439  1.00  0.00     0.113 A 
ATOM     24  C   UNL A   1      33.603  24.413  25.919  1.00  0.00     0.036 A 
ATOM     25  N   UNL A   1      31.238  24.907  25.694  1.00  0.00    -0.253 NA
ATOM     26  C   UNL A   1      33.312  23.298  26.708  1.00  0.00    -0.047 A 
ATOM     27  C   UNL A   1      30.988  23.849  26.491  1.00  0.00     0.112 A 
ATOM     28  C   UNL A   1      34.401  22.423  27.250  1.00  0.00     0.044 C 
ATOM     29  C   UNL A   1      31.975  23.024  27.008  1.00  0.00     0.023 A 
ENDBRANCH  21  23
ENDBRANCH  17  21
ENDBRANCH   8   9
ENDBRANCH   5   8
ENDBRANCH   3   4
ENDBRANCH   2   3
ENDBRANCH   1   2
BRANCH   1  30
ATOM     30  C   UNL A   1      35.014  34.767  28.531  1.00  0.00     0.002 C 
BRANCH  30  31
ATOM     31  C   UNL A   1      33.549  35.156  28.749  1.00  0.00     0.021 C 
BRANCH  31  32
ATOM     32  C   UNL A   1      33.331  36.508  29.425  1.00  0.00     0.116 C 
BRANCH  32  33
ATOM     33  N   UNL A   1      32.441  36.414  30.569  1.00  0.00    -0.352 N 
ATOM     34  C   UNL A   1      32.567  35.687  31.725  1.00  0.00     0.251 C 
ATOM     35  H   UNL A   1      31.622  36.957  30.506  1.00  0.00     0.163 HD
ATOM     36  O   UNL A   1      31.621  35.615  32.505  1.00  0.00    -0.269 OA
BRANCH  34  37
ATOM     37  C   UNL A   1      33.825  34.975  32.042  1.00  0.00     0.039 A 
ATOM     38  C   UNL A   1      33.781  33.586  32.205  1.00  0.00     0.014 A 
ATOM     39  C   UNL A   1      35.027  35.660  32.247  1.00  0.00     0.014 A 
ATOM     40  C   UNL A   1      34.941  32.884  32.540  1.00  0.00     0.010 A 
ATOM     41  C   UNL A   1      36.197  34.953  32.523  1.00  0.00     0.010 A 
ATOM     42  C   UNL A   1      36.161  33.560  32.690  1.00  0.00    -0.014 A 
BRANCH  42  43
ATOM     43  C   UNL A   1      37.394  32.823  33.064  1.00  0.00     0.031 A 
ATOM     44  C   UNL A   1      38.064  33.093  34.383  1.00  0.00     0.074 A 
ATOM     45  C   UNL A   1      37.928  31.932  32.208  1.00  0.00     0.049 A 
ATOM     46  N   UNL A   1      39.161  32.574  34.878  1.00  0.00    -0.248 NA
ATOM     47  C   UNL A   1      37.431  34.096  35.252  1.00  0.00     0.031 C 
ATOM     48  C   UNL A   1      37.402  31.618  30.879  1.00  0.00     0.029 A 
ATOM     49  N   UNL A   1      39.036  31.131  32.326  1.00  0.00    -0.354 N 
ATOM     50  C   UNL A   1      39.349  33.192  36.109  1.00  0.00     0.074 A 
ATOM     51  C   UNL A   1      38.287  34.163  36.261  1.00  0.00     0.031 C 
ATOM     52  C   UNL A   1      38.179  30.679  30.311  1.00  0.00     0.029 A 
ATOM     53  C   UNL A   1      39.265  30.342  31.226  1.00  0.00     0.049 A 
ATOM     54  H   UNL A   1      39.613  31.123  33.124  1.00  0.00     0.167 HD
ATOM     55  C   UNL A   1      40.307  32.955  37.037  1.00  0.00     0.037 A 
ATOM     56  C   UNL A   1      40.238  29.443  30.988  1.00  0.00     0.037 A 
ATOM     57  C   UNL A   1      41.351  31.975  36.896  1.00  0.00     0.049 A 
ATOM     58  C   UNL A   1      41.265  29.169  32.053  1.00  0.00     0.074 A 
ATOM     59  C   UNL A   1      42.360  31.649  37.786  1.00  0.00     0.029 A 
ATOM     60  N   UNL A   1      41.514  31.153  35.791  1.00  0.00    -0.354 N 
ATOM     61  N   UNL A   1      41.408  29.730  33.228  1.00  0.00    -0.248 NA
ATOM     62  C   UNL A   1      42.255  28.122  31.763  1.00  0.00     0.031 C 
ATOM     63  C   UNL A   1      43.145  30.643  37.211  1.00  0.00     0.029 A 
ATOM     64  C   UNL A   1      42.604  30.318  35.979  1.00  0.00     0.049 A 
ATOM     65  H   UNL A   1      40.940  31.162  34.991  1.00  0.00     0.167 HD
ATOM     66  C   UNL A   1      42.482  29.089  33.829  1.00  0.00     0.074 A 
ATOM     67  C   UNL A   1      42.944  28.083  32.895  1.00  0.00     0.031 C 
ATOM     68  C   UNL A   1      43.040  29.314  35.043  1.00  0.00     0.037 A 
BRANCH  55  69
ATOM     69  C   UNL A   1      40.254  33.763  38.301  1.00  0.00     0.064 A 
ATOM     70  C   UNL A   1      39.419  33.396  39.367  1.00  0.00     0.173 A 
ATOM     71  C   UNL A   1      41.062  34.898  38.460  1.00  0.00     0.173 A 
ATOM     72  F   UNL A   1      38.616  32.328  39.258  1.00  0.00    -0.203 F 
ATOM     73  C   UNL A   1      39.375  34.151  40.536  1.00  0.00     0.198 A 
ATOM     74  C   UNL A   1      41.036  35.635  39.642  1.00  0.00     0.198 A 
ATOM     75  F   UNL A   1      41.882  35.289  37.472  1.00  0.00    -0.203 F 
ATOM     76  F   UNL A   1      38.534  33.808  41.522  1.00  0.00    -0.200 F 
ATOM     77  C   UNL A   1      40.187  35.266  40.675  1.00  0.00     0.200 A 
ATOM     78  F   UNL A   1      41.829  36.707  39.778  1.00  0.00    -0.200 F 
ATOM     79  F   UNL A   1      40.147  35.989  41.801  1.00  0.00    -0.200 F 
ENDBRANCH  55  69
BRANCH  56  80
ATOM     80  C   UNL A   1      40.267  28.707  29.698  1.00  0.00     0.064 A 
ATOM     81  C   UNL A   1      39.571  27.500  29.543  1.00  0.00     0.173 A 
ATOM     82  C   UNL A   1      40.998  29.187  28.603  1.00  0.00     0.173 A 
ATOM     83  F   UNL A   1      38.876  26.991  30.569  1.00  0.00    -0.203 F 
ATOM     84  C   UNL A   1      39.625  26.788  28.347  1.00  0.00     0.198 A 
ATOM     85  C   UNL A   1      41.030  28.488  27.398  1.00  0.00     0.198 A 
ATOM     86  F   UNL A   1      41.675  30.340  28.701  1.00  0.00    -0.203 F 
ATOM     87  F   UNL A   1      38.990  25.613  28.240  1.00  0.00    -0.200 F 
ATOM     88  C   UNL A   1      40.351  27.284  27.274  1.00  0.00     0.200 A 
ATOM     89  F   UNL A   1      41.723  28.976  26.361  1.00  0.00    -0.200 F 
ATOM     90  F   UNL A   1      40.405  26.599  26.124  1.00  0.00    -0.200 F 
ENDBRANCH  56  80
BRANCH  68  91
ATOM     91  C   UNL A   1      44.186  28.433  35.443  1.00  0.00     0.064 A 
ATOM     92  C   UNL A   1      45.512  28.765  35.131  1.00  0.00     0.173 A 
ATOM     93  C   UNL A   1      43.953  27.251  36.162  1.00  0.00     0.173 A 
ATOM     94  F   UNL A   1      45.782  29.878  34.432  1.00  0.00    -0.203 F 
ATOM     95  C   UNL A   1      46.562  27.929  35.498  1.00  0.00     0.198 A 
ATOM     96  C   UNL A   1      45.009  26.431  36.551  1.00  0.00     0.198 A 
ATOM     97  F   UNL A   1      42.703  26.893  36.490  1.00  0.00    -0.203 F 
ATOM     98  F   UNL A   1      47.818  28.240  35.146  1.00  0.00    -0.200 F 
ATOM     99  C   UNL A   1      46.311  26.766  36.211  1.00  0.00     0.200 A 
ATOM    100  F   UNL A   1      44.765  25.312  37.247  1.00  0.00    -0.200 F 
ATOM    101  F   UNL A   1      47.324  25.962  36.562  1.00  0.00    -0.200 F 
ENDBRANCH  68  91
ENDBRANCH  42  43
ENDBRANCH  34  37
ENDBRANCH  32  33
ENDBRANCH  31  32
ENDBRANCH  30  31
ENDBRANCH   1  30
TORSDOF 17
ENDMDL
MODEL 2
REMARK VINA RESULT:     -12.4      6.711     12.702
REMARK SMILES CCc1ccc2[nH]c(C(=O)c3cc(C)ccn3)c(CC(=O)NCCCCCCNC(=O)c3ccc(-c4c5nc(c(-c6c(F)c(F)c(F)c(F)c6F)c6ccc([nH]6)c(-c6c(F)c(F)c(F)c(F)c6F)c6nc(c(-c7c(F)c(F)c(F)c(F)c7F)c7ccc4[nH]7)C=C6)C=C5)cc3)c2c1
REMARK SMILES IDX 25 1 24 2 23 3 22 4 20 5 21 6 19 8 18 9 3 10 4 11 96 12 5 13
REMARK SMILES IDX 95 14 6 15 7 16 8 17 2 19 1 20 9 21 10 22 11 23 12 24 17 25
REMARK SMILES IDX 13 26 16 27 14 28 15 29 26 30 27 31 28 32 29 33 30 34 31 36
REMARK SMILES IDX 32 37 33 38 94 39 34 40 93 41 35 42 36 43 37 44 87 45 38 46
REMARK SMILES IDX 92 47 86 48 88 49 39 50 91 51 85 52 84 53 40 55 72 56 52 57
REMARK SMILES IDX 71 58 53 59 56 60 70 61 89 62 54 63 55 64 69 66 90 67 57 68
REMARK SMILES IDX 41 69 42 70 50 71 43 72 44 73 48 74 51 75 45 76 46 77 49 78
REMARK SMILES IDX 47 79 73 80 74 81 82 82 75 83 76 84 80 85 83 86 77 87 78 88
REMARK SMILES IDX 81 89 79 90 58 91 59 92 67 93 60 94 61 95 65 96 68 97 62 98
REMARK SMILES IDX 63 99 66 100 64 101
REMARK H PARENT 22 7 7 18 29 35 88 54 56 65
REMARK Flexibility Score: inf
ROOT
ATOM      1  C   UNL A   1      41.300  21.599  26.640  1.00  0.00     0.002 C 
ENDROOT
BRANCH   1   2
ATOM      2  C   UNL A   1      39.878  21.164  26.259  1.00  0.00     0.021 C 
BRANCH   2   3
ATOM      3  C   UNL A   1      38.852  22.296  26.260  1.00  0.00     0.116 C 
BRANCH   3   4
ATOM      4  N   UNL A   1      38.205  22.450  24.976  1.00  0.00    -0.356 N 
ATOM      5  C   UNL A   1      36.908  22.228  24.616  1.00  0.00     0.224 C 
ATOM      6  O   UNL A   1      36.572  22.616  23.492  1.00  0.00    -0.275 OA
ATOM      7  H   UNL A   1      38.792  22.764  24.250  1.00  0.00     0.163 HD
BRANCH   5   8
ATOM      8  C   UNL A   1      35.886  21.676  25.602  1.00  0.00     0.138 C 
BRANCH   8   9
ATOM      9  C   UNL A   1      34.520  21.375  25.042  1.00  0.00    -0.002 A 
ATOM     10  C   UNL A   1      33.960  17.710  23.995  1.00  0.00    -0.048 A 
ATOM     11  C   UNL A   1      32.655  17.909  23.530  1.00  0.00     0.006 A 
ATOM     12  C   UNL A   1      34.659  18.797  24.548  1.00  0.00     0.014 A 
ATOM     13  C   UNL A   1      32.047  19.170  23.570  1.00  0.00     0.027 A 
ATOM     14  C   UNL A   1      34.072  20.082  24.596  1.00  0.00     0.004 A 
ATOM     15  C   UNL A   1      32.781  20.232  24.105  1.00  0.00     0.046 A 
ATOM     16  N   UNL A   1      32.443  21.553  24.263  1.00  0.00    -0.352 N 
ATOM     17  C   UNL A   1      33.442  22.252  24.908  1.00  0.00     0.093 A 
ATOM     18  H   UNL A   1      31.596  21.949  23.956  1.00  0.00     0.167 HD
BRANCH  10  19
ATOM     19  C   UNL A   1      34.610  16.345  23.968  1.00  0.00     0.032 C 
ATOM     20  C   UNL A   1      35.176  15.897  25.310  1.00  0.00     0.009 C 
ENDBRANCH  10  19
BRANCH  17  21
ATOM     21  C   UNL A   1      33.346  23.647  25.330  1.00  0.00     0.227 C 
ATOM     22  O   UNL A   1      33.200  23.992  26.501  1.00  0.00    -0.285 OA
BRANCH  21  23
ATOM     23  C   UNL A   1      33.361  24.713  24.293  1.00  0.00     0.113 A 
ATOM     24  C   UNL A   1      33.651  26.025  24.656  1.00  0.00     0.036 A 
ATOM     25  N   UNL A   1      33.077  24.323  23.025  1.00  0.00    -0.253 NA
ATOM     26  C   UNL A   1      33.648  27.004  23.660  1.00  0.00    -0.047 A 
ATOM     27  C   UNL A   1      33.121  25.280  22.078  1.00  0.00     0.112 A 
ATOM     28  C   UNL A   1      33.939  28.439  23.979  1.00  0.00     0.044 C 
ATOM     29  C   UNL A   1      33.390  26.615  22.343  1.00  0.00     0.023 A 
ENDBRANCH  21  23
ENDBRANCH  17  21
ENDBRANCH   8   9
ENDBRANCH   5   8
ENDBRANCH   3   4
ENDBRANCH   2   3
ENDBRANCH   1   2
BRANCH   1  30
ATOM     30  C   UNL A   1      42.248  20.470  27.060  1.00  0.00     0.002 C 
BRANCH  30  31
ATOM     31  C   UNL A   1      42.315  19.274  26.105  1.00  0.00     0.021 C 
BRANCH  31  32
ATOM     32  C   UNL A   1      43.673  18.582  26.029  1.00  0.00     0.116 C 
BRANCH  32  33
ATOM     33  N   UNL A   1      44.215  18.579  24.681  1.00  0.00    -0.352 N 
ATOM     34  C   UNL A   1      44.666  19.622  23.912  1.00  0.00     0.251 C 
ATOM     35  H   UNL A   1      44.269  17.694  24.254  1.00  0.00     0.163 HD
ATOM     36  O   UNL A   1      44.936  19.434  22.729  1.00  0.00    -0.269 OA
BRANCH  34  37
ATOM     37  C   UNL A   1      44.822  20.977  24.485  1.00  0.00     0.039 A 
ATOM     38  C   UNL A   1      44.273  22.061  23.791  1.00  0.00     0.014 A 
ATOM     39  C   UNL A   1      45.556  21.202  25.655  1.00  0.00     0.014 A 
ATOM     40  C   UNL A   1      44.430  23.359  24.281  1.00  0.00     0.010 A 
ATOM     41  C   UNL A   1      45.663  22.492  26.176  1.00  0.00     0.010 A 
ATOM     42  C   UNL A   1      45.116  23.584  25.485  1.00  0.00    -0.014 A 
BRANCH  42  43
ATOM     43  C   UNL A   1      45.303  24.962  26.003  1.00  0.00     0.031 A 
ATOM     44  C   UNL A   1      46.659  25.611  25.952  1.00  0.00     0.074 A 
ATOM     45  C   UNL A   1      44.262  25.622  26.545  1.00  0.00     0.049 A 
ATOM     46  N   UNL A   1      47.031  26.792  26.378  1.00  0.00    -0.248 NA
ATOM     47  C   UNL A   1      47.749  24.816  25.364  1.00  0.00     0.031 C 
ATOM     48  C   UNL A   1      42.910  25.084  26.699  1.00  0.00     0.029 A 
ATOM     49  N   UNL A   1      44.181  26.886  27.074  1.00  0.00    -0.354 N 
ATOM     50  C   UNL A   1      48.393  26.878  26.116  1.00  0.00     0.074 A 
ATOM     51  C   UNL A   1      48.794  25.610  25.546  1.00  0.00     0.031 C 
ATOM     52  C   UNL A   1      42.129  26.019  27.268  1.00  0.00     0.029 A 
ATOM     53  C   UNL A   1      42.930  27.210  27.536  1.00  0.00     0.049 A 
ATOM     54  H   UNL A   1      44.948  27.502  27.117  1.00  0.00     0.167 HD
ATOM     55  C   UNL A   1      49.228  27.926  26.311  1.00  0.00     0.037 A 
ATOM     56  C   UNL A   1      42.480  28.343  28.106  1.00  0.00     0.037 A 
ATOM     57  C   UNL A   1      48.827  29.195  26.859  1.00  0.00     0.049 A 
ATOM     58  C   UNL A   1      43.419  29.507  28.273  1.00  0.00     0.074 A 
ATOM     59  C   UNL A   1      49.595  30.325  27.083  1.00  0.00     0.029 A 
ATOM     60  N   UNL A   1      47.536  29.504  27.261  1.00  0.00    -0.354 N 
ATOM     61  N   UNL A   1      44.694  29.590  27.983  1.00  0.00    -0.248 NA
ATOM     62  C   UNL A   1      42.849  30.743  28.829  1.00  0.00     0.031 C 
ATOM     63  C   UNL A   1      48.772  31.312  27.638  1.00  0.00     0.029 A 
ATOM     64  C   UNL A   1      47.485  30.808  27.727  1.00  0.00     0.049 A 
ATOM     65  H   UNL A   1      46.769  28.889  27.221  1.00  0.00     0.167 HD
ATOM     66  C   UNL A   1      45.073  30.888  28.295  1.00  0.00     0.074 A 
ATOM     67  C   UNL A   1      43.888  31.564  28.780  1.00  0.00     0.031 C 
ATOM     68  C   UNL A   1      46.293  31.468  28.193  1.00  0.00     0.037 A 
BRANCH  55  69
ATOM     69  C   UNL A   1      50.663  27.746  25.910  1.00  0.00     0.064 A 
ATOM     70  C   UNL A   1      51.075  27.914  24.580  1.00  0.00     0.173 A 
ATOM     71  C   UNL A   1      51.640  27.428  26.865  1.00  0.00     0.173 A 
ATOM     72  F   UNL A   1      50.177  28.204  23.627  1.00  0.00    -0.203 F 
ATOM     73  C   UNL A   1      52.408  27.745  24.215  1.00  0.00     0.198 A 
ATOM     74  C   UNL A   1      52.977  27.286  26.502  1.00  0.00     0.198 A 
ATOM     75  F   UNL A   1      51.299  27.260  28.152  1.00  0.00    -0.203 F 
ATOM     76  F   UNL A   1      52.770  27.864  22.930  1.00  0.00    -0.200 F 
ATOM     77  C   UNL A   1      53.358  27.437  25.176  1.00  0.00     0.200 A 
ATOM     78  F   UNL A   1      53.896  26.997  27.434  1.00  0.00    -0.200 F 
ATOM     79  F   UNL A   1      54.641  27.277  24.825  1.00  0.00    -0.200 F 
ENDBRANCH  55  69
BRANCH  56  80
ATOM     80  C   UNL A   1      41.060  28.447  28.527  1.00  0.00     0.064 A 
ATOM     81  C   UNL A   1      40.083  28.944  27.650  1.00  0.00     0.173 A 
ATOM     82  C   UNL A   1      40.652  28.066  29.812  1.00  0.00     0.173 A 
ATOM     83  F   UNL A   1      40.430  29.341  26.418  1.00  0.00    -0.203 F 
ATOM     84  C   UNL A   1      38.757  29.077  28.054  1.00  0.00     0.198 A 
ATOM     85  C   UNL A   1      39.320  28.175  30.205  1.00  0.00     0.198 A 
ATOM     86  F   UNL A   1      41.548  27.580  30.683  1.00  0.00    -0.203 F 
ATOM     87  F   UNL A   1      37.853  29.599  27.213  1.00  0.00    -0.200 F 
ATOM     88  C   UNL A   1      38.375  28.689  29.330  1.00  0.00     0.200 A 
ATOM     89  F   UNL A   1      38.954  27.789  31.435  1.00  0.00    -0.200 F 
ATOM     90  F   UNL A   1      37.099  28.819  29.718  1.00  0.00    -0.200 F 
ENDBRANCH  56  80
BRANCH  68  91
ATOM     91  C   UNL A   1      46.396  32.914  28.579  1.00  0.00     0.064 A 
ATOM     92  C   UNL A   1      46.655  33.305  29.901  1.00  0.00     0.173 A 
ATOM     93  C   UNL A   1      46.252  33.918  27.610  1.00  0.00     0.173 A 
ATOM     94  F   UNL A   1      46.785  32.381  30.864  1.00  0.00    -0.203 F 
ATOM     95  C   UNL A   1      46.735  34.651  30.244  1.00  0.00     0.198 A 
ATOM     96  C   UNL A   1      46.359  35.263  27.953  1.00  0.00     0.198 A 
ATOM     97  F   UNL A   1      46.012  33.594  26.331  1.00  0.00    -0.203 F 
ATOM     98  F   UNL A   1      46.932  35.004  31.523  1.00  0.00    -0.200 F 
ATOM     99  C   UNL A   1      46.591  35.629  29.270  1.00  0.00     0.200 A 
ATOM    100  F   UNL A   1      46.229  36.206  27.009  1.00  0.00    -0.200 F 
ATOM    101  F   UNL A   1      46.667  36.924  29.604  1.00  0.00    -0.200 F 
ENDBRANCH  68  91
ENDBRANCH  42  43
ENDBRANCH  34  37
ENDBRANCH  32  33
ENDBRANCH  31  32
ENDBRANCH  30  31
ENDBRANCH   1  30
TORSDOF 17
ENDMDL
MODEL 3
REMARK VINA RESULT:     -12.3      6.735     12.692
REMARK SMILES CCc1ccc2[nH]c(C(=O)c3cc(C)ccn3)c(CC(=O)NCCCCCCNC(=O)c3ccc(-c4c5nc(c(-c6c(F)c(F)c(F)c(F)c6F)c6ccc([nH]6)c(-c6c(F)c(F)c(F)c(F)c6F)c6nc(c(-c7c(F)c(F)c(F)c(F)c7F)c7ccc4[nH]7)C=C6)C=C5)cc3)c2c1
REMARK SMILES IDX 25 1 24 2 23 3 22 4 20 5 21 6 19 8 18 9 3 10 4 11 96 12 5 13
REMARK SMILES IDX 95 14 6 15 7 16 8 17 2 19 1 20 9 21 10 22 11 23 12 24 17 25
REMARK SMILES IDX 13 26 16 27 14 28 15 29 26 30 27 31 28 32 29 33 30 34 31 36
REMARK SMILES IDX 32 37 33 38 94 39 34 40 93 41 35 42 36 43 37 44 87 45 38 46
REMARK SMILES IDX 92 47 86 48 88 49 39 50 91 51 85 52 84 53 40 55 72 56 52 57
REMARK SMILES IDX 71 58 53 59 56 60 70 61 89 62 54 63 55 64 69 66 90 67 57 68
REMARK SMILES IDX 41 69 42 70 50 71 43 72 44 73 48 74 51 75 45 76 46 77 49 78
REMARK SMILES IDX 47 79 73 80 74 81 82 82 75 83 76 84 80 85 83 86 77 87 78 88
REMARK SMILES IDX 81 89 79 90 58 91 59 92 67 93 60 94 61 95 65 96 68 97 62 98
REMARK SMILES IDX 63 99 66 100 64 101
REMARK H PARENT 22 7 7 18 29 35 88 54 56 65
REMARK Flexibility Score: inf
ROOT
ATOM      1  C   UNL A   1      41.327  21.575  26.652  1.00  0.00     0.002 C 
ENDROOT
BRANCH   1   2
ATOM      2  C   UNL A   1      39.920  21.151  26.210  1.00  0.00     0.021 C 
BRANCH   2   3
ATOM      3  C   UNL A   1      38.873  22.260  26.289  1.00  0.00     0.116 C 
BRANCH   3   4
ATOM      4  N   UNL A   1      38.251  22.520  25.010  1.00  0.00    -0.356 N 
ATOM      5  C   UNL A   1      36.968  22.301  24.598  1.00  0.00     0.224 C 
ATOM      6  O   UNL A   1      36.647  22.784  23.508  1.00  0.00    -0.275 OA
ATOM      7  H   UNL A   1      38.845  22.914  24.331  1.00  0.00     0.163 HD
BRANCH   5   8
ATOM      8  C   UNL A   1      35.940  21.633  25.504  1.00  0.00     0.138 C 
BRANCH   8   9
ATOM      9  C   UNL A   1      34.576  21.407  24.903  1.00  0.00    -0.002 A 
ATOM     10  C   UNL A   1      33.818  17.764  23.908  1.00  0.00    -0.048 A 
ATOM     11  C   UNL A   1      32.544  18.035  23.396  1.00  0.00     0.006 A 
ATOM     12  C   UNL A   1      34.567  18.816  24.463  1.00  0.00     0.014 A 
ATOM     13  C   UNL A   1      32.016  19.332  23.391  1.00  0.00     0.027 A 
ATOM     14  C   UNL A   1      34.062  20.136  24.467  1.00  0.00     0.004 A 
ATOM     15  C   UNL A   1      32.800  20.357  23.930  1.00  0.00     0.046 A 
ATOM     16  N   UNL A   1      32.542  21.700  24.051  1.00  0.00    -0.352 N 
ATOM     17  C   UNL A   1      33.562  22.348  24.717  1.00  0.00     0.093 A 
ATOM     18  H   UNL A   1      31.732  22.142  23.708  1.00  0.00     0.167 HD
BRANCH  10  19
ATOM     19  C   UNL A   1      34.380  16.360  23.929  1.00  0.00     0.032 C 
ATOM     20  C   UNL A   1      34.882  15.910  25.296  1.00  0.00     0.009 C 
ENDBRANCH  10  19
BRANCH  17  21
ATOM     21  C   UNL A   1      33.542  23.755  25.108  1.00  0.00     0.227 C 
ATOM     22  O   UNL A   1      33.560  24.132  26.277  1.00  0.00    -0.285 OA
BRANCH  21  23
ATOM     23  C   UNL A   1      33.429  24.793  24.049  1.00  0.00     0.113 A 
ATOM     24  C   UNL A   1      33.705  26.123  24.354  1.00  0.00     0.036 A 
ATOM     25  N   UNL A   1      33.048  24.361  22.821  1.00  0.00    -0.253 NA
ATOM     26  C   UNL A   1      33.581  27.075  23.340  1.00  0.00    -0.047 A 
ATOM     27  C   UNL A   1      32.976  25.294  21.851  1.00  0.00     0.112 A 
ATOM     28  C   UNL A   1      33.851  28.526  23.597  1.00  0.00     0.044 C 
ATOM     29  C   UNL A   1      33.222  26.643  22.060  1.00  0.00     0.023 A 
ENDBRANCH  21  23
ENDBRANCH  17  21
ENDBRANCH   8   9
ENDBRANCH   5   8
ENDBRANCH   3   4
ENDBRANCH   2   3
ENDBRANCH   1   2
BRANCH   1  30
ATOM     30  C   UNL A   1      42.262  20.435  27.070  1.00  0.00     0.002 C 
BRANCH  30  31
ATOM     31  C   UNL A   1      42.324  19.245  26.108  1.00  0.00     0.021 C 
BRANCH  31  32
ATOM     32  C   UNL A   1      43.674  18.536  26.039  1.00  0.00     0.116 C 
BRANCH  32  33
ATOM     33  N   UNL A   1      44.223  18.526  24.694  1.00  0.00    -0.352 N 
ATOM     34  C   UNL A   1      44.677  19.564  23.921  1.00  0.00     0.251 C 
ATOM     35  H   UNL A   1      44.279  17.638  24.273  1.00  0.00     0.163 HD
ATOM     36  O   UNL A   1      44.953  19.368  22.741  1.00  0.00    -0.269 OA
BRANCH  34  37
ATOM     37  C   UNL A   1      44.829  20.923  24.487  1.00  0.00     0.039 A 
ATOM     38  C   UNL A   1      44.299  22.004  23.773  1.00  0.00     0.014 A 
ATOM     39  C   UNL A   1      45.541  21.153  25.668  1.00  0.00     0.014 A 
ATOM     40  C   UNL A   1      44.454  23.305  24.256  1.00  0.00     0.010 A 
ATOM     41  C   UNL A   1      45.645  22.446  26.181  1.00  0.00     0.010 A 
ATOM     42  C   UNL A   1      45.118  23.536  25.471  1.00  0.00    -0.014 A 
BRANCH  42  43
ATOM     43  C   UNL A   1      45.303  24.917  25.982  1.00  0.00     0.031 A 
ATOM     44  C   UNL A   1      46.654  25.574  25.912  1.00  0.00     0.074 A 
ATOM     45  C   UNL A   1      44.264  25.572  26.534  1.00  0.00     0.049 A 
ATOM     46  N   UNL A   1      47.023  26.759  26.330  1.00  0.00    -0.248 NA
ATOM     47  C   UNL A   1      47.742  24.784  25.315  1.00  0.00     0.031 C 
ATOM     48  C   UNL A   1      42.917  25.027  26.706  1.00  0.00     0.029 A 
ATOM     49  N   UNL A   1      44.182  26.838  27.059  1.00  0.00    -0.354 N 
ATOM     50  C   UNL A   1      48.381  26.853  26.052  1.00  0.00     0.074 A 
ATOM     51  C   UNL A   1      48.784  25.585  25.482  1.00  0.00     0.031 C 
ATOM     52  C   UNL A   1      42.137  25.959  27.281  1.00  0.00     0.029 A 
ATOM     53  C   UNL A   1      42.934  27.156  27.535  1.00  0.00     0.049 A 
ATOM     54  H   UNL A   1      44.945  27.459  27.091  1.00  0.00     0.167 HD
ATOM     55  C   UNL A   1      49.212  27.907  26.233  1.00  0.00     0.037 A 
ATOM     56  C   UNL A   1      42.483  28.288  28.106  1.00  0.00     0.037 A 
ATOM     57  C   UNL A   1      48.809  29.175  26.781  1.00  0.00     0.049 A 
ATOM     58  C   UNL A   1      43.417  29.459  28.258  1.00  0.00     0.074 A 
ATOM     59  C   UNL A   1      49.573  30.311  26.991  1.00  0.00     0.029 A 
ATOM     60  N   UNL A   1      47.521  29.478  27.197  1.00  0.00    -0.354 N 
ATOM     61  N   UNL A   1      44.688  29.548  27.952  1.00  0.00    -0.248 NA
ATOM     62  C   UNL A   1      42.846  30.693  28.816  1.00  0.00     0.031 C 
ATOM     63  C   UNL A   1      48.751  31.295  27.553  1.00  0.00     0.029 A 
ATOM     64  C   UNL A   1      47.468  30.783  27.659  1.00  0.00     0.049 A 
ATOM     65  H   UNL A   1      46.758  28.857  27.168  1.00  0.00     0.167 HD
ATOM     66  C   UNL A   1      45.062  30.850  28.255  1.00  0.00     0.074 A 
ATOM     67  C   UNL A   1      43.879  31.520  28.752  1.00  0.00     0.031 C 
ATOM     68  C   UNL A   1      46.278  31.437  28.136  1.00  0.00     0.037 A 
BRANCH  55  69
ATOM     69  C   UNL A   1      50.644  27.734  25.816  1.00  0.00     0.064 A 
ATOM     70  C   UNL A   1      51.644  27.430  26.752  1.00  0.00     0.173 A 
ATOM     71  C   UNL A   1      51.017  27.847  24.469  1.00  0.00     0.173 A 
ATOM     72  F   UNL A   1      51.341  27.326  28.054  1.00  0.00    -0.203 F 
ATOM     73  C   UNL A   1      52.970  27.271  26.357  1.00  0.00     0.198 A 
ATOM     74  C   UNL A   1      52.339  27.661  24.074  1.00  0.00     0.198 A 
ATOM     75  F   UNL A   1      50.098  28.133  23.534  1.00  0.00    -0.203 F 
ATOM     76  F   UNL A   1      53.916  27.028  27.275  1.00  0.00    -0.200 F 
ATOM     77  C   UNL A   1      53.316  27.381  25.020  1.00  0.00     0.200 A 
ATOM     78  F   UNL A   1      52.671  27.758  22.779  1.00  0.00    -0.200 F 
ATOM     79  F   UNL A   1      54.591  27.225  24.641  1.00  0.00    -0.200 F 
ENDBRANCH  55  69
BRANCH  56  80
ATOM     80  C   UNL A   1      41.068  28.385  28.543  1.00  0.00     0.064 A 
ATOM     81  C   UNL A   1      40.086  28.916  27.693  1.00  0.00     0.173 A 
ATOM     82  C   UNL A   1      40.670  27.962  29.818  1.00  0.00     0.173 A 
ATOM     83  F   UNL A   1      40.424  29.354  26.472  1.00  0.00    -0.203 F 
ATOM     84  C   UNL A   1      38.764  29.042  28.113  1.00  0.00     0.198 A 
ATOM     85  C   UNL A   1      39.342  28.064  30.228  1.00  0.00     0.198 A 
ATOM     86  F   UNL A   1      41.571  27.442  30.664  1.00  0.00    -0.203 F 
ATOM     87  F   UNL A   1      37.855  29.598  27.300  1.00  0.00    -0.200 F 
ATOM     88  C   UNL A   1      38.392  28.613  29.379  1.00  0.00     0.200 A 
ATOM     89  F   UNL A   1      38.984  27.638  31.446  1.00  0.00    -0.200 F 
ATOM     90  F   UNL A   1      37.120  28.735  29.783  1.00  0.00    -0.200 F 
ENDBRANCH  56  80
BRANCH  68  91
ATOM     91  C   UNL A   1      46.376  32.885  28.516  1.00  0.00     0.064 A 
ATOM     92  C   UNL A   1      46.163  33.907  27.579  1.00  0.00     0.173 A 
ATOM     93  C   UNL A   1      46.669  33.252  29.838  1.00  0.00     0.173 A 
ATOM     94  F   UNL A   1      45.895  33.604  26.301  1.00  0.00    -0.203 F 
ATOM     95  C   UNL A   1      46.271  35.245  27.947  1.00  0.00     0.198 A 
ATOM     96  C   UNL A   1      46.750  34.592  30.207  1.00  0.00     0.198 A 
ATOM     97  F   UNL A   1      46.874  32.312  30.772  1.00  0.00    -0.203 F 
ATOM     98  F   UNL A   1      46.114  36.205  27.024  1.00  0.00    -0.200 F 
ATOM     99  C   UNL A   1      46.560  35.587  29.260  1.00  0.00     0.200 A 
ATOM    100  F   UNL A   1      47.020  34.920  31.478  1.00  0.00    -0.200 F 
ATOM    101  F   UNL A   1      46.665  36.876  29.610  1.00  0.00    -0.200 F 
ENDBRANCH  68  91
ENDBRANCH  42  43
ENDBRANCH  34  37
ENDBRANCH  32  33
ENDBRANCH  31  32
ENDBRANCH  30  31
ENDBRANCH   1  30
TORSDOF 17
ENDMDL
