MODEL 1
REMARK VINA RESULT:     -12.8      0.000      0.000
REMARK SMILES O=C(NCCCCCCNC(=O)c1ccc2c(c1)C[N@H+](Cc1ccccc1)CO2)c1ccc(-c2c3nc(c(-c4c(F)c(F)c(F)c(F)c4F)c4ccc([nH]4)c(-c4c(F)c(F)c(F)c(F)c4F)c4nc(c(-c5c(F)c(F)c(F)c(F)c5F)c5ccc2[nH]5)C=C4)C=C3)cc1
REMARK SMILES IDX 6 1 5 2 4 3 3 4 1 5 2 6 30 8 31 9 92 10 32 11 91 12 33 13
REMARK SMILES IDX 34 14 35 15 85 16 36 17 90 18 84 19 86 20 37 21 89 22 83 23
REMARK SMILES IDX 82 24 38 26 70 27 50 28 69 29 51 30 54 31 68 32 87 33 52 34
REMARK SMILES IDX 53 35 67 37 88 38 55 39 39 40 40 41 48 42 41 43 42 44 46 45
REMARK SMILES IDX 49 46 43 47 44 48 47 49 45 50 71 51 72 52 80 53 73 54 74 55
REMARK SMILES IDX 78 56 81 57 75 58 76 59 79 60 77 61 56 62 57 63 65 64 58 65
REMARK SMILES IDX 59 66 63 67 66 68 60 69 61 70 64 71 62 72 7 73 8 74 9 75
REMARK SMILES IDX 10 76 11 77 12 79 13 80 14 81 18 82 15 83 17 84 16 85 19 86
REMARK SMILES IDX 29 87 20 88 28 89 21 91 22 92 23 93 27 94 24 95 26 96 25 97
REMARK H PARENT 3 7 86 25 54 36 10 78 20 90
REMARK Flexibility Score: inf
ROOT
ATOM      1  C   UNL A   1      31.044  29.538  24.451  1.00  0.00     0.002 C 
ENDROOT
BRANCH   1   2
ATOM      2  C   UNL A   1      31.795  28.833  25.581  1.00  0.00     0.021 C 
BRANCH   2   3
ATOM      3  C   UNL A   1      32.975  29.601  26.156  1.00  0.00     0.116 C 
BRANCH   3   4
ATOM      4  N   UNL A   1      32.671  30.995  26.423  1.00  0.00    -0.352 N 
ATOM      5  O   UNL A   1      32.858  32.995  27.459  1.00  0.00    -0.269 OA
ATOM      6  C   UNL A   1      33.326  31.880  27.248  1.00  0.00     0.251 C 
ATOM      7  H   UNL A   1      31.888  31.358  25.949  1.00  0.00     0.163 HD
BRANCH   6   8
ATOM      8  C   UNL A   1      34.588  31.474  27.907  1.00  0.00     0.039 A 
ATOM      9  C   UNL A   1      34.734  30.190  28.435  1.00  0.00     0.014 A 
ATOM     10  C   UNL A   1      35.637  32.394  28.001  1.00  0.00     0.014 A 
ATOM     11  C   UNL A   1      35.861  29.877  29.184  1.00  0.00     0.010 A 
ATOM     12  C   UNL A   1      36.812  32.044  28.675  1.00  0.00     0.010 A 
ATOM     13  C   UNL A   1      36.921  30.792  29.300  1.00  0.00    -0.014 A 
BRANCH  13  14
ATOM     14  C   UNL A   1      38.151  30.371  30.019  1.00  0.00     0.031 A 
ATOM     15  C   UNL A   1      38.429  30.810  31.429  1.00  0.00     0.074 A 
ATOM     16  C   UNL A   1      38.993  29.523  29.396  1.00  0.00     0.049 A 
ATOM     17  N   UNL A   1      39.416  30.463  32.218  1.00  0.00    -0.248 NA
ATOM     18  C   UNL A   1      37.489  31.766  32.032  1.00  0.00     0.031 C 
ATOM     19  C   UNL A   1      38.840  29.053  28.017  1.00  0.00     0.029 A 
ATOM     20  N   UNL A   1      40.120  28.882  29.841  1.00  0.00    -0.354 N 
ATOM     21  C   UNL A   1      39.221  31.160  33.404  1.00  0.00     0.074 A 
ATOM     22  C   UNL A   1      38.039  31.976  33.221  1.00  0.00     0.031 C 
ATOM     23  C   UNL A   1      39.798  28.156  27.748  1.00  0.00     0.029 A 
ATOM     24  C   UNL A   1      40.665  28.029  28.914  1.00  0.00     0.049 A 
ATOM     25  H   UNL A   1      40.501  29.020  30.739  1.00  0.00     0.167 HD
ATOM     26  C   UNL A   1      39.956  31.113  34.542  1.00  0.00     0.037 A 
ATOM     27  C   UNL A   1      41.749  27.234  28.988  1.00  0.00     0.037 A 
ATOM     28  C   UNL A   1      41.129  30.293  34.720  1.00  0.00     0.049 A 
ATOM     29  C   UNL A   1      42.535  27.195  30.265  1.00  0.00     0.074 A 
ATOM     30  C   UNL A   1      41.938  30.173  35.837  1.00  0.00     0.029 A 
ATOM     31  N   UNL A   1      41.660  29.453  33.752  1.00  0.00    -0.354 N 
ATOM     32  N   UNL A   1      42.323  27.842  31.385  1.00  0.00    -0.248 NA
ATOM     33  C   UNL A   1      43.710  26.316  30.290  1.00  0.00     0.031 C 
ATOM     34  C   UNL A   1      42.978  29.285  35.534  1.00  0.00     0.029 A 
ATOM     35  C   UNL A   1      42.792  28.818  34.244  1.00  0.00     0.049 A 
ATOM     36  H   UNL A   1      41.289  29.325  32.849  1.00  0.00     0.167 HD
ATOM     37  C   UNL A   1      43.334  27.448  32.248  1.00  0.00     0.074 A 
ATOM     38  C   UNL A   1      44.138  26.477  31.533  1.00  0.00     0.031 C 
ATOM     39  C   UNL A   1      43.584  27.863  33.514  1.00  0.00     0.037 A 
BRANCH  26  40
ATOM     40  C   UNL A   1      39.518  31.971  35.693  1.00  0.00     0.064 A 
ATOM     41  C   UNL A   1      40.002  33.277  35.858  1.00  0.00     0.173 A 
ATOM     42  C   UNL A   1      38.557  31.508  36.605  1.00  0.00     0.173 A 
ATOM     43  F   UNL A   1      40.929  33.765  35.020  1.00  0.00    -0.203 F 
ATOM     44  C   UNL A   1      39.552  34.082  36.901  1.00  0.00     0.198 A 
ATOM     45  C   UNL A   1      38.092  32.324  37.634  1.00  0.00     0.198 A 
ATOM     46  F   UNL A   1      38.057  30.269  36.489  1.00  0.00    -0.203 F 
ATOM     47  F   UNL A   1      40.052  35.316  37.058  1.00  0.00    -0.200 F 
ATOM     48  C   UNL A   1      38.592  33.608  37.783  1.00  0.00     0.200 A 
ATOM     49  F   UNL A   1      37.154  31.869  38.477  1.00  0.00    -0.200 F 
ATOM     50  F   UNL A   1      38.151  34.389  38.780  1.00  0.00    -0.200 F 
ENDBRANCH  26  40
BRANCH  27  51
ATOM     51  C   UNL A   1      42.144  26.418  27.813  1.00  0.00     0.064 A 
ATOM     52  C   UNL A   1      41.538  25.183  27.549  1.00  0.00     0.173 A 
ATOM     53  C   UNL A   1      43.130  26.867  26.920  1.00  0.00     0.173 A 
ATOM     54  F   UNL A   1      40.603  24.704  28.382  1.00  0.00    -0.203 F 
ATOM     55  C   UNL A   1      41.915  24.419  26.447  1.00  0.00     0.198 A 
ATOM     56  C   UNL A   1      43.482  26.118  25.801  1.00  0.00     0.198 A 
ATOM     57  F   UNL A   1      43.734  28.047  27.125  1.00  0.00    -0.203 F 
ATOM     58  F   UNL A   1      41.350  23.222  26.240  1.00  0.00    -0.200 F 
ATOM     59  C   UNL A   1      42.880  24.890  25.569  1.00  0.00     0.200 A 
ATOM     60  F   UNL A   1      44.402  26.586  24.947  1.00  0.00    -0.200 F 
ATOM     61  F   UNL A   1      43.236  24.159  24.504  1.00  0.00    -0.200 F 
ENDBRANCH  27  51
BRANCH  39  62
ATOM     62  C   UNL A   1      44.772  27.257  34.200  1.00  0.00     0.064 A 
ATOM     63  C   UNL A   1      46.039  27.859  34.134  1.00  0.00     0.173 A 
ATOM     64  C   UNL A   1      44.645  26.067  34.930  1.00  0.00     0.173 A 
ATOM     65  F   UNL A   1      46.214  28.988  33.432  1.00  0.00    -0.203 F 
ATOM     66  C   UNL A   1      47.142  27.270  34.747  1.00  0.00     0.198 A 
ATOM     67  C   UNL A   1      45.744  25.497  35.566  1.00  0.00     0.198 A 
ATOM     68  F   UNL A   1      43.454  25.456  35.027  1.00  0.00    -0.203 F 
ATOM     69  F   UNL A   1      48.352  27.831  34.623  1.00  0.00    -0.200 F 
ATOM     70  C   UNL A   1      46.993  26.093  35.465  1.00  0.00     0.200 A 
ATOM     71  F   UNL A   1      45.598  24.364  36.266  1.00  0.00    -0.200 F 
ATOM     72  F   UNL A   1      48.056  25.526  36.051  1.00  0.00    -0.200 F 
ENDBRANCH  39  62
ENDBRANCH  13  14
ENDBRANCH   6   8
ENDBRANCH   3   4
ENDBRANCH   2   3
ENDBRANCH   1   2
BRANCH   1  73
ATOM     73  C   UNL A   1      30.343  28.625  23.441  1.00  0.00     0.002 C 
BRANCH  73  74
ATOM     74  C   UNL A   1      30.050  27.200  23.914  1.00  0.00     0.021 C 
BRANCH  74  75
ATOM     75  C   UNL A   1      30.760  26.097  23.138  1.00  0.00     0.116 C 
BRANCH  75  76
ATOM     76  N   UNL A   1      31.793  26.610  22.257  1.00  0.00    -0.352 N 
ATOM     77  C   UNL A   1      33.155  26.491  22.377  1.00  0.00     0.251 C 
ATOM     78  H   UNL A   1      31.475  27.111  21.472  1.00  0.00     0.163 HD
ATOM     79  O   UNL A   1      33.907  27.105  21.626  1.00  0.00    -0.269 OA
BRANCH  77  80
ATOM     80  C   UNL A   1      33.711  25.641  23.448  1.00  0.00     0.040 A 
ATOM     81  C   UNL A   1      33.668  26.055  24.785  1.00  0.00     0.017 A 
ATOM     82  C   UNL A   1      34.282  24.416  23.102  1.00  0.00     0.027 A 
ATOM     83  C   UNL A   1      34.307  25.297  25.761  1.00  0.00     0.048 A 
ATOM     84  C   UNL A   1      34.868  23.623  24.096  1.00  0.00     0.049 A 
ATOM     85  C   UNL A   1      34.930  24.102  25.409  1.00  0.00     0.134 A 
ATOM     86  C   UNL A   1      35.389  22.251  23.781  1.00  0.00     0.306 C 
ATOM     87  O   UNL A   1      35.508  23.393  26.427  1.00  0.00    -0.445 OA
ATOM     88  N   UNL A   1      35.544  21.419  24.970  1.00  0.00    -0.295 N 
ATOM     89  C   UNL A   1      36.190  22.202  26.017  1.00  0.00     0.507 C 
ATOM     90  H   UNL A   1      36.155  20.641  24.723  1.00  0.00     0.351 HD
BRANCH  88  91
ATOM     91  C   UNL A   1      34.340  20.688  25.399  1.00  0.00     0.302 C 
BRANCH  91  92
ATOM     92  C   UNL A   1      33.926  19.448  24.634  1.00  0.00     0.006 A 
ATOM     93  C   UNL A   1      32.744  19.436  23.877  1.00  0.00     0.009 A 
ATOM     94  C   UNL A   1      34.736  18.301  24.626  1.00  0.00     0.009 A 
ATOM     95  C   UNL A   1      32.405  18.326  23.098  1.00  0.00     0.001 A 
ATOM     96  C   UNL A   1      34.404  17.196  23.838  1.00  0.00     0.001 A 
ATOM     97  C   UNL A   1      33.241  17.212  23.071  1.00  0.00     0.000 A 
ENDBRANCH  91  92
ENDBRANCH  88  91
ENDBRANCH  77  80
ENDBRANCH  75  76
ENDBRANCH  74  75
ENDBRANCH  73  74
ENDBRANCH   1  73
TORSDOF 15
ENDMDL
MODEL 2
REMARK VINA RESULT:     -12.7      1.106      2.430
REMARK SMILES O=C(NCCCCCCNC(=O)c1ccc2c(c1)C[N@H+](Cc1ccccc1)CO2)c1ccc(-c2c3nc(c(-c4c(F)c(F)c(F)c(F)c4F)c4ccc([nH]4)c(-c4c(F)c(F)c(F)c(F)c4F)c4nc(c(-c5c(F)c(F)c(F)c(F)c5F)c5ccc2[nH]5)C=C4)C=C3)cc1
REMARK SMILES IDX 6 1 5 2 4 3 3 4 1 5 2 6 30 8 31 9 92 10 32 11 91 12 33 13
REMARK SMILES IDX 34 14 35 15 85 16 36 17 90 18 84 19 86 20 37 21 89 22 83 23
REMARK SMILES IDX 82 24 38 26 70 27 50 28 69 29 51 30 54 31 68 32 87 33 52 34
REMARK SMILES IDX 53 35 67 37 88 38 55 39 39 40 40 41 48 42 41 43 42 44 46 45
REMARK SMILES IDX 49 46 43 47 44 48 47 49 45 50 71 51 72 52 80 53 73 54 74 55
REMARK SMILES IDX 78 56 81 57 75 58 76 59 79 60 77 61 56 62 57 63 65 64 58 65
REMARK SMILES IDX 59 66 63 67 66 68 60 69 61 70 64 71 62 72 7 73 8 74 9 75
REMARK SMILES IDX 10 76 11 77 12 79 13 80 14 81 18 82 15 83 17 84 16 85 19 86
REMARK SMILES IDX 29 87 20 88 28 89 21 91 22 92 23 93 27 94 24 95 26 96 25 97
REMARK H PARENT 3 7 86 25 54 36 10 78 20 90
REMARK Flexibility Score: inf
ROOT
ATOM      1  C   UNL A   1      31.381  27.438  26.104  1.00  0.00     0.002 C 
ENDROOT
BRANCH   1   2
ATOM      2  C   UNL A   1      31.963  28.456  25.125  1.00  0.00     0.021 C 
BRANCH   2   3
ATOM      3  C   UNL A   1      33.064  29.343  25.687  1.00  0.00     0.116 C 
BRANCH   3   4
ATOM      4  N   UNL A   1      32.595  30.667  26.056  1.00  0.00    -0.352 N 
ATOM      5  O   UNL A   1      32.516  32.575  27.266  1.00  0.00    -0.269 OA
ATOM      6  C   UNL A   1      33.114  31.540  26.984  1.00  0.00     0.251 C 
ATOM      7  H   UNL A   1      31.796  30.984  25.577  1.00  0.00     0.163 HD
BRANCH   6   8
ATOM      8  C   UNL A   1      34.387  31.215  27.666  1.00  0.00     0.039 A 
ATOM      9  C   UNL A   1      34.629  29.928  28.148  1.00  0.00     0.014 A 
ATOM     10  C   UNL A   1      35.349  32.217  27.830  1.00  0.00     0.014 A 
ATOM     11  C   UNL A   1      35.756  29.682  28.920  1.00  0.00     0.010 A 
ATOM     12  C   UNL A   1      36.531  31.941  28.527  1.00  0.00     0.010 A 
ATOM     13  C   UNL A   1      36.730  30.678  29.105  1.00  0.00    -0.014 A 
BRANCH  13  14
ATOM     14  C   UNL A   1      37.970  30.333  29.846  1.00  0.00     0.031 A 
ATOM     15  C   UNL A   1      38.195  30.787  31.261  1.00  0.00     0.074 A 
ATOM     16  C   UNL A   1      38.874  29.540  29.239  1.00  0.00     0.049 A 
ATOM     17  N   UNL A   1      39.187  30.502  32.068  1.00  0.00    -0.248 NA
ATOM     18  C   UNL A   1      37.187  31.682  31.847  1.00  0.00     0.031 C 
ATOM     19  C   UNL A   1      38.776  29.063  27.857  1.00  0.00     0.029 A 
ATOM     20  N   UNL A   1      40.031  28.970  29.704  1.00  0.00    -0.354 N 
ATOM     21  C   UNL A   1      38.928  31.184  33.250  1.00  0.00     0.074 A 
ATOM     22  C   UNL A   1      37.701  31.925  33.046  1.00  0.00     0.031 C 
ATOM     23  C   UNL A   1      39.792  28.227  27.606  1.00  0.00     0.029 A 
ATOM     24  C   UNL A   1      40.645  28.154  28.787  1.00  0.00     0.049 A 
ATOM     25  H   UNL A   1      40.387  29.130  30.608  1.00  0.00     0.167 HD
ATOM     26  C   UNL A   1      39.644  31.181  34.401  1.00  0.00     0.037 A 
ATOM     27  C   UNL A   1      41.774  27.428  28.880  1.00  0.00     0.037 A 
ATOM     28  C   UNL A   1      40.863  30.436  34.600  1.00  0.00     0.049 A 
ATOM     29  C   UNL A   1      42.539  27.437  30.172  1.00  0.00     0.074 A 
ATOM     30  C   UNL A   1      41.658  30.365  35.732  1.00  0.00     0.029 A 
ATOM     31  N   UNL A   1      41.462  29.631  33.642  1.00  0.00    -0.354 N 
ATOM     32  N   UNL A   1      42.267  28.068  31.287  1.00  0.00    -0.248 NA
ATOM     33  C   UNL A   1      43.766  26.633  30.217  1.00  0.00     0.031 C 
ATOM     34  C   UNL A   1      42.756  29.544  35.448  1.00  0.00     0.029 A 
ATOM     35  C   UNL A   1      42.623  29.068  34.154  1.00  0.00     0.049 A 
ATOM     36  H   UNL A   1      41.117  29.482  32.732  1.00  0.00     0.167 HD
ATOM     37  C   UNL A   1      43.285  27.736  32.168  1.00  0.00     0.074 A 
ATOM     38  C   UNL A   1      44.160  26.818  31.468  1.00  0.00     0.031 C 
ATOM     39  C   UNL A   1      43.485  28.165  33.438  1.00  0.00     0.037 A 
BRANCH  26  40
ATOM     40  C   UNL A   1      39.133  32.008  35.544  1.00  0.00     0.064 A 
ATOM     41  C   UNL A   1      38.326  31.452  36.548  1.00  0.00     0.173 A 
ATOM     42  C   UNL A   1      39.504  33.356  35.674  1.00  0.00     0.173 A 
ATOM     43  F   UNL A   1      37.933  30.172  36.467  1.00  0.00    -0.203 F 
ATOM     44  C   UNL A   1      37.897  32.218  37.630  1.00  0.00     0.198 A 
ATOM     45  C   UNL A   1      39.093  34.112  36.769  1.00  0.00     0.198 A 
ATOM     46  F   UNL A   1      40.280  33.935  34.745  1.00  0.00    -0.203 F 
ATOM     47  F   UNL A   1      37.101  31.674  38.560  1.00  0.00    -0.200 F 
ATOM     48  C   UNL A   1      38.288  33.544  37.744  1.00  0.00     0.200 A 
ATOM     49  F   UNL A   1      39.483  35.390  36.884  1.00  0.00    -0.200 F 
ATOM     50  F   UNL A   1      37.885  34.275  38.793  1.00  0.00    -0.200 F 
ENDBRANCH  26  40
BRANCH  27  51
ATOM     51  C   UNL A   1      42.241  26.640  27.712  1.00  0.00     0.064 A 
ATOM     52  C   UNL A   1      43.197  27.151  26.825  1.00  0.00     0.173 A 
ATOM     53  C   UNL A   1      41.748  25.349  27.469  1.00  0.00     0.173 A 
ATOM     54  F   UNL A   1      43.686  28.386  27.007  1.00  0.00    -0.203 F 
ATOM     55  C   UNL A   1      43.630  26.409  25.729  1.00  0.00     0.198 A 
ATOM     56  C   UNL A   1      42.205  24.595  26.392  1.00  0.00     0.198 A 
ATOM     57  F   UNL A   1      40.837  24.811  28.294  1.00  0.00    -0.203 F 
ATOM     58  F   UNL A   1      44.513  26.937  24.872  1.00  0.00    -0.200 F 
ATOM     59  C   UNL A   1      43.140  25.128  25.517  1.00  0.00     0.200 A 
ATOM     60  F   UNL A   1      41.742  23.352  26.202  1.00  0.00    -0.200 F 
ATOM     61  F   UNL A   1      43.563  24.411  24.468  1.00  0.00    -0.200 F 
ENDBRANCH  27  51
BRANCH  39  62
ATOM     62  C   UNL A   1      44.697  27.634  34.146  1.00  0.00     0.064 A 
ATOM     63  C   UNL A   1      44.647  26.445  34.890  1.00  0.00     0.173 A 
ATOM     64  C   UNL A   1      45.919  28.318  34.078  1.00  0.00     0.173 A 
ATOM     65  F   UNL A   1      43.495  25.766  35.000  1.00  0.00    -0.203 F 
ATOM     66  C   UNL A   1      45.769  25.980  35.570  1.00  0.00     0.198 A 
ATOM     67  C   UNL A   1      47.047  27.834  34.735  1.00  0.00     0.198 A 
ATOM     68  F   UNL A   1      46.020  29.456  33.375  1.00  0.00    -0.203 F 
ATOM     69  F   UNL A   1      45.683  24.874  36.321  1.00  0.00    -0.200 F 
ATOM     70  C   UNL A   1      46.968  26.672  35.488  1.00  0.00     0.200 A 
ATOM     71  F   UNL A   1      48.207  28.498  34.649  1.00  0.00    -0.200 F 
ATOM     72  F   UNL A   1      48.046  26.224  36.146  1.00  0.00    -0.200 F 
ENDBRANCH  39  62
ENDBRANCH  13  14
ENDBRANCH   6   8
ENDBRANCH   3   4
ENDBRANCH   2   3
ENDBRANCH   1   2
BRANCH   1  73
ATOM     73  C   UNL A   1      30.450  26.383  25.499  1.00  0.00     0.002 C 
BRANCH  73  74
ATOM     74  C   UNL A   1      30.261  26.445  23.983  1.00  0.00     0.021 C 
BRANCH  74  75
ATOM     75  C   UNL A   1      30.610  25.167  23.229  1.00  0.00     0.116 C 
BRANCH  75  76
ATOM     76  N   UNL A   1      31.384  25.422  22.028  1.00  0.00    -0.352 N 
ATOM     77  C   UNL A   1      32.749  25.427  21.876  1.00  0.00     0.251 C 
ATOM     78  H   UNL A   1      30.863  25.617  21.216  1.00  0.00     0.163 HD
ATOM     79  O   UNL A   1      33.261  25.803  20.827  1.00  0.00    -0.269 OA
BRANCH  77  80
ATOM     80  C   UNL A   1      33.600  25.011  23.008  1.00  0.00     0.040 A 
ATOM     81  C   UNL A   1      33.895  25.902  24.047  1.00  0.00     0.017 A 
ATOM     82  C   UNL A   1      34.106  23.710  23.021  1.00  0.00     0.027 A 
ATOM     83  C   UNL A   1      34.797  25.528  25.038  1.00  0.00     0.048 A 
ATOM     84  C   UNL A   1      34.963  23.315  24.055  1.00  0.00     0.049 A 
ATOM     85  C   UNL A   1      35.351  24.249  25.021  1.00  0.00     0.134 A 
ATOM     86  C   UNL A   1      35.436  21.894  24.165  1.00  0.00     0.306 C 
ATOM     87  O   UNL A   1      36.204  23.941  26.046  1.00  0.00    -0.445 OA
ATOM     88  N   UNL A   1      35.930  21.565  25.498  1.00  0.00    -0.295 N 
ATOM     89  C   UNL A   1      36.799  22.641  25.961  1.00  0.00     0.507 C 
ATOM     90  H   UNL A   1      36.484  20.713  25.418  1.00  0.00     0.351 HD
BRANCH  88  91
ATOM     91  C   UNL A   1      34.911  21.133  26.469  1.00  0.00     0.302 C 
BRANCH  91  92
ATOM     92  C   UNL A   1      33.513  21.708  26.366  1.00  0.00     0.006 A 
ATOM     93  C   UNL A   1      33.116  22.774  27.189  1.00  0.00     0.009 A 
ATOM     94  C   UNL A   1      32.601  21.221  25.416  1.00  0.00     0.009 A 
ATOM     95  C   UNL A   1      31.860  23.366  27.035  1.00  0.00     0.001 A 
ATOM     96  C   UNL A   1      31.349  21.821  25.255  1.00  0.00     0.001 A 
ATOM     97  C   UNL A   1      30.982  22.896  26.061  1.00  0.00     0.000 A 
ENDBRANCH  91  92
ENDBRANCH  88  91
ENDBRANCH  77  80
ENDBRANCH  75  76
ENDBRANCH  74  75
ENDBRANCH  73  74
ENDBRANCH   1  73
TORSDOF 15
ENDMDL
MODEL 3
REMARK VINA RESULT:     -12.7      2.840      8.567
REMARK SMILES O=C(NCCCCCCNC(=O)c1ccc2c(c1)C[N@H+](Cc1ccccc1)CO2)c1ccc(-c2c3nc(c(-c4c(F)c(F)c(F)c(F)c4F)c4ccc([nH]4)c(-c4c(F)c(F)c(F)c(F)c4F)c4nc(c(-c5c(F)c(F)c(F)c(F)c5F)c5ccc2[nH]5)C=C4)C=C3)cc1
REMARK SMILES IDX 6 1 5 2 4 3 3 4 1 5 2 6 30 8 31 9 92 10 32 11 91 12 33 13
REMARK SMILES IDX 34 14 35 15 85 16 36 17 90 18 84 19 86 20 37 21 89 22 83 23
REMARK SMILES IDX 82 24 38 26 70 27 50 28 69 29 51 30 54 31 68 32 87 33 52 34
REMARK SMILES IDX 53 35 67 37 88 38 55 39 39 40 40 41 48 42 41 43 42 44 46 45
REMARK SMILES IDX 49 46 43 47 44 48 47 49 45 50 71 51 72 52 80 53 73 54 74 55
REMARK SMILES IDX 78 56 81 57 75 58 76 59 79 60 77 61 56 62 57 63 65 64 58 65
REMARK SMILES IDX 59 66 63 67 66 68 60 69 61 70 64 71 62 72 7 73 8 74 9 75
REMARK SMILES IDX 10 76 11 77 12 79 13 80 14 81 18 82 15 83 17 84 16 85 19 86
REMARK SMILES IDX 29 87 20 88 28 89 21 91 22 92 23 93 27 94 24 95 26 96 25 97
REMARK H PARENT 3 7 86 25 54 36 10 78 20 90
REMARK Flexibility Score: inf
ROOT
ATOM      1  C   UNL A   1      34.567  33.734  29.246  1.00  0.00     0.002 C 
ENDROOT
BRANCH   1   2
ATOM      2  C   UNL A   1      33.287  34.556  29.106  1.00  0.00     0.021 C 
BRANCH   2   3
ATOM      3  C   UNL A   1      33.390  36.004  29.561  1.00  0.00     0.116 C 
BRANCH   3   4
ATOM      4  N   UNL A   1      32.484  36.324  30.650  1.00  0.00    -0.352 N 
ATOM      5  O   UNL A   1      31.620  36.188  32.734  1.00  0.00    -0.269 OA
ATOM      6  C   UNL A   1      32.543  35.930  31.967  1.00  0.00     0.251 C 
ATOM      7  H   UNL A   1      31.724  36.902  30.414  1.00  0.00     0.163 HD
BRANCH   6   8
ATOM      8  C   UNL A   1      33.714  35.167  32.453  1.00  0.00     0.039 A 
ATOM      9  C   UNL A   1      34.981  35.751  32.488  1.00  0.00     0.014 A 
ATOM     10  C   UNL A   1      33.541  33.845  32.877  1.00  0.00     0.014 A 
ATOM     11  C   UNL A   1      36.090  34.975  32.798  1.00  0.00     0.010 A 
ATOM     12  C   UNL A   1      34.648  33.092  33.281  1.00  0.00     0.010 A 
ATOM     13  C   UNL A   1      35.937  33.641  33.215  1.00  0.00    -0.014 A 
BRANCH  13  14
ATOM     14  C   UNL A   1      37.143  32.886  33.642  1.00  0.00     0.031 A 
ATOM     15  C   UNL A   1      37.815  31.896  32.732  1.00  0.00     0.074 A 
ATOM     16  C   UNL A   1      37.668  33.156  34.852  1.00  0.00     0.049 A 
ATOM     17  N   UNL A   1      38.919  31.217  32.929  1.00  0.00    -0.248 NA
ATOM     18  C   UNL A   1      37.166  31.621  31.442  1.00  0.00     0.031 C 
ATOM     19  C   UNL A   1      37.084  34.077  35.832  1.00  0.00     0.029 A 
ATOM     20  N   UNL A   1      38.816  32.715  35.457  1.00  0.00    -0.354 N 
ATOM     21  C   UNL A   1      39.093  30.433  31.795  1.00  0.00     0.074 A 
ATOM     22  C   UNL A   1      37.964  30.695  30.927  1.00  0.00     0.031 C 
ATOM     23  C   UNL A   1      37.906  34.178  36.885  1.00  0.00     0.029 A 
ATOM     24  C   UNL A   1      39.044  33.289  36.683  1.00  0.00     0.049 A 
ATOM     25  H   UNL A   1      39.420  32.052  35.050  1.00  0.00     0.167 HD
ATOM     26  C   UNL A   1      40.109  29.584  31.503  1.00  0.00     0.037 A 
ATOM     27  C   UNL A   1      40.053  33.115  37.556  1.00  0.00     0.037 A 
ATOM     28  C   UNL A   1      41.234  29.333  32.370  1.00  0.00     0.049 A 
ATOM     29  C   UNL A   1      41.168  32.176  37.200  1.00  0.00     0.074 A 
ATOM     30  C   UNL A   1      42.315  28.493  32.161  1.00  0.00     0.029 A 
ATOM     31  N   UNL A   1      41.422  29.922  33.612  1.00  0.00    -0.354 N 
ATOM     32  N   UNL A   1      41.330  31.462  36.113  1.00  0.00    -0.248 NA
ATOM     33  C   UNL A   1      42.241  32.020  38.190  1.00  0.00     0.031 C 
ATOM     34  C   UNL A   1      43.140  28.549  33.291  1.00  0.00     0.029 A 
ATOM     35  C   UNL A   1      42.597  29.456  34.185  1.00  0.00     0.049 A 
ATOM     36  H   UNL A   1      40.811  30.573  34.027  1.00  0.00     0.167 HD
ATOM     37  C   UNL A   1      42.521  30.774  36.286  1.00  0.00     0.074 A 
ATOM     38  C   UNL A   1      43.060  31.186  37.566  1.00  0.00     0.031 C 
ATOM     39  C   UNL A   1      43.110  29.871  35.464  1.00  0.00     0.037 A 
BRANCH  26  40
ATOM     40  C   UNL A   1      40.057  28.858  30.191  1.00  0.00     0.064 A 
ATOM     41  C   UNL A   1      40.671  29.378  29.041  1.00  0.00     0.173 A 
ATOM     42  C   UNL A   1      39.445  27.599  30.094  1.00  0.00     0.173 A 
ATOM     43  F   UNL A   1      41.261  30.582  29.077  1.00  0.00    -0.203 F 
ATOM     44  C   UNL A   1      40.659  28.672  27.841  1.00  0.00     0.198 A 
ATOM     45  C   UNL A   1      39.455  26.885  28.898  1.00  0.00     0.198 A 
ATOM     46  F   UNL A   1      38.849  27.053  31.165  1.00  0.00    -0.203 F 
ATOM     47  F   UNL A   1      41.223  29.203  26.747  1.00  0.00    -0.200 F 
ATOM     48  C   UNL A   1      40.059  27.423  27.772  1.00  0.00     0.200 A 
ATOM     49  F   UNL A   1      38.886  25.673  28.837  1.00  0.00    -0.200 F 
ATOM     50  F   UNL A   1      40.059  26.740  26.619  1.00  0.00    -0.200 F 
ENDBRANCH  26  40
BRANCH  27  51
ATOM     51  C   UNL A   1      40.045  33.849  38.846  1.00  0.00     0.064 A 
ATOM     52  C   UNL A   1      39.339  33.362  39.954  1.00  0.00     0.173 A 
ATOM     53  C   UNL A   1      40.756  35.048  39.000  1.00  0.00     0.173 A 
ATOM     54  F   UNL A   1      38.631  32.228  39.852  1.00  0.00    -0.203 F 
ATOM     55  C   UNL A   1      39.331  34.056  41.163  1.00  0.00     0.198 A 
ATOM     56  C   UNL A   1      40.775  35.724  40.217  1.00  0.00     0.198 A 
ATOM     57  F   UNL A   1      41.454  35.552  37.971  1.00  0.00    -0.203 F 
ATOM     58  F   UNL A   1      38.614  33.591  42.194  1.00  0.00    -0.200 F 
ATOM     59  C   UNL A   1      40.056  35.231  41.296  1.00  0.00     0.200 A 
ATOM     60  F   UNL A   1      41.490  36.849  40.345  1.00  0.00    -0.200 F 
ATOM     61  F   UNL A   1      40.055  35.893  42.460  1.00  0.00    -0.200 F 
ENDBRANCH  27  51
BRANCH  39  62
ATOM     62  C   UNL A   1      44.406  29.278  35.933  1.00  0.00     0.064 A 
ATOM     63  C   UNL A   1      45.637  29.883  35.632  1.00  0.00     0.173 A 
ATOM     64  C   UNL A   1      44.419  28.097  36.688  1.00  0.00     0.173 A 
ATOM     65  F   UNL A   1      45.677  31.003  34.896  1.00  0.00    -0.203 F 
ATOM     66  C   UNL A   1      46.835  29.306  36.044  1.00  0.00     0.198 A 
ATOM     67  C   UNL A   1      45.618  27.539  37.123  1.00  0.00     0.198 A 
ATOM     68  F   UNL A   1      43.268  27.484  37.006  1.00  0.00    -0.203 F 
ATOM     69  F   UNL A   1      48.001  29.869  35.697  1.00  0.00    -0.200 F 
ATOM     70  C   UNL A   1      46.824  28.138  36.791  1.00  0.00     0.200 A 
ATOM     71  F   UNL A   1      45.607  26.416  37.852  1.00  0.00    -0.200 F 
ATOM     72  F   UNL A   1      47.979  27.582  37.183  1.00  0.00    -0.200 F 
ENDBRANCH  39  62
ENDBRANCH  13  14
ENDBRANCH   6   8
ENDBRANCH   3   4
ENDBRANCH   2   3
ENDBRANCH   1   2
BRANCH   1  73
ATOM     73  C   UNL A   1      35.065  33.046  27.971  1.00  0.00     0.002 C 
BRANCH  73  74
ATOM     74  C   UNL A   1      35.524  31.596  28.125  1.00  0.00     0.021 C 
BRANCH  74  75
ATOM     75  C   UNL A   1      34.522  30.542  27.669  1.00  0.00     0.116 C 
BRANCH  75  76
ATOM     76  N   UNL A   1      33.297  31.124  27.153  1.00  0.00    -0.352 N 
ATOM     77  C   UNL A   1      32.287  30.511  26.454  1.00  0.00     0.251 C 
ATOM     78  H   UNL A   1      33.174  32.086  27.326  1.00  0.00     0.163 HD
ATOM     79  O   UNL A   1      31.379  31.169  25.958  1.00  0.00    -0.269 OA
BRANCH  77  80
ATOM     80  C   UNL A   1      32.326  29.047  26.271  1.00  0.00     0.040 A 
ATOM     81  C   UNL A   1      31.640  28.198  27.147  1.00  0.00     0.017 A 
ATOM     82  C   UNL A   1      33.063  28.526  25.206  1.00  0.00     0.027 A 
ATOM     83  C   UNL A   1      31.792  26.820  27.030  1.00  0.00     0.048 A 
ATOM     84  C   UNL A   1      33.161  27.138  25.050  1.00  0.00     0.049 A 
ATOM     85  C   UNL A   1      32.575  26.296  26.003  1.00  0.00     0.134 A 
ATOM     86  C   UNL A   1      33.847  26.541  23.855  1.00  0.00     0.306 C 
ATOM     87  O   UNL A   1      32.651  24.932  25.928  1.00  0.00    -0.445 OA
ATOM     88  N   UNL A   1      33.476  25.149  23.627  1.00  0.00    -0.295 N 
ATOM     89  C   UNL A   1      33.512  24.434  24.898  1.00  0.00     0.507 C 
ATOM     90  H   UNL A   1      34.175  24.742  23.007  1.00  0.00     0.351 HD
BRANCH  88  91
ATOM     91  C   UNL A   1      32.255  24.934  22.833  1.00  0.00     0.302 C 
BRANCH  91  92
ATOM     92  C   UNL A   1      31.122  25.934  22.950  1.00  0.00     0.006 A 
ATOM     93  C   UNL A   1      30.022  25.675  23.782  1.00  0.00     0.009 A 
ATOM     94  C   UNL A   1      31.169  27.160  22.266  1.00  0.00     0.009 A 
ATOM     95  C   UNL A   1      29.021  26.633  23.961  1.00  0.00     0.001 A 
ATOM     96  C   UNL A   1      30.174  28.122  22.455  1.00  0.00     0.001 A 
ATOM     97  C   UNL A   1      29.103  27.859  23.307  1.00  0.00     0.000 A 
ENDBRANCH  91  92
ENDBRANCH  88  91
ENDBRANCH  77  80
ENDBRANCH  75  76
ENDBRANCH  74  75
ENDBRANCH  73  74
ENDBRANCH   1  73
TORSDOF 15
ENDMDL
