MODEL 1
REMARK VINA RESULT:     -10.5      0.000      0.000
REMARK SMILES C=CCCCOC(F)(F)C(=O)NCCCCCCNC(=O)c1ccc(-c2c3nc(c(-c4c(F)c(F)c(F)c(F)c4F)c4ccc([nH]4)c(-c4c(F)c(F)c(F)c(F)c4F)c4nc(c(-c5c(F)c(F)c(F)c(F)c5F)c5ccc2[nH]5)C=C4)C=C3)cc1
REMARK SMILES IDX 14 1 13 2 12 3 10 4 11 5 7 7 8 8 9 9 6 10 5 11 4 12 3 13
REMARK SMILES IDX 2 14 1 15 15 16 16 17 17 18 18 19 19 20 20 21 21 23 22 24
REMARK SMILES IDX 23 25 84 26 24 27 83 28 25 29 26 30 27 31 77 32 28 33 82 34
REMARK SMILES IDX 76 35 78 36 29 37 81 38 75 39 74 40 30 42 62 43 42 44 61 45
REMARK SMILES IDX 43 46 46 47 60 48 79 49 44 50 45 51 59 53 80 54 47 55 31 56
REMARK SMILES IDX 32 57 40 58 33 59 34 60 38 61 41 62 35 63 36 64 39 65 37 66
REMARK SMILES IDX 63 67 64 68 72 69 65 70 66 71 70 72 73 73 67 74 68 75 71 76
REMARK SMILES IDX 69 77 48 78 49 79 57 80 50 81 51 82 55 83 58 84 52 85 53 86
REMARK SMILES IDX 56 87 54 88
REMARK H PARENT 12 6 19 22 78 41 46 52
REMARK Flexibility Score: inf
ROOT
ATOM      1  C   UNL A   1      32.792  28.761  27.346  1.00  0.00     0.021 C 
ENDROOT
BRANCH   1   2
ATOM      2  C   UNL A   1      32.701  27.487  26.514  1.00  0.00     0.116 C 
BRANCH   2   3
ATOM      3  N   UNL A   1      31.579  26.641  26.902  1.00  0.00    -0.349 N 
ATOM      4  C   UNL A   1      30.589  26.142  26.067  1.00  0.00     0.320 C 
ATOM      5  O   UNL A   1      29.719  25.413  26.546  1.00  0.00    -0.265 OA
ATOM      6  H   UNL A   1      31.516  26.401  27.854  1.00  0.00     0.163 HD
BRANCH   4   7
ATOM      7  C   UNL A   1      30.671  26.566  24.559  1.00  0.00     0.436 C 
ATOM      8  F   UNL A   1      29.815  25.771  23.848  1.00  0.00    -0.165 F 
ATOM      9  F   UNL A   1      31.932  26.275  24.126  1.00  0.00    -0.165 F 
BRANCH   7  10
ATOM     10  O   UNL A   1      30.430  27.890  24.157  1.00  0.00    -0.313 OA
BRANCH  10  11
ATOM     11  C   UNL A   1      29.993  28.007  22.800  1.00  0.00     0.168 C 
BRANCH  11  12
ATOM     12  C   UNL A   1      28.935  29.090  22.517  1.00  0.00     0.033 C 
BRANCH  12  13
ATOM     13  C   UNL A   1      29.380  30.530  22.188  1.00  0.00     0.029 C 
BRANCH  13  14
ATOM     14  C   UNL A   1      28.577  31.651  22.788  1.00  0.00    -0.035 C 
ATOM     15  C   UNL A   1      27.585  31.453  23.667  1.00  0.00     0.004 C 
ENDBRANCH  13  14
ENDBRANCH  12  13
ENDBRANCH  11  12
ENDBRANCH  10  11
ENDBRANCH   7  10
ENDBRANCH   4   7
ENDBRANCH   2   3
ENDBRANCH   1   2
BRANCH   1  16
ATOM     16  C   UNL A   1      32.940  30.037  26.516  1.00  0.00     0.002 C 
BRANCH  16  17
ATOM     17  C   UNL A   1      31.618  30.666  26.062  1.00  0.00     0.002 C 
BRANCH  17  18
ATOM     18  C   UNL A   1      31.394  32.106  26.528  1.00  0.00     0.021 C 
BRANCH  18  19
ATOM     19  C   UNL A   1      32.570  32.715  27.281  1.00  0.00     0.116 C 
BRANCH  19  20
ATOM     20  N   UNL A   1      32.358  34.121  27.587  1.00  0.00    -0.352 N 
ATOM     21  C   UNL A   1      32.967  34.908  28.534  1.00  0.00     0.251 C 
ATOM     22  H   UNL A   1      31.678  34.575  27.037  1.00  0.00     0.163 HD
ATOM     23  O   UNL A   1      32.535  36.025  28.785  1.00  0.00    -0.269 OA
BRANCH  21  24
ATOM     24  C   UNL A   1      34.143  34.389  29.263  1.00  0.00     0.039 A 
ATOM     25  C   UNL A   1      33.949  33.707  30.466  1.00  0.00     0.014 A 
ATOM     26  C   UNL A   1      35.431  34.576  28.758  1.00  0.00     0.014 A 
ATOM     27  C   UNL A   1      35.047  33.159  31.135  1.00  0.00     0.010 A 
ATOM     28  C   UNL A   1      36.512  33.963  29.381  1.00  0.00     0.010 A 
ATOM     29  C   UNL A   1      36.333  33.256  30.580  1.00  0.00    -0.014 A 
BRANCH  29  30
ATOM     30  C   UNL A   1      37.515  32.651  31.244  1.00  0.00     0.031 A 
ATOM     31  C   UNL A   1      38.246  31.520  30.574  1.00  0.00     0.074 A 
ATOM     32  C   UNL A   1      37.882  33.060  32.473  1.00  0.00     0.049 A 
ATOM     33  N   UNL A   1      39.216  30.771  31.033  1.00  0.00    -0.248 NA
ATOM     34  C   UNL A   1      37.802  31.163  29.216  1.00  0.00     0.031 C 
ATOM     35  C   UNL A   1      37.236  34.126  33.238  1.00  0.00     0.029 A 
ATOM     36  N   UNL A   1      38.879  32.612  33.304  1.00  0.00    -0.354 N 
ATOM     37  C   UNL A   1      39.483  29.846  30.032  1.00  0.00     0.074 A 
ATOM     38  C   UNL A   1      38.536  30.089  28.965  1.00  0.00     0.031 C 
ATOM     39  C   UNL A   1      37.861  34.260  34.420  1.00  0.00     0.029 A 
ATOM     40  C   UNL A   1      38.919  33.258  34.516  1.00  0.00     0.049 A 
ATOM     41  H   UNL A   1      39.506  31.894  33.056  1.00  0.00     0.167 HD
ATOM     42  C   UNL A   1      40.445  28.893  29.997  1.00  0.00     0.037 A 
ATOM     43  C   UNL A   1      39.708  33.053  35.588  1.00  0.00     0.037 A 
ATOM     44  C   UNL A   1      41.397  28.671  31.052  1.00  0.00     0.049 A 
ATOM     45  C   UNL A   1      40.753  31.971  35.535  1.00  0.00     0.074 A 
ATOM     46  C   UNL A   1      42.443  27.765  31.093  1.00  0.00     0.029 A 
ATOM     47  N   UNL A   1      41.419  29.362  32.255  1.00  0.00    -0.354 N 
ATOM     48  N   UNL A   1      41.034  31.137  34.562  1.00  0.00    -0.248 NA
ATOM     49  C   UNL A   1      41.597  31.803  36.727  1.00  0.00     0.031 C 
ATOM     50  C   UNL A   1      43.060  27.867  32.343  1.00  0.00     0.029 A 
ATOM     51  C   UNL A   1      42.445  28.886  33.053  1.00  0.00     0.049 A 
ATOM     52  H   UNL A   1      40.796  30.083  32.503  1.00  0.00     0.167 HD
ATOM     53  C   UNL A   1      42.109  30.380  35.005  1.00  0.00     0.074 A 
ATOM     54  C   UNL A   1      42.433  30.853  36.334  1.00  0.00     0.031 C 
ATOM     55  C   UNL A   1      42.773  29.386  34.365  1.00  0.00     0.037 A 
BRANCH  42  56
ATOM     56  C   UNL A   1      40.512  28.016  28.780  1.00  0.00     0.064 A 
ATOM     57  C   UNL A   1      39.816  26.800  28.704  1.00  0.00     0.173 A 
ATOM     58  C   UNL A   1      41.254  28.415  27.657  1.00  0.00     0.173 A 
ATOM     59  F   UNL A   1      39.098  26.366  29.752  1.00  0.00    -0.203 F 
ATOM     60  C   UNL A   1      39.888  26.000  27.566  1.00  0.00     0.198 A 
ATOM     61  C   UNL A   1      41.296  27.629  26.508  1.00  0.00     0.198 A 
ATOM     62  F   UNL A   1      41.934  29.571  27.671  1.00  0.00    -0.203 F 
ATOM     63  F   UNL A   1      39.260  24.816  27.541  1.00  0.00    -0.200 F 
ATOM     64  C   UNL A   1      40.621  26.419  26.466  1.00  0.00     0.200 A 
ATOM     65  F   UNL A   1      41.991  28.044  25.439  1.00  0.00    -0.200 F 
ATOM     66  F   UNL A   1      40.683  25.653  25.369  1.00  0.00    -0.200 F 
ENDBRANCH  42  56
BRANCH  43  67
ATOM     67  C   UNL A   1      39.550  33.901  36.801  1.00  0.00     0.064 A 
ATOM     68  C   UNL A   1      38.774  33.468  37.886  1.00  0.00     0.173 A 
ATOM     69  C   UNL A   1      40.158  35.161  36.898  1.00  0.00     0.173 A 
ATOM     70  F   UNL A   1      38.155  32.279  37.834  1.00  0.00    -0.203 F 
ATOM     71  C   UNL A   1      38.590  34.274  39.007  1.00  0.00     0.198 A 
ATOM     72  C   UNL A   1      40.001  35.953  38.035  1.00  0.00     0.198 A 
ATOM     73  F   UNL A   1      40.916  35.621  35.891  1.00  0.00    -0.203 F 
ATOM     74  F   UNL A   1      37.800  33.858  40.006  1.00  0.00    -0.200 F 
ATOM     75  C   UNL A   1      39.209  35.513  39.084  1.00  0.00     0.200 A 
ATOM     76  F   UNL A   1      40.613  37.142  38.110  1.00  0.00    -0.200 F 
ATOM     77  F   UNL A   1      39.034  36.286  40.163  1.00  0.00    -0.200 F 
ENDBRANCH  43  67
BRANCH  55  78
ATOM     78  C   UNL A   1      43.961  28.781  35.057  1.00  0.00     0.064 A 
ATOM     79  C   UNL A   1      45.249  29.320  34.930  1.00  0.00     0.173 A 
ATOM     80  C   UNL A   1      43.789  27.684  35.916  1.00  0.00     0.173 A 
ATOM     81  F   UNL A   1      45.469  30.360  34.112  1.00  0.00    -0.203 F 
ATOM     82  C   UNL A   1      46.325  28.770  35.624  1.00  0.00     0.198 A 
ATOM     83  C   UNL A   1      44.860  27.158  36.632  1.00  0.00     0.198 A 
ATOM     84  F   UNL A   1      42.575  27.135  36.078  1.00  0.00    -0.203 F 
ATOM     85  F   UNL A   1      47.555  29.274  35.456  1.00  0.00    -0.200 F 
ATOM     86  C   UNL A   1      46.128  27.698  36.482  1.00  0.00     0.200 A 
ATOM     87  F   UNL A   1      44.662  26.135  37.475  1.00  0.00    -0.200 F 
ATOM     88  F   UNL A   1      47.161  27.182  37.161  1.00  0.00    -0.200 F 
ENDBRANCH  55  78
ENDBRANCH  29  30
ENDBRANCH  21  24
ENDBRANCH  19  20
ENDBRANCH  18  19
ENDBRANCH  17  18
ENDBRANCH  16  17
ENDBRANCH   1  16
TORSDOF 18
ENDMDL
MODEL 2
REMARK VINA RESULT:     -10.4      6.418     11.692
REMARK SMILES C=CCCCOC(F)(F)C(=O)NCCCCCCNC(=O)c1ccc(-c2c3nc(c(-c4c(F)c(F)c(F)c(F)c4F)c4ccc([nH]4)c(-c4c(F)c(F)c(F)c(F)c4F)c4nc(c(-c5c(F)c(F)c(F)c(F)c5F)c5ccc2[nH]5)C=C4)C=C3)cc1
REMARK SMILES IDX 14 1 13 2 12 3 10 4 11 5 7 7 8 8 9 9 6 10 5 11 4 12 3 13
REMARK SMILES IDX 2 14 1 15 15 16 16 17 17 18 18 19 19 20 20 21 21 23 22 24
REMARK SMILES IDX 23 25 84 26 24 27 83 28 25 29 26 30 27 31 77 32 28 33 82 34
REMARK SMILES IDX 76 35 78 36 29 37 81 38 75 39 74 40 30 42 62 43 42 44 61 45
REMARK SMILES IDX 43 46 46 47 60 48 79 49 44 50 45 51 59 53 80 54 47 55 31 56
REMARK SMILES IDX 32 57 40 58 33 59 34 60 38 61 41 62 35 63 36 64 39 65 37 66
REMARK SMILES IDX 63 67 64 68 72 69 65 70 66 71 70 72 73 73 67 74 68 75 71 76
REMARK SMILES IDX 69 77 48 78 49 79 57 80 50 81 51 82 55 83 58 84 52 85 53 86
REMARK SMILES IDX 56 87 54 88
REMARK H PARENT 12 6 19 22 78 41 46 52
REMARK Flexibility Score: inf
ROOT
ATOM      1  C   UNL A   1      36.388  23.208  25.032  1.00  0.00     0.021 C 
ENDROOT
BRANCH   1   2
ATOM      2  C   UNL A   1      34.897  23.458  24.831  1.00  0.00     0.116 C 
BRANCH   2   3
ATOM      3  N   UNL A   1      34.565  23.800  23.454  1.00  0.00    -0.349 N 
ATOM      4  C   UNL A   1      33.617  23.182  22.651  1.00  0.00     0.320 C 
ATOM      5  O   UNL A   1      33.434  23.610  21.510  1.00  0.00    -0.265 OA
ATOM      6  H   UNL A   1      35.065  24.546  23.052  1.00  0.00     0.163 HD
BRANCH   4   7
ATOM      7  C   UNL A   1      32.855  21.966  23.283  1.00  0.00     0.436 C 
ATOM      8  F   UNL A   1      32.106  21.377  22.302  1.00  0.00    -0.165 F 
ATOM      9  F   UNL A   1      31.978  22.471  24.199  1.00  0.00    -0.165 F 
BRANCH   7  10
ATOM     10  O   UNL A   1      33.542  20.936  23.948  1.00  0.00    -0.313 OA
BRANCH  10  11
ATOM     11  C   UNL A   1      32.723  20.190  24.852  1.00  0.00     0.168 C 
BRANCH  11  12
ATOM     12  C   UNL A   1      33.097  18.709  25.045  1.00  0.00     0.033 C 
BRANCH  12  13
ATOM     13  C   UNL A   1      34.187  18.070  24.159  1.00  0.00     0.029 C 
BRANCH  13  14
ATOM     14  C   UNL A   1      34.359  16.580  24.250  1.00  0.00    -0.035 C 
ATOM     15  C   UNL A   1      34.999  15.975  25.259  1.00  0.00     0.004 C 
ENDBRANCH  13  14
ENDBRANCH  12  13
ENDBRANCH  11  12
ENDBRANCH  10  11
ENDBRANCH   7  10
ENDBRANCH   4   7
ENDBRANCH   2   3
ENDBRANCH   1   2
BRANCH   1  16
ATOM     16  C   UNL A   1      36.920  21.986  24.282  1.00  0.00     0.002 C 
BRANCH  16  17
ATOM     17  C   UNL A   1      36.782  20.659  25.034  1.00  0.00     0.002 C 
BRANCH  17  18
ATOM     18  C   UNL A   1      37.994  19.731  24.937  1.00  0.00     0.021 C 
BRANCH  18  19
ATOM     19  C   UNL A   1      39.204  20.190  25.741  1.00  0.00     0.116 C 
BRANCH  19  20
ATOM     20  N   UNL A   1      40.202  19.141  25.880  1.00  0.00    -0.352 N 
ATOM     21  C   UNL A   1      41.556  19.248  26.091  1.00  0.00     0.251 C 
ATOM     22  H   UNL A   1      39.859  18.221  25.813  1.00  0.00     0.163 HD
ATOM     23  O   UNL A   1      42.279  18.265  25.995  1.00  0.00    -0.269 OA
BRANCH  21  24
ATOM     24  C   UNL A   1      42.138  20.566  26.418  1.00  0.00     0.039 A 
ATOM     25  C   UNL A   1      42.552  21.403  25.379  1.00  0.00     0.014 A 
ATOM     26  C   UNL A   1      42.274  20.972  27.747  1.00  0.00     0.014 A 
ATOM     27  C   UNL A   1      43.049  22.675  25.672  1.00  0.00     0.010 A 
ATOM     28  C   UNL A   1      42.692  22.266  28.034  1.00  0.00     0.010 A 
ATOM     29  C   UNL A   1      43.093  23.128  27.000  1.00  0.00    -0.014 A 
BRANCH  29  30
ATOM     30  C   UNL A   1      43.577  24.489  27.344  1.00  0.00     0.031 A 
ATOM     31  C   UNL A   1      42.609  25.512  27.871  1.00  0.00     0.074 A 
ATOM     32  C   UNL A   1      44.859  24.828  27.110  1.00  0.00     0.049 A 
ATOM     33  N   UNL A   1      42.794  26.784  28.111  1.00  0.00    -0.248 NA
ATOM     34  C   UNL A   1      41.237  25.045  28.133  1.00  0.00     0.031 C 
ATOM     35  C   UNL A   1      45.887  23.935  26.573  1.00  0.00     0.029 A 
ATOM     36  N   UNL A   1      45.512  26.024  27.275  1.00  0.00    -0.354 N 
ATOM     37  C   UNL A   1      41.564  27.272  28.530  1.00  0.00     0.074 A 
ATOM     38  C   UNL A   1      40.625  26.173  28.459  1.00  0.00     0.031 C 
ATOM     39  C   UNL A   1      47.043  24.610  26.467  1.00  0.00     0.029 A 
ATOM     40  C   UNL A   1      46.828  25.993  26.882  1.00  0.00     0.049 A 
ATOM     41  H   UNL A   1      45.078  26.829  27.641  1.00  0.00     0.167 HD
ATOM     42  C   UNL A   1      41.250  28.518  28.957  1.00  0.00     0.037 A 
ATOM     43  C   UNL A   1      47.750  26.974  26.842  1.00  0.00     0.037 A 
ATOM     44  C   UNL A   1      42.194  29.600  29.048  1.00  0.00     0.049 A 
ATOM     45  C   UNL A   1      47.370  28.358  27.298  1.00  0.00     0.074 A 
ATOM     46  C   UNL A   1      41.988  30.887  29.514  1.00  0.00     0.029 A 
ATOM     47  N   UNL A   1      43.523  29.523  28.660  1.00  0.00    -0.354 N 
ATOM     48  N   UNL A   1      46.218  28.796  27.745  1.00  0.00    -0.248 NA
ATOM     49  C   UNL A   1      48.420  29.385  27.251  1.00  0.00     0.031 C 
ATOM     50  C   UNL A   1      43.177  31.604  29.355  1.00  0.00     0.029 A 
ATOM     51  C   UNL A   1      44.143  30.745  28.856  1.00  0.00     0.049 A 
ATOM     52  H   UNL A   1      43.961  28.718  28.299  1.00  0.00     0.167 HD
ATOM     53  C   UNL A   1      46.415  30.130  28.072  1.00  0.00     0.074 A 
ATOM     54  C   UNL A   1      47.799  30.432  27.774  1.00  0.00     0.031 C 
ATOM     55  C   UNL A   1      45.531  31.024  28.579  1.00  0.00     0.037 A 
BRANCH  42  56
ATOM     56  C   UNL A   1      39.825  28.779  29.356  1.00  0.00     0.064 A 
ATOM     57  C   UNL A   1      38.874  29.251  28.438  1.00  0.00     0.173 A 
ATOM     58  C   UNL A   1      39.395  28.520  30.667  1.00  0.00     0.173 A 
ATOM     59  F   UNL A   1      39.233  29.524  27.174  1.00  0.00    -0.203 F 
ATOM     60  C   UNL A   1      37.557  29.485  28.825  1.00  0.00     0.198 A 
ATOM     61  C   UNL A   1      38.070  28.723  31.042  1.00  0.00     0.198 A 
ATOM     62  F   UNL A   1      40.261  28.062  31.585  1.00  0.00    -0.203 F 
ATOM     63  F   UNL A   1      36.682  29.990  27.945  1.00  0.00    -0.200 F 
ATOM     64  C   UNL A   1      37.155  29.213  30.124  1.00  0.00     0.200 A 
ATOM     65  F   UNL A   1      37.678  28.443  32.292  1.00  0.00    -0.200 F 
ATOM     66  F   UNL A   1      35.885  29.432  30.493  1.00  0.00    -0.200 F 
ENDBRANCH  42  56
BRANCH  43  67
ATOM     67  C   UNL A   1      49.129  26.681  26.367  1.00  0.00     0.064 A 
ATOM     68  C   UNL A   1      50.100  26.174  27.243  1.00  0.00     0.173 A 
ATOM     69  C   UNL A   1      49.511  26.913  25.037  1.00  0.00     0.173 A 
ATOM     70  F   UNL A   1      49.791  25.954  28.529  1.00  0.00    -0.203 F 
ATOM     71  C   UNL A   1      51.404  25.935  26.813  1.00  0.00     0.198 A 
ATOM     72  C   UNL A   1      50.806  26.643  24.600  1.00  0.00     0.198 A 
ATOM     73  F   UNL A   1      48.619  27.393  24.156  1.00  0.00    -0.203 F 
ATOM     74  F   UNL A   1      52.325  25.501  27.684  1.00  0.00    -0.200 F 
ATOM     75  C   UNL A   1      51.754  26.164  25.491  1.00  0.00     0.200 A 
ATOM     76  F   UNL A   1      51.135  26.851  23.319  1.00  0.00    -0.200 F 
ATOM     77  F   UNL A   1      53.007  25.932  25.078  1.00  0.00    -0.200 F 
ENDBRANCH  43  67
BRANCH  55  78
ATOM     78  C   UNL A   1      46.039  32.398  28.912  1.00  0.00     0.064 A 
ATOM     79  C   UNL A   1      46.583  32.705  30.167  1.00  0.00     0.173 A 
ATOM     80  C   UNL A   1      46.040  33.401  27.930  1.00  0.00     0.173 A 
ATOM     81  F   UNL A   1      46.593  31.785  31.143  1.00  0.00    -0.203 F 
ATOM     82  C   UNL A   1      47.094  33.974  30.432  1.00  0.00     0.198 A 
ATOM     83  C   UNL A   1      46.582  34.657  28.189  1.00  0.00     0.198 A 
ATOM     84  F   UNL A   1      45.538  33.156  26.710  1.00  0.00    -0.203 F 
ATOM     85  F   UNL A   1      47.571  34.259  31.652  1.00  0.00    -0.200 F 
ATOM     86  C   UNL A   1      47.104  34.944  29.441  1.00  0.00     0.200 A 
ATOM     87  F   UNL A   1      46.607  35.586  27.223  1.00  0.00    -0.200 F 
ATOM     88  F   UNL A   1      47.611  36.158  29.693  1.00  0.00    -0.200 F 
ENDBRANCH  55  78
ENDBRANCH  29  30
ENDBRANCH  21  24
ENDBRANCH  19  20
ENDBRANCH  18  19
ENDBRANCH  17  18
ENDBRANCH  16  17
ENDBRANCH   1  16
TORSDOF 18
ENDMDL
MODEL 3
REMARK VINA RESULT:     -10.4      1.935      7.932
REMARK SMILES C=CCCCOC(F)(F)C(=O)NCCCCCCNC(=O)c1ccc(-c2c3nc(c(-c4c(F)c(F)c(F)c(F)c4F)c4ccc([nH]4)c(-c4c(F)c(F)c(F)c(F)c4F)c4nc(c(-c5c(F)c(F)c(F)c(F)c5F)c5ccc2[nH]5)C=C4)C=C3)cc1
REMARK SMILES IDX 14 1 13 2 12 3 10 4 11 5 7 7 8 8 9 9 6 10 5 11 4 12 3 13
REMARK SMILES IDX 2 14 1 15 15 16 16 17 17 18 18 19 19 20 20 21 21 23 22 24
REMARK SMILES IDX 23 25 84 26 24 27 83 28 25 29 26 30 27 31 77 32 28 33 82 34
REMARK SMILES IDX 76 35 78 36 29 37 81 38 75 39 74 40 30 42 62 43 42 44 61 45
REMARK SMILES IDX 43 46 46 47 60 48 79 49 44 50 45 51 59 53 80 54 47 55 31 56
REMARK SMILES IDX 32 57 40 58 33 59 34 60 38 61 41 62 35 63 36 64 39 65 37 66
REMARK SMILES IDX 63 67 64 68 72 69 65 70 66 71 70 72 73 73 67 74 68 75 71 76
REMARK SMILES IDX 69 77 48 78 49 79 57 80 50 81 51 82 55 83 58 84 52 85 53 86
REMARK SMILES IDX 56 87 54 88
REMARK H PARENT 12 6 19 22 78 41 46 52
REMARK Flexibility Score: inf
ROOT
ATOM      1  C   UNL A   1      34.668  31.354  28.153  1.00  0.00     0.021 C 
ENDROOT
BRANCH   1   2
ATOM      2  C   UNL A   1      33.725  30.748  27.119  1.00  0.00     0.116 C 
BRANCH   2   3
ATOM      3  N   UNL A   1      32.906  29.673  27.666  1.00  0.00    -0.349 N 
ATOM      4  C   UNL A   1      31.964  28.917  26.983  1.00  0.00     0.320 C 
ATOM      5  O   UNL A   1      31.372  28.020  27.584  1.00  0.00    -0.265 OA
ATOM      6  H   UNL A   1      33.034  29.462  28.618  1.00  0.00     0.163 HD
BRANCH   4   7
ATOM      7  C   UNL A   1      31.733  29.289  25.476  1.00  0.00     0.436 C 
ATOM      8  F   UNL A   1      31.172  30.534  25.428  1.00  0.00    -0.165 F 
ATOM      9  F   UNL A   1      30.805  28.418  24.984  1.00  0.00    -0.165 F 
BRANCH   7  10
ATOM     10  O   UNL A   1      32.789  29.278  24.549  1.00  0.00    -0.313 OA
BRANCH  10  11
ATOM     11  C   UNL A   1      32.656  28.274  23.540  1.00  0.00     0.168 C 
BRANCH  11  12
ATOM     12  C   UNL A   1      33.594  27.059  23.662  1.00  0.00     0.033 C 
BRANCH  12  13
ATOM     13  C   UNL A   1      33.919  26.476  25.054  1.00  0.00     0.029 C 
BRANCH  13  14
ATOM     14  C   UNL A   1      34.093  24.986  25.151  1.00  0.00    -0.035 C 
ATOM     15  C   UNL A   1      33.635  24.260  26.178  1.00  0.00     0.004 C 
ENDBRANCH  13  14
ENDBRANCH  12  13
ENDBRANCH  11  12
ENDBRANCH  10  11
ENDBRANCH   7  10
ENDBRANCH   4   7
ENDBRANCH   2   3
ENDBRANCH   1   2
BRANCH   1  16
ATOM     16  C   UNL A   1      34.869  32.862  28.003  1.00  0.00     0.002 C 
BRANCH  16  17
ATOM     17  C   UNL A   1      34.447  33.691  29.221  1.00  0.00     0.002 C 
BRANCH  17  18
ATOM     18  C   UNL A   1      33.233  34.594  28.999  1.00  0.00     0.021 C 
BRANCH  18  19
ATOM     19  C   UNL A   1      33.416  36.027  29.484  1.00  0.00     0.116 C 
BRANCH  19  20
ATOM     20  N   UNL A   1      32.534  36.348  30.596  1.00  0.00    -0.352 N 
ATOM     21  C   UNL A   1      32.576  35.908  31.896  1.00  0.00     0.251 C 
ATOM     22  H   UNL A   1      31.801  36.970  30.386  1.00  0.00     0.163 HD
ATOM     23  O   UNL A   1      31.643  36.130  32.658  1.00  0.00    -0.269 OA
BRANCH  21  24
ATOM     24  C   UNL A   1      33.750  35.146  32.369  1.00  0.00     0.039 A 
ATOM     25  C   UNL A   1      33.569  33.848  32.849  1.00  0.00     0.014 A 
ATOM     26  C   UNL A   1      35.025  35.715  32.336  1.00  0.00     0.014 A 
ATOM     27  C   UNL A   1      34.679  33.095  33.243  1.00  0.00     0.010 A 
ATOM     28  C   UNL A   1      36.135  34.940  32.651  1.00  0.00     0.010 A 
ATOM     29  C   UNL A   1      35.973  33.625  33.116  1.00  0.00    -0.014 A 
BRANCH  29  30
ATOM     30  C   UNL A   1      37.177  32.839  33.488  1.00  0.00     0.031 A 
ATOM     31  C   UNL A   1      37.889  33.136  34.779  1.00  0.00     0.074 A 
ATOM     32  C   UNL A   1      37.673  31.921  32.636  1.00  0.00     0.049 A 
ATOM     33  N   UNL A   1      39.021  32.661  35.230  1.00  0.00    -0.248 NA
ATOM     34  C   UNL A   1      37.257  34.126  35.667  1.00  0.00     0.031 C 
ATOM     35  C   UNL A   1      37.090  31.565  31.342  1.00  0.00     0.029 A 
ATOM     36  N   UNL A   1      38.795  31.134  32.724  1.00  0.00    -0.354 N 
ATOM     37  C   UNL A   1      39.246  33.307  36.439  1.00  0.00     0.074 A 
ATOM     38  C   UNL A   1      38.163  34.248  36.624  1.00  0.00     0.031 C 
ATOM     39  C   UNL A   1      37.850  30.620  30.764  1.00  0.00     0.029 A 
ATOM     40  C   UNL A   1      38.998  30.339  31.622  1.00  0.00     0.049 A 
ATOM     41  H   UNL A   1      39.397  31.139  33.503  1.00  0.00     0.167 HD
ATOM     42  C   UNL A   1      40.252  33.116  37.325  1.00  0.00     0.037 A 
ATOM     43  C   UNL A   1      40.005  29.494  31.330  1.00  0.00     0.037 A 
ATOM     44  C   UNL A   1      41.314  32.161  37.145  1.00  0.00     0.049 A 
ATOM     45  C   UNL A   1      41.127  29.319  32.320  1.00  0.00     0.074 A 
ATOM     46  C   UNL A   1      42.354  31.856  38.006  1.00  0.00     0.029 A 
ATOM     47  N   UNL A   1      41.473  31.359  36.024  1.00  0.00    -0.354 N 
ATOM     48  N   UNL A   1      41.301  29.893  33.485  1.00  0.00    -0.248 NA
ATOM     49  C   UNL A   1      42.190  28.371  31.957  1.00  0.00     0.031 C 
ATOM     50  C   UNL A   1      43.173  30.911  37.382  1.00  0.00     0.029 A 
ATOM     51  C   UNL A   1      42.606  30.575  36.163  1.00  0.00     0.049 A 
ATOM     52  H   UNL A   1      40.869  31.349  35.247  1.00  0.00     0.167 HD
ATOM     53  C   UNL A   1      42.463  29.348  34.012  1.00  0.00     0.074 A 
ATOM     54  C   UNL A   1      42.953  28.394  33.040  1.00  0.00     0.031 C 
ATOM     55  C   UNL A   1      43.067  29.610  35.197  1.00  0.00     0.037 A 
BRANCH  42  56
ATOM     56  C   UNL A   1      40.255  33.960  38.567  1.00  0.00     0.064 A 
ATOM     57  C   UNL A   1      39.578  33.565  39.732  1.00  0.00     0.173 A 
ATOM     58  C   UNL A   1      40.975  35.165  38.607  1.00  0.00     0.173 A 
ATOM     59  F   UNL A   1      38.868  32.427  39.746  1.00  0.00    -0.203 F 
ATOM     60  C   UNL A   1      39.594  34.359  40.875  1.00  0.00     0.198 A 
ATOM     61  C   UNL A   1      41.016  35.939  39.764  1.00  0.00     0.198 A 
ATOM     62  F   UNL A   1      41.645  35.588  37.525  1.00  0.00    -0.203 F 
ATOM     63  F   UNL A   1      38.893  33.988  41.956  1.00  0.00    -0.200 F 
ATOM     64  C   UNL A   1      40.319  35.540  40.893  1.00  0.00     0.200 A 
ATOM     65  F   UNL A   1      41.732  37.071  39.784  1.00  0.00    -0.200 F 
ATOM     66  F   UNL A   1      40.339  36.300  41.997  1.00  0.00    -0.200 F 
ENDBRANCH  42  56
BRANCH  43  67
ATOM     67  C   UNL A   1      39.994  28.737  30.049  1.00  0.00     0.064 A 
ATOM     68  C   UNL A   1      39.410  27.465  29.970  1.00  0.00     0.173 A 
ATOM     69  C   UNL A   1      40.576  29.259  28.884  1.00  0.00     0.173 A 
ATOM     70  F   UNL A   1      38.858  26.913  31.061  1.00  0.00    -0.203 F 
ATOM     71  C   UNL A   1      39.432  26.734  28.785  1.00  0.00     0.198 A 
ATOM     72  C   UNL A   1      40.569  28.541  27.690  1.00  0.00     0.198 A 
ATOM     73  F   UNL A   1      41.144  30.475  28.904  1.00  0.00    -0.203 F 
ATOM     74  F   UNL A   1      38.914  25.499  28.752  1.00  0.00    -0.200 F 
ATOM     75  C   UNL A   1      40.006  27.275  27.643  1.00  0.00     0.200 A 
ATOM     76  F   UNL A   1      41.110  29.075  26.587  1.00  0.00    -0.200 F 
ATOM     77  F   UNL A   1      40.024  26.573  26.503  1.00  0.00    -0.200 F 
ENDBRANCH  43  67
BRANCH  55  78
ATOM     78  C   UNL A   1      44.289  28.810  35.550  1.00  0.00     0.064 A 
ATOM     79  C   UNL A   1      45.581  29.242  35.223  1.00  0.00     0.173 A 
ATOM     80  C   UNL A   1      44.160  27.624  36.291  1.00  0.00     0.173 A 
ATOM     81  F   UNL A   1      45.757  30.362  34.505  1.00  0.00    -0.203 F 
ATOM     82  C   UNL A   1      46.700  28.506  35.608  1.00  0.00     0.198 A 
ATOM     83  C   UNL A   1      45.281  26.909  36.702  1.00  0.00     0.198 A 
ATOM     84  F   UNL A   1      42.945  27.170  36.636  1.00  0.00    -0.203 F 
ATOM     85  F   UNL A   1      47.924  28.916  35.248  1.00  0.00    -0.200 F 
ATOM     86  C   UNL A   1      46.549  27.348  36.356  1.00  0.00     0.200 A 
ATOM     87  F   UNL A   1      45.133  25.800  37.440  1.00  0.00    -0.200 F 
ATOM     88  F   UNL A   1      47.628  26.651  36.740  1.00  0.00    -0.200 F 
ENDBRANCH  55  78
ENDBRANCH  29  30
ENDBRANCH  21  24
ENDBRANCH  19  20
ENDBRANCH  18  19
ENDBRANCH  17  18
ENDBRANCH  16  17
ENDBRANCH   1  16
TORSDOF 18
ENDMDL
