MODEL 1
REMARK VINA RESULT:     -12.0      0.000      0.000
REMARK SMILES CC(C)n1ccc(C[C@@H](C(=O)NCCCCCCNC(=O)c2ccc(-c3c4nc(c(-c5c(F)c(F)c(F)c(F)c5F)c5ccc([nH]5)c(-c5c(F)c(F)c(F)c(F)c5F)c5nc(c(-c6c(F)c(F)c(F)c(F)c6F)c6ccc3[nH]6)C=C5)C=C4)cc2)c2cccc(Cl)c2)n1
REMARK SMILES IDX 15 1 14 2 13 3 12 4 10 5 11 6 9 8 8 9 7 10 4 11 5 12 92 13
REMARK SMILES IDX 6 14 2 15 1 16 3 17 85 18 86 19 91 20 87 21 89 22 88 23
REMARK SMILES IDX 90 24 16 25 17 26 18 27 19 28 20 29 21 31 22 32 23 33 84 34
REMARK SMILES IDX 24 35 83 36 25 37 26 38 27 39 77 40 28 41 82 42 76 43 78 44
REMARK SMILES IDX 29 45 81 46 75 47 74 48 30 50 62 51 42 52 61 53 43 54 46 55
REMARK SMILES IDX 60 56 79 57 44 58 45 59 59 61 80 62 47 63 31 64 32 65 40 66
REMARK SMILES IDX 33 67 34 68 38 69 41 70 35 71 36 72 39 73 37 74 63 75 64 76
REMARK SMILES IDX 72 77 65 78 66 79 70 80 73 81 67 82 68 83 71 84 69 85 48 86
REMARK SMILES IDX 49 87 57 88 50 89 51 90 55 91 58 92 52 93 53 94 56 95 54 96
REMARK H PARENT 12 7 19 30 78 49 46 60
REMARK Flexibility Score: inf
ROOT
ATOM      1  C   UNL A   1      37.139  21.817  24.399  1.00  0.00     0.002 C 
ENDROOT
BRANCH   1   2
ATOM      2  C   UNL A   1      36.542  23.193  24.705  1.00  0.00     0.021 C 
BRANCH   2   3
ATOM      3  C   UNL A   1      35.875  23.362  26.078  1.00  0.00     0.116 C 
BRANCH   3   4
ATOM      4  N   UNL A   1      35.401  22.073  26.552  1.00  0.00    -0.356 N 
ATOM      5  C   UNL A   1      34.111  21.617  26.442  1.00  0.00     0.227 C 
ATOM      6  O   UNL A   1      33.592  21.191  27.477  1.00  0.00    -0.274 OA
ATOM      7  H   UNL A   1      36.056  21.481  26.987  1.00  0.00     0.163 HD
BRANCH   5   8
ATOM      8  C   UNL A   1      33.399  21.599  25.070  1.00  0.00     0.114 C 
BRANCH   8   9
ATOM      9  C   UNL A   1      31.908  21.985  25.211  1.00  0.00     0.076 C 
BRANCH   9  10
ATOM     10  C   UNL A   1      31.492  23.375  24.869  1.00  0.00     0.064 A 
ATOM     11  N   UNL A   1      31.401  25.502  24.908  1.00  0.00    -0.270 N 
ATOM     12  C   UNL A   1      30.709  25.137  23.787  1.00  0.00     0.109 A 
ATOM     13  N   UNL A   1      31.872  24.435  25.599  1.00  0.00    -0.178 NA
ATOM     14  C   UNL A   1      30.778  23.768  23.717  1.00  0.00     0.045 A 
BRANCH  11  15
ATOM     15  C   UNL A   1      31.692  26.856  25.380  1.00  0.00     0.101 C 
ATOM     16  C   UNL A   1      32.965  26.936  26.229  1.00  0.00     0.033 C 
ATOM     17  C   UNL A   1      31.793  27.860  24.230  1.00  0.00     0.033 C 
ENDBRANCH  11  15
ENDBRANCH   9  10
ENDBRANCH   8   9
BRANCH   8  18
ATOM     18  C   UNL A   1      33.424  20.202  24.367  1.00  0.00    -0.034 A 
ATOM     19  C   UNL A   1      32.450  19.904  23.390  1.00  0.00     0.004 A 
ATOM     20  C   UNL A   1      34.293  19.156  24.736  1.00  0.00     0.025 A 
ATOM     21  C   UNL A   1      32.275  18.603  22.899  1.00  0.00     0.002 A 
ATOM     22  C   UNL A   1      34.120  17.859  24.238  1.00  0.00     0.041 A 
ATOM     23  C   UNL A   1      33.099  17.573  23.339  1.00  0.00     0.020 A 
ATOM     24  Cl  UNL A   1      35.153  16.589  24.775  1.00  0.00    -0.084 Cl
ENDBRANCH   8  18
ENDBRANCH   5   8
ENDBRANCH   3   4
ENDBRANCH   2   3
ENDBRANCH   1   2
BRANCH   1  25
ATOM     25  C   UNL A   1      38.275  21.366  25.320  1.00  0.00     0.002 C 
BRANCH  25  26
ATOM     26  C   UNL A   1      38.882  19.986  25.030  1.00  0.00     0.021 C 
BRANCH  26  27
ATOM     27  C   UNL A   1      39.618  19.357  26.209  1.00  0.00     0.116 C 
BRANCH  27  28
ATOM     28  N   UNL A   1      40.944  18.878  25.845  1.00  0.00    -0.352 N 
ATOM     29  C   UNL A   1      42.102  19.599  25.719  1.00  0.00     0.251 C 
ATOM     30  H   UNL A   1      41.017  17.913  25.665  1.00  0.00     0.163 HD
ATOM     31  O   UNL A   1      43.030  19.158  25.026  1.00  0.00    -0.269 OA
BRANCH  29  32
ATOM     32  C   UNL A   1      42.274  20.883  26.422  1.00  0.00     0.039 A 
ATOM     33  C   UNL A   1      42.709  22.015  25.721  1.00  0.00     0.014 A 
ATOM     34  C   UNL A   1      42.084  20.947  27.805  1.00  0.00     0.014 A 
ATOM     35  C   UNL A   1      42.917  23.209  26.406  1.00  0.00     0.010 A 
ATOM     36  C   UNL A   1      42.209  22.146  28.472  1.00  0.00     0.010 A 
ATOM     37  C   UNL A   1      42.660  23.268  27.784  1.00  0.00    -0.014 A 
BRANCH  37  38
ATOM     38  C   UNL A   1      42.624  24.560  28.473  1.00  0.00     0.031 A 
ATOM     39  C   UNL A   1      41.400  25.339  28.128  1.00  0.00     0.074 A 
ATOM     40  C   UNL A   1      43.466  24.874  29.486  1.00  0.00     0.049 A 
ATOM     41  N   UNL A   1      41.329  26.499  27.569  1.00  0.00    -0.248 NA
ATOM     42  C   UNL A   1      40.086  24.676  28.254  1.00  0.00     0.031 C 
ATOM     43  C   UNL A   1      44.511  24.013  30.053  1.00  0.00     0.029 A 
ATOM     44  N   UNL A   1      43.505  25.964  30.315  1.00  0.00    -0.354 N 
ATOM     45  C   UNL A   1      39.970  26.812  27.506  1.00  0.00     0.074 A 
ATOM     46  C   UNL A   1      39.262  25.587  27.735  1.00  0.00     0.031 C 
ATOM     47  C   UNL A   1      44.902  24.493  31.255  1.00  0.00     0.029 A 
ATOM     48  C   UNL A   1      44.245  25.766  31.487  1.00  0.00     0.049 A 
ATOM     49  H   UNL A   1      43.050  26.811  30.106  1.00  0.00     0.167 HD
ATOM     50  C   UNL A   1      39.574  28.109  27.623  1.00  0.00     0.037 A 
ATOM     51  C   UNL A   1      44.284  26.570  32.583  1.00  0.00     0.037 A 
ATOM     52  C   UNL A   1      40.693  28.982  27.367  1.00  0.00     0.049 A 
ATOM     53  C   UNL A   1      43.783  27.897  32.163  1.00  0.00     0.074 A 
ATOM     54  C   UNL A   1      41.489  29.301  26.288  1.00  0.00     0.029 A 
ATOM     55  N   UNL A   1      41.387  29.320  28.496  1.00  0.00    -0.354 N 
ATOM     56  N   UNL A   1      44.432  28.693  31.364  1.00  0.00    -0.248 NA
ATOM     57  C   UNL A   1      42.367  28.191  32.329  1.00  0.00     0.031 C 
ATOM     58  C   UNL A   1      42.773  29.614  26.831  1.00  0.00     0.029 A 
ATOM     59  C   UNL A   1      42.699  29.560  28.223  1.00  0.00     0.049 A 
ATOM     60  H   UNL A   1      40.987  29.381  29.394  1.00  0.00     0.167 HD
ATOM     61  C   UNL A   1      43.446  29.262  30.582  1.00  0.00     0.074 A 
ATOM     62  C   UNL A   1      42.208  29.059  31.328  1.00  0.00     0.031 C 
ATOM     63  C   UNL A   1      43.698  29.536  29.268  1.00  0.00     0.037 A 
BRANCH  50  64
ATOM     64  C   UNL A   1      38.425  28.572  28.518  1.00  0.00     0.064 A 
ATOM     65  C   UNL A   1      37.589  29.611  28.047  1.00  0.00     0.173 A 
ATOM     66  C   UNL A   1      38.325  28.314  29.904  1.00  0.00     0.173 A 
ATOM     67  F   UNL A   1      37.598  29.961  26.751  1.00  0.00    -0.203 F 
ATOM     68  C   UNL A   1      36.805  30.388  28.908  1.00  0.00     0.198 A 
ATOM     69  C   UNL A   1      37.508  29.063  30.752  1.00  0.00     0.198 A 
ATOM     70  F   UNL A   1      39.081  27.406  30.529  1.00  0.00    -0.203 F 
ATOM     71  F   UNL A   1      36.139  31.448  28.428  1.00  0.00    -0.200 F 
ATOM     72  C   UNL A   1      36.775  30.121  30.262  1.00  0.00     0.200 A 
ATOM     73  F   UNL A   1      37.511  28.800  32.067  1.00  0.00    -0.200 F 
ATOM     74  F   UNL A   1      36.081  30.903  31.099  1.00  0.00    -0.200 F 
ENDBRANCH  50  64
BRANCH  51  75
ATOM     75  C   UNL A   1      44.480  26.246  34.021  1.00  0.00     0.064 A 
ATOM     76  C   UNL A   1      43.407  25.809  34.824  1.00  0.00     0.173 A 
ATOM     77  C   UNL A   1      45.767  26.060  34.557  1.00  0.00     0.173 A 
ATOM     78  F   UNL A   1      42.146  25.909  34.379  1.00  0.00    -0.203 F 
ATOM     79  C   UNL A   1      43.614  25.184  36.061  1.00  0.00     0.198 A 
ATOM     80  C   UNL A   1      45.972  25.441  35.794  1.00  0.00     0.198 A 
ATOM     81  F   UNL A   1      46.857  26.377  33.845  1.00  0.00    -0.203 F 
ATOM     82  F   UNL A   1      42.570  24.714  36.757  1.00  0.00    -0.200 F 
ATOM     83  C   UNL A   1      44.898  24.988  36.538  1.00  0.00     0.200 A 
ATOM     84  F   UNL A   1      47.222  25.222  36.226  1.00  0.00    -0.200 F 
ATOM     85  F   UNL A   1      45.103  24.325  37.684  1.00  0.00    -0.200 F 
ENDBRANCH  51  75
BRANCH  63  86
ATOM     86  C   UNL A   1      45.132  29.699  28.861  1.00  0.00     0.064 A 
ATOM     87  C   UNL A   1      45.970  28.667  28.407  1.00  0.00     0.173 A 
ATOM     88  C   UNL A   1      45.656  31.000  28.875  1.00  0.00     0.173 A 
ATOM     89  F   UNL A   1      45.517  27.412  28.276  1.00  0.00    -0.203 F 
ATOM     90  C   UNL A   1      47.290  28.926  28.039  1.00  0.00     0.198 A 
ATOM     91  C   UNL A   1      46.957  31.261  28.463  1.00  0.00     0.198 A 
ATOM     92  F   UNL A   1      44.885  32.031  29.257  1.00  0.00    -0.203 F 
ATOM     93  F   UNL A   1      48.086  27.922  27.641  1.00  0.00    -0.200 F 
ATOM     94  C   UNL A   1      47.779  30.223  28.063  1.00  0.00     0.200 A 
ATOM     95  F   UNL A   1      47.405  32.523  28.442  1.00  0.00    -0.200 F 
ATOM     96  F   UNL A   1      49.038  30.476  27.681  1.00  0.00    -0.200 F 
ENDBRANCH  63  86
ENDBRANCH  37  38
ENDBRANCH  29  32
ENDBRANCH  27  28
ENDBRANCH  26  27
ENDBRANCH  25  26
ENDBRANCH   1  25
TORSDOF 17
ENDMDL
MODEL 2
REMARK VINA RESULT:     -12.0      4.092      9.152
REMARK SMILES CC(C)n1ccc(C[C@@H](C(=O)NCCCCCCNC(=O)c2ccc(-c3c4nc(c(-c5c(F)c(F)c(F)c(F)c5F)c5ccc([nH]5)c(-c5c(F)c(F)c(F)c(F)c5F)c5nc(c(-c6c(F)c(F)c(F)c(F)c6F)c6ccc3[nH]6)C=C5)C=C4)cc2)c2cccc(Cl)c2)n1
REMARK SMILES IDX 15 1 14 2 13 3 12 4 10 5 11 6 9 8 8 9 7 10 4 11 5 12 92 13
REMARK SMILES IDX 6 14 2 15 1 16 3 17 85 18 86 19 91 20 87 21 89 22 88 23
REMARK SMILES IDX 90 24 16 25 17 26 18 27 19 28 20 29 21 31 22 32 23 33 84 34
REMARK SMILES IDX 24 35 83 36 25 37 26 38 27 39 77 40 28 41 82 42 76 43 78 44
REMARK SMILES IDX 29 45 81 46 75 47 74 48 30 50 62 51 42 52 61 53 43 54 46 55
REMARK SMILES IDX 60 56 79 57 44 58 45 59 59 61 80 62 47 63 31 64 32 65 40 66
REMARK SMILES IDX 33 67 34 68 38 69 41 70 35 71 36 72 39 73 37 74 63 75 64 76
REMARK SMILES IDX 72 77 65 78 66 79 70 80 73 81 67 82 68 83 71 84 69 85 48 86
REMARK SMILES IDX 49 87 57 88 50 89 51 90 55 91 58 92 52 93 53 94 56 95 54 96
REMARK H PARENT 12 7 19 30 78 49 46 60
REMARK Flexibility Score: inf
ROOT
ATOM      1  C   UNL A   1      34.217  32.092  28.416  1.00  0.00     0.002 C 
ENDROOT
BRANCH   1   2
ATOM      2  C   UNL A   1      33.381  31.249  27.450  1.00  0.00     0.021 C 
BRANCH   2   3
ATOM      3  C   UNL A   1      33.997  29.919  26.990  1.00  0.00     0.116 C 
BRANCH   3   4
ATOM      4  N   UNL A   1      33.366  28.819  27.698  1.00  0.00    -0.356 N 
ATOM      5  C   UNL A   1      32.301  28.088  27.234  1.00  0.00     0.227 C 
ATOM      6  O   UNL A   1      31.346  27.965  28.005  1.00  0.00    -0.274 OA
ATOM      7  H   UNL A   1      33.731  28.579  28.580  1.00  0.00     0.163 HD
BRANCH   5   8
ATOM      8  C   UNL A   1      32.352  27.424  25.839  1.00  0.00     0.114 C 
BRANCH   8   9
ATOM      9  C   UNL A   1      30.961  27.440  25.163  1.00  0.00     0.076 C 
BRANCH   9  10
ATOM     10  C   UNL A   1      30.750  28.319  23.978  1.00  0.00     0.064 A 
ATOM     11  N   UNL A   1      29.928  29.844  22.740  1.00  0.00    -0.270 N 
ATOM     12  C   UNL A   1      31.073  29.450  22.106  1.00  0.00     0.109 A 
ATOM     13  N   UNL A   1      29.699  29.147  23.880  1.00  0.00    -0.178 NA
ATOM     14  C   UNL A   1      31.644  28.487  22.899  1.00  0.00     0.045 A 
BRANCH  11  15
ATOM     15  C   UNL A   1      29.004  30.908  22.343  1.00  0.00     0.101 C 
ATOM     16  C   UNL A   1      28.045  30.487  21.226  1.00  0.00     0.033 C 
ATOM     17  C   UNL A   1      28.193  31.439  23.527  1.00  0.00     0.033 C 
ENDBRANCH  11  15
ENDBRANCH   9  10
ENDBRANCH   8   9
BRANCH   8  18
ATOM     18  C   UNL A   1      32.805  25.928  25.872  1.00  0.00    -0.034 A 
ATOM     19  C   UNL A   1      34.163  25.614  25.647  1.00  0.00     0.004 A 
ATOM     20  C   UNL A   1      31.914  24.843  25.992  1.00  0.00     0.025 A 
ATOM     21  C   UNL A   1      34.586  24.296  25.433  1.00  0.00     0.002 A 
ATOM     22  C   UNL A   1      32.342  23.526  25.784  1.00  0.00     0.041 A 
ATOM     23  C   UNL A   1      33.670  23.249  25.481  1.00  0.00     0.020 A 
ATOM     24  Cl  UNL A   1      31.206  22.233  25.860  1.00  0.00    -0.084 Cl
ENDBRANCH   8  18
ENDBRANCH   5   8
ENDBRANCH   3   4
ENDBRANCH   2   3
ENDBRANCH   1   2
BRANCH   1  25
ATOM     25  C   UNL A   1      34.262  33.593  28.120  1.00  0.00     0.002 C 
BRANCH  25  26
ATOM     26  C   UNL A   1      33.120  34.438  28.703  1.00  0.00     0.021 C 
BRANCH  26  27
ATOM     27  C   UNL A   1      33.576  35.662  29.490  1.00  0.00     0.116 C 
BRANCH  27  28
ATOM     28  N   UNL A   1      33.059  35.671  30.852  1.00  0.00    -0.352 N 
ATOM     29  C   UNL A   1      33.375  34.830  31.886  1.00  0.00     0.251 C 
ATOM     30  H   UNL A   1      32.397  36.372  31.055  1.00  0.00     0.163 HD
ATOM     31  O   UNL A   1      32.586  34.693  32.832  1.00  0.00    -0.269 OA
BRANCH  29  32
ATOM     32  C   UNL A   1      34.658  34.104  31.905  1.00  0.00     0.039 A 
ATOM     33  C   UNL A   1      34.677  32.708  31.795  1.00  0.00     0.014 A 
ATOM     34  C   UNL A   1      35.847  34.805  32.120  1.00  0.00     0.014 A 
ATOM     35  C   UNL A   1      35.891  32.029  31.867  1.00  0.00     0.010 A 
ATOM     36  C   UNL A   1      37.057  34.146  32.109  1.00  0.00     0.010 A 
ATOM     37  C   UNL A   1      37.080  32.758  32.019  1.00  0.00    -0.014 A 
BRANCH  37  38
ATOM     38  C   UNL A   1      38.376  32.099  31.842  1.00  0.00     0.031 A 
ATOM     39  C   UNL A   1      39.063  31.866  33.146  1.00  0.00     0.074 A 
ATOM     40  C   UNL A   1      38.762  31.545  30.669  1.00  0.00     0.049 A 
ATOM     41  N   UNL A   1      40.208  32.318  33.531  1.00  0.00    -0.248 NA
ATOM     42  C   UNL A   1      38.312  31.195  34.226  1.00  0.00     0.031 C 
ATOM     43  C   UNL A   1      37.984  31.502  29.425  1.00  0.00     0.029 A 
ATOM     44  N   UNL A   1      39.863  30.795  30.350  1.00  0.00    -0.354 N 
ATOM     45  C   UNL A   1      40.424  31.781  34.801  1.00  0.00     0.074 A 
ATOM     46  C   UNL A   1      39.156  31.290  35.254  1.00  0.00     0.031 C 
ATOM     47  C   UNL A   1      38.507  30.580  28.586  1.00  0.00     0.029 A 
ATOM     48  C   UNL A   1      39.734  30.064  29.163  1.00  0.00     0.049 A 
ATOM     49  H   UNL A   1      40.674  30.772  30.907  1.00  0.00     0.167 HD
ATOM     50  C   UNL A   1      41.692  31.482  35.196  1.00  0.00     0.037 A 
ATOM     51  C   UNL A   1      40.554  29.079  28.709  1.00  0.00     0.037 A 
ATOM     52  C   UNL A   1      42.637  32.182  34.361  1.00  0.00     0.049 A 
ATOM     53  C   UNL A   1      41.836  29.217  29.432  1.00  0.00     0.074 A 
ATOM     54  C   UNL A   1      42.995  33.493  34.135  1.00  0.00     0.029 A 
ATOM     55  N   UNL A   1      43.038  31.459  33.272  1.00  0.00    -0.354 N 
ATOM     56  N   UNL A   1      42.665  30.204  29.249  1.00  0.00    -0.248 NA
ATOM     57  C   UNL A   1      42.033  28.449  30.653  1.00  0.00     0.031 C 
ATOM     58  C   UNL A   1      43.405  33.554  32.768  1.00  0.00     0.029 A 
ATOM     59  C   UNL A   1      43.365  32.268  32.227  1.00  0.00     0.049 A 
ATOM     60  H   UNL A   1      43.084  30.475  33.246  1.00  0.00     0.167 HD
ATOM     61  C   UNL A   1      43.153  30.471  30.514  1.00  0.00     0.074 A 
ATOM     62  C   UNL A   1      42.875  29.266  31.289  1.00  0.00     0.031 C 
ATOM     63  C   UNL A   1      43.426  31.760  30.875  1.00  0.00     0.037 A 
BRANCH  50  64
ATOM     64  C   UNL A   1      42.087  30.169  35.873  1.00  0.00     0.064 A 
ATOM     65  C   UNL A   1      43.121  30.200  36.836  1.00  0.00     0.173 A 
ATOM     66  C   UNL A   1      41.768  28.881  35.386  1.00  0.00     0.173 A 
ATOM     67  F   UNL A   1      43.525  31.364  37.368  1.00  0.00    -0.203 F 
ATOM     68  C   UNL A   1      43.841  29.055  37.197  1.00  0.00     0.198 A 
ATOM     69  C   UNL A   1      42.459  27.735  35.782  1.00  0.00     0.198 A 
ATOM     70  F   UNL A   1      40.855  28.671  34.433  1.00  0.00    -0.203 F 
ATOM     71  F   UNL A   1      44.902  29.162  38.009  1.00  0.00    -0.200 F 
ATOM     72  C   UNL A   1      43.517  27.825  36.660  1.00  0.00     0.200 A 
ATOM     73  F   UNL A   1      42.142  26.554  35.231  1.00  0.00    -0.200 F 
ATOM     74  F   UNL A   1      44.245  26.738  36.949  1.00  0.00    -0.200 F 
ENDBRANCH  50  64
BRANCH  51  75
ATOM     75  C   UNL A   1      40.264  27.873  27.887  1.00  0.00     0.064 A 
ATOM     76  C   UNL A   1      40.977  27.609  26.701  1.00  0.00     0.173 A 
ATOM     77  C   UNL A   1      39.508  26.805  28.403  1.00  0.00     0.173 A 
ATOM     78  F   UNL A   1      41.757  28.554  26.156  1.00  0.00    -0.203 F 
ATOM     79  C   UNL A   1      40.969  26.344  26.097  1.00  0.00     0.198 A 
ATOM     80  C   UNL A   1      39.496  25.545  27.798  1.00  0.00     0.198 A 
ATOM     81  F   UNL A   1      38.849  26.930  29.564  1.00  0.00    -0.203 F 
ATOM     82  F   UNL A   1      41.723  26.114  25.013  1.00  0.00    -0.200 F 
ATOM     83  C   UNL A   1      40.240  25.309  26.655  1.00  0.00     0.200 A 
ATOM     84  F   UNL A   1      38.817  24.540  28.370  1.00  0.00    -0.200 F 
ATOM     85  F   UNL A   1      40.289  24.080  26.124  1.00  0.00    -0.200 F 
ENDBRANCH  51  75
BRANCH  63  86
ATOM     86  C   UNL A   1      43.682  32.744  29.774  1.00  0.00     0.064 A 
ATOM     87  C   UNL A   1      44.871  32.840  29.031  1.00  0.00     0.173 A 
ATOM     88  C   UNL A   1      42.625  33.592  29.416  1.00  0.00     0.173 A 
ATOM     89  F   UNL A   1      45.895  32.003  29.248  1.00  0.00    -0.203 F 
ATOM     90  C   UNL A   1      45.006  33.785  28.014  1.00  0.00     0.198 A 
ATOM     91  C   UNL A   1      42.746  34.501  28.372  1.00  0.00     0.198 A 
ATOM     92  F   UNL A   1      41.451  33.513  30.064  1.00  0.00    -0.203 F 
ATOM     93  F   UNL A   1      46.160  33.886  27.339  1.00  0.00    -0.200 F 
ATOM     94  C   UNL A   1      43.942  34.610  27.683  1.00  0.00     0.200 A 
ATOM     95  F   UNL A   1      41.697  35.259  28.027  1.00  0.00    -0.200 F 
ATOM     96  F   UNL A   1      44.061  35.498  26.687  1.00  0.00    -0.200 F 
ENDBRANCH  63  86
ENDBRANCH  37  38
ENDBRANCH  29  32
ENDBRANCH  27  28
ENDBRANCH  26  27
ENDBRANCH  25  26
ENDBRANCH   1  25
TORSDOF 17
ENDMDL
MODEL 3
REMARK VINA RESULT:     -12.0      2.941      7.573
REMARK SMILES CC(C)n1ccc(C[C@@H](C(=O)NCCCCCCNC(=O)c2ccc(-c3c4nc(c(-c5c(F)c(F)c(F)c(F)c5F)c5ccc([nH]5)c(-c5c(F)c(F)c(F)c(F)c5F)c5nc(c(-c6c(F)c(F)c(F)c(F)c6F)c6ccc3[nH]6)C=C5)C=C4)cc2)c2cccc(Cl)c2)n1
REMARK SMILES IDX 15 1 14 2 13 3 12 4 10 5 11 6 9 8 8 9 7 10 4 11 5 12 92 13
REMARK SMILES IDX 6 14 2 15 1 16 3 17 85 18 86 19 91 20 87 21 89 22 88 23
REMARK SMILES IDX 90 24 16 25 17 26 18 27 19 28 20 29 21 31 22 32 23 33 84 34
REMARK SMILES IDX 24 35 83 36 25 37 26 38 27 39 77 40 28 41 82 42 76 43 78 44
REMARK SMILES IDX 29 45 81 46 75 47 74 48 30 50 62 51 42 52 61 53 43 54 46 55
REMARK SMILES IDX 60 56 79 57 44 58 45 59 59 61 80 62 47 63 31 64 32 65 40 66
REMARK SMILES IDX 33 67 34 68 38 69 41 70 35 71 36 72 39 73 37 74 63 75 64 76
REMARK SMILES IDX 72 77 65 78 66 79 70 80 73 81 67 82 68 83 71 84 69 85 48 86
REMARK SMILES IDX 49 87 57 88 50 89 51 90 55 91 58 92 52 93 53 94 56 95 54 96
REMARK H PARENT 12 7 19 30 78 49 46 60
REMARK Flexibility Score: inf
ROOT
ATOM      1  C   UNL A   1      34.005  21.193  25.006  1.00  0.00     0.002 C 
ENDROOT
BRANCH   1   2
ATOM      2  C   UNL A   1      33.542  22.059  23.832  1.00  0.00     0.021 C 
BRANCH   2   3
ATOM      3  C   UNL A   1      32.907  23.412  24.186  1.00  0.00     0.116 C 
BRANCH   3   4
ATOM      4  N   UNL A   1      33.780  24.489  23.751  1.00  0.00    -0.356 N 
ATOM      5  C   UNL A   1      33.374  25.606  23.063  1.00  0.00     0.227 C 
ATOM      6  O   UNL A   1      34.004  25.874  22.038  1.00  0.00    -0.274 OA
ATOM      7  H   UNL A   1      34.737  24.412  23.966  1.00  0.00     0.163 HD
BRANCH   5   8
ATOM      8  C   UNL A   1      32.224  26.487  23.604  1.00  0.00     0.114 C 
BRANCH   8   9
ATOM      9  C   UNL A   1      31.978  27.707  22.686  1.00  0.00     0.076 C 
BRANCH   9  10
ATOM     10  C   UNL A   1      30.665  28.408  22.761  1.00  0.00     0.064 A 
ATOM     11  N   UNL A   1      29.199  29.935  22.542  1.00  0.00    -0.270 N 
ATOM     12  C   UNL A   1      28.497  28.817  22.894  1.00  0.00     0.109 A 
ATOM     13  N   UNL A   1      30.534  29.712  22.475  1.00  0.00    -0.178 NA
ATOM     14  C   UNL A   1      29.415  27.804  23.012  1.00  0.00     0.045 A 
BRANCH  11  15
ATOM     15  C   UNL A   1      28.669  31.260  22.213  1.00  0.00     0.101 C 
ATOM     16  C   UNL A   1      27.996  31.315  20.839  1.00  0.00     0.033 C 
ATOM     17  C   UNL A   1      27.689  31.769  23.272  1.00  0.00     0.033 C 
ENDBRANCH  11  15
ENDBRANCH   9  10
ENDBRANCH   8   9
BRANCH   8  18
ATOM     18  C   UNL A   1      32.493  27.062  25.033  1.00  0.00    -0.034 A 
ATOM     19  C   UNL A   1      31.462  27.022  25.997  1.00  0.00     0.004 A 
ATOM     20  C   UNL A   1      33.673  27.740  25.395  1.00  0.00     0.025 A 
ATOM     21  C   UNL A   1      31.559  27.723  27.206  1.00  0.00     0.002 A 
ATOM     22  C   UNL A   1      33.769  28.434  26.607  1.00  0.00     0.041 A 
ATOM     23  C   UNL A   1      32.708  28.449  27.504  1.00  0.00     0.020 A 
ATOM     24  Cl  UNL A   1      35.201  29.318  26.978  1.00  0.00    -0.084 Cl
ENDBRANCH   8  18
ENDBRANCH   5   8
ENDBRANCH   3   4
ENDBRANCH   2   3
ENDBRANCH   1   2
BRANCH   1  25
ATOM     25  C   UNL A   1      35.519  21.003  25.136  1.00  0.00     0.002 C 
BRANCH  25  26
ATOM     26  C   UNL A   1      36.399  22.115  24.548  1.00  0.00     0.021 C 
BRANCH  26  27
ATOM     27  C   UNL A   1      37.422  22.693  25.520  1.00  0.00     0.116 C 
BRANCH  27  28
ATOM     28  N   UNL A   1      38.293  21.670  26.083  1.00  0.00    -0.352 N 
ATOM     29  C   UNL A   1      39.568  21.811  26.564  1.00  0.00     0.251 C 
ATOM     30  H   UNL A   1      37.917  20.760  26.122  1.00  0.00     0.163 HD
ATOM     31  O   UNL A   1      40.316  20.824  26.625  1.00  0.00    -0.269 OA
BRANCH  29  32
ATOM     32  C   UNL A   1      40.057  23.118  27.040  1.00  0.00     0.039 A 
ATOM     33  C   UNL A   1      39.482  24.300  26.559  1.00  0.00     0.014 A 
ATOM     34  C   UNL A   1      41.153  23.174  27.905  1.00  0.00     0.014 A 
ATOM     35  C   UNL A   1      39.987  25.529  26.976  1.00  0.00     0.010 A 
ATOM     36  C   UNL A   1      41.602  24.385  28.384  1.00  0.00     0.010 A 
ATOM     37  C   UNL A   1      41.047  25.563  27.894  1.00  0.00    -0.014 A 
BRANCH  37  38
ATOM     38  C   UNL A   1      41.424  26.823  28.539  1.00  0.00     0.031 A 
ATOM     39  C   UNL A   1      42.648  27.416  27.924  1.00  0.00     0.074 A 
ATOM     40  C   UNL A   1      40.610  27.479  29.398  1.00  0.00     0.049 A 
ATOM     41  N   UNL A   1      43.776  27.674  28.493  1.00  0.00    -0.248 NA
ATOM     42  C   UNL A   1      42.688  27.581  26.457  1.00  0.00     0.031 C 
ATOM     43  C   UNL A   1      39.263  27.067  29.813  1.00  0.00     0.029 A 
ATOM     44  N   UNL A   1      40.736  28.706  29.995  1.00  0.00    -0.354 N 
ATOM     45  C   UNL A   1      44.575  28.263  27.511  1.00  0.00     0.074 A 
ATOM     46  C   UNL A   1      43.944  27.982  26.255  1.00  0.00     0.031 C 
ATOM     47  C   UNL A   1      38.615  28.112  30.376  1.00  0.00     0.029 A 
ATOM     48  C   UNL A   1      39.536  29.226  30.493  1.00  0.00     0.049 A 
ATOM     49  H   UNL A   1      41.596  29.180  30.066  1.00  0.00     0.167 HD
ATOM     50  C   UNL A   1      45.480  29.216  27.864  1.00  0.00     0.037 A 
ATOM     51  C   UNL A   1      39.307  30.493  30.933  1.00  0.00     0.037 A 
ATOM     52  C   UNL A   1      45.737  29.137  29.281  1.00  0.00     0.049 A 
ATOM     53  C   UNL A   1      40.626  31.094  31.224  1.00  0.00     0.074 A 
ATOM     54  C   UNL A   1      46.320  28.236  30.145  1.00  0.00     0.029 A 
ATOM     55  N   UNL A   1      44.922  29.944  30.026  1.00  0.00    -0.354 N 
ATOM     56  N   UNL A   1      41.386  30.722  32.213  1.00  0.00    -0.248 NA
ATOM     57  C   UNL A   1      41.286  31.863  30.179  1.00  0.00     0.031 C 
ATOM     58  C   UNL A   1      45.631  28.389  31.388  1.00  0.00     0.029 A 
ATOM     59  C   UNL A   1      44.712  29.431  31.269  1.00  0.00     0.049 A 
ATOM     60  H   UNL A   1      44.535  30.790  29.702  1.00  0.00     0.167 HD
ATOM     61  C   UNL A   1      42.666  30.788  31.697  1.00  0.00     0.074 A 
ATOM     62  C   UNL A   1      42.557  31.653  30.526  1.00  0.00     0.031 C 
ATOM     63  C   UNL A   1      43.599  29.868  32.082  1.00  0.00     0.037 A 
BRANCH  50  64
ATOM     64  C   UNL A   1      45.657  30.540  27.121  1.00  0.00     0.064 A 
ATOM     65  C   UNL A   1      46.971  31.023  26.922  1.00  0.00     0.173 A 
ATOM     66  C   UNL A   1      44.637  31.498  26.921  1.00  0.00     0.173 A 
ATOM     67  F   UNL A   1      48.029  30.215  27.092  1.00  0.00    -0.203 F 
ATOM     68  C   UNL A   1      47.240  32.370  26.653  1.00  0.00     0.198 A 
ATOM     69  C   UNL A   1      44.908  32.831  26.609  1.00  0.00     0.198 A 
ATOM     70  F   UNL A   1      43.343  31.231  27.119  1.00  0.00    -0.203 F 
ATOM     71  F   UNL A   1      48.508  32.802  26.612  1.00  0.00    -0.200 F 
ATOM     72  C   UNL A   1      46.208  33.275  26.508  1.00  0.00     0.200 A 
ATOM     73  F   UNL A   1      43.891  33.697  26.495  1.00  0.00    -0.200 F 
ATOM     74  F   UNL A   1      46.460  34.577  26.319  1.00  0.00    -0.200 F 
ENDBRANCH  50  64
BRANCH  51  75
ATOM     75  C   UNL A   1      38.076  31.327  30.898  1.00  0.00     0.064 A 
ATOM     76  C   UNL A   1      37.430  31.624  29.682  1.00  0.00     0.173 A 
ATOM     77  C   UNL A   1      37.340  31.588  32.067  1.00  0.00     0.173 A 
ATOM     78  F   UNL A   1      38.039  31.372  28.513  1.00  0.00    -0.203 F 
ATOM     79  C   UNL A   1      36.115  32.107  29.639  1.00  0.00     0.198 A 
ATOM     80  C   UNL A   1      36.030  32.074  32.025  1.00  0.00     0.198 A 
ATOM     81  F   UNL A   1      37.836  31.276  33.273  1.00  0.00    -0.203 F 
ATOM     82  F   UNL A   1      35.510  32.303  28.459  1.00  0.00    -0.200 F 
ATOM     83  C   UNL A   1      35.411  32.318  30.812  1.00  0.00     0.200 A 
ATOM     84  F   UNL A   1      35.345  32.237  33.166  1.00  0.00    -0.200 F 
ATOM     85  F   UNL A   1      34.129  32.708  30.774  1.00  0.00    -0.200 F 
ENDBRANCH  51  75
BRANCH  63  86
ATOM     86  C   UNL A   1      43.378  29.169  33.390  1.00  0.00     0.064 A 
ATOM     87  C   UNL A   1      43.747  29.669  34.650  1.00  0.00     0.173 A 
ATOM     88  C   UNL A   1      42.688  27.949  33.354  1.00  0.00     0.173 A 
ATOM     89  F   UNL A   1      44.326  30.871  34.778  1.00  0.00    -0.203 F 
ATOM     90  C   UNL A   1      43.485  28.945  35.813  1.00  0.00     0.198 A 
ATOM     91  C   UNL A   1      42.387  27.252  34.517  1.00  0.00     0.198 A 
ATOM     92  F   UNL A   1      42.272  27.447  32.180  1.00  0.00    -0.203 F 
ATOM     93  F   UNL A   1      43.876  29.421  37.004  1.00  0.00    -0.200 F 
ATOM     94  C   UNL A   1      42.800  27.741  35.744  1.00  0.00     0.200 A 
ATOM     95  F   UNL A   1      41.682  26.116  34.446  1.00  0.00    -0.200 F 
ATOM     96  F   UNL A   1      42.522  27.059  36.864  1.00  0.00    -0.200 F 
ENDBRANCH  63  86
ENDBRANCH  37  38
ENDBRANCH  29  32
ENDBRANCH  27  28
ENDBRANCH  26  27
ENDBRANCH  25  26
ENDBRANCH   1  25
TORSDOF 17
ENDMDL
