MODEL 1
REMARK VINA RESULT:     -12.4      0.000      0.000
REMARK SMILES CC(C)(CC(=O)NCCCCCCNC(=O)c1ccc(-c2c3nc(c(-c4c(F)c(F)c(F)c(F)c4F)c4ccc([nH]4)c(-c4c(F)c(F)c(F)c(F)c4F)c4nc(c(-c5c(F)c(F)c(F)c(F)c5F)c5ccc2[nH]5)C=C4)C=C3)cc1)Cc1nc([C@@]2(C)CCCO2)no1
REMARK SMILES IDX 9 1 8 2 7 3 5 4 6 5 4 7 2 8 1 9 3 10 80 11 81 12 82 13 91 14
REMARK SMILES IDX 83 15 90 16 84 17 85 18 86 19 89 20 87 21 88 22 10 23 11 24
REMARK SMILES IDX 12 25 13 26 14 27 15 28 16 30 17 31 18 32 79 33 19 34 78 35
REMARK SMILES IDX 20 36 21 37 22 38 72 39 23 40 77 41 71 42 73 43 24 44 76 45
REMARK SMILES IDX 70 46 69 47 25 49 57 50 37 51 56 52 38 53 41 54 55 55 74 56
REMARK SMILES IDX 39 57 40 58 54 60 75 61 42 62 26 63 27 64 35 65 28 66 29 67
REMARK SMILES IDX 33 68 36 69 30 70 31 71 34 72 32 73 58 74 59 75 67 76 60 77
REMARK SMILES IDX 61 78 65 79 68 80 62 81 63 82 66 83 64 84 43 85 44 86 52 87
REMARK SMILES IDX 45 88 46 89 50 90 53 91 47 92 48 93 51 94 49 95
REMARK H PARENT 7 6 14 29 73 48 41 59
REMARK Flexibility Score: inf
ROOT
ATOM      1  C   UNL A   1      31.797  28.655  27.433  1.00  0.00     0.021 C 
ENDROOT
BRANCH   1   2
ATOM      2  C   UNL A   1      31.408  27.636  26.373  1.00  0.00     0.116 C 
BRANCH   2   3
ATOM      3  N   UNL A   1      31.287  26.312  26.944  1.00  0.00    -0.356 N 
ATOM      4  C   UNL A   1      31.057  25.122  26.338  1.00  0.00     0.220 C 
ATOM      5  O   UNL A   1      31.051  24.099  27.024  1.00  0.00    -0.275 OA
ATOM      6  H   UNL A   1      31.388  26.270  27.923  1.00  0.00     0.163 HD
BRANCH   4   7
ATOM      7  C   UNL A   1      30.857  25.035  24.841  1.00  0.00     0.107 C 
BRANCH   7   8
ATOM      8  C   UNL A   1      32.081  24.857  23.898  1.00  0.00    -0.018 C 
ATOM      9  C   UNL A   1      33.436  24.986  24.620  1.00  0.00     0.012 C 
ATOM     10  C   UNL A   1      32.023  23.357  23.463  1.00  0.00     0.012 C 
BRANCH   8  11
ATOM     11  C   UNL A   1      32.071  25.712  22.596  1.00  0.00     0.107 C 
BRANCH  11  12
ATOM     12  C   UNL A   1      31.305  27.001  22.552  1.00  0.00     0.227 A 
ATOM     13  N   UNL A   1      30.015  27.276  22.489  1.00  0.00    -0.193 NA
ATOM     14  O   UNL A   1      32.071  28.119  22.741  1.00  0.00    -0.339 OA
ATOM     15  C   UNL A   1      29.996  28.666  22.595  1.00  0.00     0.203 A 
ATOM     16  N   UNL A   1      31.211  29.205  22.771  1.00  0.00    -0.059 NA
BRANCH  15  17
ATOM     17  C   UNL A   1      28.758  29.553  22.573  1.00  0.00     0.128 C 
ATOM     18  C   UNL A   1      27.461  28.833  22.978  1.00  0.00     0.051 C 
ATOM     19  C   UNL A   1      28.931  30.817  23.433  1.00  0.00     0.046 C 
ATOM     20  O   UNL A   1      28.500  30.062  21.226  1.00  0.00    -0.367 OA
ATOM     21  C   UNL A   1      28.048  31.831  22.742  1.00  0.00     0.032 C 
ATOM     22  C   UNL A   1      28.211  31.463  21.285  1.00  0.00     0.161 C 
ENDBRANCH  15  17
ENDBRANCH  11  12
ENDBRANCH   8  11
ENDBRANCH   7   8
ENDBRANCH   4   7
ENDBRANCH   2   3
ENDBRANCH   1   2
BRANCH   1  23
ATOM     23  C   UNL A   1      32.453  29.909  26.877  1.00  0.00     0.002 C 
BRANCH  23  24
ATOM     24  C   UNL A   1      31.556  30.800  26.030  1.00  0.00     0.002 C 
BRANCH  24  25
ATOM     25  C   UNL A   1      31.348  32.198  26.611  1.00  0.00     0.021 C 
BRANCH  25  26
ATOM     26  C   UNL A   1      32.587  32.800  27.271  1.00  0.00     0.116 C 
BRANCH  26  27
ATOM     27  N   UNL A   1      32.397  34.201  27.613  1.00  0.00    -0.352 N 
ATOM     28  C   UNL A   1      32.998  34.928  28.609  1.00  0.00     0.251 C 
ATOM     29  H   UNL A   1      31.753  34.694  27.055  1.00  0.00     0.163 HD
ATOM     30  O   UNL A   1      32.575  36.034  28.930  1.00  0.00    -0.269 OA
BRANCH  28  31
ATOM     31  C   UNL A   1      34.160  34.349  29.307  1.00  0.00     0.039 A 
ATOM     32  C   UNL A   1      33.965  33.661  30.505  1.00  0.00     0.014 A 
ATOM     33  C   UNL A   1      35.436  34.453  28.746  1.00  0.00     0.014 A 
ATOM     34  C   UNL A   1      35.048  33.025  31.114  1.00  0.00     0.010 A 
ATOM     35  C   UNL A   1      36.494  33.748  29.306  1.00  0.00     0.010 A 
ATOM     36  C   UNL A   1      36.313  33.033  30.500  1.00  0.00    -0.014 A 
BRANCH  36  37
ATOM     37  C   UNL A   1      37.460  32.304  31.095  1.00  0.00     0.031 A 
ATOM     38  C   UNL A   1      37.961  32.679  32.462  1.00  0.00     0.074 A 
ATOM     39  C   UNL A   1      38.087  31.348  30.382  1.00  0.00     0.049 A 
ATOM     40  N   UNL A   1      38.982  32.204  33.129  1.00  0.00    -0.248 NA
ATOM     41  C   UNL A   1      37.234  33.750  33.161  1.00  0.00     0.031 C 
ATOM     42  C   UNL A   1      37.724  30.929  29.027  1.00  0.00     0.029 A 
ATOM     43  N   UNL A   1      39.166  30.561  30.695  1.00  0.00    -0.354 N 
ATOM     44  C   UNL A   1      39.025  32.924  34.315  1.00  0.00     0.074 A 
ATOM     45  C   UNL A   1      37.969  33.910  34.251  1.00  0.00     0.031 C 
ATOM     46  C   UNL A   1      38.548  29.945  28.636  1.00  0.00     0.029 A 
ATOM     47  C   UNL A   1      39.524  29.693  29.692  1.00  0.00     0.049 A 
ATOM     48  H   UNL A   1      39.642  30.614  31.556  1.00  0.00     0.167 HD
ATOM     49  C   UNL A   1      39.853  32.759  35.375  1.00  0.00     0.037 A 
ATOM     50  C   UNL A   1      40.530  28.800  29.630  1.00  0.00     0.037 A 
ATOM     51  C   UNL A   1      40.891  31.764  35.439  1.00  0.00     0.049 A 
ATOM     52  C   UNL A   1      41.451  28.652  30.812  1.00  0.00     0.074 A 
ATOM     53  C   UNL A   1      41.747  31.478  36.486  1.00  0.00     0.029 A 
ATOM     54  N   UNL A   1      41.219  30.897  34.406  1.00  0.00    -0.354 N 
ATOM     55  N   UNL A   1      41.436  29.287  31.958  1.00  0.00    -0.248 NA
ATOM     56  C   UNL A   1      42.526  27.657  30.693  1.00  0.00     0.031 C 
ATOM     57  C   UNL A   1      42.632  30.479  36.067  1.00  0.00     0.029 A 
ATOM     58  C   UNL A   1      42.285  30.095  34.783  1.00  0.00     0.049 A 
ATOM     59  H   UNL A   1      40.762  30.857  33.535  1.00  0.00     0.167 HD
ATOM     60  C   UNL A   1      42.473  28.748  32.707  1.00  0.00     0.074 A 
ATOM     61  C   UNL A   1      43.088  27.723  31.891  1.00  0.00     0.031 C 
ATOM     62  C   UNL A   1      42.881  29.073  33.959  1.00  0.00     0.037 A 
BRANCH  49  63
ATOM     63  C   UNL A   1      39.670  33.677  36.549  1.00  0.00     0.064 A 
ATOM     64  C   UNL A   1      40.291  34.935  36.609  1.00  0.00     0.173 A 
ATOM     65  C   UNL A   1      38.835  33.310  37.616  1.00  0.00     0.173 A 
ATOM     66  F   UNL A   1      41.108  35.331  35.622  1.00  0.00    -0.203 F 
ATOM     67  C   UNL A   1      40.109  35.774  37.706  1.00  0.00     0.198 A 
ATOM     68  C   UNL A   1      38.628  34.166  38.695  1.00  0.00     0.198 A 
ATOM     69  F   UNL A   1      38.212  32.122  37.610  1.00  0.00    -0.203 F 
ATOM     70  F   UNL A   1      40.758  36.945  37.764  1.00  0.00    -0.200 F 
ATOM     71  C   UNL A   1      39.272  35.393  38.742  1.00  0.00     0.200 A 
ATOM     72  F   UNL A   1      37.806  33.803  39.688  1.00  0.00    -0.200 F 
ATOM     73  F   UNL A   1      39.092  36.206  39.793  1.00  0.00    -0.200 F 
ENDBRANCH  49  63
BRANCH  50  74
ATOM     74  C   UNL A   1      40.711  27.964  28.413  1.00  0.00     0.064 A 
ATOM     75  C   UNL A   1      40.122  26.695  28.315  1.00  0.00     0.173 A 
ATOM     76  C   UNL A   1      41.482  28.408  27.328  1.00  0.00     0.173 A 
ATOM     77  F   UNL A   1      39.391  26.216  29.332  1.00  0.00    -0.203 F 
ATOM     78  C   UNL A   1      40.318  25.893  27.192  1.00  0.00     0.198 A 
ATOM     79  C   UNL A   1      41.651  27.619  26.192  1.00  0.00     0.198 A 
ATOM     80  F   UNL A   1      42.063  29.617  27.367  1.00  0.00    -0.203 F 
ATOM     81  F   UNL A   1      39.787  24.664  27.148  1.00  0.00    -0.200 F 
ATOM     82  C   UNL A   1      41.077  26.359  26.129  1.00  0.00     0.200 A 
ATOM     83  F   UNL A   1      42.370  28.080  25.160  1.00  0.00    -0.200 F 
ATOM     84  F   UNL A   1      41.262  25.589  25.048  1.00  0.00    -0.200 F 
ENDBRANCH  50  74
BRANCH  62  85
ATOM     85  C   UNL A   1      44.020  28.285  34.541  1.00  0.00     0.064 A 
ATOM     86  C   UNL A   1      45.342  28.751  34.497  1.00  0.00     0.173 A 
ATOM     87  C   UNL A   1      43.777  27.064  35.191  1.00  0.00     0.173 A 
ATOM     88  F   UNL A   1      45.630  29.905  33.876  1.00  0.00    -0.203 F 
ATOM     89  C   UNL A   1      46.381  28.011  35.055  1.00  0.00     0.198 A 
ATOM     90  C   UNL A   1      44.813  26.346  35.779  1.00  0.00     0.198 A 
ATOM     91  F   UNL A   1      42.530  26.576  35.270  1.00  0.00    -0.203 F 
ATOM     92  F   UNL A   1      47.643  28.451  34.953  1.00  0.00    -0.200 F 
ATOM     93  C   UNL A   1      46.115  26.815  35.703  1.00  0.00     0.200 A 
ATOM     94  F   UNL A   1      44.552  25.198  36.420  1.00  0.00    -0.200 F 
ATOM     95  F   UNL A   1      47.116  26.109  36.248  1.00  0.00    -0.200 F 
ENDBRANCH  62  85
ENDBRANCH  36  37
ENDBRANCH  28  31
ENDBRANCH  26  27
ENDBRANCH  25  26
ENDBRANCH  24  25
ENDBRANCH  23  24
ENDBRANCH   1  23
TORSDOF 17
ENDMDL
MODEL 2
REMARK VINA RESULT:     -12.4      0.567      7.339
REMARK SMILES CC(C)(CC(=O)NCCCCCCNC(=O)c1ccc(-c2c3nc(c(-c4c(F)c(F)c(F)c(F)c4F)c4ccc([nH]4)c(-c4c(F)c(F)c(F)c(F)c4F)c4nc(c(-c5c(F)c(F)c(F)c(F)c5F)c5ccc2[nH]5)C=C4)C=C3)cc1)Cc1nc([C@@]2(C)CCCO2)no1
REMARK SMILES IDX 9 1 8 2 7 3 5 4 6 5 4 7 2 8 1 9 3 10 80 11 81 12 82 13 91 14
REMARK SMILES IDX 83 15 90 16 84 17 85 18 86 19 89 20 87 21 88 22 10 23 11 24
REMARK SMILES IDX 12 25 13 26 14 27 15 28 16 30 17 31 18 32 79 33 19 34 78 35
REMARK SMILES IDX 20 36 21 37 22 38 72 39 23 40 77 41 71 42 73 43 24 44 76 45
REMARK SMILES IDX 70 46 69 47 25 49 57 50 37 51 56 52 38 53 41 54 55 55 74 56
REMARK SMILES IDX 39 57 40 58 54 60 75 61 42 62 26 63 27 64 35 65 28 66 29 67
REMARK SMILES IDX 33 68 36 69 30 70 31 71 34 72 32 73 58 74 59 75 67 76 60 77
REMARK SMILES IDX 61 78 65 79 68 80 62 81 63 82 66 83 64 84 43 85 44 86 52 87
REMARK SMILES IDX 45 88 46 89 50 90 53 91 47 92 48 93 51 94 49 95
REMARK H PARENT 7 6 14 29 73 48 41 59
REMARK Flexibility Score: inf
ROOT
ATOM      1  C   UNL A   1      33.030  28.542  26.891  1.00  0.00     0.021 C 
ENDROOT
BRANCH   1   2
ATOM      2  C   UNL A   1      31.791  27.818  26.386  1.00  0.00     0.116 C 
BRANCH   2   3
ATOM      3  N   UNL A   1      31.683  26.502  26.977  1.00  0.00    -0.356 N 
ATOM      4  C   UNL A   1      31.400  25.310  26.397  1.00  0.00     0.220 C 
ATOM      5  O   UNL A   1      31.418  24.293  27.092  1.00  0.00    -0.275 OA
ATOM      6  H   UNL A   1      31.840  26.466  27.948  1.00  0.00     0.163 HD
BRANCH   4   7
ATOM      7  C   UNL A   1      31.112  25.212  24.915  1.00  0.00     0.107 C 
BRANCH   7   8
ATOM      8  C   UNL A   1      32.278  25.020  23.903  1.00  0.00    -0.018 C 
ATOM      9  C   UNL A   1      33.673  25.124  24.547  1.00  0.00     0.012 C 
ATOM     10  C   UNL A   1      32.170  23.523  23.466  1.00  0.00     0.012 C 
BRANCH   8  11
ATOM     11  C   UNL A   1      32.208  25.881  22.607  1.00  0.00     0.107 C 
BRANCH  11  12
ATOM     12  C   UNL A   1      31.415  27.155  22.596  1.00  0.00     0.227 A 
ATOM     13  N   UNL A   1      30.132  27.412  22.417  1.00  0.00    -0.193 NA
ATOM     14  O   UNL A   1      32.124  28.263  22.970  1.00  0.00    -0.339 OA
ATOM     15  C   UNL A   1      30.063  28.785  22.645  1.00  0.00     0.203 A 
ATOM     16  N   UNL A   1      31.237  29.327  23.003  1.00  0.00    -0.059 NA
BRANCH  15  17
ATOM     17  C   UNL A   1      28.811  29.648  22.568  1.00  0.00     0.128 C 
ATOM     18  C   UNL A   1      27.516  28.915  22.957  1.00  0.00     0.051 C 
ATOM     19  C   UNL A   1      28.938  30.936  23.399  1.00  0.00     0.046 C 
ATOM     20  O   UNL A   1      28.580  30.117  21.202  1.00  0.00    -0.367 OA
ATOM     21  C   UNL A   1      28.056  31.916  22.659  1.00  0.00     0.032 C 
ATOM     22  C   UNL A   1      28.264  31.514  21.217  1.00  0.00     0.161 C 
ENDBRANCH  15  17
ENDBRANCH  11  12
ENDBRANCH   8  11
ENDBRANCH   7   8
ENDBRANCH   4   7
ENDBRANCH   2   3
ENDBRANCH   1   2
BRANCH   1  23
ATOM     23  C   UNL A   1      32.830  30.033  27.113  1.00  0.00     0.002 C 
BRANCH  23  24
ATOM     24  C   UNL A   1      31.674  30.663  26.349  1.00  0.00     0.002 C 
BRANCH  24  25
ATOM     25  C   UNL A   1      31.507  32.160  26.606  1.00  0.00     0.021 C 
BRANCH  25  26
ATOM     26  C   UNL A   1      32.641  32.795  27.408  1.00  0.00     0.116 C 
BRANCH  26  27
ATOM     27  N   UNL A   1      32.420  34.215  27.635  1.00  0.00    -0.352 N 
ATOM     28  C   UNL A   1      32.990  35.029  28.581  1.00  0.00     0.251 C 
ATOM     29  H   UNL A   1      31.777  34.650  27.030  1.00  0.00     0.163 HD
ATOM     30  O   UNL A   1      32.541  36.149  28.807  1.00  0.00    -0.269 OA
BRANCH  28  31
ATOM     31  C   UNL A   1      34.149  34.529  29.342  1.00  0.00     0.039 A 
ATOM     32  C   UNL A   1      33.955  34.014  30.624  1.00  0.00     0.014 A 
ATOM     33  C   UNL A   1      35.421  34.533  28.760  1.00  0.00     0.014 A 
ATOM     34  C   UNL A   1      35.034  33.447  31.304  1.00  0.00     0.010 A 
ATOM     35  C   UNL A   1      36.472  33.891  29.403  1.00  0.00     0.010 A 
ATOM     36  C   UNL A   1      36.292  33.348  30.684  1.00  0.00    -0.014 A 
BRANCH  36  37
ATOM     37  C   UNL A   1      37.432  32.685  31.363  1.00  0.00     0.031 A 
ATOM     38  C   UNL A   1      38.139  31.538  30.697  1.00  0.00     0.074 A 
ATOM     39  C   UNL A   1      37.792  33.075  32.601  1.00  0.00     0.049 A 
ATOM     40  N   UNL A   1      39.115  30.791  31.148  1.00  0.00    -0.248 NA
ATOM     41  C   UNL A   1      37.667  31.160  29.355  1.00  0.00     0.031 C 
ATOM     42  C   UNL A   1      37.152  34.144  33.370  1.00  0.00     0.029 A 
ATOM     43  N   UNL A   1      38.779  32.613  33.435  1.00  0.00    -0.354 N 
ATOM     44  C   UNL A   1      39.364  29.855  30.155  1.00  0.00     0.074 A 
ATOM     45  C   UNL A   1      38.396  30.083  29.104  1.00  0.00     0.031 C 
ATOM     46  C   UNL A   1      37.778  34.273  34.550  1.00  0.00     0.029 A 
ATOM     47  C   UNL A   1      38.835  33.270  34.640  1.00  0.00     0.049 A 
ATOM     48  H   UNL A   1      39.389  31.879  33.193  1.00  0.00     0.167 HD
ATOM     49  C   UNL A   1      40.330  28.906  30.109  1.00  0.00     0.037 A 
ATOM     50  C   UNL A   1      39.642  33.077  35.701  1.00  0.00     0.037 A 
ATOM     51  C   UNL A   1      41.301  28.695  31.151  1.00  0.00     0.049 A 
ATOM     52  C   UNL A   1      40.693  32.001  35.634  1.00  0.00     0.074 A 
ATOM     53  C   UNL A   1      42.354  27.799  31.178  1.00  0.00     0.029 A 
ATOM     54  N   UNL A   1      41.331  29.385  32.354  1.00  0.00    -0.354 N 
ATOM     55  N   UNL A   1      40.967  31.170  34.659  1.00  0.00    -0.248 NA
ATOM     56  C   UNL A   1      41.552  31.842  36.816  1.00  0.00     0.031 C 
ATOM     57  C   UNL A   1      42.985  27.905  32.422  1.00  0.00     0.029 A 
ATOM     58  C   UNL A   1      42.368  28.913  33.144  1.00  0.00     0.049 A 
ATOM     59  H   UNL A   1      40.708  30.103  32.610  1.00  0.00     0.167 HD
ATOM     60  C   UNL A   1      42.047  30.414  35.094  1.00  0.00     0.074 A 
ATOM     61  C   UNL A   1      42.388  30.895  36.416  1.00  0.00     0.031 C 
ATOM     62  C   UNL A   1      42.699  29.409  34.456  1.00  0.00     0.037 A 
BRANCH  49  63
ATOM     63  C   UNL A   1      40.383  28.024  28.894  1.00  0.00     0.064 A 
ATOM     64  C   UNL A   1      39.685  26.808  28.833  1.00  0.00     0.173 A 
ATOM     65  C   UNL A   1      41.113  28.417  27.762  1.00  0.00     0.173 A 
ATOM     66  F   UNL A   1      38.981  26.380  29.891  1.00  0.00    -0.203 F 
ATOM     67  C   UNL A   1      39.744  26.003  27.698  1.00  0.00     0.198 A 
ATOM     68  C   UNL A   1      41.141  27.626  26.616  1.00  0.00     0.198 A 
ATOM     69  F   UNL A   1      41.795  29.571  27.763  1.00  0.00    -0.203 F 
ATOM     70  F   UNL A   1      39.115  24.820  27.686  1.00  0.00    -0.200 F 
ATOM     71  C   UNL A   1      40.464  26.416  26.588  1.00  0.00     0.200 A 
ATOM     72  F   UNL A   1      41.825  28.034  25.538  1.00  0.00    -0.200 F 
ATOM     73  F   UNL A   1      40.513  25.644  25.494  1.00  0.00    -0.200 F 
ENDBRANCH  49  63
BRANCH  50  74
ATOM     74  C   UNL A   1      39.502  33.933  36.909  1.00  0.00     0.064 A 
ATOM     75  C   UNL A   1      38.761  33.500  38.019  1.00  0.00     0.173 A 
ATOM     76  C   UNL A   1      40.094  35.203  36.980  1.00  0.00     0.173 A 
ATOM     77  F   UNL A   1      38.159  32.301  37.994  1.00  0.00    -0.203 F 
ATOM     78  C   UNL A   1      38.596  34.313  39.138  1.00  0.00     0.198 A 
ATOM     79  C   UNL A   1      39.956  36.001  38.112  1.00  0.00     0.198 A 
ATOM     80  F   UNL A   1      40.819  35.664  35.949  1.00  0.00    -0.203 F 
ATOM     81  F   UNL A   1      37.839  33.894  40.161  1.00  0.00    -0.200 F 
ATOM     82  C   UNL A   1      39.199  35.560  39.187  1.00  0.00     0.200 A 
ATOM     83  F   UNL A   1      40.555  37.199  38.163  1.00  0.00    -0.200 F 
ATOM     84  F   UNL A   1      39.043  36.339  40.265  1.00  0.00    -0.200 F 
ENDBRANCH  50  74
BRANCH  62  85
ATOM     85  C   UNL A   1      43.873  28.790  35.161  1.00  0.00     0.064 A 
ATOM     86  C   UNL A   1      43.728  27.681  36.007  1.00  0.00     0.173 A 
ATOM     87  C   UNL A   1      45.168  29.290  34.951  1.00  0.00     0.173 A 
ATOM     88  F   UNL A   1      42.511  27.174  36.252  1.00  0.00    -0.203 F 
ATOM     89  C   UNL A   1      44.831  27.114  36.638  1.00  0.00     0.198 A 
ATOM     90  C   UNL A   1      46.272  28.699  35.555  1.00  0.00     0.198 A 
ATOM     91  F   UNL A   1      45.364  30.345  34.144  1.00  0.00    -0.203 F 
ATOM     92  F   UNL A   1      44.662  26.089  37.485  1.00  0.00    -0.200 F 
ATOM     93  C   UNL A   1      46.103  27.617  36.406  1.00  0.00     0.200 A 
ATOM     94  F   UNL A   1      47.502  29.174  35.315  1.00  0.00    -0.200 F 
ATOM     95  F   UNL A   1      47.165  27.063  37.007  1.00  0.00    -0.200 F 
ENDBRANCH  62  85
ENDBRANCH  36  37
ENDBRANCH  28  31
ENDBRANCH  26  27
ENDBRANCH  25  26
ENDBRANCH  24  25
ENDBRANCH  23  24
ENDBRANCH   1  23
TORSDOF 17
ENDMDL
MODEL 3
REMARK VINA RESULT:     -12.4      2.019      8.381
REMARK SMILES CC(C)(CC(=O)NCCCCCCNC(=O)c1ccc(-c2c3nc(c(-c4c(F)c(F)c(F)c(F)c4F)c4ccc([nH]4)c(-c4c(F)c(F)c(F)c(F)c4F)c4nc(c(-c5c(F)c(F)c(F)c(F)c5F)c5ccc2[nH]5)C=C4)C=C3)cc1)Cc1nc([C@@]2(C)CCCO2)no1
REMARK SMILES IDX 9 1 8 2 7 3 5 4 6 5 4 7 2 8 1 9 3 10 80 11 81 12 82 13 91 14
REMARK SMILES IDX 83 15 90 16 84 17 85 18 86 19 89 20 87 21 88 22 10 23 11 24
REMARK SMILES IDX 12 25 13 26 14 27 15 28 16 30 17 31 18 32 79 33 19 34 78 35
REMARK SMILES IDX 20 36 21 37 22 38 72 39 23 40 77 41 71 42 73 43 24 44 76 45
REMARK SMILES IDX 70 46 69 47 25 49 57 50 37 51 56 52 38 53 41 54 55 55 74 56
REMARK SMILES IDX 39 57 40 58 54 60 75 61 42 62 26 63 27 64 35 65 28 66 29 67
REMARK SMILES IDX 33 68 36 69 30 70 31 71 34 72 32 73 58 74 59 75 67 76 60 77
REMARK SMILES IDX 61 78 65 79 68 80 62 81 63 82 66 83 64 84 43 85 44 86 52 87
REMARK SMILES IDX 45 88 46 89 50 90 53 91 47 92 48 93 51 94 49 95
REMARK H PARENT 7 6 14 29 73 48 41 59
REMARK Flexibility Score: inf
ROOT
ATOM      1  C   UNL A   1      32.306  28.518  27.310  1.00  0.00     0.021 C 
ENDROOT
BRANCH   1   2
ATOM      2  C   UNL A   1      31.844  27.661  26.142  1.00  0.00     0.116 C 
BRANCH   2   3
ATOM      3  N   UNL A   1      31.239  26.432  26.607  1.00  0.00    -0.356 N 
ATOM      4  C   UNL A   1      31.740  25.173  26.632  1.00  0.00     0.220 C 
ATOM      5  O   UNL A   1      31.062  24.274  27.133  1.00  0.00    -0.275 OA
ATOM      6  H   UNL A   1      30.325  26.524  26.961  1.00  0.00     0.163 HD
BRANCH   4   7
ATOM      7  C   UNL A   1      33.123  24.872  26.099  1.00  0.00     0.107 C 
BRANCH   7   8
ATOM      8  C   UNL A   1      33.317  24.484  24.604  1.00  0.00    -0.018 C 
ATOM      9  C   UNL A   1      33.621  25.688  23.692  1.00  0.00     0.012 C 
ATOM     10  C   UNL A   1      34.639  23.651  24.587  1.00  0.00     0.012 C 
BRANCH   8  11
ATOM     11  C   UNL A   1      32.204  23.591  23.979  1.00  0.00     0.107 C 
BRANCH  11  12
ATOM     12  C   UNL A   1      32.225  22.107  24.197  1.00  0.00     0.227 A 
ATOM     13  N   UNL A   1      32.592  21.093  23.434  1.00  0.00    -0.193 NA
ATOM     14  O   UNL A   1      31.929  21.721  25.475  1.00  0.00    -0.339 OA
ATOM     15  C   UNL A   1      32.460  20.004  24.293  1.00  0.00     0.203 A 
ATOM     16  N   UNL A   1      32.086  20.345  25.536  1.00  0.00    -0.059 NA
BRANCH  15  17
ATOM     17  C   UNL A   1      32.741  18.547  23.949  1.00  0.00     0.128 C 
ATOM     18  C   UNL A   1      32.402  18.167  22.499  1.00  0.00     0.051 C 
ATOM     19  C   UNL A   1      34.194  18.146  24.257  1.00  0.00     0.046 C 
ATOM     20  O   UNL A   1      31.933  17.648  24.772  1.00  0.00    -0.367 OA
ATOM     21  C   UNL A   1      34.087  16.672  24.575  1.00  0.00     0.032 C 
ATOM     22  C   UNL A   1      32.752  16.588  25.279  1.00  0.00     0.161 C 
ENDBRANCH  15  17
ENDBRANCH  11  12
ENDBRANCH   8  11
ENDBRANCH   7   8
ENDBRANCH   4   7
ENDBRANCH   2   3
ENDBRANCH   1   2
BRANCH   1  23
ATOM     23  C   UNL A   1      32.765  29.913  26.913  1.00  0.00     0.002 C 
BRANCH  23  24
ATOM     24  C   UNL A   1      31.754  30.740  26.131  1.00  0.00     0.002 C 
BRANCH  24  25
ATOM     25  C   UNL A   1      31.451  32.099  26.760  1.00  0.00     0.021 C 
BRANCH  25  26
ATOM     26  C   UNL A   1      32.652  32.772  27.422  1.00  0.00     0.116 C 
BRANCH  26  27
ATOM     27  N   UNL A   1      32.425  34.192  27.648  1.00  0.00    -0.352 N 
ATOM     28  C   UNL A   1      32.987  35.007  28.597  1.00  0.00     0.251 C 
ATOM     29  H   UNL A   1      31.785  34.625  27.039  1.00  0.00     0.163 HD
ATOM     30  O   UNL A   1      32.535  36.126  28.820  1.00  0.00    -0.269 OA
BRANCH  28  31
ATOM     31  C   UNL A   1      34.144  34.510  29.365  1.00  0.00     0.039 A 
ATOM     32  C   UNL A   1      33.937  33.939  30.620  1.00  0.00     0.014 A 
ATOM     33  C   UNL A   1      35.428  34.574  28.814  1.00  0.00     0.014 A 
ATOM     34  C   UNL A   1      35.016  33.375  31.302  1.00  0.00     0.010 A 
ATOM     35  C   UNL A   1      36.483  33.937  29.455  1.00  0.00     0.010 A 
ATOM     36  C   UNL A   1      36.290  33.338  30.709  1.00  0.00    -0.014 A 
BRANCH  36  37
ATOM     37  C   UNL A   1      37.434  32.682  31.388  1.00  0.00     0.031 A 
ATOM     38  C   UNL A   1      38.143  31.534  30.724  1.00  0.00     0.074 A 
ATOM     39  C   UNL A   1      37.795  33.077  32.624  1.00  0.00     0.049 A 
ATOM     40  N   UNL A   1      39.123  30.793  31.176  1.00  0.00    -0.248 NA
ATOM     41  C   UNL A   1      37.670  31.150  29.385  1.00  0.00     0.031 C 
ATOM     42  C   UNL A   1      37.153  34.146  33.391  1.00  0.00     0.029 A 
ATOM     43  N   UNL A   1      38.785  32.621  33.457  1.00  0.00    -0.354 N 
ATOM     44  C   UNL A   1      39.373  29.853  30.185  1.00  0.00     0.074 A 
ATOM     45  C   UNL A   1      38.402  30.075  29.136  1.00  0.00     0.031 C 
ATOM     46  C   UNL A   1      37.781  34.282  34.568  1.00  0.00     0.029 A 
ATOM     47  C   UNL A   1      38.841  33.282  34.660  1.00  0.00     0.049 A 
ATOM     48  H   UNL A   1      39.398  31.888  33.217  1.00  0.00     0.167 HD
ATOM     49  C   UNL A   1      40.342  28.908  30.141  1.00  0.00     0.037 A 
ATOM     50  C   UNL A   1      39.652  33.096  35.720  1.00  0.00     0.037 A 
ATOM     51  C   UNL A   1      41.316  28.704  31.181  1.00  0.00     0.049 A 
ATOM     52  C   UNL A   1      40.706  32.023  35.655  1.00  0.00     0.074 A 
ATOM     53  C   UNL A   1      42.372  27.812  31.210  1.00  0.00     0.029 A 
ATOM     54  N   UNL A   1      41.346  29.398  32.382  1.00  0.00    -0.354 N 
ATOM     55  N   UNL A   1      40.981  31.190  34.681  1.00  0.00    -0.248 NA
ATOM     56  C   UNL A   1      41.568  31.871  36.835  1.00  0.00     0.031 C 
ATOM     57  C   UNL A   1      43.005  27.924  32.452  1.00  0.00     0.029 A 
ATOM     58  C   UNL A   1      42.386  28.932  33.171  1.00  0.00     0.049 A 
ATOM     59  H   UNL A   1      40.721  30.115  32.636  1.00  0.00     0.167 HD
ATOM     60  C   UNL A   1      42.065  30.438  35.117  1.00  0.00     0.074 A 
ATOM     61  C   UNL A   1      42.406  30.926  36.436  1.00  0.00     0.031 C 
ATOM     62  C   UNL A   1      42.718  29.434  34.481  1.00  0.00     0.037 A 
BRANCH  49  63
ATOM     63  C   UNL A   1      40.395  28.022  28.929  1.00  0.00     0.064 A 
ATOM     64  C   UNL A   1      39.688  26.811  28.868  1.00  0.00     0.173 A 
ATOM     65  C   UNL A   1      41.135  28.405  27.800  1.00  0.00     0.173 A 
ATOM     66  F   UNL A   1      38.974  26.392  29.922  1.00  0.00    -0.203 F 
ATOM     67  C   UNL A   1      39.748  26.002  27.735  1.00  0.00     0.198 A 
ATOM     68  C   UNL A   1      41.164  27.611  26.656  1.00  0.00     0.198 A 
ATOM     69  F   UNL A   1      41.825  29.555  27.801  1.00  0.00    -0.203 F 
ATOM     70  F   UNL A   1      39.110  24.824  27.723  1.00  0.00    -0.200 F 
ATOM     71  C   UNL A   1      40.478  26.406  26.628  1.00  0.00     0.200 A 
ATOM     72  F   UNL A   1      41.857  28.010  25.582  1.00  0.00    -0.200 F 
ATOM     73  F   UNL A   1      40.526  25.630  25.536  1.00  0.00    -0.200 F 
ENDBRANCH  49  63
BRANCH  50  74
ATOM     74  C   UNL A   1      39.511  33.956  36.926  1.00  0.00     0.064 A 
ATOM     75  C   UNL A   1      38.773  33.524  38.037  1.00  0.00     0.173 A 
ATOM     76  C   UNL A   1      40.100  35.227  36.990  1.00  0.00     0.173 A 
ATOM     77  F   UNL A   1      38.174  32.324  38.018  1.00  0.00    -0.203 F 
ATOM     78  C   UNL A   1      38.608  34.340  39.154  1.00  0.00     0.198 A 
ATOM     79  C   UNL A   1      39.962  36.029  38.121  1.00  0.00     0.198 A 
ATOM     80  F   UNL A   1      40.822  35.686  35.957  1.00  0.00    -0.203 F 
ATOM     81  F   UNL A   1      37.853  33.923  40.180  1.00  0.00    -0.200 F 
ATOM     82  C   UNL A   1      39.208  35.589  39.198  1.00  0.00     0.200 A 
ATOM     83  F   UNL A   1      40.558  37.228  38.166  1.00  0.00    -0.200 F 
ATOM     84  F   UNL A   1      39.052  36.372  40.274  1.00  0.00    -0.200 F 
ENDBRANCH  50  74
BRANCH  62  85
ATOM     85  C   UNL A   1      43.895  28.821  35.185  1.00  0.00     0.064 A 
ATOM     86  C   UNL A   1      43.758  27.707  36.025  1.00  0.00     0.173 A 
ATOM     87  C   UNL A   1      45.187  29.333  34.981  1.00  0.00     0.173 A 
ATOM     88  F   UNL A   1      42.545  27.187  36.264  1.00  0.00    -0.203 F 
ATOM     89  C   UNL A   1      44.865  27.146  36.657  1.00  0.00     0.198 A 
ATOM     90  C   UNL A   1      46.295  28.748  35.585  1.00  0.00     0.198 A 
ATOM     91  F   UNL A   1      45.376  30.394  34.181  1.00  0.00    -0.203 F 
ATOM     92  F   UNL A   1      44.702  26.115  37.497  1.00  0.00    -0.200 F 
ATOM     93  C   UNL A   1      46.132  27.661  36.430  1.00  0.00     0.200 A 
ATOM     94  F   UNL A   1      47.521  29.236  35.350  1.00  0.00    -0.200 F 
ATOM     95  F   UNL A   1      47.198  27.113  37.031  1.00  0.00    -0.200 F 
ENDBRANCH  62  85
ENDBRANCH  36  37
ENDBRANCH  28  31
ENDBRANCH  26  27
ENDBRANCH  25  26
ENDBRANCH  24  25
ENDBRANCH  23  24
ENDBRANCH   1  23
TORSDOF 17
ENDMDL
