MODEL 1
REMARK VINA RESULT:     -11.6      0.000      0.000
REMARK SMILES COc1ncccc1NS(=O)(=O)c1ccc(C(=O)NCCCCCCNC(=O)c2ccc(-c3c4nc(c(-c5c(F)c(F)c(F)c(F)c5F)c5ccc([nH]5)c(-c5c(F)c(F)c(F)c(F)c5F)c5nc(c(-c6c(F)c(F)c(F)c(F)c6F)c6ccc3[nH]6)C=C5)C=C4)cc2)cc1
REMARK SMILES IDX 21 1 20 2 19 3 17 4 18 5 16 7 13 8 14 9 93 10 15 11 92 12
REMARK SMILES IDX 10 13 11 14 12 15 9 16 8 18 3 19 4 20 5 21 7 22 6 23 2 24
REMARK SMILES IDX 1 25 22 26 23 27 24 28 25 29 26 30 27 31 28 33 29 34 30 35
REMARK SMILES IDX 91 36 31 37 90 38 32 39 33 40 34 41 84 42 35 43 89 44 83 45
REMARK SMILES IDX 85 46 36 47 88 48 82 49 81 50 37 52 69 53 49 54 68 55 50 56
REMARK SMILES IDX 53 57 67 58 86 59 51 60 52 61 66 63 87 64 54 65 38 66 39 67
REMARK SMILES IDX 47 68 40 69 41 70 45 71 48 72 42 73 43 74 46 75 44 76 70 77
REMARK SMILES IDX 71 78 79 79 72 80 73 81 77 82 80 83 74 84 75 85 78 86 76 87
REMARK SMILES IDX 55 88 56 89 64 90 57 91 58 92 62 93 65 94 59 95 60 96 63 97
REMARK SMILES IDX 61 98
REMARK H PARENT 19 6 9 17 26 32 85 51 53 62
REMARK Flexibility Score: inf
ROOT
ATOM      1  C   UNL A   1      39.253  22.842  26.500  1.00  0.00     0.021 C 
ENDROOT
BRANCH   1   2
ATOM      2  C   UNL A   1      38.018  22.138  25.935  1.00  0.00     0.116 C 
BRANCH   2   3
ATOM      3  N   UNL A   1      37.766  22.466  24.544  1.00  0.00    -0.352 N 
ATOM      4  C   UNL A   1      36.631  22.797  23.848  1.00  0.00     0.251 C 
ATOM      5  O   UNL A   1      36.747  22.951  22.630  1.00  0.00    -0.269 OA
ATOM      6  H   UNL A   1      38.577  22.448  23.986  1.00  0.00     0.163 HD
BRANCH   4   7
ATOM      7  C   UNL A   1      35.275  22.931  24.458  1.00  0.00     0.039 A 
ATOM      8  C   UNL A   1      32.736  23.488  25.518  1.00  0.00     0.087 A 
ATOM      9  C   UNL A   1      33.808  24.326  25.825  1.00  0.00     0.023 A 
ATOM     10  C   UNL A   1      32.953  22.296  24.818  1.00  0.00     0.023 A 
ATOM     11  C   UNL A   1      35.066  24.053  25.281  1.00  0.00     0.015 A 
ATOM     12  C   UNL A   1      34.229  22.016  24.303  1.00  0.00     0.015 A 
BRANCH   8  13
ATOM     13  S   UNL A   1      31.110  23.959  26.052  1.00  0.00     0.262 S 
ATOM     14  O   UNL A   1      31.242  25.132  26.883  1.00  0.00    -0.201 OA
ATOM     15  O   UNL A   1      30.456  22.762  26.555  1.00  0.00    -0.201 OA
BRANCH  13  16
ATOM     16  N   UNL A   1      30.215  24.378  24.686  1.00  0.00    -0.274 N 
ATOM     17  H   UNL A   1      29.517  23.760  24.370  1.00  0.00     0.180 HD
BRANCH  16  18
ATOM     18  C   UNL A   1      30.428  25.595  23.967  1.00  0.00     0.111 A 
ATOM     19  C   UNL A   1      31.264  25.680  22.844  1.00  0.00     0.238 A 
ATOM     20  N   UNL A   1      31.410  26.779  22.075  1.00  0.00    -0.220 NA
ATOM     21  C   UNL A   1      30.642  27.840  22.396  1.00  0.00     0.115 A 
ATOM     22  C   UNL A   1      29.624  26.697  24.239  1.00  0.00     0.034 A 
ATOM     23  C   UNL A   1      29.730  27.839  23.442  1.00  0.00     0.023 A 
BRANCH  19  24
ATOM     24  O   UNL A   1      31.993  24.597  22.431  1.00  0.00    -0.480 OA
ATOM     25  C   UNL A   1      33.316  24.975  22.077  1.00  0.00     0.280 C 
ENDBRANCH  19  24
ENDBRANCH  16  18
ENDBRANCH  13  16
ENDBRANCH   8  13
ENDBRANCH   4   7
ENDBRANCH   2   3
ENDBRANCH   1   2
BRANCH   1  26
ATOM     26  C   UNL A   1      40.298  21.941  27.165  1.00  0.00     0.002 C 
BRANCH  26  27
ATOM     27  C   UNL A   1      41.355  21.338  26.234  1.00  0.00     0.002 C 
BRANCH  27  28
ATOM     28  C   UNL A   1      41.339  19.812  26.109  1.00  0.00     0.021 C 
BRANCH  28  29
ATOM     29  C   UNL A   1      42.637  19.115  26.511  1.00  0.00     0.116 C 
BRANCH  29  30
ATOM     30  N   UNL A   1      43.445  18.747  25.358  1.00  0.00    -0.352 N 
ATOM     31  C   UNL A   1      44.220  19.536  24.545  1.00  0.00     0.251 C 
ATOM     32  H   UNL A   1      43.434  17.789  25.128  1.00  0.00     0.163 HD
ATOM     33  O   UNL A   1      44.671  19.086  23.497  1.00  0.00    -0.269 OA
BRANCH  31  34
ATOM     34  C   UNL A   1      44.504  20.937  24.923  1.00  0.00     0.039 A 
ATOM     35  C   UNL A   1      44.166  21.959  24.031  1.00  0.00     0.014 A 
ATOM     36  C   UNL A   1      45.123  21.241  26.138  1.00  0.00     0.014 A 
ATOM     37  C   UNL A   1      44.399  23.291  24.385  1.00  0.00     0.010 A 
ATOM     38  C   UNL A   1      45.288  22.570  26.520  1.00  0.00     0.010 A 
ATOM     39  C   UNL A   1      44.932  23.607  25.645  1.00  0.00    -0.014 A 
BRANCH  39  40
ATOM     40  C   UNL A   1      45.126  25.019  26.065  1.00  0.00     0.031 A 
ATOM     41  C   UNL A   1      46.486  25.654  25.978  1.00  0.00     0.074 A 
ATOM     42  C   UNL A   1      44.092  25.706  26.586  1.00  0.00     0.049 A 
ATOM     43  N   UNL A   1      46.869  26.847  26.357  1.00  0.00    -0.248 NA
ATOM     44  C   UNL A   1      47.566  24.828  25.415  1.00  0.00     0.031 C 
ATOM     45  C   UNL A   1      42.737  25.183  26.767  1.00  0.00     0.029 A 
ATOM     46  N   UNL A   1      44.020  26.987  27.071  1.00  0.00    -0.354 N 
ATOM     47  C   UNL A   1      48.230  26.908  26.093  1.00  0.00     0.074 A 
ATOM     48  C   UNL A   1      48.619  25.615  25.575  1.00  0.00     0.031 C 
ATOM     49  C   UNL A   1      41.963  26.140  27.302  1.00  0.00     0.029 A 
ATOM     50  C   UNL A   1      42.775  27.330  27.539  1.00  0.00     0.049 A 
ATOM     51  H   UNL A   1      44.789  27.603  27.083  1.00  0.00     0.167 HD
ATOM     52  C   UNL A   1      49.076  27.956  26.247  1.00  0.00     0.037 A 
ATOM     53  C   UNL A   1      42.339  28.472  28.103  1.00  0.00     0.037 A 
ATOM     54  C   UNL A   1      48.678  29.248  26.744  1.00  0.00     0.049 A 
ATOM     55  C   UNL A   1      43.299  29.619  28.270  1.00  0.00     0.074 A 
ATOM     56  C   UNL A   1      49.443  30.393  26.881  1.00  0.00     0.029 A 
ATOM     57  N   UNL A   1      47.403  29.563  27.193  1.00  0.00    -0.354 N 
ATOM     58  N   UNL A   1      44.568  29.690  27.951  1.00  0.00    -0.248 NA
ATOM     59  C   UNL A   1      42.762  30.849  28.870  1.00  0.00     0.031 C 
ATOM     60  C   UNL A   1      48.645  31.386  27.461  1.00  0.00     0.029 A 
ATOM     61  C   UNL A   1      47.367  30.878  27.632  1.00  0.00     0.049 A 
ATOM     62  H   UNL A   1      46.638  28.944  27.199  1.00  0.00     0.167 HD
ATOM     63  C   UNL A   1      44.975  30.976  28.282  1.00  0.00     0.074 A 
ATOM     64  C   UNL A   1      43.812  31.655  28.815  1.00  0.00     0.031 C 
ATOM     65  C   UNL A   1      46.200  31.542  28.155  1.00  0.00     0.037 A 
BRANCH  52  66
ATOM     66  C   UNL A   1      50.517  27.747  25.876  1.00  0.00     0.064 A 
ATOM     67  C   UNL A   1      51.485  27.415  26.837  1.00  0.00     0.173 A 
ATOM     68  C   UNL A   1      50.931  27.852  24.540  1.00  0.00     0.173 A 
ATOM     69  F   UNL A   1      51.146  27.311  28.131  1.00  0.00    -0.203 F 
ATOM     70  C   UNL A   1      52.818  27.232  26.477  1.00  0.00     0.198 A 
ATOM     71  C   UNL A   1      52.258  27.635  24.180  1.00  0.00     0.198 A 
ATOM     72  F   UNL A   1      50.046  28.160  23.580  1.00  0.00    -0.203 F 
ATOM     73  F   UNL A   1      53.735  26.972  27.421  1.00  0.00    -0.200 F 
ATOM     74  C   UNL A   1      53.202  27.336  25.150  1.00  0.00     0.200 A 
ATOM     75  F   UNL A   1      52.625  27.723  22.894  1.00  0.00    -0.200 F 
ATOM     76  F   UNL A   1      54.485  27.155  24.805  1.00  0.00    -0.200 F 
ENDBRANCH  52  66
BRANCH  53  77
ATOM     77  C   UNL A   1      40.920  28.594  28.525  1.00  0.00     0.064 A 
ATOM     78  C   UNL A   1      39.937  29.037  27.627  1.00  0.00     0.173 A 
ATOM     79  C   UNL A   1      40.514  28.267  29.826  1.00  0.00     0.173 A 
ATOM     80  F   UNL A   1      40.279  29.380  26.377  1.00  0.00    -0.203 F 
ATOM     81  C   UNL A   1      38.606  29.164  28.021  1.00  0.00     0.198 A 
ATOM     82  C   UNL A   1      39.178  28.366  30.211  1.00  0.00     0.198 A 
ATOM     83  F   UNL A   1      41.413  27.833  30.722  1.00  0.00    -0.203 F 
ATOM     84  F   UNL A   1      37.696  29.631  27.156  1.00  0.00    -0.200 F 
ATOM     85  C   UNL A   1      38.227  28.822  29.310  1.00  0.00     0.200 A 
ATOM     86  F   UNL A   1      38.813  28.020  31.453  1.00  0.00    -0.200 F 
ATOM     87  F   UNL A   1      36.947  28.938  29.687  1.00  0.00    -0.200 F 
ENDBRANCH  53  77
BRANCH  65  88
ATOM     88  C   UNL A   1      46.340  32.979  28.566  1.00  0.00     0.064 A 
ATOM     89  C   UNL A   1      46.105  34.030  27.668  1.00  0.00     0.173 A 
ATOM     90  C   UNL A   1      46.674  33.307  29.890  1.00  0.00     0.173 A 
ATOM     91  F   UNL A   1      45.798  33.770  26.389  1.00  0.00    -0.203 F 
ATOM     92  C   UNL A   1      46.225  35.358  28.073  1.00  0.00     0.198 A 
ATOM     93  C   UNL A   1      46.761  34.634  30.299  1.00  0.00     0.198 A 
ATOM     94  F   UNL A   1      46.902  32.340  30.790  1.00  0.00    -0.203 F 
ATOM     95  F   UNL A   1      46.044  36.345  27.186  1.00  0.00    -0.200 F 
ATOM     96  C   UNL A   1      46.545  35.658  29.390  1.00  0.00     0.200 A 
ATOM     97  F   UNL A   1      47.054  34.923  31.575  1.00  0.00    -0.200 F 
ATOM     98  F   UNL A   1      46.650  36.936  29.779  1.00  0.00    -0.200 F 
ENDBRANCH  65  88
ENDBRANCH  39  40
ENDBRANCH  31  34
ENDBRANCH  29  30
ENDBRANCH  28  29
ENDBRANCH  27  28
ENDBRANCH  26  27
ENDBRANCH   1  26
TORSDOF 17
ENDMDL
MODEL 2
REMARK VINA RESULT:     -11.5      0.635      2.123
REMARK SMILES COc1ncccc1NS(=O)(=O)c1ccc(C(=O)NCCCCCCNC(=O)c2ccc(-c3c4nc(c(-c5c(F)c(F)c(F)c(F)c5F)c5ccc([nH]5)c(-c5c(F)c(F)c(F)c(F)c5F)c5nc(c(-c6c(F)c(F)c(F)c(F)c6F)c6ccc3[nH]6)C=C5)C=C4)cc2)cc1
REMARK SMILES IDX 21 1 20 2 19 3 17 4 18 5 16 7 13 8 14 9 93 10 15 11 92 12
REMARK SMILES IDX 10 13 11 14 12 15 9 16 8 18 3 19 4 20 5 21 7 22 6 23 2 24
REMARK SMILES IDX 1 25 22 26 23 27 24 28 25 29 26 30 27 31 28 33 29 34 30 35
REMARK SMILES IDX 91 36 31 37 90 38 32 39 33 40 34 41 84 42 35 43 89 44 83 45
REMARK SMILES IDX 85 46 36 47 88 48 82 49 81 50 37 52 69 53 49 54 68 55 50 56
REMARK SMILES IDX 53 57 67 58 86 59 51 60 52 61 66 63 87 64 54 65 38 66 39 67
REMARK SMILES IDX 47 68 40 69 41 70 45 71 48 72 42 73 43 74 46 75 44 76 70 77
REMARK SMILES IDX 71 78 79 79 72 80 73 81 77 82 80 83 74 84 75 85 78 86 76 87
REMARK SMILES IDX 55 88 56 89 64 90 57 91 58 92 62 93 65 94 59 95 60 96 63 97
REMARK SMILES IDX 61 98
REMARK H PARENT 19 6 9 17 26 32 85 51 53 62
REMARK Flexibility Score: inf
ROOT
ATOM      1  C   UNL A   1      39.319  22.865  26.504  1.00  0.00     0.021 C 
ENDROOT
BRANCH   1   2
ATOM      2  C   UNL A   1      38.048  22.199  25.975  1.00  0.00     0.116 C 
BRANCH   2   3
ATOM      3  N   UNL A   1      37.778  22.520  24.586  1.00  0.00    -0.352 N 
ATOM      4  C   UNL A   1      36.625  22.785  23.890  1.00  0.00     0.251 C 
ATOM      5  O   UNL A   1      36.732  22.953  22.674  1.00  0.00    -0.269 OA
ATOM      6  H   UNL A   1      38.589  22.554  24.029  1.00  0.00     0.163 HD
BRANCH   4   7
ATOM      7  C   UNL A   1      35.263  22.832  24.500  1.00  0.00     0.039 A 
ATOM      8  C   UNL A   1      32.691  23.225  25.554  1.00  0.00     0.087 A 
ATOM      9  C   UNL A   1      33.701  24.142  25.845  1.00  0.00     0.023 A 
ATOM     10  C   UNL A   1      32.991  22.041  24.874  1.00  0.00     0.023 A 
ATOM     11  C   UNL A   1      34.974  23.950  25.305  1.00  0.00     0.015 A 
ATOM     12  C   UNL A   1      34.284  21.843  24.361  1.00  0.00     0.015 A 
BRANCH   8  13
ATOM     13  S   UNL A   1      31.035  23.588  26.082  1.00  0.00     0.262 S 
ATOM     14  O   UNL A   1      31.121  24.431  27.251  1.00  0.00    -0.201 OA
ATOM     15  O   UNL A   1      30.308  22.330  26.126  1.00  0.00    -0.201 OA
BRANCH  13  16
ATOM     16  N   UNL A   1      30.278  24.463  24.855  1.00  0.00    -0.274 N 
ATOM     17  H   UNL A   1      29.303  24.385  24.751  1.00  0.00     0.180 HD
BRANCH  16  18
ATOM     18  C   UNL A   1      30.996  25.315  23.959  1.00  0.00     0.111 A 
ATOM     19  C   UNL A   1      31.382  26.621  24.296  1.00  0.00     0.238 A 
ATOM     20  N   UNL A   1      32.150  27.419  23.525  1.00  0.00    -0.220 NA
ATOM     21  C   UNL A   1      32.615  26.877  22.381  1.00  0.00     0.115 A 
ATOM     22  C   UNL A   1      31.530  24.781  22.791  1.00  0.00     0.034 A 
ATOM     23  C   UNL A   1      32.354  25.572  21.988  1.00  0.00     0.023 A 
BRANCH  19  24
ATOM     24  O   UNL A   1      31.006  27.176  25.489  1.00  0.00    -0.480 OA
ATOM     25  C   UNL A   1      31.940  28.159  25.914  1.00  0.00     0.280 C 
ENDBRANCH  19  24
ENDBRANCH  16  18
ENDBRANCH  13  16
ENDBRANCH   8  13
ENDBRANCH   4   7
ENDBRANCH   2   3
ENDBRANCH   1   2
BRANCH   1  26
ATOM     26  C   UNL A   1      40.350  21.933  27.150  1.00  0.00     0.002 C 
BRANCH  26  27
ATOM     27  C   UNL A   1      41.437  21.385  26.220  1.00  0.00     0.002 C 
BRANCH  27  28
ATOM     28  C   UNL A   1      41.407  19.874  25.977  1.00  0.00     0.021 C 
BRANCH  28  29
ATOM     29  C   UNL A   1      42.654  19.119  26.431  1.00  0.00     0.116 C 
BRANCH  29  30
ATOM     30  N   UNL A   1      43.506  18.739  25.315  1.00  0.00    -0.352 N 
ATOM     31  C   UNL A   1      44.316  19.518  24.527  1.00  0.00     0.251 C 
ATOM     32  H   UNL A   1      43.499  17.779  25.091  1.00  0.00     0.163 HD
ATOM     33  O   UNL A   1      44.807  19.058  23.501  1.00  0.00    -0.269 OA
BRANCH  31  34
ATOM     34  C   UNL A   1      44.592  20.921  24.906  1.00  0.00     0.039 A 
ATOM     35  C   UNL A   1      44.258  21.940  24.010  1.00  0.00     0.014 A 
ATOM     36  C   UNL A   1      45.199  21.229  26.126  1.00  0.00     0.014 A 
ATOM     37  C   UNL A   1      44.482  23.273  24.364  1.00  0.00     0.010 A 
ATOM     38  C   UNL A   1      45.354  22.558  26.507  1.00  0.00     0.010 A 
ATOM     39  C   UNL A   1      45.003  23.594  25.628  1.00  0.00    -0.014 A 
BRANCH  39  40
ATOM     40  C   UNL A   1      45.188  25.006  26.048  1.00  0.00     0.031 A 
ATOM     41  C   UNL A   1      46.544  25.649  25.965  1.00  0.00     0.074 A 
ATOM     42  C   UNL A   1      44.147  25.688  26.564  1.00  0.00     0.049 A 
ATOM     43  N   UNL A   1      46.920  26.844  26.345  1.00  0.00    -0.248 NA
ATOM     44  C   UNL A   1      47.631  24.828  25.408  1.00  0.00     0.031 C 
ATOM     45  C   UNL A   1      42.795  25.158  26.740  1.00  0.00     0.029 A 
ATOM     46  N   UNL A   1      44.067  26.969  27.048  1.00  0.00    -0.354 N 
ATOM     47  C   UNL A   1      48.282  26.912  26.086  1.00  0.00     0.074 A 
ATOM     48  C   UNL A   1      48.679  25.621  25.570  1.00  0.00     0.031 C 
ATOM     49  C   UNL A   1      42.014  26.112  27.272  1.00  0.00     0.029 A 
ATOM     50  C   UNL A   1      42.818  27.306  27.511  1.00  0.00     0.049 A 
ATOM     51  H   UNL A   1      44.833  27.589  27.063  1.00  0.00     0.167 HD
ATOM     52  C   UNL A   1      49.121  27.965  26.243  1.00  0.00     0.037 A 
ATOM     53  C   UNL A   1      42.375  28.446  28.072  1.00  0.00     0.037 A 
ATOM     54  C   UNL A   1      48.714  29.255  26.737  1.00  0.00     0.049 A 
ATOM     55  C   UNL A   1      43.327  29.598  28.243  1.00  0.00     0.074 A 
ATOM     56  C   UNL A   1      49.472  30.404  26.876  1.00  0.00     0.029 A 
ATOM     57  N   UNL A   1      47.436  29.563  27.181  1.00  0.00    -0.354 N 
ATOM     58  N   UNL A   1      44.597  29.675  27.929  1.00  0.00    -0.248 NA
ATOM     59  C   UNL A   1      42.781  30.825  28.839  1.00  0.00     0.031 C 
ATOM     60  C   UNL A   1      48.667  31.393  27.452  1.00  0.00     0.029 A 
ATOM     61  C   UNL A   1      47.392  30.878  27.619  1.00  0.00     0.049 A 
ATOM     62  H   UNL A   1      46.674  28.940  27.184  1.00  0.00     0.167 HD
ATOM     63  C   UNL A   1      44.996  30.964  28.260  1.00  0.00     0.074 A 
ATOM     64  C   UNL A   1      43.828  31.638  28.788  1.00  0.00     0.031 C 
ATOM     65  C   UNL A   1      46.219  31.536  28.137  1.00  0.00     0.037 A 
BRANCH  52  66
ATOM     66  C   UNL A   1      50.564  27.763  25.877  1.00  0.00     0.064 A 
ATOM     67  C   UNL A   1      51.018  27.910  24.557  1.00  0.00     0.173 A 
ATOM     68  C   UNL A   1      51.512  27.446  26.862  1.00  0.00     0.173 A 
ATOM     69  F   UNL A   1      50.154  28.203  23.574  1.00  0.00    -0.203 F 
ATOM     70  C   UNL A   1      52.358  27.712  24.233  1.00  0.00     0.198 A 
ATOM     71  C   UNL A   1      52.856  27.282  26.540  1.00  0.00     0.198 A 
ATOM     72  F   UNL A   1      51.134  27.300  28.142  1.00  0.00    -0.203 F 
ATOM     73  F   UNL A   1      52.757  27.802  22.956  1.00  0.00    -0.200 F 
ATOM     74  C   UNL A   1      53.276  27.405  25.225  1.00  0.00     0.200 A 
ATOM     75  F   UNL A   1      53.744  26.998  27.503  1.00  0.00    -0.200 F 
ATOM     76  F   UNL A   1      54.567  27.219  24.912  1.00  0.00    -0.200 F 
ENDBRANCH  52  66
BRANCH  53  77
ATOM     77  C   UNL A   1      40.953  28.561  28.489  1.00  0.00     0.064 A 
ATOM     78  C   UNL A   1      40.557  28.237  29.795  1.00  0.00     0.173 A 
ATOM     79  C   UNL A   1      39.963  29.000  27.598  1.00  0.00     0.173 A 
ATOM     80  F   UNL A   1      41.464  27.794  30.679  1.00  0.00    -0.203 F 
ATOM     81  C   UNL A   1      39.223  28.331  30.188  1.00  0.00     0.198 A 
ATOM     82  C   UNL A   1      38.635  29.122  28.000  1.00  0.00     0.198 A 
ATOM     83  F   UNL A   1      40.290  29.328  26.340  1.00  0.00    -0.203 F 
ATOM     84  F   UNL A   1      38.867  27.974  31.429  1.00  0.00    -0.200 F 
ATOM     85  C   UNL A   1      38.264  28.780  29.293  1.00  0.00     0.200 A 
ATOM     86  F   UNL A   1      37.714  29.571  27.137  1.00  0.00    -0.200 F 
ATOM     87  F   UNL A   1      36.984  28.877  29.672  1.00  0.00    -0.200 F 
ENDBRANCH  53  77
BRANCH  65  88
ATOM     88  C   UNL A   1      46.350  32.975  28.548  1.00  0.00     0.064 A 
ATOM     89  C   UNL A   1      46.725  33.339  29.849  1.00  0.00     0.173 A 
ATOM     90  C   UNL A   1      46.136  34.000  27.614  1.00  0.00     0.173 A 
ATOM     91  F   UNL A   1      46.926  32.399  30.783  1.00  0.00    -0.203 F 
ATOM     92  C   UNL A   1      46.856  34.680  30.207  1.00  0.00     0.198 A 
ATOM     93  C   UNL A   1      46.301  35.336  27.966  1.00  0.00     0.198 A 
ATOM     94  F   UNL A   1      45.783  33.705  26.354  1.00  0.00    -0.203 F 
ATOM     95  F   UNL A   1      47.168  35.006  31.468  1.00  0.00    -0.200 F 
ATOM     96  C   UNL A   1      46.652  35.676  29.263  1.00  0.00     0.200 A 
ATOM     97  F   UNL A   1      46.118  36.297  27.049  1.00  0.00    -0.200 F 
ATOM     98  F   UNL A   1      46.789  36.964  29.607  1.00  0.00    -0.200 F 
ENDBRANCH  65  88
ENDBRANCH  39  40
ENDBRANCH  31  34
ENDBRANCH  29  30
ENDBRANCH  28  29
ENDBRANCH  27  28
ENDBRANCH  26  27
ENDBRANCH   1  26
TORSDOF 17
ENDMDL
MODEL 3
REMARK VINA RESULT:     -11.5      4.011      6.071
REMARK SMILES COc1ncccc1NS(=O)(=O)c1ccc(C(=O)NCCCCCCNC(=O)c2ccc(-c3c4nc(c(-c5c(F)c(F)c(F)c(F)c5F)c5ccc([nH]5)c(-c5c(F)c(F)c(F)c(F)c5F)c5nc(c(-c6c(F)c(F)c(F)c(F)c6F)c6ccc3[nH]6)C=C5)C=C4)cc2)cc1
REMARK SMILES IDX 21 1 20 2 19 3 17 4 18 5 16 7 13 8 14 9 93 10 15 11 92 12
REMARK SMILES IDX 10 13 11 14 12 15 9 16 8 18 3 19 4 20 5 21 7 22 6 23 2 24
REMARK SMILES IDX 1 25 22 26 23 27 24 28 25 29 26 30 27 31 28 33 29 34 30 35
REMARK SMILES IDX 91 36 31 37 90 38 32 39 33 40 34 41 84 42 35 43 89 44 83 45
REMARK SMILES IDX 85 46 36 47 88 48 82 49 81 50 37 52 69 53 49 54 68 55 50 56
REMARK SMILES IDX 53 57 67 58 86 59 51 60 52 61 66 63 87 64 54 65 38 66 39 67
REMARK SMILES IDX 47 68 40 69 41 70 45 71 48 72 42 73 43 74 46 75 44 76 70 77
REMARK SMILES IDX 71 78 79 79 72 80 73 81 77 82 80 83 74 84 75 85 78 86 76 87
REMARK SMILES IDX 55 88 56 89 64 90 57 91 58 92 62 93 65 94 59 95 60 96 63 97
REMARK SMILES IDX 61 98
REMARK H PARENT 19 6 9 17 26 32 85 51 53 62
REMARK Flexibility Score: inf
ROOT
ATOM      1  C   UNL A   1      33.876  20.800  26.008  1.00  0.00     0.021 C 
ENDROOT
BRANCH   1   2
ATOM      2  C   UNL A   1      33.781  21.811  27.152  1.00  0.00     0.116 C 
BRANCH   2   3
ATOM      3  N   UNL A   1      32.417  22.209  27.443  1.00  0.00    -0.352 N 
ATOM      4  C   UNL A   1      31.575  23.147  26.900  1.00  0.00     0.251 C 
ATOM      5  O   UNL A   1      30.474  23.289  27.436  1.00  0.00    -0.269 OA
ATOM      6  H   UNL A   1      32.011  21.700  28.182  1.00  0.00     0.163 HD
BRANCH   4   7
ATOM      7  C   UNL A   1      31.925  24.028  25.746  1.00  0.00     0.039 A 
ATOM      8  C   UNL A   1      32.278  25.663  23.492  1.00  0.00     0.087 A 
ATOM      9  C   UNL A   1      31.611  24.446  23.360  1.00  0.00     0.023 A 
ATOM     10  C   UNL A   1      32.903  25.996  24.699  1.00  0.00     0.023 A 
ATOM     11  C   UNL A   1      31.424  23.644  24.488  1.00  0.00     0.015 A 
ATOM     12  C   UNL A   1      32.735  25.166  25.819  1.00  0.00     0.015 A 
BRANCH   8  13
ATOM     13  S   UNL A   1      32.333  26.758  22.095  1.00  0.00     0.262 S 
ATOM     14  O   UNL A   1      31.407  26.258  21.108  1.00  0.00    -0.201 OA
ATOM     15  O   UNL A   1      33.733  26.967  21.763  1.00  0.00    -0.201 OA
BRANCH  13  16
ATOM     16  N   UNL A   1      31.796  28.274  22.603  1.00  0.00    -0.274 N 
ATOM     17  H   UNL A   1      32.430  28.873  23.058  1.00  0.00     0.180 HD
BRANCH  16  18
ATOM     18  C   UNL A   1      30.455  28.726  22.397  1.00  0.00     0.111 A 
ATOM     19  C   UNL A   1      29.363  28.225  23.121  1.00  0.00     0.238 A 
ATOM     20  N   UNL A   1      28.102  28.697  23.035  1.00  0.00    -0.220 NA
ATOM     21  C   UNL A   1      27.916  29.764  22.233  1.00  0.00     0.115 A 
ATOM     22  C   UNL A   1      30.229  29.852  21.612  1.00  0.00     0.034 A 
ATOM     23  C   UNL A   1      28.939  30.382  21.528  1.00  0.00     0.023 A 
BRANCH  19  24
ATOM     24  O   UNL A   1      29.527  27.200  24.014  1.00  0.00    -0.480 OA
ATOM     25  C   UNL A   1      28.363  26.387  24.079  1.00  0.00     0.280 C 
ENDBRANCH  19  24
ENDBRANCH  16  18
ENDBRANCH  13  16
ENDBRANCH   8  13
ENDBRANCH   4   7
ENDBRANCH   2   3
ENDBRANCH   1   2
BRANCH   1  26
ATOM     26  C   UNL A   1      34.172  21.377  24.620  1.00  0.00     0.002 C 
BRANCH  26  27
ATOM     27  C   UNL A   1      35.594  21.902  24.399  1.00  0.00     0.002 C 
BRANCH  27  28
ATOM     28  C   UNL A   1      35.760  23.423  24.459  1.00  0.00     0.021 C 
BRANCH  28  29
ATOM     29  C   UNL A   1      36.824  23.921  25.434  1.00  0.00     0.116 C 
BRANCH  29  30
ATOM     30  N   UNL A   1      37.881  22.944  25.643  1.00  0.00    -0.352 N 
ATOM     31  C   UNL A   1      39.133  23.111  26.181  1.00  0.00     0.251 C 
ATOM     32  H   UNL A   1      37.667  22.027  25.356  1.00  0.00     0.163 HD
ATOM     33  O   UNL A   1      39.967  22.216  26.093  1.00  0.00    -0.269 OA
BRANCH  31  34
ATOM     34  C   UNL A   1      39.487  24.377  26.858  1.00  0.00     0.039 A 
ATOM     35  C   UNL A   1      39.116  24.556  28.194  1.00  0.00     0.014 A 
ATOM     36  C   UNL A   1      40.158  25.394  26.174  1.00  0.00     0.014 A 
ATOM     37  C   UNL A   1      39.469  25.733  28.859  1.00  0.00     0.010 A 
ATOM     38  C   UNL A   1      40.572  26.534  26.857  1.00  0.00     0.010 A 
ATOM     39  C   UNL A   1      40.227  26.717  28.204  1.00  0.00    -0.014 A 
BRANCH  39  40
ATOM     40  C   UNL A   1      40.668  27.946  28.913  1.00  0.00     0.031 A 
ATOM     41  C   UNL A   1      42.083  28.068  29.407  1.00  0.00     0.074 A 
ATOM     42  C   UNL A   1      39.777  28.923  29.168  1.00  0.00     0.049 A 
ATOM     43  N   UNL A   1      42.638  29.028  30.103  1.00  0.00    -0.248 NA
ATOM     44  C   UNL A   1      42.987  26.947  29.104  1.00  0.00     0.031 C 
ATOM     45  C   UNL A   1      38.365  28.899  28.782  1.00  0.00     0.029 A 
ATOM     46  N   UNL A   1      39.922  30.119  29.824  1.00  0.00    -0.354 N 
ATOM     47  C   UNL A   1      43.945  28.621  30.331  1.00  0.00     0.074 A 
ATOM     48  C   UNL A   1      44.086  27.304  29.750  1.00  0.00     0.031 C 
ATOM     49  C   UNL A   1      37.780  30.036  29.187  1.00  0.00     0.029 A 
ATOM     50  C   UNL A   1      38.761  30.851  29.896  1.00  0.00     0.049 A 
ATOM     51  H   UNL A   1      40.777  30.424  30.206  1.00  0.00     0.167 HD
ATOM     52  C   UNL A   1      44.945  29.296  30.949  1.00  0.00     0.037 A 
ATOM     53  C   UNL A   1      38.516  32.041  30.476  1.00  0.00     0.037 A 
ATOM     54  C   UNL A   1      44.804  30.616  31.507  1.00  0.00     0.049 A 
ATOM     55  C   UNL A   1      39.641  32.767  31.163  1.00  0.00     0.074 A 
ATOM     56  C   UNL A   1      45.770  31.411  32.099  1.00  0.00     0.029 A 
ATOM     57  N   UNL A   1      43.616  31.333  31.547  1.00  0.00    -0.354 N 
ATOM     58  N   UNL A   1      40.892  32.405  31.311  1.00  0.00    -0.248 NA
ATOM     59  C   UNL A   1      39.320  34.072  31.757  1.00  0.00     0.031 C 
ATOM     60  C   UNL A   1      45.156  32.587  32.544  1.00  0.00     0.029 A 
ATOM     61  C   UNL A   1      43.820  32.551  32.178  1.00  0.00     0.049 A 
ATOM     62  H   UNL A   1      42.757  31.023  31.181  1.00  0.00     0.167 HD
ATOM     63  C   UNL A   1      41.514  33.446  31.987  1.00  0.00     0.074 A 
ATOM     64  C   UNL A   1      40.505  34.461  32.208  1.00  0.00     0.031 C 
ATOM     65  C   UNL A   1      42.805  33.552  32.386  1.00  0.00     0.037 A 
BRANCH  52  66
ATOM     66  C   UNL A   1      46.280  28.615  31.056  1.00  0.00     0.064 A 
ATOM     67  C   UNL A   1      46.586  27.753  32.122  1.00  0.00     0.173 A 
ATOM     68  C   UNL A   1      47.258  28.803  30.068  1.00  0.00     0.173 A 
ATOM     69  F   UNL A   1      45.692  27.545  33.100  1.00  0.00    -0.203 F 
ATOM     70  C   UNL A   1      47.831  27.136  32.210  1.00  0.00     0.198 A 
ATOM     71  C   UNL A   1      48.489  28.158  30.142  1.00  0.00     0.198 A 
ATOM     72  F   UNL A   1      47.017  29.611  29.023  1.00  0.00    -0.203 F 
ATOM     73  F   UNL A   1      48.119  26.362  33.267  1.00  0.00    -0.200 F 
ATOM     74  C   UNL A   1      48.778  27.333  31.218  1.00  0.00     0.200 A 
ATOM     75  F   UNL A   1      49.399  28.339  29.175  1.00  0.00    -0.200 F 
ATOM     76  F   UNL A   1      49.975  26.735  31.303  1.00  0.00    -0.200 F 
ENDBRANCH  52  66
BRANCH  53  77
ATOM     77  C   UNL A   1      37.153  32.630  30.408  1.00  0.00     0.064 A 
ATOM     78  C   UNL A   1      36.220  32.404  31.429  1.00  0.00     0.173 A 
ATOM     79  C   UNL A   1      36.758  33.433  29.329  1.00  0.00     0.173 A 
ATOM     80  F   UNL A   1      36.544  31.627  32.473  1.00  0.00    -0.203 F 
ATOM     81  C   UNL A   1      34.936  32.944  31.364  1.00  0.00     0.198 A 
ATOM     82  C   UNL A   1      35.485  33.997  29.279  1.00  0.00     0.198 A 
ATOM     83  F   UNL A   1      37.615  33.685  28.329  1.00  0.00    -0.203 F 
ATOM     84  F   UNL A   1      34.050  32.676  32.332  1.00  0.00    -0.200 F 
ATOM     85  C   UNL A   1      34.572  33.746  30.293  1.00  0.00     0.200 A 
ATOM     86  F   UNL A   1      35.142  34.784  28.250  1.00  0.00    -0.200 F 
ATOM     87  F   UNL A   1      33.341  34.270  30.234  1.00  0.00    -0.200 F 
ENDBRANCH  53  77
BRANCH  65  88
ATOM     88  C   UNL A   1      43.211  34.825  33.074  1.00  0.00     0.064 A 
ATOM     89  C   UNL A   1      43.555  35.976  32.352  1.00  0.00     0.173 A 
ATOM     90  C   UNL A   1      43.214  34.902  34.475  1.00  0.00     0.173 A 
ATOM     91  F   UNL A   1      43.583  35.951  31.011  1.00  0.00    -0.203 F 
ATOM     92  C   UNL A   1      43.914  37.152  33.008  1.00  0.00     0.198 A 
ATOM     93  C   UNL A   1      43.539  36.087  35.127  1.00  0.00     0.198 A 
ATOM     94  F   UNL A   1      42.885  33.831  35.213  1.00  0.00    -0.203 F 
ATOM     95  F   UNL A   1      44.287  38.225  32.299  1.00  0.00    -0.200 F 
ATOM     96  C   UNL A   1      43.898  37.208  34.394  1.00  0.00     0.200 A 
ATOM     97  F   UNL A   1      43.509  36.145  36.466  1.00  0.00    -0.200 F 
ATOM     98  F   UNL A   1      44.233  38.343  35.023  1.00  0.00    -0.200 F 
ENDBRANCH  65  88
ENDBRANCH  39  40
ENDBRANCH  31  34
ENDBRANCH  29  30
ENDBRANCH  28  29
ENDBRANCH  27  28
ENDBRANCH  26  27
ENDBRANCH   1  26
TORSDOF 17
ENDMDL
