MODEL 1
REMARK VINA RESULT:     -13.2      0.000      0.000
REMARK SMILES CC(=O)N[C@H]1[C@@H](Oc2ccc(C)c(C)c2)O[C@H]2CO[C@H](c3ccco3)O[C@@H]2[C@H]1OCC(=O)NCCCCCCNC(=O)c1ccc(-c2c3nc(c(-c4c(F)c(F)c(F)c(F)c4F)c4ccc([nH]4)c(-c4c(F)c(F)c(F)c(F)c4F)c4nc(c(-c5c(F)c(F)c(F)c(F)c5F)c5ccc2[nH]5)C=C4)C=C3)cc1
REMARK SMILES IDX 35 1 34 2 33 3 31 4 32 5 30 7 29 8 28 9 5 10 6 11 16 12
REMARK SMILES IDX 27 13 17 14 26 15 18 16 20 17 19 18 4 19 1 20 2 21 3 22 7 24
REMARK SMILES IDX 8 25 9 26 15 27 10 28 13 29 11 30 14 31 12 32 21 33 22 34
REMARK SMILES IDX 25 35 23 36 24 37 36 38 37 39 38 40 39 41 40 42 41 43 42 45
REMARK SMILES IDX 43 46 44 47 105 48 45 49 104 50 46 51 47 52 48 53 98 54
REMARK SMILES IDX 49 55 103 56 97 57 99 58 50 59 102 60 96 61 95 62 51 64
REMARK SMILES IDX 83 65 63 66 82 67 64 68 67 69 81 70 100 71 65 72 66 73 80 75
REMARK SMILES IDX 101 76 68 77 52 78 53 79 61 80 54 81 55 82 59 83 62 84 56 85
REMARK SMILES IDX 57 86 60 87 58 88 84 89 85 90 93 91 86 92 87 93 91 94 94 95
REMARK SMILES IDX 88 96 89 97 92 98 90 99 69 100 70 101 78 102 71 103 72 104
REMARK SMILES IDX 76 105 79 106 73 107 74 108 77 109 75 110
REMARK H PARENT 33 6 4 23 40 44 99 63 67 74
REMARK Flexibility Score: inf
ROOT
ATOM      1  C   UNL A   1      34.837  31.947  28.954  1.00  0.00     0.021 C 
ENDROOT
BRANCH   1   2
ATOM      2  C   UNL A   1      34.669  31.089  27.700  1.00  0.00     0.116 C 
BRANCH   2   3
ATOM      3  N   UNL A   1      33.264  30.885  27.400  1.00  0.00    -0.354 N 
ATOM      4  C   UNL A   1      32.627  29.732  27.048  1.00  0.00     0.246 C 
ATOM      5  O   UNL A   1      31.439  29.784  26.727  1.00  0.00    -0.272 OA
ATOM      6  H   UNL A   1      32.696  31.687  27.456  1.00  0.00     0.163 HD
BRANCH   4   7
ATOM      7  C   UNL A   1      33.404  28.417  27.097  1.00  0.00     0.260 C 
BRANCH   7   8
ATOM      8  O   UNL A   1      32.723  27.278  26.599  1.00  0.00    -0.363 OA
BRANCH   8   9
ATOM      9  C   UNL A   1      33.132  26.795  25.314  1.00  0.00     0.179 C 
ATOM     10  C   UNL A   1      33.613  25.337  25.503  1.00  0.00     0.182 C 
ATOM     11  C   UNL A   1      33.951  24.701  24.099  1.00  0.00     0.333 C 
ATOM     12  O   UNL A   1      32.949  24.875  23.093  1.00  0.00    -0.332 OA
ATOM     13  C   UNL A   1      32.032  26.787  24.247  1.00  0.00     0.184 C 
ATOM     14  C   UNL A   1      32.551  26.233  22.923  1.00  0.00     0.180 C 
ATOM     15  O   UNL A   1      31.437  28.055  24.044  1.00  0.00    -0.337 OA
ATOM     16  C   UNL A   1      31.415  26.297  21.888  1.00  0.00     0.199 C 
ATOM     17  C   UNL A   1      30.304  27.883  23.200  1.00  0.00     0.319 C 
ATOM     18  O   UNL A   1      30.740  27.558  21.882  1.00  0.00    -0.343 OA
BRANCH  10  19
ATOM     19  N   UNL A   1      32.842  24.490  26.468  1.00  0.00    -0.345 N 
ATOM     20  C   UNL A   1      30.741  23.543  25.404  1.00  0.00     0.114 C 
ATOM     21  C   UNL A   1      31.689  23.779  26.546  1.00  0.00     0.217 C 
ATOM     22  O   UNL A   1      31.441  23.251  27.636  1.00  0.00    -0.275 OA
ATOM     23  H   UNL A   1      33.328  24.430  27.322  1.00  0.00     0.164 HD
ENDBRANCH  10  19
BRANCH  11  24
ATOM     24  O   UNL A   1      34.459  23.358  24.158  1.00  0.00    -0.463 OA
BRANCH  24  25
ATOM     25  C   UNL A   1      35.611  23.090  24.840  1.00  0.00     0.123 A 
ATOM     26  C   UNL A   1      36.324  23.985  25.627  1.00  0.00     0.047 A 
ATOM     27  C   UNL A   1      36.120  21.800  24.666  1.00  0.00     0.050 A 
ATOM     28  C   UNL A   1      37.607  23.667  26.068  1.00  0.00     0.007 A 
ATOM     29  C   UNL A   1      37.388  21.439  25.161  1.00  0.00    -0.045 A 
ATOM     30  C   UNL A   1      38.174  22.417  25.795  1.00  0.00    -0.048 A 
ATOM     31  C   UNL A   1      37.835  20.014  24.991  1.00  0.00     0.045 C 
ATOM     32  C   UNL A   1      39.603  22.179  26.192  1.00  0.00     0.044 C 
ENDBRANCH  24  25
ENDBRANCH  11  24
BRANCH  17  33
ATOM     33  C   UNL A   1      29.506  29.136  23.179  1.00  0.00     0.159 A 
ATOM     34  C   UNL A   1      28.226  29.412  22.734  1.00  0.00     0.051 A 
ATOM     35  O   UNL A   1      30.009  30.230  23.826  1.00  0.00    -0.464 OA
ATOM     36  C   UNL A   1      27.941  30.740  23.126  1.00  0.00     0.042 A 
ATOM     37  C   UNL A   1      29.061  31.198  23.777  1.00  0.00     0.195 A 
ENDBRANCH  17  33
ENDBRANCH   8   9
ENDBRANCH   7   8
ENDBRANCH   4   7
ENDBRANCH   2   3
ENDBRANCH   1   2
BRANCH   1  38
ATOM     38  C   UNL A   1      35.523  33.296  28.706  1.00  0.00     0.002 C 
BRANCH  38  39
ATOM     39  C   UNL A   1      34.648  34.344  28.015  1.00  0.00     0.002 C 
BRANCH  39  40
ATOM     40  C   UNL A   1      33.401  34.751  28.800  1.00  0.00     0.021 C 
BRANCH  40  41
ATOM     41  C   UNL A   1      33.552  36.047  29.588  1.00  0.00     0.116 C 
BRANCH  41  42
ATOM     42  N   UNL A   1      32.582  36.147  30.666  1.00  0.00    -0.352 N 
ATOM     43  C   UNL A   1      32.595  35.564  31.909  1.00  0.00     0.251 C 
ATOM     44  H   UNL A   1      31.800  36.717  30.478  1.00  0.00     0.163 HD
ATOM     45  O   UNL A   1      31.599  35.591  32.618  1.00  0.00    -0.269 OA
BRANCH  43  46
ATOM     46  C   UNL A   1      33.820  34.882  32.380  1.00  0.00     0.039 A 
ATOM     47  C   UNL A   1      33.711  33.606  32.936  1.00  0.00     0.014 A 
ATOM     48  C   UNL A   1      35.069  35.501  32.273  1.00  0.00     0.014 A 
ATOM     49  C   UNL A   1      34.863  32.926  33.332  1.00  0.00     0.010 A 
ATOM     50  C   UNL A   1      36.221  34.790  32.591  1.00  0.00     0.010 A 
ATOM     51  C   UNL A   1      36.130  33.498  33.130  1.00  0.00    -0.014 A 
BRANCH  51  52
ATOM     52  C   UNL A   1      37.369  32.758  33.477  1.00  0.00     0.031 A 
ATOM     53  C   UNL A   1      38.125  33.093  34.731  1.00  0.00     0.074 A 
ATOM     54  C   UNL A   1      37.849  31.831  32.627  1.00  0.00     0.049 A 
ATOM     55  N   UNL A   1      39.256  32.602  35.174  1.00  0.00    -0.248 NA
ATOM     56  C   UNL A   1      37.549  34.141  35.587  1.00  0.00     0.031 C 
ATOM     57  C   UNL A   1      37.235  31.457  31.352  1.00  0.00     0.029 A 
ATOM     58  N   UNL A   1      38.970  31.043  32.702  1.00  0.00    -0.354 N 
ATOM     59  C   UNL A   1      39.526  33.284  36.352  1.00  0.00     0.074 A 
ATOM     60  C   UNL A   1      38.481  34.271  36.519  1.00  0.00     0.031 C 
ATOM     61  C   UNL A   1      37.978  30.501  30.772  1.00  0.00     0.029 A 
ATOM     62  C   UNL A   1      39.139  30.224  31.612  1.00  0.00     0.049 A 
ATOM     63  H   UNL A   1      39.593  31.062  33.464  1.00  0.00     0.167 HD
ATOM     64  C   UNL A   1      40.538  33.086  37.231  1.00  0.00     0.037 A 
ATOM     65  C   UNL A   1      40.126  29.357  31.316  1.00  0.00     0.037 A 
ATOM     66  C   UNL A   1      41.575  32.102  37.060  1.00  0.00     0.049 A 
ATOM     67  C   UNL A   1      41.252  29.166  32.296  1.00  0.00     0.074 A 
ATOM     68  C   UNL A   1      42.619  31.788  37.912  1.00  0.00     0.029 A 
ATOM     69  N   UNL A   1      41.706  31.277  35.950  1.00  0.00    -0.354 N 
ATOM     70  N   UNL A   1      41.459  29.762  33.445  1.00  0.00    -0.248 NA
ATOM     71  C   UNL A   1      42.274  28.173  31.942  1.00  0.00     0.031 C 
ATOM     72  C   UNL A   1      43.413  30.818  37.292  1.00  0.00     0.029 A 
ATOM     73  C   UNL A   1      42.829  30.475  36.083  1.00  0.00     0.049 A 
ATOM     74  H   UNL A   1      41.091  31.264  35.181  1.00  0.00     0.167 HD
ATOM     75  C   UNL A   1      42.620  29.204  33.962  1.00  0.00     0.074 A 
ATOM     76  C   UNL A   1      43.061  28.206  33.008  1.00  0.00     0.031 C 
ATOM     77  C   UNL A   1      43.261  29.490  35.122  1.00  0.00     0.037 A 
BRANCH  64  78
ATOM     78  C   UNL A   1      40.569  33.963  38.452  1.00  0.00     0.064 A 
ATOM     79  C   UNL A   1      39.868  33.626  39.622  1.00  0.00     0.173 A 
ATOM     80  C   UNL A   1      41.309  35.156  38.458  1.00  0.00     0.173 A 
ATOM     81  F   UNL A   1      39.136  32.502  39.670  1.00  0.00    -0.203 F 
ATOM     82  C   UNL A   1      39.865  34.472  40.728  1.00  0.00     0.198 A 
ATOM     83  C   UNL A   1      41.337  35.980  39.580  1.00  0.00     0.198 A 
ATOM     84  F   UNL A   1      42.006  35.525  37.372  1.00  0.00    -0.203 F 
ATOM     85  F   UNL A   1      39.128  34.163  41.804  1.00  0.00    -0.200 F 
ATOM     86  C   UNL A   1      40.603  35.645  40.708  1.00  0.00     0.200 A 
ATOM     87  F   UNL A   1      42.063  37.106  39.565  1.00  0.00    -0.200 F 
ATOM     88  F   UNL A   1      40.599  36.459  41.773  1.00  0.00    -0.200 F 
ENDBRANCH  64  78
BRANCH  65  89
ATOM     89  C   UNL A   1      40.075  28.598  30.040  1.00  0.00     0.064 A 
ATOM     90  C   UNL A   1      40.678  29.094  28.878  1.00  0.00     0.173 A 
ATOM     91  C   UNL A   1      39.443  27.347  29.966  1.00  0.00     0.173 A 
ATOM     92  F   UNL A   1      41.277  30.294  28.894  1.00  0.00    -0.203 F 
ATOM     93  C   UNL A   1      40.643  28.374  27.685  1.00  0.00     0.198 A 
ATOM     94  C   UNL A   1      39.434  26.614  28.781  1.00  0.00     0.198 A 
ATOM     95  F   UNL A   1      38.857  26.824  31.053  1.00  0.00    -0.203 F 
ATOM     96  F   UNL A   1      41.196  28.887  26.578  1.00  0.00    -0.200 F 
ATOM     97  C   UNL A   1      40.029  27.130  27.640  1.00  0.00     0.200 A 
ATOM     98  F   UNL A   1      38.857  25.405  28.747  1.00  0.00    -0.200 F 
ATOM     99  F   UNL A   1      40.008  26.432  26.496  1.00  0.00    -0.200 F 
ENDBRANCH  65  89
BRANCH  77 100
ATOM    100  C   UNL A   1      44.495  28.695  35.443  1.00  0.00     0.064 A 
ATOM    101  C   UNL A   1      45.774  29.129  35.061  1.00  0.00     0.173 A 
ATOM    102  C   UNL A   1      44.400  27.502  36.177  1.00  0.00     0.173 A 
ATOM    103  F   UNL A   1      45.920  30.254  34.345  1.00  0.00    -0.203 F 
ATOM    104  C   UNL A   1      46.907  28.383  35.377  1.00  0.00     0.198 A 
ATOM    105  C   UNL A   1      45.539  26.779  36.522  1.00  0.00     0.198 A 
ATOM    106  F   UNL A   1      43.203  27.046  36.573  1.00  0.00    -0.203 F 
ATOM    107  F   UNL A   1      48.113  28.790  34.957  1.00  0.00    -0.200 F 
ATOM    108  C   UNL A   1      46.790  27.215  36.115  1.00  0.00     0.200 A 
ATOM    109  F   UNL A   1      45.424  25.659  37.249  1.00  0.00    -0.200 F 
ATOM    110  F   UNL A   1      47.882  26.504  36.426  1.00  0.00    -0.200 F 
ENDBRANCH  77 100
ENDBRANCH  51  52
ENDBRANCH  43  46
ENDBRANCH  41  42
ENDBRANCH  40  41
ENDBRANCH  39  40
ENDBRANCH  38  39
ENDBRANCH   1  38
TORSDOF 19
ENDMDL
MODEL 2
REMARK VINA RESULT:     -13.1      5.981     12.115
REMARK SMILES CC(=O)N[C@H]1[C@@H](Oc2ccc(C)c(C)c2)O[C@H]2CO[C@H](c3ccco3)O[C@@H]2[C@H]1OCC(=O)NCCCCCCNC(=O)c1ccc(-c2c3nc(c(-c4c(F)c(F)c(F)c(F)c4F)c4ccc([nH]4)c(-c4c(F)c(F)c(F)c(F)c4F)c4nc(c(-c5c(F)c(F)c(F)c(F)c5F)c5ccc2[nH]5)C=C4)C=C3)cc1
REMARK SMILES IDX 35 1 34 2 33 3 31 4 32 5 30 7 29 8 28 9 5 10 6 11 16 12
REMARK SMILES IDX 27 13 17 14 26 15 18 16 20 17 19 18 4 19 1 20 2 21 3 22 7 24
REMARK SMILES IDX 8 25 9 26 15 27 10 28 13 29 11 30 14 31 12 32 21 33 22 34
REMARK SMILES IDX 25 35 23 36 24 37 36 38 37 39 38 40 39 41 40 42 41 43 42 45
REMARK SMILES IDX 43 46 44 47 105 48 45 49 104 50 46 51 47 52 48 53 98 54
REMARK SMILES IDX 49 55 103 56 97 57 99 58 50 59 102 60 96 61 95 62 51 64
REMARK SMILES IDX 83 65 63 66 82 67 64 68 67 69 81 70 100 71 65 72 66 73 80 75
REMARK SMILES IDX 101 76 68 77 52 78 53 79 61 80 54 81 55 82 59 83 62 84 56 85
REMARK SMILES IDX 57 86 60 87 58 88 84 89 85 90 93 91 86 92 87 93 91 94 94 95
REMARK SMILES IDX 88 96 89 97 92 98 90 99 69 100 70 101 78 102 71 103 72 104
REMARK SMILES IDX 76 105 79 106 73 107 74 108 77 109 75 110
REMARK H PARENT 33 6 4 23 40 44 99 63 67 74
REMARK Flexibility Score: inf
ROOT
ATOM      1  C   UNL A   1      40.463  22.766  27.474  1.00  0.00     0.021 C 
ENDROOT
BRANCH   1   2
ATOM      2  C   UNL A   1      39.237  23.348  26.769  1.00  0.00     0.116 C 
BRANCH   2   3
ATOM      3  N   UNL A   1      38.580  22.337  25.962  1.00  0.00    -0.354 N 
ATOM      4  C   UNL A   1      37.449  22.453  25.208  1.00  0.00     0.246 C 
ATOM      5  O   UNL A   1      36.985  21.444  24.676  1.00  0.00    -0.272 OA
ATOM      6  H   UNL A   1      39.005  21.449  25.961  1.00  0.00     0.163 HD
BRANCH   4   7
ATOM      7  C   UNL A   1      36.823  23.835  25.028  1.00  0.00     0.260 C 
BRANCH   7   8
ATOM      8  O   UNL A   1      35.558  23.861  24.388  1.00  0.00    -0.363 OA
BRANCH   8   9
ATOM      9  C   UNL A   1      34.418  24.075  25.228  1.00  0.00     0.179 C 
ATOM     10  C   UNL A   1      33.885  25.496  24.926  1.00  0.00     0.182 C 
ATOM     11  C   UNL A   1      32.545  25.743  25.722  1.00  0.00     0.333 C 
ATOM     12  O   UNL A   1      31.569  24.702  25.613  1.00  0.00    -0.332 OA
ATOM     13  C   UNL A   1      33.263  23.090  25.012  1.00  0.00     0.184 C 
ATOM     14  C   UNL A   1      32.085  23.411  25.928  1.00  0.00     0.180 C 
ATOM     15  O   UNL A   1      33.644  21.736  25.166  1.00  0.00    -0.337 OA
ATOM     16  C   UNL A   1      30.985  22.362  25.696  1.00  0.00     0.199 C 
ATOM     17  C   UNL A   1      32.559  20.919  24.740  1.00  0.00     0.319 C 
ATOM     18  O   UNL A   1      31.490  21.023  25.678  1.00  0.00    -0.343 OA
BRANCH  10  19
ATOM     19  N   UNL A   1      33.921  25.942  23.496  1.00  0.00    -0.345 N 
ATOM     20  C   UNL A   1      31.821  25.253  22.251  1.00  0.00     0.114 C 
ATOM     21  C   UNL A   1      33.189  25.864  22.358  1.00  0.00     0.217 C 
ATOM     22  O   UNL A   1      33.682  26.385  21.350  1.00  0.00    -0.275 OA
ATOM     23  H   UNL A   1      34.742  26.459  23.329  1.00  0.00     0.164 HD
ENDBRANCH  10  19
BRANCH  11  24
ATOM     24  O   UNL A   1      31.985  27.056  25.557  1.00  0.00    -0.463 OA
BRANCH  24  25
ATOM     25  C   UNL A   1      32.653  28.151  26.025  1.00  0.00     0.123 A 
ATOM     26  C   UNL A   1      33.954  28.170  26.509  1.00  0.00     0.047 A 
ATOM     27  C   UNL A   1      31.911  29.335  26.053  1.00  0.00     0.050 A 
ATOM     28  C   UNL A   1      34.437  29.290  27.184  1.00  0.00     0.007 A 
ATOM     29  C   UNL A   1      32.408  30.496  26.674  1.00  0.00    -0.045 A 
ATOM     30  C   UNL A   1      33.654  30.441  27.322  1.00  0.00    -0.048 A 
ATOM     31  C   UNL A   1      31.577  31.747  26.604  1.00  0.00     0.045 C 
ATOM     32  C   UNL A   1      34.183  31.568  28.163  1.00  0.00     0.044 C 
ENDBRANCH  24  25
ENDBRANCH  11  24
BRANCH  17  33
ATOM     33  C   UNL A   1      33.011  19.507  24.636  1.00  0.00     0.159 A 
ATOM     34  C   UNL A   1      34.270  18.940  24.577  1.00  0.00     0.051 A 
ATOM     35  O   UNL A   1      32.071  18.521  24.755  1.00  0.00    -0.464 OA
ATOM     36  C   UNL A   1      34.086  17.540  24.657  1.00  0.00     0.042 A 
ATOM     37  C   UNL A   1      32.729  17.336  24.753  1.00  0.00     0.195 A 
ENDBRANCH  17  33
ENDBRANCH   8   9
ENDBRANCH   7   8
ENDBRANCH   4   7
ENDBRANCH   2   3
ENDBRANCH   1   2
BRANCH   1  38
ATOM     38  C   UNL A   1      40.674  21.266  27.233  1.00  0.00     0.002 C 
BRANCH  38  39
ATOM     39  C   UNL A   1      42.057  20.741  27.627  1.00  0.00     0.002 C 
BRANCH  39  40
ATOM     40  C   UNL A   1      42.481  19.462  26.906  1.00  0.00     0.021 C 
BRANCH  40  41
ATOM     41  C   UNL A   1      42.418  19.548  25.386  1.00  0.00     0.116 C 
BRANCH  41  42
ATOM     42  N   UNL A   1      43.594  18.970  24.755  1.00  0.00    -0.352 N 
ATOM     43  C   UNL A   1      44.756  19.580  24.354  1.00  0.00     0.251 C 
ATOM     44  H   UNL A   1      43.549  17.999  24.591  1.00  0.00     0.163 HD
ATOM     45  O   UNL A   1      45.562  18.980  23.654  1.00  0.00    -0.269 OA
BRANCH  43  46
ATOM     46  C   UNL A   1      45.023  20.977  24.756  1.00  0.00     0.039 A 
ATOM     47  C   UNL A   1      44.727  22.006  23.859  1.00  0.00     0.014 A 
ATOM     48  C   UNL A   1      45.563  21.269  26.012  1.00  0.00     0.014 A 
ATOM     49  C   UNL A   1      44.918  23.333  24.246  1.00  0.00     0.010 A 
ATOM     50  C   UNL A   1      45.674  22.592  26.424  1.00  0.00     0.010 A 
ATOM     51  C   UNL A   1      45.360  23.638  25.544  1.00  0.00    -0.014 A 
BRANCH  51  52
ATOM     52  C   UNL A   1      45.498  25.045  25.995  1.00  0.00     0.031 A 
ATOM     53  C   UNL A   1      46.841  25.719  25.976  1.00  0.00     0.074 A 
ATOM     54  C   UNL A   1      44.425  25.694  26.486  1.00  0.00     0.049 A 
ATOM     55  N   UNL A   1      47.173  26.918  26.385  1.00  0.00    -0.248 NA
ATOM     56  C   UNL A   1      47.966  24.929  25.455  1.00  0.00     0.031 C 
ATOM     57  C   UNL A   1      43.081  25.128  26.609  1.00  0.00     0.029 A 
ATOM     58  N   UNL A   1      44.299  26.966  26.985  1.00  0.00    -0.354 N 
ATOM     59  C   UNL A   1      48.541  27.020  26.176  1.00  0.00     0.074 A 
ATOM     60  C   UNL A   1      48.989  25.741  25.671  1.00  0.00     0.031 C 
ATOM     61  C   UNL A   1      42.262  26.054  27.132  1.00  0.00     0.029 A 
ATOM     62  C   UNL A   1      43.030  27.262  27.419  1.00  0.00     0.049 A 
ATOM     63  H   UNL A   1      45.046  27.606  27.026  1.00  0.00     0.167 HD
ATOM     64  C   UNL A   1      49.347  28.094  26.360  1.00  0.00     0.037 A 
ATOM     65  C   UNL A   1      42.543  28.376  27.998  1.00  0.00     0.037 A 
ATOM     66  C   UNL A   1      48.896  29.366  26.862  1.00  0.00     0.049 A 
ATOM     67  C   UNL A   1      43.458  29.551  28.213  1.00  0.00     0.074 A 
ATOM     68  C   UNL A   1      49.620  30.531  27.043  1.00  0.00     0.029 A 
ATOM     69  N   UNL A   1      47.598  29.635  27.278  1.00  0.00    -0.354 N 
ATOM     70  N   UNL A   1      44.736  29.664  27.943  1.00  0.00    -0.248 NA
ATOM     71  C   UNL A   1      42.860  30.755  28.803  1.00  0.00     0.031 C 
ATOM     72  C   UNL A   1      48.776  31.485  27.622  1.00  0.00     0.029 A 
ATOM     73  C   UNL A   1      47.508  30.938  27.741  1.00  0.00     0.049 A 
ATOM     74  H   UNL A   1      46.851  28.993  27.249  1.00  0.00     0.167 HD
ATOM     75  C   UNL A   1      45.091  30.956  28.307  1.00  0.00     0.074 A 
ATOM     76  C   UNL A   1      43.887  31.593  28.802  1.00  0.00     0.031 C 
ATOM     77  C   UNL A   1      46.304  31.559  28.237  1.00  0.00     0.037 A 
BRANCH  64  78
ATOM     78  C   UNL A   1      50.803  27.927  26.022  1.00  0.00     0.064 A 
ATOM     79  C   UNL A   1      51.763  27.648  27.008  1.00  0.00     0.173 A 
ATOM     80  C   UNL A   1      51.247  28.044  24.696  1.00  0.00     0.173 A 
ATOM     81  F   UNL A   1      51.397  27.535  28.295  1.00  0.00    -0.203 F 
ATOM     82  C   UNL A   1      53.115  27.544  26.687  1.00  0.00     0.198 A 
ATOM     83  C   UNL A   1      52.594  27.900  24.373  1.00  0.00     0.198 A 
ATOM     84  F   UNL A   1      50.374  28.300  23.710  1.00  0.00    -0.203 F 
ATOM     85  F   UNL A   1      54.018  27.351  27.658  1.00  0.00    -0.200 F 
ATOM     86  C   UNL A   1      53.528  27.665  25.371  1.00  0.00     0.200 A 
ATOM     87  F   UNL A   1      52.991  28.001  23.097  1.00  0.00    -0.200 F 
ATOM     88  F   UNL A   1      54.829  27.565  25.063  1.00  0.00    -0.200 F 
ENDBRANCH  64  78
BRANCH  65  89
ATOM     89  C   UNL A   1      41.113  28.428  28.396  1.00  0.00     0.064 A 
ATOM     90  C   UNL A   1      40.695  27.984  29.657  1.00  0.00     0.173 A 
ATOM     91  C   UNL A   1      40.138  28.949  27.532  1.00  0.00     0.173 A 
ATOM     92  F   UNL A   1      41.586  27.459  30.511  1.00  0.00    -0.203 F 
ATOM     93  C   UNL A   1      39.355  28.047  30.035  1.00  0.00     0.198 A 
ATOM     94  C   UNL A   1      38.803  29.041  27.922  1.00  0.00     0.198 A 
ATOM     95  F   UNL A   1      40.488  29.397  26.316  1.00  0.00    -0.203 F 
ATOM     96  F   UNL A   1      38.976  27.581  31.233  1.00  0.00    -0.200 F 
ATOM     97  C   UNL A   1      38.412  28.584  29.171  1.00  0.00     0.200 A 
ATOM     98  F   UNL A   1      37.900  29.578  27.091  1.00  0.00    -0.200 F 
ATOM     99  F   UNL A   1      37.126  28.658  29.541  1.00  0.00    -0.200 F 
ENDBRANCH  65  89
BRANCH  77 100
ATOM    100  C   UNL A   1      46.387  32.992  28.680  1.00  0.00     0.064 A 
ATOM    101  C   UNL A   1      46.724  33.341  29.997  1.00  0.00     0.173 A 
ATOM    102  C   UNL A   1      46.166  34.033  27.763  1.00  0.00     0.173 A 
ATOM    103  F   UNL A   1      46.931  32.387  30.916  1.00  0.00    -0.203 F 
ATOM    104  C   UNL A   1      46.807  34.677  30.385  1.00  0.00     0.198 A 
ATOM    105  C   UNL A   1      46.286  35.365  28.146  1.00  0.00     0.198 A 
ATOM    106  F   UNL A   1      45.848  33.755  26.490  1.00  0.00    -0.203 F 
ATOM    107  F   UNL A   1      47.079  34.986  31.660  1.00  0.00    -0.200 F 
ATOM    108  C   UNL A   1      46.597  35.687  29.458  1.00  0.00     0.200 A 
ATOM    109  F   UNL A   1      46.098  36.339  27.245  1.00  0.00    -0.200 F 
ATOM    110  F   UNL A   1      46.688  36.970  29.831  1.00  0.00    -0.200 F 
ENDBRANCH  77 100
ENDBRANCH  51  52
ENDBRANCH  43  46
ENDBRANCH  41  42
ENDBRANCH  40  41
ENDBRANCH  39  40
ENDBRANCH  38  39
ENDBRANCH   1  38
TORSDOF 19
ENDMDL
MODEL 3
REMARK VINA RESULT:     -13.0      1.046      2.156
REMARK SMILES CC(=O)N[C@H]1[C@@H](Oc2ccc(C)c(C)c2)O[C@H]2CO[C@H](c3ccco3)O[C@@H]2[C@H]1OCC(=O)NCCCCCCNC(=O)c1ccc(-c2c3nc(c(-c4c(F)c(F)c(F)c(F)c4F)c4ccc([nH]4)c(-c4c(F)c(F)c(F)c(F)c4F)c4nc(c(-c5c(F)c(F)c(F)c(F)c5F)c5ccc2[nH]5)C=C4)C=C3)cc1
REMARK SMILES IDX 35 1 34 2 33 3 31 4 32 5 30 7 29 8 28 9 5 10 6 11 16 12
REMARK SMILES IDX 27 13 17 14 26 15 18 16 20 17 19 18 4 19 1 20 2 21 3 22 7 24
REMARK SMILES IDX 8 25 9 26 15 27 10 28 13 29 11 30 14 31 12 32 21 33 22 34
REMARK SMILES IDX 25 35 23 36 24 37 36 38 37 39 38 40 39 41 40 42 41 43 42 45
REMARK SMILES IDX 43 46 44 47 105 48 45 49 104 50 46 51 47 52 48 53 98 54
REMARK SMILES IDX 49 55 103 56 97 57 99 58 50 59 102 60 96 61 95 62 51 64
REMARK SMILES IDX 83 65 63 66 82 67 64 68 67 69 81 70 100 71 65 72 66 73 80 75
REMARK SMILES IDX 101 76 68 77 52 78 53 79 61 80 54 81 55 82 59 83 62 84 56 85
REMARK SMILES IDX 57 86 60 87 58 88 84 89 85 90 93 91 86 92 87 93 91 94 94 95
REMARK SMILES IDX 88 96 89 97 92 98 90 99 69 100 70 101 78 102 71 103 72 104
REMARK SMILES IDX 76 105 79 106 73 107 74 108 77 109 75 110
REMARK H PARENT 33 6 4 23 40 44 99 63 67 74
REMARK Flexibility Score: inf
ROOT
ATOM      1  C   UNL A   1      34.451  32.301  28.935  1.00  0.00     0.021 C 
ENDROOT
BRANCH   1   2
ATOM      2  C   UNL A   1      34.420  31.100  27.990  1.00  0.00     0.116 C 
BRANCH   2   3
ATOM      3  N   UNL A   1      33.189  31.080  27.224  1.00  0.00    -0.354 N 
ATOM      4  C   UNL A   1      32.510  30.004  26.732  1.00  0.00     0.246 C 
ATOM      5  O   UNL A   1      31.532  30.199  26.010  1.00  0.00    -0.272 OA
ATOM      6  H   UNL A   1      32.790  31.960  27.034  1.00  0.00     0.163 HD
BRANCH   4   7
ATOM      7  C   UNL A   1      32.972  28.601  27.121  1.00  0.00     0.260 C 
BRANCH   7   8
ATOM      8  O   UNL A   1      32.341  27.531  26.437  1.00  0.00    -0.363 OA
BRANCH   8   9
ATOM      9  C   UNL A   1      33.003  27.036  25.268  1.00  0.00     0.179 C 
ATOM     10  C   UNL A   1      33.653  25.684  25.644  1.00  0.00     0.182 C 
ATOM     11  C   UNL A   1      34.285  25.020  24.360  1.00  0.00     0.333 C 
ATOM     12  O   UNL A   1      33.431  24.975  23.213  1.00  0.00    -0.332 OA
ATOM     13  C   UNL A   1      32.088  26.793  24.062  1.00  0.00     0.184 C 
ATOM     14  C   UNL A   1      32.874  26.243  22.875  1.00  0.00     0.180 C 
ATOM     15  O   UNL A   1      31.356  27.939  23.673  1.00  0.00    -0.337 OA
ATOM     16  C   UNL A   1      31.909  26.066  21.691  1.00  0.00     0.199 C 
ATOM     17  C   UNL A   1      30.399  27.543  22.696  1.00  0.00     0.319 C 
ATOM     18  O   UNL A   1      31.069  27.206  21.484  1.00  0.00    -0.343 OA
BRANCH  10  19
ATOM     19  N   UNL A   1      32.875  24.791  26.561  1.00  0.00    -0.345 N 
ATOM     20  C   UNL A   1      30.783  23.897  25.436  1.00  0.00     0.114 C 
ATOM     21  C   UNL A   1      31.722  24.078  26.595  1.00  0.00     0.217 C 
ATOM     22  O   UNL A   1      31.466  23.498  27.656  1.00  0.00    -0.275 OA
ATOM     23  H   UNL A   1      33.354  24.690  27.415  1.00  0.00     0.164 HD
ENDBRANCH  10  19
BRANCH  11  24
ATOM     24  O   UNL A   1      34.965  23.778  24.601  1.00  0.00    -0.463 OA
BRANCH  24  25
ATOM     25  C   UNL A   1      34.264  22.606  24.632  1.00  0.00     0.123 A 
ATOM     26  C   UNL A   1      34.342  21.632  25.618  1.00  0.00     0.047 A 
ATOM     27  C   UNL A   1      33.442  22.375  23.526  1.00  0.00     0.050 A 
ATOM     28  C   UNL A   1      33.768  20.378  25.414  1.00  0.00     0.007 A 
ATOM     29  C   UNL A   1      32.801  21.136  23.335  1.00  0.00    -0.045 A 
ATOM     30  C   UNL A   1      33.042  20.098  24.252  1.00  0.00    -0.048 A 
ATOM     31  C   UNL A   1      31.881  20.989  22.155  1.00  0.00     0.045 C 
ATOM     32  C   UNL A   1      32.552  18.694  24.035  1.00  0.00     0.044 C 
ENDBRANCH  24  25
ENDBRANCH  11  24
BRANCH  17  33
ATOM     33  C   UNL A   1      29.442  28.655  22.459  1.00  0.00     0.159 A 
ATOM     34  C   UNL A   1      28.263  29.012  23.084  1.00  0.00     0.051 A 
ATOM     35  O   UNL A   1      29.794  29.625  21.562  1.00  0.00    -0.464 OA
ATOM     36  C   UNL A   1      27.877  30.257  22.537  1.00  0.00     0.042 A 
ATOM     37  C   UNL A   1      28.835  30.582  21.607  1.00  0.00     0.195 A 
ENDBRANCH  17  33
ENDBRANCH   8   9
ENDBRANCH   7   8
ENDBRANCH   4   7
ENDBRANCH   2   3
ENDBRANCH   1   2
BRANCH   1  38
ATOM     38  C   UNL A   1      35.400  33.424  28.496  1.00  0.00     0.002 C 
BRANCH  38  39
ATOM     39  C   UNL A   1      34.710  34.740  28.132  1.00  0.00     0.002 C 
BRANCH  39  40
ATOM     40  C   UNL A   1      33.401  35.001  28.877  1.00  0.00     0.021 C 
BRANCH  40  41
ATOM     41  C   UNL A   1      33.335  36.356  29.571  1.00  0.00     0.116 C 
BRANCH  41  42
ATOM     42  N   UNL A   1      32.479  36.327  30.747  1.00  0.00    -0.352 N 
ATOM     43  C   UNL A   1      32.593  35.576  31.890  1.00  0.00     0.251 C 
ATOM     44  H   UNL A   1      31.703  36.934  30.718  1.00  0.00     0.163 HD
ATOM     45  O   UNL A   1      31.672  35.526  32.694  1.00  0.00    -0.269 OA
BRANCH  43  46
ATOM     46  C   UNL A   1      33.833  34.809  32.137  1.00  0.00     0.039 A 
ATOM     47  C   UNL A   1      35.056  35.481  32.130  1.00  0.00     0.014 A 
ATOM     48  C   UNL A   1      33.785  33.432  32.374  1.00  0.00     0.014 A 
ATOM     49  C   UNL A   1      36.228  34.782  32.419  1.00  0.00     0.010 A 
ATOM     50  C   UNL A   1      34.943  32.755  32.743  1.00  0.00     0.010 A 
ATOM     51  C   UNL A   1      36.178  33.421  32.763  1.00  0.00    -0.014 A 
BRANCH  51  52
ATOM     52  C   UNL A   1      37.406  32.680  33.145  1.00  0.00     0.031 A 
ATOM     53  C   UNL A   1      38.118  33.005  34.427  1.00  0.00     0.074 A 
ATOM     54  C   UNL A   1      37.916  31.762  32.303  1.00  0.00     0.049 A 
ATOM     55  N   UNL A   1      39.234  32.512  34.903  1.00  0.00    -0.248 NA
ATOM     56  C   UNL A   1      37.511  34.043  35.273  1.00  0.00     0.031 C 
ATOM     57  C   UNL A   1      37.347  31.399  31.004  1.00  0.00     0.029 A 
ATOM     58  N   UNL A   1      39.036  30.975  32.409  1.00  0.00    -0.354 N 
ATOM     59  C   UNL A   1      39.463  33.183  36.096  1.00  0.00     0.074 A 
ATOM     60  C   UNL A   1      38.410  34.166  36.237  1.00  0.00     0.031 C 
ATOM     61  C   UNL A   1      38.111  30.450  30.441  1.00  0.00     0.029 A 
ATOM     62  C   UNL A   1      39.244  30.167  31.318  1.00  0.00     0.049 A 
ATOM     63  H   UNL A   1      39.632  30.989  33.192  1.00  0.00     0.167 HD
ATOM     64  C   UNL A   1      40.445  32.979  37.008  1.00  0.00     0.037 A 
ATOM     65  C   UNL A   1      40.243  29.306  31.047  1.00  0.00     0.037 A 
ATOM     66  C   UNL A   1      41.489  31.999  36.863  1.00  0.00     0.049 A 
ATOM     67  C   UNL A   1      41.335  29.107  32.062  1.00  0.00     0.074 A 
ATOM     68  C   UNL A   1      42.504  31.679  37.747  1.00  0.00     0.029 A 
ATOM     69  N   UNL A   1      41.660  31.184  35.750  1.00  0.00    -0.354 N 
ATOM     70  N   UNL A   1      41.502  29.693  33.223  1.00  0.00    -0.248 NA
ATOM     71  C   UNL A   1      42.371  28.120  31.734  1.00  0.00     0.031 C 
ATOM     72  C   UNL A   1      43.322  30.716  37.145  1.00  0.00     0.029 A 
ATOM     73  C   UNL A   1      42.779  30.384  35.914  1.00  0.00     0.049 A 
ATOM     74  H   UNL A   1      41.071  31.178  34.960  1.00  0.00     0.167 HD
ATOM     75  C   UNL A   1      42.646  29.132  33.775  1.00  0.00     0.074 A 
ATOM     76  C   UNL A   1      43.122  28.145  32.827  1.00  0.00     0.031 C 
ATOM     77  C   UNL A   1      43.246  29.409  34.959  1.00  0.00     0.037 A 
BRANCH  64  78
ATOM     78  C   UNL A   1      40.432  33.845  38.237  1.00  0.00     0.064 A 
ATOM     79  C   UNL A   1      41.212  35.009  38.328  1.00  0.00     0.173 A 
ATOM     80  C   UNL A   1      39.630  33.511  39.339  1.00  0.00     0.173 A 
ATOM     81  F   UNL A   1      42.006  35.373  37.308  1.00  0.00    -0.203 F 
ATOM     82  C   UNL A   1      41.228  35.775  39.492  1.00  0.00     0.198 A 
ATOM     83  C   UNL A   1      39.618  34.301  40.486  1.00  0.00     0.198 A 
ATOM     84  F   UNL A   1      38.856  32.415  39.306  1.00  0.00    -0.203 F 
ATOM     85  F   UNL A   1      42.037  36.840  39.579  1.00  0.00    -0.200 F 
ATOM     86  C   UNL A   1      40.428  35.423  40.566  1.00  0.00     0.200 A 
ATOM     87  F   UNL A   1      38.832  33.968  41.519  1.00  0.00    -0.200 F 
ATOM     88  F   UNL A   1      40.445  36.161  41.686  1.00  0.00    -0.200 F 
ENDBRANCH  64  78
BRANCH  65  89
ATOM     89  C   UNL A   1      40.236  28.559  29.763  1.00  0.00     0.064 A 
ATOM     90  C   UNL A   1      40.936  29.032  28.646  1.00  0.00     0.173 A 
ATOM     91  C   UNL A   1      39.551  27.340  29.636  1.00  0.00     0.173 A 
ATOM     92  F   UNL A   1      41.589  30.202  28.712  1.00  0.00    -0.203 F 
ATOM     93  C   UNL A   1      40.942  28.323  27.446  1.00  0.00     0.198 A 
ATOM     94  C   UNL A   1      39.583  26.616  28.446  1.00  0.00     0.198 A 
ATOM     95  F   UNL A   1      38.873  26.839  30.679  1.00  0.00    -0.203 F 
ATOM     96  F   UNL A   1      41.589  28.817  26.382  1.00  0.00    -0.200 F 
ATOM     97  C   UNL A   1      40.274  27.111  27.351  1.00  0.00     0.200 A 
ATOM     98  F   UNL A   1      38.952  25.438  28.364  1.00  0.00    -0.200 F 
ATOM     99  F   UNL A   1      40.292  26.423  26.201  1.00  0.00    -0.200 F 
ENDBRANCH  65  89
BRANCH  77 100
ATOM    100  C   UNL A   1      44.470  28.614  35.313  1.00  0.00     0.064 A 
ATOM    101  C   UNL A   1      44.385  27.382  35.981  1.00  0.00     0.173 A 
ATOM    102  C   UNL A   1      45.746  29.071  34.943  1.00  0.00     0.173 A 
ATOM    103  F   UNL A   1      43.193  26.906  36.370  1.00  0.00    -0.203 F 
ATOM    104  C   UNL A   1      45.532  26.655  36.291  1.00  0.00     0.198 A 
ATOM    105  C   UNL A   1      46.886  28.324  35.223  1.00  0.00     0.198 A 
ATOM    106  F   UNL A   1      45.883  30.238  34.297  1.00  0.00    -0.203 F 
ATOM    107  F   UNL A   1      45.431  25.507  36.976  1.00  0.00    -0.200 F 
ATOM    108  C   UNL A   1      46.780  27.121  35.904  1.00  0.00     0.200 A 
ATOM    109  F   UNL A   1      48.088  28.769  34.834  1.00  0.00    -0.200 F 
ATOM    110  F   UNL A   1      47.881  26.415  36.194  1.00  0.00    -0.200 F 
ENDBRANCH  77 100
ENDBRANCH  51  52
ENDBRANCH  43  46
ENDBRANCH  41  42
ENDBRANCH  40  41
ENDBRANCH  39  40
ENDBRANCH  38  39
ENDBRANCH   1  38
TORSDOF 19
ENDMDL
