MODEL 1
REMARK VINA RESULT:     -12.4      0.000      0.000
REMARK SMILES O=C(Cc1cccc(-c2ccn(C(F)F)c(=O)c2)c1)NCCCCCCNC(=O)c1ccc(-c2c3nc(c(-c4c(F)c(F)c(F)c(F)c4F)c4ccc([nH]4)c(-c4c(F)c(F)c(F)c(F)c4F)c4nc(c(-c5c(F)c(F)c(F)c(F)c5F)c5ccc2[nH]5)C=C4)C=C3)cc1
REMARK SMILES IDX 23 1 22 2 21 3 20 4 1 5 2 6 3 8 4 9 5 10 19 11 6 12 8 13
REMARK SMILES IDX 7 14 9 15 10 16 18 17 11 18 16 19 12 20 17 21 13 22 14 23
REMARK SMILES IDX 15 24 24 25 25 26 26 27 27 28 28 29 29 31 30 32 31 33 92 34
REMARK SMILES IDX 32 35 91 36 33 37 34 38 35 39 85 40 36 41 90 42 84 43 86 44
REMARK SMILES IDX 37 45 89 46 83 47 82 48 38 50 70 51 50 52 69 53 51 54 54 55
REMARK SMILES IDX 68 56 87 57 52 58 53 59 67 61 88 62 55 63 39 64 40 65 48 66
REMARK SMILES IDX 41 67 42 68 46 69 49 70 43 71 44 72 47 73 45 74 71 75 72 76
REMARK SMILES IDX 80 77 73 78 74 79 78 80 81 81 75 82 76 83 79 84 77 85 56 86
REMARK SMILES IDX 57 87 65 88 58 89 59 90 63 91 66 92 60 93 61 94 64 95 62 96
REMARK H PARENT 20 7 27 30 86 49 54 60
REMARK Flexibility Score: inf
ROOT
ATOM      1  C   UNL A   1      32.006  29.908  25.771  1.00  0.00     0.002 C 
ENDROOT
BRANCH   1   2
ATOM      2  C   UNL A   1      31.713  29.015  26.984  1.00  0.00     0.021 C 
BRANCH   2   3
ATOM      3  C   UNL A   1      32.868  28.117  27.416  1.00  0.00     0.116 C 
BRANCH   3   4
ATOM      4  N   UNL A   1      33.204  27.138  26.402  1.00  0.00    -0.356 N 
ATOM      5  O   UNL A   1      31.572  25.623  26.971  1.00  0.00    -0.275 OA
ATOM      6  C   UNL A   1      32.473  25.981  26.219  1.00  0.00     0.224 C 
ATOM      7  H   UNL A   1      33.982  27.304  25.824  1.00  0.00     0.163 HD
BRANCH   6   8
ATOM      8  C   UNL A   1      32.883  25.178  24.992  1.00  0.00     0.135 C 
BRANCH   8   9
ATOM      9  C   UNL A   1      34.026  24.201  25.189  1.00  0.00    -0.038 A 
ATOM     10  C   UNL A   1      35.326  24.699  25.362  1.00  0.00     0.004 A 
ATOM     11  C   UNL A   1      33.850  22.810  25.186  1.00  0.00     0.013 A 
ATOM     12  C   UNL A   1      36.413  23.830  25.502  1.00  0.00     0.001 A 
ATOM     13  C   UNL A   1      34.940  21.931  25.279  1.00  0.00    -0.018 A 
ATOM     14  C   UNL A   1      36.224  22.448  25.449  1.00  0.00     0.009 A 
BRANCH  13  15
ATOM     15  C   UNL A   1      34.676  20.489  25.137  1.00  0.00    -0.011 A 
ATOM     16  C   UNL A   1      35.736  19.551  24.817  1.00  0.00     0.027 A 
ATOM     17  C   UNL A   1      33.408  20.051  25.205  1.00  0.00     0.080 A 
ATOM     18  C   UNL A   1      35.451  18.277  24.527  1.00  0.00     0.095 A 
ATOM     19  C   UNL A   1      33.080  18.626  24.913  1.00  0.00     0.255 A 
ATOM     20  N   UNL A   1      34.148  17.817  24.556  1.00  0.00    -0.258 N 
ATOM     21  O   UNL A   1      31.909  18.270  24.981  1.00  0.00    -0.269 OA
BRANCH  20  22
ATOM     22  C   UNL A   1      33.846  16.460  24.183  1.00  0.00     0.451 C 
ATOM     23  F   UNL A   1      34.346  16.159  22.961  1.00  0.00    -0.185 F 
ATOM     24  F   UNL A   1      34.364  15.585  25.079  1.00  0.00    -0.185 F 
ENDBRANCH  20  22
ENDBRANCH  13  15
ENDBRANCH   8   9
ENDBRANCH   6   8
ENDBRANCH   3   4
ENDBRANCH   2   3
ENDBRANCH   1   2
BRANCH   1  25
ATOM     25  C   UNL A   1      31.273  31.253  25.748  1.00  0.00     0.002 C 
BRANCH  25  26
ATOM     26  C   UNL A   1      31.358  32.070  27.039  1.00  0.00     0.021 C 
BRANCH  26  27
ATOM     27  C   UNL A   1      32.645  32.871  27.221  1.00  0.00     0.116 C 
BRANCH  27  28
ATOM     28  N   UNL A   1      32.398  34.251  27.607  1.00  0.00    -0.352 N 
ATOM     29  C   UNL A   1      32.995  35.008  28.584  1.00  0.00     0.251 C 
ATOM     30  H   UNL A   1      31.699  34.713  27.089  1.00  0.00     0.163 HD
ATOM     31  O   UNL A   1      32.542  36.116  28.864  1.00  0.00    -0.269 OA
BRANCH  29  32
ATOM     32  C   UNL A   1      34.162  34.484  29.329  1.00  0.00     0.039 A 
ATOM     33  C   UNL A   1      33.950  33.883  30.573  1.00  0.00     0.014 A 
ATOM     34  C   UNL A   1      35.458  34.586  28.815  1.00  0.00     0.014 A 
ATOM     35  C   UNL A   1      35.024  33.322  31.266  1.00  0.00     0.010 A 
ATOM     36  C   UNL A   1      36.517  33.962  29.473  1.00  0.00     0.010 A 
ATOM     37  C   UNL A   1      36.312  33.320  30.702  1.00  0.00    -0.014 A 
BRANCH  37  38
ATOM     38  C   UNL A   1      37.438  32.624  31.377  1.00  0.00     0.031 A 
ATOM     39  C   UNL A   1      38.125  31.459  30.722  1.00  0.00     0.074 A 
ATOM     40  C   UNL A   1      37.807  33.012  32.614  1.00  0.00     0.049 A 
ATOM     41  N   UNL A   1      39.109  30.721  31.169  1.00  0.00    -0.248 NA
ATOM     42  C   UNL A   1      37.622  31.053  29.401  1.00  0.00     0.031 C 
ATOM     43  C   UNL A   1      37.183  34.092  33.379  1.00  0.00     0.029 A 
ATOM     44  N   UNL A   1      38.791  32.540  33.446  1.00  0.00    -0.354 N 
ATOM     45  C   UNL A   1      39.337  29.760  30.192  1.00  0.00     0.074 A 
ATOM     46  C   UNL A   1      38.351  29.974  29.154  1.00  0.00     0.031 C 
ATOM     47  C   UNL A   1      37.820  34.223  34.553  1.00  0.00     0.029 A 
ATOM     48  C   UNL A   1      38.870  33.213  34.641  1.00  0.00     0.049 A 
ATOM     49  H   UNL A   1      39.384  31.790  33.208  1.00  0.00     0.167 HD
ATOM     50  C   UNL A   1      40.295  28.802  30.153  1.00  0.00     0.037 A 
ATOM     51  C   UNL A   1      39.696  33.035  35.690  1.00  0.00     0.037 A 
ATOM     52  C   UNL A   1      41.284  28.601  31.182  1.00  0.00     0.049 A 
ATOM     53  C   UNL A   1      40.742  31.957  35.628  1.00  0.00     0.074 A 
ATOM     54  C   UNL A   1      42.338  27.705  31.204  1.00  0.00     0.029 A 
ATOM     55  N   UNL A   1      41.331  29.300  32.380  1.00  0.00    -0.354 N 
ATOM     56  N   UNL A   1      41.004  31.111  34.661  1.00  0.00    -0.248 NA
ATOM     57  C   UNL A   1      41.613  31.815  36.802  1.00  0.00     0.031 C 
ATOM     58  C   UNL A   1      42.988  27.823  32.437  1.00  0.00     0.029 A 
ATOM     59  C   UNL A   1      42.377  28.832  33.161  1.00  0.00     0.049 A 
ATOM     60  H   UNL A   1      40.713  30.023  32.637  1.00  0.00     0.167 HD
ATOM     61  C   UNL A   1      42.082  30.353  35.099  1.00  0.00     0.074 A 
ATOM     62  C   UNL A   1      42.438  30.854  36.410  1.00  0.00     0.031 C 
ATOM     63  C   UNL A   1      42.718  29.335  34.469  1.00  0.00     0.037 A 
BRANCH  50  64
ATOM     64  C   UNL A   1      40.316  27.892  28.958  1.00  0.00     0.064 A 
ATOM     65  C   UNL A   1      39.601  26.683  28.938  1.00  0.00     0.173 A 
ATOM     66  C   UNL A   1      41.043  28.239  27.809  1.00  0.00     0.173 A 
ATOM     67  F   UNL A   1      38.896  26.298  30.012  1.00  0.00    -0.203 F 
ATOM     68  C   UNL A   1      39.643  25.842  27.828  1.00  0.00     0.198 A 
ATOM     69  C   UNL A   1      41.056  27.412  26.689  1.00  0.00     0.198 A 
ATOM     70  F   UNL A   1      41.739  29.385  27.770  1.00  0.00    -0.203 F 
ATOM     71  F   UNL A   1      39.000  24.666  27.856  1.00  0.00    -0.200 F 
ATOM     72  C   UNL A   1      40.365  26.209  26.704  1.00  0.00     0.200 A 
ATOM     73  F   UNL A   1      41.743  27.775  25.597  1.00  0.00    -0.200 F 
ATOM     74  F   UNL A   1      40.403  25.401  25.636  1.00  0.00    -0.200 F 
ENDBRANCH  50  64
BRANCH  51  75
ATOM     75  C   UNL A   1      39.586  33.926  36.874  1.00  0.00     0.064 A 
ATOM     76  C   UNL A   1      40.244  35.163  36.906  1.00  0.00     0.173 A 
ATOM     77  C   UNL A   1      38.815  33.568  37.991  1.00  0.00     0.173 A 
ATOM     78  F   UNL A   1      41.008  35.540  35.870  1.00  0.00    -0.203 F 
ATOM     79  C   UNL A   1      40.149  36.002  38.014  1.00  0.00     0.198 A 
ATOM     80  C   UNL A   1      38.697  34.420  39.086  1.00  0.00     0.198 A 
ATOM     81  F   UNL A   1      38.161  32.397  38.008  1.00  0.00    -0.203 F 
ATOM     82  F   UNL A   1      40.820  37.161  38.033  1.00  0.00    -0.200 F 
ATOM     83  C   UNL A   1      39.369  35.633  39.100  1.00  0.00     0.200 A 
ATOM     84  F   UNL A   1      37.930  34.067  40.127  1.00  0.00    -0.200 F 
ATOM     85  F   UNL A   1      39.270  36.445  40.161  1.00  0.00    -0.200 F 
ENDBRANCH  51  75
BRANCH  63  86
ATOM     86  C   UNL A   1      43.881  28.707  35.184  1.00  0.00     0.064 A 
ATOM     87  C   UNL A   1      43.717  27.599  36.028  1.00  0.00     0.173 A 
ATOM     88  C   UNL A   1      45.180  29.207  35.004  1.00  0.00     0.173 A 
ATOM     89  F   UNL A   1      42.494  27.092  36.248  1.00  0.00    -0.203 F 
ATOM     90  C   UNL A   1      44.806  27.034  36.689  1.00  0.00     0.198 A 
ATOM     91  C   UNL A   1      46.271  28.619  35.640  1.00  0.00     0.198 A 
ATOM     92  F   UNL A   1      45.395  30.261  34.202  1.00  0.00    -0.203 F 
ATOM     93  F   UNL A   1      44.616  26.011  37.534  1.00  0.00    -0.200 F 
ATOM     94  C   UNL A   1      46.081  27.539  36.489  1.00  0.00     0.200 A 
ATOM     95  F   UNL A   1      47.504  29.100  35.433  1.00  0.00    -0.200 F 
ATOM     96  F   UNL A   1      47.128  26.992  37.123  1.00  0.00    -0.200 F 
ENDBRANCH  63  86
ENDBRANCH  37  38
ENDBRANCH  29  32
ENDBRANCH  27  28
ENDBRANCH  26  27
ENDBRANCH  25  26
ENDBRANCH   1  25
TORSDOF 16
ENDMDL
MODEL 2
REMARK VINA RESULT:     -12.4      1.058      7.395
REMARK SMILES O=C(Cc1cccc(-c2ccn(C(F)F)c(=O)c2)c1)NCCCCCCNC(=O)c1ccc(-c2c3nc(c(-c4c(F)c(F)c(F)c(F)c4F)c4ccc([nH]4)c(-c4c(F)c(F)c(F)c(F)c4F)c4nc(c(-c5c(F)c(F)c(F)c(F)c5F)c5ccc2[nH]5)C=C4)C=C3)cc1
REMARK SMILES IDX 23 1 22 2 21 3 20 4 1 5 2 6 3 8 4 9 5 10 19 11 6 12 8 13
REMARK SMILES IDX 7 14 9 15 10 16 18 17 11 18 16 19 12 20 17 21 13 22 14 23
REMARK SMILES IDX 15 24 24 25 25 26 26 27 27 28 28 29 29 31 30 32 31 33 92 34
REMARK SMILES IDX 32 35 91 36 33 37 34 38 35 39 85 40 36 41 90 42 84 43 86 44
REMARK SMILES IDX 37 45 89 46 83 47 82 48 38 50 70 51 50 52 69 53 51 54 54 55
REMARK SMILES IDX 68 56 87 57 52 58 53 59 67 61 88 62 55 63 39 64 40 65 48 66
REMARK SMILES IDX 41 67 42 68 46 69 49 70 43 71 44 72 47 73 45 74 71 75 72 76
REMARK SMILES IDX 80 77 73 78 74 79 78 80 81 81 75 82 76 83 79 84 77 85 56 86
REMARK SMILES IDX 57 87 65 88 58 89 59 90 63 91 66 92 60 93 61 94 64 95 62 96
REMARK H PARENT 20 7 27 30 86 49 54 60
REMARK Flexibility Score: inf
ROOT
ATOM      1  C   UNL A   1      32.577  30.009  26.857  1.00  0.00     0.002 C 
ENDROOT
BRANCH   1   2
ATOM      2  C   UNL A   1      32.373  28.497  27.023  1.00  0.00     0.021 C 
BRANCH   2   3
ATOM      3  C   UNL A   1      32.350  27.704  25.720  1.00  0.00     0.116 C 
BRANCH   3   4
ATOM      4  N   UNL A   1      33.058  26.445  25.839  1.00  0.00    -0.356 N 
ATOM      5  O   UNL A   1      31.326  25.275  26.794  1.00  0.00    -0.275 OA
ATOM      6  C   UNL A   1      32.454  25.297  26.314  1.00  0.00     0.224 C 
ATOM      7  H   UNL A   1      34.004  26.407  25.571  1.00  0.00     0.163 HD
BRANCH   6   8
ATOM      8  C   UNL A   1      33.317  24.049  26.192  1.00  0.00     0.135 C 
BRANCH   8   9
ATOM      9  C   UNL A   1      32.986  23.122  25.038  1.00  0.00    -0.038 A 
ATOM     10  C   UNL A   1      32.495  23.670  23.844  1.00  0.00     0.004 A 
ATOM     11  C   UNL A   1      33.126  21.729  25.114  1.00  0.00     0.013 A 
ATOM     12  C   UNL A   1      32.136  22.846  22.772  1.00  0.00     0.001 A 
ATOM     13  C   UNL A   1      32.725  20.892  24.061  1.00  0.00    -0.018 A 
ATOM     14  C   UNL A   1      32.239  21.458  22.883  1.00  0.00     0.009 A 
BRANCH  13  15
ATOM     15  C   UNL A   1      32.789  19.436  24.276  1.00  0.00    -0.011 A 
ATOM     16  C   UNL A   1      32.468  18.844  25.562  1.00  0.00     0.027 A 
ATOM     17  C   UNL A   1      33.253  18.654  23.289  1.00  0.00     0.080 A 
ATOM     18  C   UNL A   1      32.693  17.545  25.786  1.00  0.00     0.095 A 
ATOM     19  C   UNL A   1      33.480  17.197  23.516  1.00  0.00     0.255 A 
ATOM     20  N   UNL A   1      33.204  16.732  24.793  1.00  0.00    -0.258 N 
ATOM     21  O   UNL A   1      33.911  16.521  22.588  1.00  0.00    -0.269 OA
BRANCH  20  22
ATOM     22  C   UNL A   1      33.500  15.349  25.063  1.00  0.00     0.451 C 
ATOM     23  F   UNL A   1      34.786  15.185  25.456  1.00  0.00    -0.185 F 
ATOM     24  F   UNL A   1      32.695  14.864  26.039  1.00  0.00    -0.185 F 
ENDBRANCH  20  22
ENDBRANCH  13  15
ENDBRANCH   8   9
ENDBRANCH   6   8
ENDBRANCH   3   4
ENDBRANCH   2   3
ENDBRANCH   1   2
BRANCH   1  25
ATOM     25  C   UNL A   1      31.421  30.763  26.193  1.00  0.00     0.002 C 
BRANCH  25  26
ATOM     26  C   UNL A   1      31.344  32.258  26.507  1.00  0.00     0.021 C 
BRANCH  26  27
ATOM     27  C   UNL A   1      32.539  32.828  27.265  1.00  0.00     0.116 C 
BRANCH  27  28
ATOM     28  N   UNL A   1      32.341  34.211  27.670  1.00  0.00    -0.352 N 
ATOM     29  C   UNL A   1      32.996  34.946  28.626  1.00  0.00     0.251 C 
ATOM     30  H   UNL A   1      31.631  34.692  27.186  1.00  0.00     0.163 HD
ATOM     31  O   UNL A   1      32.582  36.063  28.932  1.00  0.00    -0.269 OA
BRANCH  29  32
ATOM     32  C   UNL A   1      34.182  34.391  29.317  1.00  0.00     0.039 A 
ATOM     33  C   UNL A   1      33.994  33.681  30.506  1.00  0.00     0.014 A 
ATOM     34  C   UNL A   1      35.471  34.568  28.806  1.00  0.00     0.014 A 
ATOM     35  C   UNL A   1      35.087  33.090  31.143  1.00  0.00     0.010 A 
ATOM     36  C   UNL A   1      36.550  33.918  29.402  1.00  0.00     0.010 A 
ATOM     37  C   UNL A   1      36.370  33.169  30.574  1.00  0.00    -0.014 A 
BRANCH  37  38
ATOM     38  C   UNL A   1      37.518  32.446  31.180  1.00  0.00     0.031 A 
ATOM     39  C   UNL A   1      38.029  32.819  32.544  1.00  0.00     0.074 A 
ATOM     40  C   UNL A   1      38.140  31.483  30.471  1.00  0.00     0.049 A 
ATOM     41  N   UNL A   1      39.029  32.313  33.220  1.00  0.00    -0.248 NA
ATOM     42  C   UNL A   1      37.340  33.924  33.226  1.00  0.00     0.031 C 
ATOM     43  C   UNL A   1      37.776  31.066  29.116  1.00  0.00     0.029 A 
ATOM     44  N   UNL A   1      39.210  30.684  30.788  1.00  0.00    -0.354 N 
ATOM     45  C   UNL A   1      39.096  33.041  34.400  1.00  0.00     0.074 A 
ATOM     46  C   UNL A   1      38.071  34.061  34.323  1.00  0.00     0.031 C 
ATOM     47  C   UNL A   1      38.586  30.068  28.731  1.00  0.00     0.029 A 
ATOM     48  C   UNL A   1      39.549  29.799  29.795  1.00  0.00     0.049 A 
ATOM     49  H   UNL A   1      39.688  30.740  31.648  1.00  0.00     0.167 HD
ATOM     50  C   UNL A   1      39.920  32.862  35.461  1.00  0.00     0.037 A 
ATOM     51  C   UNL A   1      40.527  28.874  29.745  1.00  0.00     0.037 A 
ATOM     52  C   UNL A   1      40.930  31.836  35.539  1.00  0.00     0.049 A 
ATOM     53  C   UNL A   1      41.437  28.703  30.930  1.00  0.00     0.074 A 
ATOM     54  C   UNL A   1      41.767  31.528  36.596  1.00  0.00     0.029 A 
ATOM     55  N   UNL A   1      41.247  30.959  34.511  1.00  0.00    -0.354 N 
ATOM     56  N   UNL A   1      41.435  29.340  32.076  1.00  0.00    -0.248 NA
ATOM     57  C   UNL A   1      42.483  27.677  30.815  1.00  0.00     0.031 C 
ATOM     58  C   UNL A   1      42.628  30.503  36.189  1.00  0.00     0.029 A 
ATOM     59  C   UNL A   1      42.290  30.132  34.899  1.00  0.00     0.049 A 
ATOM     60  H   UNL A   1      40.797  30.929  33.636  1.00  0.00     0.167 HD
ATOM     61  C   UNL A   1      42.459  28.778  32.827  1.00  0.00     0.074 A 
ATOM     62  C   UNL A   1      43.048  27.735  32.013  1.00  0.00     0.031 C 
ATOM     63  C   UNL A   1      42.873  29.100  34.078  1.00  0.00     0.037 A 
BRANCH  50  64
ATOM     64  C   UNL A   1      39.768  33.802  36.624  1.00  0.00     0.064 A 
ATOM     65  C   UNL A   1      40.449  35.029  36.674  1.00  0.00     0.173 A 
ATOM     66  C   UNL A   1      38.915  33.483  37.692  1.00  0.00     0.173 A 
ATOM     67  F   UNL A   1      41.283  35.380  35.685  1.00  0.00    -0.203 F 
ATOM     68  C   UNL A   1      40.310  35.882  37.767  1.00  0.00     0.198 A 
ATOM     69  C   UNL A   1      38.753  34.354  38.766  1.00  0.00     0.198 A 
ATOM     70  F   UNL A   1      38.235  32.327  37.692  1.00  0.00    -0.203 F 
ATOM     71  F   UNL A   1      41.016  37.020  37.820  1.00  0.00    -0.200 F 
ATOM     72  C   UNL A   1      39.458  35.547  38.808  1.00  0.00     0.200 A 
ATOM     73  F   UNL A   1      37.918  34.035  39.765  1.00  0.00    -0.200 F 
ATOM     74  F   UNL A   1      39.324  36.370  39.857  1.00  0.00    -0.200 F 
ENDBRANCH  50  64
BRANCH  51  75
ATOM     75  C   UNL A   1      40.671  28.016  28.541  1.00  0.00     0.064 A 
ATOM     76  C   UNL A   1      40.012  26.782  28.456  1.00  0.00     0.173 A 
ATOM     77  C   UNL A   1      41.457  28.413  27.449  1.00  0.00     0.173 A 
ATOM     78  F   UNL A   1      39.265  26.351  29.484  1.00  0.00    -0.203 F 
ATOM     79  C   UNL A   1      40.144  25.970  27.332  1.00  0.00     0.198 A 
ATOM     80  C   UNL A   1      41.566  27.613  26.313  1.00  0.00     0.198 A 
ATOM     81  F   UNL A   1      42.104  29.587  27.478  1.00  0.00    -0.203 F 
ATOM     82  F   UNL A   1      39.534  24.778  27.294  1.00  0.00    -0.200 F 
ATOM     83  C   UNL A   1      40.915  26.389  26.258  1.00  0.00     0.200 A 
ATOM     84  F   UNL A   1      42.299  28.029  25.272  1.00  0.00    -0.200 F 
ATOM     85  F   UNL A   1      41.034  25.612  25.174  1.00  0.00    -0.200 F 
ENDBRANCH  51  75
BRANCH  63  86
ATOM     86  C   UNL A   1      44.006  28.297  34.652  1.00  0.00     0.064 A 
ATOM     87  C   UNL A   1      43.783  27.096  35.342  1.00  0.00     0.173 A 
ATOM     88  C   UNL A   1      45.333  28.723  34.489  1.00  0.00     0.173 A 
ATOM     89  F   UNL A   1      42.532  26.653  35.541  1.00  0.00    -0.203 F 
ATOM     90  C   UNL A   1      44.845  26.368  35.875  1.00  0.00     0.198 A 
ATOM     91  C   UNL A   1      46.394  27.976  34.993  1.00  0.00     0.198 A 
ATOM     92  F   UNL A   1      45.603  29.861  33.831  1.00  0.00    -0.203 F 
ATOM     93  F   UNL A   1      44.603  25.254  36.579  1.00  0.00    -0.200 F 
ATOM     94  C   UNL A   1      46.148  26.804  35.694  1.00  0.00     0.200 A 
ATOM     95  F   UNL A   1      47.653  28.392  34.805  1.00  0.00    -0.200 F 
ATOM     96  F   UNL A   1      47.169  26.101  36.204  1.00  0.00    -0.200 F 
ENDBRANCH  63  86
ENDBRANCH  37  38
ENDBRANCH  29  32
ENDBRANCH  27  28
ENDBRANCH  26  27
ENDBRANCH  25  26
ENDBRANCH   1  25
TORSDOF 16
ENDMDL
MODEL 3
REMARK VINA RESULT:     -12.3      5.906     11.539
REMARK SMILES O=C(Cc1cccc(-c2ccn(C(F)F)c(=O)c2)c1)NCCCCCCNC(=O)c1ccc(-c2c3nc(c(-c4c(F)c(F)c(F)c(F)c4F)c4ccc([nH]4)c(-c4c(F)c(F)c(F)c(F)c4F)c4nc(c(-c5c(F)c(F)c(F)c(F)c5F)c5ccc2[nH]5)C=C4)C=C3)cc1
REMARK SMILES IDX 23 1 22 2 21 3 20 4 1 5 2 6 3 8 4 9 5 10 19 11 6 12 8 13
REMARK SMILES IDX 7 14 9 15 10 16 18 17 11 18 16 19 12 20 17 21 13 22 14 23
REMARK SMILES IDX 15 24 24 25 25 26 26 27 27 28 28 29 29 31 30 32 31 33 92 34
REMARK SMILES IDX 32 35 91 36 33 37 34 38 35 39 85 40 36 41 90 42 84 43 86 44
REMARK SMILES IDX 37 45 89 46 83 47 82 48 38 50 70 51 50 52 69 53 51 54 54 55
REMARK SMILES IDX 68 56 87 57 52 58 53 59 67 61 88 62 55 63 39 64 40 65 48 66
REMARK SMILES IDX 41 67 42 68 46 69 49 70 43 71 44 72 47 73 45 74 71 75 72 76
REMARK SMILES IDX 80 77 73 78 74 79 78 80 81 81 75 82 76 83 79 84 77 85 56 86
REMARK SMILES IDX 57 87 65 88 58 89 59 90 63 91 66 92 60 93 61 94 64 95 62 96
REMARK H PARENT 20 7 27 30 86 49 54 60
REMARK Flexibility Score: inf
ROOT
ATOM      1  C   UNL A   1      35.363  20.346  24.984  1.00  0.00     0.002 C 
ENDROOT
BRANCH   1   2
ATOM      2  C   UNL A   1      34.284  21.436  25.054  1.00  0.00     0.021 C 
BRANCH   2   3
ATOM      3  C   UNL A   1      32.961  20.993  25.671  1.00  0.00     0.116 C 
BRANCH   3   4
ATOM      4  N   UNL A   1      31.971  22.051  25.648  1.00  0.00    -0.356 N 
ATOM      5  O   UNL A   1      32.279  22.728  27.823  1.00  0.00    -0.275 OA
ATOM      6  C   UNL A   1      31.755  22.888  26.725  1.00  0.00     0.224 C 
ATOM      7  H   UNL A   1      31.432  22.177  24.834  1.00  0.00     0.163 HD
BRANCH   6   8
ATOM      8  C   UNL A   1      30.801  24.038  26.433  1.00  0.00     0.135 C 
BRANCH   8   9
ATOM      9  C   UNL A   1      31.402  25.237  25.724  1.00  0.00    -0.038 A 
ATOM     10  C   UNL A   1      32.736  25.582  25.983  1.00  0.00     0.004 A 
ATOM     11  C   UNL A   1      30.677  26.037  24.830  1.00  0.00     0.013 A 
ATOM     12  C   UNL A   1      33.315  26.706  25.384  1.00  0.00     0.001 A 
ATOM     13  C   UNL A   1      31.234  27.192  24.260  1.00  0.00    -0.018 A 
ATOM     14  C   UNL A   1      32.563  27.518  24.533  1.00  0.00     0.009 A 
BRANCH  13  15
ATOM     15  C   UNL A   1      30.361  28.043  23.435  1.00  0.00    -0.011 A 
ATOM     16  C   UNL A   1      30.906  29.021  22.511  1.00  0.00     0.027 A 
ATOM     17  C   UNL A   1      29.032  27.982  23.620  1.00  0.00     0.080 A 
ATOM     18  C   UNL A   1      30.103  29.897  21.897  1.00  0.00     0.095 A 
ATOM     19  C   UNL A   1      28.122  28.934  22.919  1.00  0.00     0.255 A 
ATOM     20  N   UNL A   1      28.737  29.872  22.103  1.00  0.00    -0.258 N 
ATOM     21  O   UNL A   1      26.916  28.847  23.121  1.00  0.00    -0.269 OA
BRANCH  20  22
ATOM     22  C   UNL A   1      27.889  30.859  21.487  1.00  0.00     0.451 C 
ATOM     23  F   UNL A   1      27.411  31.741  22.397  1.00  0.00    -0.185 F 
ATOM     24  F   UNL A   1      28.565  31.553  20.540  1.00  0.00    -0.185 F 
ENDBRANCH  20  22
ENDBRANCH  13  15
ENDBRANCH   8   9
ENDBRANCH   6   8
ENDBRANCH   3   4
ENDBRANCH   2   3
ENDBRANCH   1   2
BRANCH   1  25
ATOM     25  C   UNL A   1      36.801  20.849  24.827  1.00  0.00     0.002 C 
BRANCH  25  26
ATOM     26  C   UNL A   1      37.890  19.786  24.986  1.00  0.00     0.021 C 
BRANCH  26  27
ATOM     27  C   UNL A   1      39.124  20.227  25.770  1.00  0.00     0.116 C 
BRANCH  27  28
ATOM     28  N   UNL A   1      40.133  19.184  25.863  1.00  0.00    -0.352 N 
ATOM     29  C   UNL A   1      41.484  19.290  26.079  1.00  0.00     0.251 C 
ATOM     30  H   UNL A   1      39.797  18.264  25.757  1.00  0.00     0.163 HD
ATOM     31  O   UNL A   1      42.201  18.297  25.973  1.00  0.00    -0.269 OA
BRANCH  29  32
ATOM     32  C   UNL A   1      42.090  20.600  26.407  1.00  0.00     0.039 A 
ATOM     33  C   UNL A   1      42.502  21.430  25.360  1.00  0.00     0.014 A 
ATOM     34  C   UNL A   1      42.260  21.012  27.732  1.00  0.00     0.014 A 
ATOM     35  C   UNL A   1      43.015  22.698  25.639  1.00  0.00     0.010 A 
ATOM     36  C   UNL A   1      42.705  22.305  28.006  1.00  0.00     0.010 A 
ATOM     37  C   UNL A   1      43.083  23.163  26.963  1.00  0.00    -0.014 A 
BRANCH  37  38
ATOM     38  C   UNL A   1      43.518  24.552  27.262  1.00  0.00     0.031 A 
ATOM     39  C   UNL A   1      42.539  25.573  27.769  1.00  0.00     0.074 A 
ATOM     40  C   UNL A   1      44.795  24.909  27.021  1.00  0.00     0.049 A 
ATOM     41  N   UNL A   1      42.735  26.833  28.064  1.00  0.00    -0.248 NA
ATOM     42  C   UNL A   1      41.149  25.124  27.944  1.00  0.00     0.031 C 
ATOM     43  C   UNL A   1      45.829  24.027  26.477  1.00  0.00     0.029 A 
ATOM     44  N   UNL A   1      45.440  26.108  27.197  1.00  0.00    -0.354 N 
ATOM     45  C   UNL A   1      41.497  27.329  28.449  1.00  0.00     0.074 A 
ATOM     46  C   UNL A   1      40.545  26.250  28.296  1.00  0.00     0.031 C 
ATOM     47  C   UNL A   1      46.985  24.703  26.395  1.00  0.00     0.029 A 
ATOM     48  C   UNL A   1      46.767  26.076  26.844  1.00  0.00     0.049 A 
ATOM     49  H   UNL A   1      44.993  26.914  27.545  1.00  0.00     0.167 HD
ATOM     50  C   UNL A   1      41.185  28.565  28.910  1.00  0.00     0.037 A 
ATOM     51  C   UNL A   1      47.703  27.043  26.877  1.00  0.00     0.037 A 
ATOM     52  C   UNL A   1      42.139  29.634  29.073  1.00  0.00     0.049 A 
ATOM     53  C   UNL A   1      47.330  28.410  27.380  1.00  0.00     0.074 A 
ATOM     54  C   UNL A   1      41.937  30.899  29.597  1.00  0.00     0.029 A 
ATOM     55  N   UNL A   1      43.474  29.565  28.702  1.00  0.00    -0.354 N 
ATOM     56  N   UNL A   1      46.175  28.843  27.823  1.00  0.00    -0.248 NA
ATOM     57  C   UNL A   1      48.396  29.421  27.393  1.00  0.00     0.031 C 
ATOM     58  C   UNL A   1      43.135  31.614  29.490  1.00  0.00     0.029 A 
ATOM     59  C   UNL A   1      44.099  30.777  28.955  1.00  0.00     0.049 A 
ATOM     60  H   UNL A   1      43.913  28.773  28.315  1.00  0.00     0.167 HD
ATOM     61  C   UNL A   1      46.379  30.167  28.189  1.00  0.00     0.074 A 
ATOM     62  C   UNL A   1      47.774  30.459  27.935  1.00  0.00     0.031 C 
ATOM     63  C   UNL A   1      45.489  31.059  28.691  1.00  0.00     0.037 A 
BRANCH  50  64
ATOM     64  C   UNL A   1      39.750  28.832  29.265  1.00  0.00     0.064 A 
ATOM     65  C   UNL A   1      38.840  29.344  28.325  1.00  0.00     0.173 A 
ATOM     66  C   UNL A   1      39.270  28.553  30.554  1.00  0.00     0.173 A 
ATOM     67  F   UNL A   1      39.246  29.636  27.081  1.00  0.00    -0.203 F 
ATOM     68  C   UNL A   1      37.515  29.601  28.674  1.00  0.00     0.198 A 
ATOM     69  C   UNL A   1      37.937  28.779  30.889  1.00  0.00     0.198 A 
ATOM     70  F   UNL A   1      40.093  28.057  31.489  1.00  0.00    -0.203 F 
ATOM     71  F   UNL A   1      36.681  30.144  27.777  1.00  0.00    -0.200 F 
ATOM     72  C   UNL A   1      37.065  29.312  29.952  1.00  0.00     0.200 A 
ATOM     73  F   UNL A   1      37.499  28.487  32.122  1.00  0.00    -0.200 F 
ATOM     74  F   UNL A   1      35.790  29.558  30.287  1.00  0.00    -0.200 F 
ENDBRANCH  50  64
BRANCH  51  75
ATOM     75  C   UNL A   1      49.094  26.739  26.451  1.00  0.00     0.064 A 
ATOM     76  C   UNL A   1      49.490  26.909  25.118  1.00  0.00     0.173 A 
ATOM     77  C   UNL A   1      50.056  26.284  27.365  1.00  0.00     0.173 A 
ATOM     78  F   UNL A   1      48.600  27.323  24.204  1.00  0.00    -0.203 F 
ATOM     79  C   UNL A   1      50.791  26.623  24.710  1.00  0.00     0.198 A 
ATOM     80  C   UNL A   1      51.365  26.025  26.962  1.00  0.00     0.198 A 
ATOM     81  F   UNL A   1      49.730  26.110  28.654  1.00  0.00    -0.203 F 
ATOM     82  F   UNL A   1      51.132  26.757  23.422  1.00  0.00    -0.200 F 
ATOM     83  C   UNL A   1      51.730  26.188  25.634  1.00  0.00     0.200 A 
ATOM     84  F   UNL A   1      52.272  25.621  27.862  1.00  0.00    -0.200 F 
ATOM     85  F   UNL A   1      52.983  25.922  25.244  1.00  0.00    -0.200 F 
ENDBRANCH  51  75
BRANCH  63  86
ATOM     86  C   UNL A   1      46.005  32.431  29.020  1.00  0.00     0.064 A 
ATOM     87  C   UNL A   1      46.563  32.730  30.271  1.00  0.00     0.173 A 
ATOM     88  C   UNL A   1      45.962  33.455  28.061  1.00  0.00     0.173 A 
ATOM     89  F   UNL A   1      46.614  31.791  31.230  1.00  0.00    -0.203 F 
ATOM     90  C   UNL A   1      47.030  34.010  30.561  1.00  0.00     0.198 A 
ATOM     91  C   UNL A   1      46.460  34.724  28.342  1.00  0.00     0.198 A 
ATOM     92  F   UNL A   1      45.445  33.222  26.845  1.00  0.00    -0.203 F 
ATOM     93  F   UNL A   1      47.507  34.285  31.783  1.00  0.00    -0.200 F 
ATOM     94  C   UNL A   1      46.985  35.003  29.595  1.00  0.00     0.200 A 
ATOM     95  F   UNL A   1      46.428  35.678  27.402  1.00  0.00    -0.200 F 
ATOM     96  F   UNL A   1      47.438  36.233  29.874  1.00  0.00    -0.200 F 
ENDBRANCH  63  86
ENDBRANCH  37  38
ENDBRANCH  29  32
ENDBRANCH  27  28
ENDBRANCH  26  27
ENDBRANCH  25  26
ENDBRANCH   1  25
TORSDOF 16
ENDMDL
