MODEL 1
REMARK VINA RESULT:     -13.0      0.000      0.000
REMARK SMILES Cc1nnc(SCC2=C(C(=O)NCCCCCCNC(=O)c3ccc(-c4c5nc(c(-c6c(F)c(F)c(F)c(F)c6F)c6ccc([nH]6)c(-c6c(F)c(F)c(F)c(F)c6F)c6nc(c(-c7c(F)c(F)c(F)c(F)c7F)c7ccc4[nH]7)C=C6)C=C5)cc3)N3C(=O)[C@H](NC(=O)c4cn(C)nc4C)[C@@H]3SC2)s1
REMARK SMILES IDX 15 1 14 2 13 3 12 4 10 5 11 6 9 8 8 9 101 10 85 11 100 12
REMARK SMILES IDX 86 13 99 14 87 15 88 16 7 17 6 18 5 19 1 20 2 21 3 22 102 23
REMARK SMILES IDX 4 24 89 25 90 26 91 28 92 29 93 30 97 31 94 32 96 33 98 34
REMARK SMILES IDX 95 35 16 36 17 37 18 38 19 39 20 40 21 42 22 43 23 44 84 45
REMARK SMILES IDX 24 46 83 47 25 48 26 49 27 50 77 51 28 52 82 53 76 54 78 55
REMARK SMILES IDX 29 56 81 57 75 58 74 59 30 61 62 62 42 63 61 64 43 65 46 66
REMARK SMILES IDX 60 67 79 68 44 69 45 70 59 72 80 73 47 74 31 75 32 76 40 77
REMARK SMILES IDX 33 78 34 79 38 80 41 81 35 82 36 83 39 84 37 85 63 86 64 87
REMARK SMILES IDX 72 88 65 89 66 90 70 91 73 92 67 93 68 94 71 95 69 96 48 97
REMARK SMILES IDX 49 98 57 99 50 100 51 101 55 102 58 103 52 104 53 105 56 106
REMARK SMILES IDX 54 107
REMARK H PARENT 12 7 89 27 19 41 78 60 46 71
REMARK Flexibility Score: inf
ROOT
ATOM      1  C   UNL A   1      36.838  21.858  25.389  1.00  0.00     0.002 C 
ENDROOT
BRANCH   1   2
ATOM      2  C   UNL A   1      36.786  22.962  24.325  1.00  0.00     0.021 C 
BRANCH   2   3
ATOM      3  C   UNL A   1      35.433  23.547  23.930  1.00  0.00     0.116 C 
BRANCH   3   4
ATOM      4  N   UNL A   1      34.885  23.195  22.642  1.00  0.00    -0.351 N 
ATOM      5  C   UNL A   1      33.679  23.447  22.037  1.00  0.00     0.268 C 
ATOM      6  O   UNL A   1      33.666  23.254  20.819  1.00  0.00    -0.268 OA
ATOM      7  H   UNL A   1      35.501  22.667  22.085  1.00  0.00     0.163 HD
BRANCH   5   8
ATOM      8  C   UNL A   1      32.375  23.837  22.766  1.00  0.00     0.111 C 
ATOM      9  C   UNL A   1      31.713  23.078  23.697  1.00  0.00    -0.020 C 
ATOM     10  C   UNL A   1      30.422  23.526  24.372  1.00  0.00     0.106 C 
ATOM     11  N   UNL A   1      31.932  25.124  22.524  1.00  0.00    -0.290 N 
ATOM     12  S   UNL A   1      30.232  25.303  24.561  1.00  0.00    -0.129 SA
ATOM     13  C   UNL A   1      32.403  26.288  22.004  1.00  0.00     0.253 C 
ATOM     14  C   UNL A   1      30.609  25.629  22.835  1.00  0.00     0.181 C 
ATOM     15  O   UNL A   1      33.409  26.640  21.439  1.00  0.00    -0.272 OA
ATOM     16  C   UNL A   1      31.138  27.055  22.510  1.00  0.00     0.206 C 
BRANCH   9  17
ATOM     17  C   UNL A   1      32.217  21.720  24.147  1.00  0.00     0.111 C 
BRANCH  17  18
ATOM     18  S   UNL A   1      32.291  20.337  22.993  1.00  0.00    -0.089 SA
BRANCH  18  19
ATOM     19  C   UNL A   1      32.547  18.990  24.063  1.00  0.00     0.174 A 
ATOM     20  C   UNL A   1      33.500  15.575  25.486  1.00  0.00     0.081 C 
ATOM     21  C   UNL A   1      33.063  16.945  25.127  1.00  0.00     0.115 A 
ATOM     22  N   UNL A   1      32.464  17.790  25.941  1.00  0.00    -0.143 NA
ATOM     23  S   UNL A   1      33.324  17.556  23.546  1.00  0.00    -0.091 S 
ATOM     24  N   UNL A   1      32.162  18.983  25.318  1.00  0.00    -0.132 NA
ENDBRANCH  18  19
ENDBRANCH  17  18
ENDBRANCH   9  17
BRANCH  16  25
ATOM     25  N   UNL A   1      31.357  27.973  23.664  1.00  0.00    -0.337 N 
ATOM     26  C   UNL A   1      30.739  29.161  23.966  1.00  0.00     0.255 C 
ATOM     27  H   UNL A   1      32.048  27.684  24.304  1.00  0.00     0.164 HD
ATOM     28  O   UNL A   1      31.105  29.792  24.956  1.00  0.00    -0.269 OA
BRANCH  26  29
ATOM     29  C   UNL A   1      29.703  29.659  23.084  1.00  0.00     0.080 A 
ATOM     30  C   UNL A   1      29.774  30.701  22.178  1.00  0.00     0.122 A 
ATOM     31  C   UNL A   1      28.390  29.135  22.910  1.00  0.00     0.072 A 
ATOM     32  N   UNL A   1      28.539  30.795  21.607  1.00  0.00    -0.275 N 
ATOM     33  N   UNL A   1      27.682  29.854  22.027  1.00  0.00    -0.178 NA
ATOM     34  C   UNL A   1      27.753  27.982  23.594  1.00  0.00     0.069 C 
ATOM     35  C   UNL A   1      28.086  31.790  20.667  1.00  0.00     0.173 C 
ENDBRANCH  26  29
ENDBRANCH  16  25
ENDBRANCH   5   8
ENDBRANCH   3   4
ENDBRANCH   2   3
ENDBRANCH   1   2
BRANCH   1  36
ATOM     36  C   UNL A   1      36.718  20.388  24.977  1.00  0.00     0.002 C 
BRANCH  36  37
ATOM     37  C   UNL A   1      37.964  19.500  24.985  1.00  0.00     0.021 C 
BRANCH  37  38
ATOM     38  C   UNL A   1      39.189  19.993  25.748  1.00  0.00     0.116 C 
BRANCH  38  39
ATOM     39  N   UNL A   1      40.270  19.029  25.818  1.00  0.00    -0.352 N 
ATOM     40  C   UNL A   1      41.605  19.201  26.099  1.00  0.00     0.251 C 
ATOM     41  H   UNL A   1      40.005  18.099  25.633  1.00  0.00     0.163 HD
ATOM     42  O   UNL A   1      42.363  18.236  26.038  1.00  0.00    -0.269 OA
BRANCH  40  43
ATOM     43  C   UNL A   1      42.161  20.534  26.440  1.00  0.00     0.039 A 
ATOM     44  C   UNL A   1      42.643  21.336  25.399  1.00  0.00     0.014 A 
ATOM     45  C   UNL A   1      42.254  20.989  27.758  1.00  0.00     0.014 A 
ATOM     46  C   UNL A   1      43.149  22.611  25.668  1.00  0.00     0.010 A 
ATOM     47  C   UNL A   1      42.703  22.286  28.021  1.00  0.00     0.010 A 
ATOM     48  C   UNL A   1      43.151  23.112  26.979  1.00  0.00    -0.014 A 
BRANCH  48  49
ATOM     49  C   UNL A   1      43.601  24.501  27.266  1.00  0.00     0.031 A 
ATOM     50  C   UNL A   1      42.636  25.525  27.794  1.00  0.00     0.074 A 
ATOM     51  C   UNL A   1      44.873  24.855  26.997  1.00  0.00     0.049 A 
ATOM     52  N   UNL A   1      42.832  26.795  28.049  1.00  0.00    -0.248 NA
ATOM     53  C   UNL A   1      41.261  25.068  28.047  1.00  0.00     0.031 C 
ATOM     54  C   UNL A   1      45.897  23.969  26.443  1.00  0.00     0.029 A 
ATOM     55  N   UNL A   1      45.520  26.058  27.145  1.00  0.00    -0.354 N 
ATOM     56  C   UNL A   1      41.608  27.290  28.480  1.00  0.00     0.074 A 
ATOM     57  C   UNL A   1      40.663  26.196  28.408  1.00  0.00     0.031 C 
ATOM     58  C   UNL A   1      47.046  24.650  26.314  1.00  0.00     0.029 A 
ATOM     59  C   UNL A   1      46.834  26.029  26.744  1.00  0.00     0.049 A 
ATOM     60  H   UNL A   1      45.083  26.864  27.503  1.00  0.00     0.167 HD
ATOM     61  C   UNL A   1      41.305  28.537  28.914  1.00  0.00     0.037 A 
ATOM     62  C   UNL A   1      47.761  27.005  26.718  1.00  0.00     0.037 A 
ATOM     63  C   UNL A   1      42.251  29.618  29.011  1.00  0.00     0.049 A 
ATOM     64  C   UNL A   1      47.399  28.381  27.206  1.00  0.00     0.074 A 
ATOM     65  C   UNL A   1      42.052  30.899  29.498  1.00  0.00     0.029 A 
ATOM     66  N   UNL A   1      43.577  29.545  28.611  1.00  0.00    -0.354 N 
ATOM     67  N   UNL A   1      46.254  28.819  27.672  1.00  0.00    -0.248 NA
ATOM     68  C   UNL A   1      48.460  29.398  27.174  1.00  0.00     0.031 C 
ATOM     69  C   UNL A   1      43.246  31.614  29.353  1.00  0.00     0.029 A 
ATOM     70  C   UNL A   1      44.201  30.765  28.820  1.00  0.00     0.049 A 
ATOM     71  H   UNL A   1      44.011  28.746  28.235  1.00  0.00     0.167 HD
ATOM     72  C   UNL A   1      46.462  30.149  28.009  1.00  0.00     0.074 A 
ATOM     73  C   UNL A   1      47.847  30.444  27.709  1.00  0.00     0.031 C 
ATOM     74  C   UNL A   1      45.583  31.044  28.521  1.00  0.00     0.037 A 
BRANCH  61  75
ATOM     75  C   UNL A   1      39.884  28.803  29.324  1.00  0.00     0.064 A 
ATOM     76  C   UNL A   1      38.932  29.275  28.409  1.00  0.00     0.173 A 
ATOM     77  C   UNL A   1      39.461  28.543  30.637  1.00  0.00     0.173 A 
ATOM     78  F   UNL A   1      39.287  29.548  27.145  1.00  0.00    -0.203 F 
ATOM     79  C   UNL A   1      37.614  29.503  28.799  1.00  0.00     0.198 A 
ATOM     80  C   UNL A   1      38.136  28.744  31.015  1.00  0.00     0.198 A 
ATOM     81  F   UNL A   1      40.329  28.084  31.550  1.00  0.00    -0.203 F 
ATOM     82  F   UNL A   1      36.733  29.998  27.919  1.00  0.00    -0.200 F 
ATOM     83  C   UNL A   1      37.216  29.231  30.099  1.00  0.00     0.200 A 
ATOM     84  F   UNL A   1      37.750  28.470  32.269  1.00  0.00    -0.200 F 
ATOM     85  F   UNL A   1      35.947  29.444  30.472  1.00  0.00    -0.200 F 
ENDBRANCH  61  75
BRANCH  62  86
ATOM     86  C   UNL A   1      49.134  26.709  26.233  1.00  0.00     0.064 A 
ATOM     87  C   UNL A   1      50.107  26.193  27.100  1.00  0.00     0.173 A 
ATOM     88  C   UNL A   1      49.501  26.935  24.899  1.00  0.00     0.173 A 
ATOM     89  F   UNL A   1      49.810  25.982  28.390  1.00  0.00    -0.203 F 
ATOM     90  C   UNL A   1      51.401  25.930  26.654  1.00  0.00     0.198 A 
ATOM     91  C   UNL A   1      50.788  26.646  24.448  1.00  0.00     0.198 A 
ATOM     92  F   UNL A   1      48.606  27.424  24.029  1.00  0.00    -0.203 F 
ATOM     93  F   UNL A   1      52.324  25.478  27.514  1.00  0.00    -0.200 F 
ATOM     94  C   UNL A   1      51.739  26.152  25.327  1.00  0.00     0.200 A 
ATOM     95  F   UNL A   1      51.106  26.849  23.162  1.00  0.00    -0.200 F 
ATOM     96  F   UNL A   1      52.982  25.895  24.899  1.00  0.00    -0.200 F 
ENDBRANCH  62  86
BRANCH  74  97
ATOM     97  C   UNL A   1      46.100  32.422  28.818  1.00  0.00     0.064 A 
ATOM     98  C   UNL A   1      46.068  33.442  27.856  1.00  0.00     0.173 A 
ATOM     99  C   UNL A   1      46.600  32.734  30.091  1.00  0.00     0.173 A 
ATOM    100  F   UNL A   1      45.613  33.188  26.619  1.00  0.00    -0.203 F 
ATOM    101  C   UNL A   1      46.540  34.718  28.150  1.00  0.00     0.198 A 
ATOM    102  C   UNL A   1      47.046  34.018  30.390  1.00  0.00     0.198 A 
ATOM    103  F   UNL A   1      46.649  31.795  31.048  1.00  0.00    -0.203 F 
ATOM    104  F   UNL A   1      46.542  35.665  27.201  1.00  0.00    -0.200 F 
ATOM    105  C   UNL A   1      47.022  35.007  29.418  1.00  0.00     0.200 A 
ATOM    106  F   UNL A   1      47.501  34.298  31.619  1.00  0.00    -0.200 F 
ATOM    107  F   UNL A   1      47.471  36.237  29.701  1.00  0.00    -0.200 F 
ENDBRANCH  74  97
ENDBRANCH  48  49
ENDBRANCH  40  43
ENDBRANCH  38  39
ENDBRANCH  37  38
ENDBRANCH  36  37
ENDBRANCH   1  36
TORSDOF 18
ENDMDL
MODEL 2
REMARK VINA RESULT:     -12.6      3.576      8.197
REMARK SMILES Cc1nnc(SCC2=C(C(=O)NCCCCCCNC(=O)c3ccc(-c4c5nc(c(-c6c(F)c(F)c(F)c(F)c6F)c6ccc([nH]6)c(-c6c(F)c(F)c(F)c(F)c6F)c6nc(c(-c7c(F)c(F)c(F)c(F)c7F)c7ccc4[nH]7)C=C6)C=C5)cc3)N3C(=O)[C@H](NC(=O)c4cn(C)nc4C)[C@@H]3SC2)s1
REMARK SMILES IDX 15 1 14 2 13 3 12 4 10 5 11 6 9 8 8 9 101 10 85 11 100 12
REMARK SMILES IDX 86 13 99 14 87 15 88 16 7 17 6 18 5 19 1 20 2 21 3 22 102 23
REMARK SMILES IDX 4 24 89 25 90 26 91 28 92 29 93 30 97 31 94 32 96 33 98 34
REMARK SMILES IDX 95 35 16 36 17 37 18 38 19 39 20 40 21 42 22 43 23 44 84 45
REMARK SMILES IDX 24 46 83 47 25 48 26 49 27 50 77 51 28 52 82 53 76 54 78 55
REMARK SMILES IDX 29 56 81 57 75 58 74 59 30 61 62 62 42 63 61 64 43 65 46 66
REMARK SMILES IDX 60 67 79 68 44 69 45 70 59 72 80 73 47 74 31 75 32 76 40 77
REMARK SMILES IDX 33 78 34 79 38 80 41 81 35 82 36 83 39 84 37 85 63 86 64 87
REMARK SMILES IDX 72 88 65 89 66 90 70 91 73 92 67 93 68 94 71 95 69 96 48 97
REMARK SMILES IDX 49 98 57 99 50 100 51 101 55 102 58 103 52 104 53 105 56 106
REMARK SMILES IDX 54 107
REMARK H PARENT 12 7 89 27 19 41 78 60 46 71
REMARK Flexibility Score: inf
ROOT
ATOM      1  C   UNL A   1      35.071  21.451  26.431  1.00  0.00     0.002 C 
ENDROOT
BRANCH   1   2
ATOM      2  C   UNL A   1      34.282  22.585  27.096  1.00  0.00     0.021 C 
BRANCH   2   3
ATOM      3  C   UNL A   1      33.157  22.234  28.067  1.00  0.00     0.116 C 
BRANCH   3   4
ATOM      4  N   UNL A   1      31.795  22.461  27.647  1.00  0.00    -0.351 N 
ATOM      5  C   UNL A   1      31.209  22.618  26.416  1.00  0.00     0.268 C 
ATOM      6  O   UNL A   1      29.982  22.492  26.413  1.00  0.00    -0.268 OA
ATOM      7  H   UNL A   1      31.158  22.514  28.396  1.00  0.00     0.163 HD
BRANCH   5   8
ATOM      8  C   UNL A   1      31.942  23.026  25.120  1.00  0.00     0.111 C 
ATOM      9  C   UNL A   1      32.367  22.174  24.132  1.00  0.00    -0.020 C 
ATOM     10  C   UNL A   1      33.094  22.649  22.880  1.00  0.00     0.106 C 
ATOM     11  N   UNL A   1      32.053  24.389  24.914  1.00  0.00    -0.290 N 
ATOM     12  S   UNL A   1      32.672  24.307  22.330  1.00  0.00    -0.129 SA
ATOM     13  C   UNL A   1      31.514  25.543  25.388  1.00  0.00     0.253 C 
ATOM     14  C   UNL A   1      32.937  25.023  23.956  1.00  0.00     0.181 C 
ATOM     15  O   UNL A   1      30.761  25.845  26.281  1.00  0.00    -0.272 OA
ATOM     16  C   UNL A   1      32.194  26.359  24.241  1.00  0.00     0.206 C 
BRANCH   9  17
ATOM     17  C   UNL A   1      32.141  20.677  24.196  1.00  0.00     0.111 C 
BRANCH  17  18
ATOM     18  S   UNL A   1      32.179  19.676  22.697  1.00  0.00    -0.089 SA
BRANCH  18  19
ATOM     19  C   UNL A   1      33.078  18.282  23.218  1.00  0.00     0.174 A 
ATOM     20  C   UNL A   1      35.161  15.828  25.278  1.00  0.00     0.081 C 
ATOM     21  C   UNL A   1      34.361  16.636  24.326  1.00  0.00     0.115 A 
ATOM     22  N   UNL A   1      34.080  16.293  23.087  1.00  0.00    -0.143 NA
ATOM     23  S   UNL A   1      33.710  18.150  24.803  1.00  0.00    -0.091 S 
ATOM     24  N   UNL A   1      33.333  17.256  22.440  1.00  0.00    -0.132 NA
ENDBRANCH  18  19
ENDBRANCH  17  18
ENDBRANCH   9  17
BRANCH  16  25
ATOM     25  N   UNL A   1      31.279  26.864  23.178  1.00  0.00    -0.337 N 
ATOM     26  C   UNL A   1      30.695  28.099  23.040  1.00  0.00     0.255 C 
ATOM     27  H   UNL A   1      31.062  26.216  22.469  1.00  0.00     0.164 HD
ATOM     28  O   UNL A   1      29.927  28.297  22.100  1.00  0.00    -0.269 OA
BRANCH  26  29
ATOM     29  C   UNL A   1      30.967  29.120  24.033  1.00  0.00     0.080 A 
ATOM     30  C   UNL A   1      32.001  29.172  24.949  1.00  0.00     0.122 A 
ATOM     31  C   UNL A   1      30.257  30.336  24.240  1.00  0.00     0.072 A 
ATOM     32  N   UNL A   1      31.811  30.312  25.674  1.00  0.00    -0.275 N 
ATOM     33  N   UNL A   1      30.764  31.040  25.262  1.00  0.00    -0.178 NA
ATOM     34  C   UNL A   1      29.063  30.848  23.521  1.00  0.00     0.069 C 
ATOM     35  C   UNL A   1      32.576  30.759  26.811  1.00  0.00     0.173 C 
ENDBRANCH  26  29
ENDBRANCH  16  25
ENDBRANCH   5   8
ENDBRANCH   3   4
ENDBRANCH   2   3
ENDBRANCH   1   2
BRANCH   1  36
ATOM     36  C   UNL A   1      35.825  21.705  25.121  1.00  0.00     0.002 C 
BRANCH  36  37
ATOM     37  C   UNL A   1      36.078  23.143  24.665  1.00  0.00     0.021 C 
BRANCH  37  38
ATOM     38  C   UNL A   1      37.399  23.796  25.058  1.00  0.00     0.116 C 
BRANCH  38  39
ATOM     39  N   UNL A   1      38.417  22.858  25.492  1.00  0.00    -0.352 N 
ATOM     40  C   UNL A   1      39.512  23.039  26.303  1.00  0.00     0.251 C 
ATOM     41  H   UNL A   1      38.306  21.943  25.149  1.00  0.00     0.163 HD
ATOM     42  O   UNL A   1      40.287  22.104  26.486  1.00  0.00    -0.269 OA
BRANCH  40  43
ATOM     43  C   UNL A   1      39.801  24.351  26.935  1.00  0.00     0.039 A 
ATOM     44  C   UNL A   1      39.341  24.572  28.239  1.00  0.00     0.014 A 
ATOM     45  C   UNL A   1      40.474  25.373  26.261  1.00  0.00     0.014 A 
ATOM     46  C   UNL A   1      39.614  25.780  28.887  1.00  0.00     0.010 A 
ATOM     47  C   UNL A   1      40.801  26.556  26.930  1.00  0.00     0.010 A 
ATOM     48  C   UNL A   1      40.378  26.770  28.250  1.00  0.00    -0.014 A 
BRANCH  48  49
ATOM     49  C   UNL A   1      40.754  28.022  28.962  1.00  0.00     0.031 A 
ATOM     50  C   UNL A   1      42.138  28.199  29.521  1.00  0.00     0.074 A 
ATOM     51  C   UNL A   1      39.826  28.980  29.153  1.00  0.00     0.049 A 
ATOM     52  N   UNL A   1      42.629  29.195  30.217  1.00  0.00    -0.248 NA
ATOM     53  C   UNL A   1      43.090  27.104  29.286  1.00  0.00     0.031 C 
ATOM     54  C   UNL A   1      38.437  28.913  28.699  1.00  0.00     0.029 A 
ATOM     55  N   UNL A   1      39.909  30.195  29.789  1.00  0.00    -0.354 N 
ATOM     56  C   UNL A   1      43.939  28.840  30.513  1.00  0.00     0.074 A 
ATOM     57  C   UNL A   1      44.153  27.519  29.961  1.00  0.00     0.031 C 
ATOM     58  C   UNL A   1      37.803  30.042  29.053  1.00  0.00     0.029 A 
ATOM     59  C   UNL A   1      38.729  30.899  29.788  1.00  0.00     0.049 A 
ATOM     60  H   UNL A   1      40.736  30.530  30.206  1.00  0.00     0.167 HD
ATOM     61  C   UNL A   1      44.883  29.560  31.168  1.00  0.00     0.037 A 
ATOM     62  C   UNL A   1      38.424  32.095  30.325  1.00  0.00     0.037 A 
ATOM     63  C   UNL A   1      44.677  30.884  31.693  1.00  0.00     0.049 A 
ATOM     64  C   UNL A   1      39.490  32.874  31.047  1.00  0.00     0.074 A 
ATOM     65  C   UNL A   1      45.591  31.717  32.317  1.00  0.00     0.029 A 
ATOM     66  N   UNL A   1      43.473  31.570  31.658  1.00  0.00    -0.354 N 
ATOM     67  N   UNL A   1      40.743  32.555  31.263  1.00  0.00    -0.248 NA
ATOM     68  C   UNL A   1      39.102  34.183  31.592  1.00  0.00     0.031 C 
ATOM     69  C   UNL A   1      44.929  32.889  32.697  1.00  0.00     0.029 A 
ATOM     70  C   UNL A   1      43.614  32.807  32.270  1.00  0.00     0.049 A 
ATOM     71  H   UNL A   1      42.640  31.230  31.259  1.00  0.00     0.167 HD
ATOM     72  C   UNL A   1      41.298  33.630  31.945  1.00  0.00     0.074 A 
ATOM     73  C   UNL A   1      40.250  34.616  32.094  1.00  0.00     0.031 C 
ATOM     74  C   UNL A   1      42.563  33.782  32.407  1.00  0.00     0.037 A 
BRANCH  61  75
ATOM     75  C   UNL A   1      46.233  28.928  31.353  1.00  0.00     0.064 A 
ATOM     76  C   UNL A   1      47.255  29.091  30.406  1.00  0.00     0.173 A 
ATOM     77  C   UNL A   1      46.521  28.187  32.509  1.00  0.00     0.173 A 
ATOM     78  F   UNL A   1      47.029  29.781  29.279  1.00  0.00    -0.203 F 
ATOM     79  C   UNL A   1      48.508  28.512  30.598  1.00  0.00     0.198 A 
ATOM     80  C   UNL A   1      47.783  27.635  32.711  1.00  0.00     0.198 A 
ATOM     81  F   UNL A   1      45.581  28.007  33.449  1.00  0.00    -0.203 F 
ATOM     82  F   UNL A   1      49.455  28.641  29.658  1.00  0.00    -0.200 F 
ATOM     83  C   UNL A   1      48.773  27.791  31.752  1.00  0.00     0.200 A 
ATOM     84  F   UNL A   1      48.041  26.949  33.833  1.00  0.00    -0.200 F 
ATOM     85  F   UNL A   1      49.980  27.240  31.939  1.00  0.00    -0.200 F 
ENDBRANCH  61  75
BRANCH  62  86
ATOM     86  C   UNL A   1      37.051  32.645  30.179  1.00  0.00     0.064 A 
ATOM     87  C   UNL A   1      36.096  32.472  31.189  1.00  0.00     0.173 A 
ATOM     88  C   UNL A   1      36.667  33.351  29.030  1.00  0.00     0.173 A 
ATOM     89  F   UNL A   1      36.410  31.785  32.297  1.00  0.00    -0.203 F 
ATOM     90  C   UNL A   1      34.802  32.971  31.049  1.00  0.00     0.198 A 
ATOM     91  C   UNL A   1      35.381  33.872  28.902  1.00  0.00     0.198 A 
ATOM     92  F   UNL A   1      37.545  33.545  28.035  1.00  0.00    -0.203 F 
ATOM     93  F   UNL A   1      33.896  32.755  32.012  1.00  0.00    -0.200 F 
ATOM     94  C   UNL A   1      34.447  33.676  29.908  1.00  0.00     0.200 A 
ATOM     95  F   UNL A   1      35.047  34.564  27.804  1.00  0.00    -0.200 F 
ATOM     96  F   UNL A   1      33.205  34.158  29.776  1.00  0.00    -0.200 F 
ENDBRANCH  62  86
BRANCH  74  97
ATOM     97  C   UNL A   1      42.893  35.077  33.091  1.00  0.00     0.064 A 
ATOM     98  C   UNL A   1      42.707  35.247  34.471  1.00  0.00     0.173 A 
ATOM     99  C   UNL A   1      43.434  36.147  32.364  1.00  0.00     0.173 A 
ATOM    100  F   UNL A   1      42.178  34.258  35.207  1.00  0.00    -0.203 F 
ATOM    101  C   UNL A   1      43.030  36.450  35.093  1.00  0.00     0.198 A 
ATOM    102  C   UNL A   1      43.781  37.339  32.993  1.00  0.00     0.198 A 
ATOM    103  F   UNL A   1      43.636  36.034  31.042  1.00  0.00    -0.203 F 
ATOM    104  F   UNL A   1      42.801  36.606  36.405  1.00  0.00    -0.200 F 
ATOM    105  C   UNL A   1      43.572  37.491  34.356  1.00  0.00     0.200 A 
ATOM    106  F   UNL A   1      44.316  38.340  32.282  1.00  0.00    -0.200 F 
ATOM    107  F   UNL A   1      43.887  38.647  34.958  1.00  0.00    -0.200 F 
ENDBRANCH  74  97
ENDBRANCH  48  49
ENDBRANCH  40  43
ENDBRANCH  38  39
ENDBRANCH  37  38
ENDBRANCH  36  37
ENDBRANCH   1  36
TORSDOF 18
ENDMDL
MODEL 3
REMARK VINA RESULT:     -12.2      2.316      7.544
REMARK SMILES Cc1nnc(SCC2=C(C(=O)NCCCCCCNC(=O)c3ccc(-c4c5nc(c(-c6c(F)c(F)c(F)c(F)c6F)c6ccc([nH]6)c(-c6c(F)c(F)c(F)c(F)c6F)c6nc(c(-c7c(F)c(F)c(F)c(F)c7F)c7ccc4[nH]7)C=C6)C=C5)cc3)N3C(=O)[C@H](NC(=O)c4cn(C)nc4C)[C@@H]3SC2)s1
REMARK SMILES IDX 15 1 14 2 13 3 12 4 10 5 11 6 9 8 8 9 101 10 85 11 100 12
REMARK SMILES IDX 86 13 99 14 87 15 88 16 7 17 6 18 5 19 1 20 2 21 3 22 102 23
REMARK SMILES IDX 4 24 89 25 90 26 91 28 92 29 93 30 97 31 94 32 96 33 98 34
REMARK SMILES IDX 95 35 16 36 17 37 18 38 19 39 20 40 21 42 22 43 23 44 84 45
REMARK SMILES IDX 24 46 83 47 25 48 26 49 27 50 77 51 28 52 82 53 76 54 78 55
REMARK SMILES IDX 29 56 81 57 75 58 74 59 30 61 62 62 42 63 61 64 43 65 46 66
REMARK SMILES IDX 60 67 79 68 44 69 45 70 59 72 80 73 47 74 31 75 32 76 40 77
REMARK SMILES IDX 33 78 34 79 38 80 41 81 35 82 36 83 39 84 37 85 63 86 64 87
REMARK SMILES IDX 72 88 65 89 66 90 70 91 73 92 67 93 68 94 71 95 69 96 48 97
REMARK SMILES IDX 49 98 57 99 50 100 51 101 55 102 58 103 52 104 53 105 56 106
REMARK SMILES IDX 54 107
REMARK H PARENT 12 7 89 27 19 41 78 60 46 71
REMARK Flexibility Score: inf
ROOT
ATOM      1  C   UNL A   1      34.119  20.675  26.149  1.00  0.00     0.002 C 
ENDROOT
BRANCH   1   2
ATOM      2  C   UNL A   1      34.325  21.462  27.449  1.00  0.00     0.021 C 
BRANCH   2   3
ATOM      3  C   UNL A   1      33.371  22.606  27.783  1.00  0.00     0.116 C 
BRANCH   3   4
ATOM      4  N   UNL A   1      32.006  22.514  27.322  1.00  0.00    -0.351 N 
ATOM      5  C   UNL A   1      31.433  22.569  26.076  1.00  0.00     0.268 C 
ATOM      6  O   UNL A   1      30.273  22.153  26.027  1.00  0.00    -0.268 OA
ATOM      7  H   UNL A   1      31.355  22.388  28.049  1.00  0.00     0.163 HD
BRANCH   5   8
ATOM      8  C   UNL A   1      32.082  23.183  24.818  1.00  0.00     0.111 C 
ATOM      9  C   UNL A   1      32.156  22.596  23.580  1.00  0.00    -0.020 C 
ATOM     10  C   UNL A   1      32.821  23.262  22.381  1.00  0.00     0.106 C 
ATOM     11  N   UNL A   1      32.507  24.491  24.958  1.00  0.00    -0.290 N 
ATOM     12  S   UNL A   1      32.768  25.058  22.373  1.00  0.00    -0.129 SA
ATOM     13  C   UNL A   1      32.339  25.537  25.809  1.00  0.00     0.253 C 
ATOM     14  C   UNL A   1      33.399  25.185  24.050  1.00  0.00     0.181 C 
ATOM     15  O   UNL A   1      31.800  25.708  26.876  1.00  0.00    -0.272 OA
ATOM     16  C   UNL A   1      33.058  26.499  24.809  1.00  0.00     0.206 C 
BRANCH   9  17
ATOM     17  C   UNL A   1      31.568  21.229  23.291  1.00  0.00     0.111 C 
BRANCH  17  18
ATOM     18  S   UNL A   1      32.529  19.981  22.414  1.00  0.00    -0.089 SA
BRANCH  18  19
ATOM     19  C   UNL A   1      32.596  18.693  23.581  1.00  0.00     0.174 A 
ATOM     20  C   UNL A   1      33.339  15.388  25.348  1.00  0.00     0.081 C 
ATOM     21  C   UNL A   1      32.941  16.721  24.834  1.00  0.00     0.115 A 
ATOM     22  N   UNL A   1      32.154  17.572  25.458  1.00  0.00    -0.143 NA
ATOM     23  S   UNL A   1      33.514  17.275  23.315  1.00  0.00    -0.091 S 
ATOM     24  N   UNL A   1      31.951  18.722  24.724  1.00  0.00    -0.132 NA
ENDBRANCH  18  19
ENDBRANCH  17  18
ENDBRANCH   9  17
BRANCH  16  25
ATOM     25  N   UNL A   1      32.178  27.476  24.106  1.00  0.00    -0.337 N 
ATOM     26  C   UNL A   1      31.973  28.810  24.361  1.00  0.00     0.255 C 
ATOM     27  H   UNL A   1      31.669  27.111  23.347  1.00  0.00     0.164 HD
ATOM     28  O   UNL A   1      31.160  29.432  23.680  1.00  0.00    -0.269 OA
BRANCH  26  29
ATOM     29  C   UNL A   1      32.689  29.434  25.456  1.00  0.00     0.080 A 
ATOM     30  C   UNL A   1      33.943  29.123  25.949  1.00  0.00     0.122 A 
ATOM     31  C   UNL A   1      32.280  30.558  26.228  1.00  0.00     0.072 A 
ATOM     32  N   UNL A   1      34.164  29.975  26.991  1.00  0.00    -0.275 N 
ATOM     33  N   UNL A   1      33.176  30.860  27.179  1.00  0.00    -0.178 NA
ATOM     34  C   UNL A   1      31.027  31.348  26.126  1.00  0.00     0.069 C 
ATOM     35  C   UNL A   1      35.294  29.982  27.887  1.00  0.00     0.173 C 
ENDBRANCH  26  29
ENDBRANCH  16  25
ENDBRANCH   5   8
ENDBRANCH   3   4
ENDBRANCH   2   3
ENDBRANCH   1   2
BRANCH   1  36
ATOM     36  C   UNL A   1      35.193  20.702  25.056  1.00  0.00     0.002 C 
BRANCH  36  37
ATOM     37  C   UNL A   1      35.746  22.045  24.577  1.00  0.00     0.021 C 
BRANCH  37  38
ATOM     38  C   UNL A   1      37.260  22.213  24.509  1.00  0.00     0.116 C 
BRANCH  38  39
ATOM     39  N   UNL A   1      38.000  21.202  25.240  1.00  0.00    -0.352 N 
ATOM     40  C   UNL A   1      39.043  21.323  26.126  1.00  0.00     0.251 C 
ATOM     41  H   UNL A   1      37.709  20.277  25.072  1.00  0.00     0.163 HD
ATOM     42  O   UNL A   1      39.568  20.311  26.583  1.00  0.00    -0.269 OA
BRANCH  40  43
ATOM     43  C   UNL A   1      39.577  22.652  26.520  1.00  0.00     0.039 A 
ATOM     44  C   UNL A   1      40.685  22.693  27.374  1.00  0.00     0.014 A 
ATOM     45  C   UNL A   1      38.987  23.847  26.101  1.00  0.00     0.014 A 
ATOM     46  C   UNL A   1      41.241  23.920  27.748  1.00  0.00     0.010 A 
ATOM     47  C   UNL A   1      39.578  25.071  26.425  1.00  0.00     0.010 A 
ATOM     48  C   UNL A   1      40.714  25.120  27.248  1.00  0.00    -0.014 A 
BRANCH  48  49
ATOM     49  C   UNL A   1      41.351  26.426  27.565  1.00  0.00     0.031 A 
ATOM     50  C   UNL A   1      42.766  26.710  27.144  1.00  0.00     0.074 A 
ATOM     51  C   UNL A   1      40.671  27.340  28.285  1.00  0.00     0.049 A 
ATOM     52  N   UNL A   1      43.505  27.767  27.379  1.00  0.00    -0.248 NA
ATOM     53  C   UNL A   1      43.450  25.659  26.376  1.00  0.00     0.031 C 
ATOM     54  C   UNL A   1      39.308  27.171  28.791  1.00  0.00     0.029 A 
ATOM     55  N   UNL A   1      41.036  28.590  28.724  1.00  0.00    -0.354 N 
ATOM     56  C   UNL A   1      44.740  27.503  26.801  1.00  0.00     0.074 A 
ATOM     57  C   UNL A   1      44.667  26.169  26.244  1.00  0.00     0.031 C 
ATOM     58  C   UNL A   1      38.945  28.279  29.455  1.00  0.00     0.029 A 
ATOM     59  C   UNL A   1      40.058  29.224  29.452  1.00  0.00     0.049 A 
ATOM     60  H   UNL A   1      41.915  28.992  28.537  1.00  0.00     0.167 HD
ATOM     61  C   UNL A   1      45.828  28.307  26.724  1.00  0.00     0.037 A 
ATOM     62  C   UNL A   1      40.060  30.428  30.054  1.00  0.00     0.037 A 
ATOM     63  C   UNL A   1      45.891  29.644  27.256  1.00  0.00     0.049 A 
ATOM     64  C   UNL A   1      41.281  31.302  29.954  1.00  0.00     0.074 A 
ATOM     65  C   UNL A   1      46.928  30.558  27.172  1.00  0.00     0.029 A 
ATOM     66  N   UNL A   1      44.874  30.258  27.971  1.00  0.00    -0.354 N 
ATOM     67  N   UNL A   1      42.420  31.066  29.348  1.00  0.00    -0.248 NA
ATOM     68  C   UNL A   1      41.214  32.614  30.614  1.00  0.00     0.031 C 
ATOM     69  C   UNL A   1      46.554  31.710  27.874  1.00  0.00     0.029 A 
ATOM     70  C   UNL A   1      45.268  31.531  28.355  1.00  0.00     0.049 A 
ATOM     71  H   UNL A   1      44.002  29.852  28.177  1.00  0.00     0.167 HD
ATOM     72  C   UNL A   1      43.192  32.204  29.532  1.00  0.00     0.074 A 
ATOM     73  C   UNL A   1      42.389  33.137  30.293  1.00  0.00     0.031 C 
ATOM     74  C   UNL A   1      44.456  32.452  29.109  1.00  0.00     0.037 A 
BRANCH  61  75
ATOM     75  C   UNL A   1      47.047  27.763  26.035  1.00  0.00     0.064 A 
ATOM     76  C   UNL A   1      47.174  27.789  24.639  1.00  0.00     0.173 A 
ATOM     77  C   UNL A   1      48.118  27.249  26.783  1.00  0.00     0.173 A 
ATOM     78  F   UNL A   1      46.175  28.260  23.878  1.00  0.00    -0.203 F 
ATOM     79  C   UNL A   1      48.316  27.295  24.013  1.00  0.00     0.198 A 
ATOM     80  C   UNL A   1      49.270  26.783  26.156  1.00  0.00     0.198 A 
ATOM     81  F   UNL A   1      48.051  27.208  28.121  1.00  0.00    -0.203 F 
ATOM     82  F   UNL A   1      48.396  27.286  22.676  1.00  0.00    -0.200 F 
ATOM     83  C   UNL A   1      49.366  26.798  24.772  1.00  0.00     0.200 A 
ATOM     84  F   UNL A   1      50.288  26.315  26.891  1.00  0.00    -0.200 F 
ATOM     85  F   UNL A   1      50.467  26.330  24.171  1.00  0.00    -0.200 F 
ENDBRANCH  61  75
BRANCH  62  86
ATOM     86  C   UNL A   1      38.854  30.891  30.788  1.00  0.00     0.064 A 
ATOM     87  C   UNL A   1      37.819  31.561  30.121  1.00  0.00     0.173 A 
ATOM     88  C   UNL A   1      38.711  30.675  32.166  1.00  0.00     0.173 A 
ATOM     89  F   UNL A   1      37.921  31.811  28.808  1.00  0.00    -0.203 F 
ATOM     90  C   UNL A   1      36.694  32.013  30.808  1.00  0.00     0.198 A 
ATOM     91  C   UNL A   1      37.572  31.103  32.847  1.00  0.00     0.198 A 
ATOM     92  F   UNL A   1      39.671  30.036  32.850  1.00  0.00    -0.203 F 
ATOM     93  F   UNL A   1      35.740  32.689  30.154  1.00  0.00    -0.200 F 
ATOM     94  C   UNL A   1      36.569  31.778  32.169  1.00  0.00     0.200 A 
ATOM     95  F   UNL A   1      37.449  30.862  34.159  1.00  0.00    -0.200 F 
ATOM     96  F   UNL A   1      35.485  32.209  32.828  1.00  0.00    -0.200 F 
ENDBRANCH  62  86
BRANCH  74  97
ATOM     97  C   UNL A   1      45.038  33.797  29.432  1.00  0.00     0.064 A 
ATOM     98  C   UNL A   1      45.809  34.006  30.585  1.00  0.00     0.173 A 
ATOM     99  C   UNL A   1      44.851  34.881  28.561  1.00  0.00     0.173 A 
ATOM    100  F   UNL A   1      46.003  33.004  31.457  1.00  0.00    -0.203 F 
ATOM    101  C   UNL A   1      46.353  35.256  30.865  1.00  0.00     0.198 A 
ATOM    102  C   UNL A   1      45.419  36.123  28.830  1.00  0.00     0.198 A 
ATOM    103  F   UNL A   1      44.125  34.732  27.443  1.00  0.00    -0.203 F 
ATOM    104  F   UNL A   1      47.048  35.444  31.996  1.00  0.00    -0.200 F 
ATOM    105  C   UNL A   1      46.162  36.311  29.985  1.00  0.00     0.200 A 
ATOM    106  F   UNL A   1      45.244  37.137  27.973  1.00  0.00    -0.200 F 
ATOM    107  F   UNL A   1      46.691  37.513  30.254  1.00  0.00    -0.200 F 
ENDBRANCH  74  97
ENDBRANCH  48  49
ENDBRANCH  40  43
ENDBRANCH  38  39
ENDBRANCH  37  38
ENDBRANCH  36  37
ENDBRANCH   1  36
TORSDOF 18
ENDMDL
