MODEL 1
REMARK VINA RESULT:     -11.8      0.000      0.000
REMARK SMILES Cc1cscc1C(=O)N1CC[C@H](C(=O)NCCCCCCNC(=O)c2ccc(-c3c4nc(c(-c5c(F)c(F)c(F)c(F)c5F)c5ccc([nH]5)c(-c5c(F)c(F)c(F)c(F)c5F)c5nc(c(-c6c(F)c(F)c(F)c(F)c6F)c6ccc3[nH]6)C=C5)C=C4)cc2)[C@H]1C
REMARK SMILES IDX 18 1 17 2 16 3 15 4 13 5 14 6 12 8 9 9 10 10 88 11 11 12
REMARK SMILES IDX 89 13 7 14 8 15 6 16 1 17 2 18 3 19 4 20 5 21 19 22 20 23
REMARK SMILES IDX 21 24 22 25 23 26 24 28 25 29 26 30 87 31 27 32 86 33 28 34
REMARK SMILES IDX 29 35 30 36 80 37 31 38 85 39 79 40 81 41 32 42 84 43 78 44
REMARK SMILES IDX 77 45 33 47 65 48 45 49 64 50 46 51 49 52 63 53 82 54 47 55
REMARK SMILES IDX 48 56 62 58 83 59 50 60 34 61 35 62 43 63 36 64 37 65 41 66
REMARK SMILES IDX 44 67 38 68 39 69 42 70 40 71 66 72 67 73 75 74 68 75 69 76
REMARK SMILES IDX 73 77 76 78 70 79 71 80 74 81 72 82 51 83 52 84 60 85 53 86
REMARK SMILES IDX 54 87 58 88 61 89 55 90 56 91 59 92 57 93
REMARK H PARENT 15 7 22 27 81 46 49 57
REMARK Flexibility Score: inf
ROOT
ATOM      1  C   UNL A   1      32.304  30.277  26.887  1.00  0.00     0.002 C 
ENDROOT
BRANCH   1   2
ATOM      2  C   UNL A   1      31.870  28.812  26.989  1.00  0.00     0.021 C 
BRANCH   2   3
ATOM      3  C   UNL A   1      33.023  27.821  27.090  1.00  0.00     0.116 C 
BRANCH   3   4
ATOM      4  N   UNL A   1      33.476  27.393  25.781  1.00  0.00    -0.356 N 
ATOM      5  C   UNL A   1      33.571  26.133  25.274  1.00  0.00     0.225 C 
ATOM      6  O   UNL A   1      34.070  25.995  24.161  1.00  0.00    -0.275 OA
ATOM      7  H   UNL A   1      33.754  28.116  25.174  1.00  0.00     0.163 HD
BRANCH   5   8
ATOM      8  C   UNL A   1      33.095  24.974  26.133  1.00  0.00     0.102 C 
ATOM      9  N   UNL A   1      32.797  22.857  25.036  1.00  0.00    -0.335 N 
ATOM     10  C   UNL A   1      31.636  23.682  24.777  1.00  0.00     0.121 C 
ATOM     11  C   UNL A   1      33.800  23.647  25.774  1.00  0.00     0.094 C 
ATOM     12  C   UNL A   1      31.610  24.662  25.923  1.00  0.00     0.037 C 
ATOM     13  C   UNL A   1      34.285  22.971  27.057  1.00  0.00     0.032 C 
BRANCH   9  14
ATOM     14  C   UNL A   1      33.210  22.076  23.960  1.00  0.00     0.255 C 
ATOM     15  O   UNL A   1      33.362  22.559  22.839  1.00  0.00    -0.269 OA
BRANCH  14  16
ATOM     16  C   UNL A   1      33.393  20.641  24.209  1.00  0.00     0.053 A 
ATOM     17  C   UNL A   1      35.895  20.456  25.020  1.00  0.00     0.046 C 
ATOM     18  C   UNL A   1      34.562  19.897  24.646  1.00  0.00    -0.028 A 
ATOM     19  C   UNL A   1      34.284  18.543  24.739  1.00  0.00     0.069 A 
ATOM     20  S   UNL A   1      32.657  18.164  24.417  1.00  0.00    -0.151 S 
ATOM     21  C   UNL A   1      32.294  19.798  24.114  1.00  0.00     0.079 A 
ENDBRANCH  14  16
ENDBRANCH   9  14
ENDBRANCH   5   8
ENDBRANCH   3   4
ENDBRANCH   2   3
ENDBRANCH   1   2
BRANCH   1  22
ATOM     22  C   UNL A   1      31.374  31.171  26.061  1.00  0.00     0.002 C 
BRANCH  22  23
ATOM     23  C   UNL A   1      31.325  32.634  26.502  1.00  0.00     0.021 C 
BRANCH  23  24
ATOM     24  C   UNL A   1      32.536  33.094  27.305  1.00  0.00     0.116 C 
BRANCH  24  25
ATOM     25  N   UNL A   1      32.409  34.472  27.746  1.00  0.00    -0.352 N 
ATOM     26  C   UNL A   1      33.081  35.128  28.747  1.00  0.00     0.251 C 
ATOM     27  H   UNL A   1      31.748  35.013  27.257  1.00  0.00     0.163 HD
ATOM     28  O   UNL A   1      32.719  36.241  29.109  1.00  0.00    -0.269 OA
BRANCH  26  29
ATOM     29  C   UNL A   1      34.232  34.475  29.404  1.00  0.00     0.039 A 
ATOM     30  C   UNL A   1      34.005  33.713  30.553  1.00  0.00     0.014 A 
ATOM     31  C   UNL A   1      35.527  34.615  28.895  1.00  0.00     0.014 A 
ATOM     32  C   UNL A   1      35.072  33.049  31.161  1.00  0.00     0.010 A 
ATOM     33  C   UNL A   1      36.573  33.889  29.457  1.00  0.00     0.010 A 
ATOM     34  C   UNL A   1      36.358  33.105  30.601  1.00  0.00    -0.014 A 
BRANCH  34  35
ATOM     35  C   UNL A   1      37.488  32.352  31.204  1.00  0.00     0.031 A 
ATOM     36  C   UNL A   1      37.990  32.713  32.575  1.00  0.00     0.074 A 
ATOM     37  C   UNL A   1      38.094  31.381  30.494  1.00  0.00     0.049 A 
ATOM     38  N   UNL A   1      38.998  32.212  33.245  1.00  0.00    -0.248 NA
ATOM     39  C   UNL A   1      37.287  33.799  33.278  1.00  0.00     0.031 C 
ATOM     40  C   UNL A   1      37.732  30.973  29.135  1.00  0.00     0.029 A 
ATOM     41  N   UNL A   1      39.152  30.564  30.812  1.00  0.00    -0.354 N 
ATOM     42  C   UNL A   1      39.056  32.928  34.433  1.00  0.00     0.074 A 
ATOM     43  C   UNL A   1      38.018  33.932  34.376  1.00  0.00     0.031 C 
ATOM     44  C   UNL A   1      38.539  29.974  28.744  1.00  0.00     0.029 A 
ATOM     45  C   UNL A   1      39.503  29.699  29.804  1.00  0.00     0.049 A 
ATOM     46  H   UNL A   1      39.616  30.597  31.679  1.00  0.00     0.167 HD
ATOM     47  C   UNL A   1      39.890  32.748  35.485  1.00  0.00     0.037 A 
ATOM     48  C   UNL A   1      40.499  28.794  29.738  1.00  0.00     0.037 A 
ATOM     49  C   UNL A   1      40.901  31.726  35.553  1.00  0.00     0.049 A 
ATOM     50  C   UNL A   1      41.406  28.616  30.927  1.00  0.00     0.074 A 
ATOM     51  C   UNL A   1      41.743  31.416  36.606  1.00  0.00     0.029 A 
ATOM     52  N   UNL A   1      41.208  30.850  34.523  1.00  0.00    -0.354 N 
ATOM     53  N   UNL A   1      41.397  29.244  32.078  1.00  0.00    -0.248 NA
ATOM     54  C   UNL A   1      42.458  27.596  30.812  1.00  0.00     0.031 C 
ATOM     55  C   UNL A   1      42.602  30.394  36.193  1.00  0.00     0.029 A 
ATOM     56  C   UNL A   1      42.250  30.019  34.907  1.00  0.00     0.049 A 
ATOM     57  H   UNL A   1      40.755  30.820  33.650  1.00  0.00     0.167 HD
ATOM     58  C   UNL A   1      42.413  28.673  32.833  1.00  0.00     0.074 A 
ATOM     59  C   UNL A   1      43.006  27.635  32.017  1.00  0.00     0.031 C 
ATOM     60  C   UNL A   1      42.820  28.981  34.089  1.00  0.00     0.037 A 
BRANCH  47  61
ATOM     61  C   UNL A   1      39.753  33.674  36.660  1.00  0.00     0.064 A 
ATOM     62  C   UNL A   1      40.406  34.914  36.705  1.00  0.00     0.173 A 
ATOM     63  C   UNL A   1      38.890  33.349  37.719  1.00  0.00     0.173 A 
ATOM     64  F   UNL A   1      41.250  35.269  35.724  1.00  0.00    -0.203 F 
ATOM     65  C   UNL A   1      40.213  35.788  37.772  1.00  0.00     0.198 A 
ATOM     66  C   UNL A   1      38.675  34.238  38.769  1.00  0.00     0.198 A 
ATOM     67  F   UNL A   1      38.237  32.177  37.724  1.00  0.00    -0.203 F 
ATOM     68  F   UNL A   1      40.875  36.953  37.811  1.00  0.00    -0.200 F 
ATOM     69  C   UNL A   1      39.339  35.455  38.796  1.00  0.00     0.200 A 
ATOM     70  F   UNL A   1      37.818  33.919  39.749  1.00  0.00    -0.200 F 
ATOM     71  F   UNL A   1      39.139  36.305  39.812  1.00  0.00    -0.200 F 
ENDBRANCH  47  61
BRANCH  48  72
ATOM     72  C   UNL A   1      40.698  27.983  28.506  1.00  0.00     0.064 A 
ATOM     73  C   UNL A   1      41.479  28.459  27.442  1.00  0.00     0.173 A 
ATOM     74  C   UNL A   1      40.080  26.734  28.350  1.00  0.00     0.173 A 
ATOM     75  F   UNL A   1      42.078  29.656  27.534  1.00  0.00    -0.203 F 
ATOM     76  C   UNL A   1      41.598  27.737  26.257  1.00  0.00     0.198 A 
ATOM     77  C   UNL A   1      40.230  25.996  27.177  1.00  0.00     0.198 A 
ATOM     78  F   UNL A   1      39.328  26.228  29.338  1.00  0.00    -0.203 F 
ATOM     79  F   UNL A   1      42.293  28.249  25.231  1.00  0.00    -0.200 F 
ATOM     80  C   UNL A   1      40.977  26.505  26.126  1.00  0.00     0.200 A 
ATOM     81  F   UNL A   1      39.641  24.798  27.064  1.00  0.00    -0.200 F 
ATOM     82  F   UNL A   1      41.086  25.813  24.984  1.00  0.00    -0.200 F 
ENDBRANCH  48  72
BRANCH  60  83
ATOM     83  C   UNL A   1      43.927  28.154  34.679  1.00  0.00     0.064 A 
ATOM     84  C   UNL A   1      43.674  26.955  35.360  1.00  0.00     0.173 A 
ATOM     85  C   UNL A   1      45.265  28.552  34.527  1.00  0.00     0.173 A 
ATOM     86  F   UNL A   1      42.413  26.536  35.545  1.00  0.00    -0.203 F 
ATOM     87  C   UNL A   1      44.716  26.204  35.899  1.00  0.00     0.198 A 
ATOM     88  C   UNL A   1      46.306  27.779  35.033  1.00  0.00     0.198 A 
ATOM     89  F   UNL A   1      45.564  29.686  33.874  1.00  0.00    -0.203 F 
ATOM     90  F   UNL A   1      44.446  25.092  36.597  1.00  0.00    -0.200 F 
ATOM     91  C   UNL A   1      46.031  26.611  35.728  1.00  0.00     0.200 A 
ATOM     92  F   UNL A   1      47.576  28.167  34.850  1.00  0.00    -0.200 F 
ATOM     93  F   UNL A   1      47.031  25.883  36.238  1.00  0.00    -0.200 F 
ENDBRANCH  60  83
ENDBRANCH  34  35
ENDBRANCH  26  29
ENDBRANCH  24  25
ENDBRANCH  23  24
ENDBRANCH  22  23
ENDBRANCH   1  22
TORSDOF 15
ENDMDL
MODEL 2
REMARK VINA RESULT:     -11.8      1.296      7.564
REMARK SMILES Cc1cscc1C(=O)N1CC[C@H](C(=O)NCCCCCCNC(=O)c2ccc(-c3c4nc(c(-c5c(F)c(F)c(F)c(F)c5F)c5ccc([nH]5)c(-c5c(F)c(F)c(F)c(F)c5F)c5nc(c(-c6c(F)c(F)c(F)c(F)c6F)c6ccc3[nH]6)C=C5)C=C4)cc2)[C@H]1C
REMARK SMILES IDX 18 1 17 2 16 3 15 4 13 5 14 6 12 8 9 9 10 10 88 11 11 12
REMARK SMILES IDX 89 13 7 14 8 15 6 16 1 17 2 18 3 19 4 20 5 21 19 22 20 23
REMARK SMILES IDX 21 24 22 25 23 26 24 28 25 29 26 30 87 31 27 32 86 33 28 34
REMARK SMILES IDX 29 35 30 36 80 37 31 38 85 39 79 40 81 41 32 42 84 43 78 44
REMARK SMILES IDX 77 45 33 47 65 48 45 49 64 50 46 51 49 52 63 53 82 54 47 55
REMARK SMILES IDX 48 56 62 58 83 59 50 60 34 61 35 62 43 63 36 64 37 65 41 66
REMARK SMILES IDX 44 67 38 68 39 69 42 70 40 71 66 72 67 73 75 74 68 75 69 76
REMARK SMILES IDX 73 77 76 78 70 79 71 80 74 81 72 82 51 83 52 84 60 85 53 86
REMARK SMILES IDX 54 87 58 88 61 89 55 90 56 91 59 92 57 93
REMARK H PARENT 15 7 22 27 81 46 49 57
REMARK Flexibility Score: inf
ROOT
ATOM      1  C   UNL A   1      32.240  29.793  27.157  1.00  0.00     0.002 C 
ENDROOT
BRANCH   1   2
ATOM      2  C   UNL A   1      31.443  28.513  27.422  1.00  0.00     0.021 C 
BRANCH   2   3
ATOM      3  C   UNL A   1      32.068  27.252  26.838  1.00  0.00     0.116 C 
BRANCH   3   4
ATOM      4  N   UNL A   1      33.049  27.565  25.819  1.00  0.00    -0.356 N 
ATOM      5  C   UNL A   1      33.039  27.257  24.492  1.00  0.00     0.225 C 
ATOM      6  O   UNL A   1      34.027  27.548  23.824  1.00  0.00    -0.275 OA
ATOM      7  H   UNL A   1      33.834  28.071  26.129  1.00  0.00     0.163 HD
BRANCH   5   8
ATOM      8  C   UNL A   1      31.826  26.535  23.931  1.00  0.00     0.102 C 
ATOM      9  N   UNL A   1      32.247  24.711  22.424  1.00  0.00    -0.335 N 
ATOM     10  C   UNL A   1      32.361  25.954  21.692  1.00  0.00     0.121 C 
ATOM     11  C   UNL A   1      32.035  25.006  23.854  1.00  0.00     0.094 C 
ATOM     12  C   UNL A   1      31.528  26.932  22.482  1.00  0.00     0.037 C 
ATOM     13  C   UNL A   1      30.816  24.301  24.448  1.00  0.00     0.032 C 
BRANCH   9  14
ATOM     14  C   UNL A   1      33.172  23.734  22.066  1.00  0.00     0.255 C 
ATOM     15  O   UNL A   1      33.303  23.376  20.896  1.00  0.00    -0.269 OA
BRANCH  14  16
ATOM     16  C   UNL A   1      33.933  23.105  23.151  1.00  0.00     0.053 A 
ATOM     17  C   UNL A   1      32.531  20.950  23.737  1.00  0.00     0.046 C 
ATOM     18  C   UNL A   1      33.666  21.902  23.922  1.00  0.00    -0.028 A 
ATOM     19  C   UNL A   1      34.657  21.685  24.866  1.00  0.00     0.069 A 
ATOM     20  S   UNL A   1      35.928  22.813  24.782  1.00  0.00    -0.151 S 
ATOM     21  C   UNL A   1      35.166  23.637  23.503  1.00  0.00     0.079 A 
ENDBRANCH  14  16
ENDBRANCH   9  14
ENDBRANCH   5   8
ENDBRANCH   3   4
ENDBRANCH   2   3
ENDBRANCH   1   2
BRANCH   1  22
ATOM     22  C   UNL A   1      31.615  30.744  26.132  1.00  0.00     0.002 C 
BRANCH  22  23
ATOM     23  C   UNL A   1      31.397  32.175  26.626  1.00  0.00     0.021 C 
BRANCH  23  24
ATOM     24  C   UNL A   1      32.621  32.814  27.272  1.00  0.00     0.116 C 
BRANCH  24  25
ATOM     25  N   UNL A   1      32.391  34.204  27.626  1.00  0.00    -0.352 N 
ATOM     26  C   UNL A   1      32.976  34.957  28.612  1.00  0.00     0.251 C 
ATOM     27  H   UNL A   1      31.720  34.673  27.078  1.00  0.00     0.163 HD
ATOM     28  O   UNL A   1      32.531  36.063  28.892  1.00  0.00    -0.269 OA
BRANCH  26  29
ATOM     29  C   UNL A   1      34.134  34.417  29.353  1.00  0.00     0.039 A 
ATOM     30  C   UNL A   1      33.915  33.815  30.594  1.00  0.00     0.014 A 
ATOM     31  C   UNL A   1      35.429  34.507  28.833  1.00  0.00     0.014 A 
ATOM     32  C   UNL A   1      34.989  33.256  31.289  1.00  0.00     0.010 A 
ATOM     33  C   UNL A   1      36.484  33.880  29.489  1.00  0.00     0.010 A 
ATOM     34  C   UNL A   1      36.276  33.255  30.728  1.00  0.00    -0.014 A 
BRANCH  34  35
ATOM     35  C   UNL A   1      37.416  32.608  31.429  1.00  0.00     0.031 A 
ATOM     36  C   UNL A   1      38.134  31.449  30.794  1.00  0.00     0.074 A 
ATOM     37  C   UNL A   1      37.766  33.031  32.659  1.00  0.00     0.049 A 
ATOM     38  N   UNL A   1      39.112  30.720  31.271  1.00  0.00    -0.248 NA
ATOM     39  C   UNL A   1      37.679  31.035  29.457  1.00  0.00     0.031 C 
ATOM     40  C   UNL A   1      37.113  34.111  33.401  1.00  0.00     0.029 A 
ATOM     41  N   UNL A   1      38.753  32.596  33.510  1.00  0.00    -0.354 N 
ATOM     42  C   UNL A   1      39.374  29.759  30.305  1.00  0.00     0.074 A 
ATOM     43  C   UNL A   1      38.424  29.962  29.234  1.00  0.00     0.031 C 
ATOM     44  C   UNL A   1      37.727  34.267  34.585  1.00  0.00     0.029 A 
ATOM     45  C   UNL A   1      38.787  33.272  34.706  1.00  0.00     0.049 A 
ATOM     46  H   UNL A   1      39.376  31.868  33.285  1.00  0.00     0.167 HD
ATOM     47  C   UNL A   1      40.336  28.806  30.303  1.00  0.00     0.037 A 
ATOM     48  C   UNL A   1      39.576  33.099  35.784  1.00  0.00     0.037 A 
ATOM     49  C   UNL A   1      41.303  28.629  31.355  1.00  0.00     0.049 A 
ATOM     50  C   UNL A   1      40.640  32.032  35.748  1.00  0.00     0.074 A 
ATOM     51  C   UNL A   1      42.363  27.742  31.410  1.00  0.00     0.029 A 
ATOM     52  N   UNL A   1      41.323  29.351  32.539  1.00  0.00    -0.354 N 
ATOM     53  N   UNL A   1      40.932  31.184  34.792  1.00  0.00    -0.248 NA
ATOM     54  C   UNL A   1      41.491  31.905  36.939  1.00  0.00     0.031 C 
ATOM     55  C   UNL A   1      42.988  27.883  32.652  1.00  0.00     0.029 A 
ATOM     56  C   UNL A   1      42.361  28.906  33.343  1.00  0.00     0.049 A 
ATOM     57  H   UNL A   1      40.696  30.072  32.773  1.00  0.00     0.167 HD
ATOM     58  C   UNL A   1      42.018  30.450  35.251  1.00  0.00     0.074 A 
ATOM     59  C   UNL A   1      42.346  30.965  36.563  1.00  0.00     0.031 C 
ATOM     60  C   UNL A   1      42.684  29.438  34.642  1.00  0.00     0.037 A 
BRANCH  47  61
ATOM     61  C   UNL A   1      40.404  27.873  29.128  1.00  0.00     0.064 A 
ATOM     62  C   UNL A   1      39.649  26.691  29.078  1.00  0.00     0.173 A 
ATOM     63  C   UNL A   1      41.172  28.208  28.001  1.00  0.00     0.173 A 
ATOM     64  F   UNL A   1      38.907  26.319  30.132  1.00  0.00    -0.203 F 
ATOM     65  C   UNL A   1      39.673  25.872  27.952  1.00  0.00     0.198 A 
ATOM     66  C   UNL A   1      41.169  27.404  26.866  1.00  0.00     0.198 A 
ATOM     67  F   UNL A   1      41.908  29.329  27.996  1.00  0.00    -0.203 F 
ATOM     68  F   UNL A   1      38.972  24.730  27.941  1.00  0.00    -0.200 F 
ATOM     69  C   UNL A   1      40.423  26.236  26.842  1.00  0.00     0.200 A 
ATOM     70  F   UNL A   1      41.882  27.765  25.790  1.00  0.00    -0.200 F 
ATOM     71  F   UNL A   1      40.429  25.457  25.752  1.00  0.00    -0.200 F 
ENDBRANCH  47  61
BRANCH  48  72
ATOM     72  C   UNL A   1      39.398  33.949  36.992  1.00  0.00     0.064 A 
ATOM     73  C   UNL A   1      39.998  35.213  37.085  1.00  0.00     0.173 A 
ATOM     74  C   UNL A   1      38.657  33.499  38.094  1.00  0.00     0.173 A 
ATOM     75  F   UNL A   1      40.733  35.682  36.065  1.00  0.00    -0.203 F 
ATOM     76  C   UNL A   1      39.900  35.974  38.248  1.00  0.00     0.198 A 
ATOM     77  C   UNL A   1      38.527  34.278  39.243  1.00  0.00     0.198 A 
ATOM     78  F   UNL A   1      38.054  32.302  38.056  1.00  0.00    -0.203 F 
ATOM     79  F   UNL A   1      40.543  37.146  38.335  1.00  0.00    -0.200 F 
ATOM     80  C   UNL A   1      39.162  35.507  39.325  1.00  0.00     0.200 A 
ATOM     81  F   UNL A   1      37.799  33.829  40.274  1.00  0.00    -0.200 F 
ATOM     82  F   UNL A   1      39.072  36.236  40.446  1.00  0.00    -0.200 F 
ENDBRANCH  48  72
BRANCH  60  83
ATOM     83  C   UNL A   1      43.865  28.855  35.364  1.00  0.00     0.064 A 
ATOM     84  C   UNL A   1      45.168  29.328  35.155  1.00  0.00     0.173 A 
ATOM     85  C   UNL A   1      43.682  27.829  36.305  1.00  0.00     0.173 A 
ATOM     86  F   UNL A   1      45.400  30.297  34.257  1.00  0.00    -0.203 F 
ATOM     87  C   UNL A   1      46.249  28.772  35.836  1.00  0.00     0.198 A 
ATOM     88  C   UNL A   1      44.759  27.303  37.012  1.00  0.00     0.198 A 
ATOM     89  F   UNL A   1      42.454  27.347  36.551  1.00  0.00    -0.203 F 
ATOM     90  F   UNL A   1      47.493  29.200  35.578  1.00  0.00    -0.200 F 
ATOM     91  C   UNL A   1      46.043  27.767  36.769  1.00  0.00     0.200 A 
ATOM     92  F   UNL A   1      44.554  26.344  37.926  1.00  0.00    -0.200 F 
ATOM     93  F   UNL A   1      47.082  27.240  37.429  1.00  0.00    -0.200 F 
ENDBRANCH  60  83
ENDBRANCH  34  35
ENDBRANCH  26  29
ENDBRANCH  24  25
ENDBRANCH  23  24
ENDBRANCH  22  23
ENDBRANCH   1  22
TORSDOF 15
ENDMDL
MODEL 3
REMARK VINA RESULT:     -11.7      5.545     10.046
REMARK SMILES Cc1cscc1C(=O)N1CC[C@H](C(=O)NCCCCCCNC(=O)c2ccc(-c3c4nc(c(-c5c(F)c(F)c(F)c(F)c5F)c5ccc([nH]5)c(-c5c(F)c(F)c(F)c(F)c5F)c5nc(c(-c6c(F)c(F)c(F)c(F)c6F)c6ccc3[nH]6)C=C5)C=C4)cc2)[C@H]1C
REMARK SMILES IDX 18 1 17 2 16 3 15 4 13 5 14 6 12 8 9 9 10 10 88 11 11 12
REMARK SMILES IDX 89 13 7 14 8 15 6 16 1 17 2 18 3 19 4 20 5 21 19 22 20 23
REMARK SMILES IDX 21 24 22 25 23 26 24 28 25 29 26 30 87 31 27 32 86 33 28 34
REMARK SMILES IDX 29 35 30 36 80 37 31 38 85 39 79 40 81 41 32 42 84 43 78 44
REMARK SMILES IDX 77 45 33 47 65 48 45 49 64 50 46 51 49 52 63 53 82 54 47 55
REMARK SMILES IDX 48 56 62 58 83 59 50 60 34 61 35 62 43 63 36 64 37 65 41 66
REMARK SMILES IDX 44 67 38 68 39 69 42 70 40 71 66 72 67 73 75 74 68 75 69 76
REMARK SMILES IDX 73 77 76 78 70 79 71 80 74 81 72 82 51 83 52 84 60 85 53 86
REMARK SMILES IDX 54 87 58 88 61 89 55 90 56 91 59 92 57 93
REMARK H PARENT 15 7 22 27 81 46 49 57
REMARK Flexibility Score: inf
ROOT
ATOM      1  C   UNL A   1      37.284  21.809  24.960  1.00  0.00     0.002 C 
ENDROOT
BRANCH   1   2
ATOM      2  C   UNL A   1      37.018  22.482  23.610  1.00  0.00     0.021 C 
BRANCH   2   3
ATOM      3  C   UNL A   1      35.568  22.890  23.385  1.00  0.00     0.116 C 
BRANCH   3   4
ATOM      4  N   UNL A   1      35.264  24.154  24.023  1.00  0.00    -0.356 N 
ATOM      5  C   UNL A   1      34.087  24.588  24.554  1.00  0.00     0.225 C 
ATOM      6  O   UNL A   1      34.032  25.743  24.969  1.00  0.00    -0.275 OA
ATOM      7  H   UNL A   1      36.014  24.789  24.081  1.00  0.00     0.163 HD
BRANCH   5   8
ATOM      8  C   UNL A   1      32.906  23.634  24.560  1.00  0.00     0.102 C 
ATOM      9  N   UNL A   1      30.924  24.364  25.707  1.00  0.00    -0.335 N 
ATOM     10  C   UNL A   1      31.866  23.858  26.683  1.00  0.00     0.121 C 
ATOM     11  C   UNL A   1      31.557  24.367  24.374  1.00  0.00     0.094 C 
ATOM     12  C   UNL A   1      32.743  22.912  25.901  1.00  0.00     0.037 C 
ATOM     13  C   UNL A   1      30.735  23.645  23.307  1.00  0.00     0.032 C 
BRANCH   9  14
ATOM     14  C   UNL A   1      30.204  25.484  26.115  1.00  0.00     0.255 C 
ATOM     15  O   UNL A   1      29.144  25.373  26.730  1.00  0.00    -0.269 OA
BRANCH  14  16
ATOM     16  C   UNL A   1      30.729  26.795  25.720  1.00  0.00     0.053 A 
ATOM     17  C   UNL A   1      29.572  27.266  23.399  1.00  0.00     0.046 C 
ATOM     18  C   UNL A   1      30.494  27.591  24.526  1.00  0.00    -0.028 A 
ATOM     19  C   UNL A   1      31.213  28.774  24.567  1.00  0.00     0.069 A 
ATOM     20  S   UNL A   1      32.067  28.996  26.022  1.00  0.00    -0.151 S 
ATOM     21  C   UNL A   1      31.522  27.499  26.617  1.00  0.00     0.079 A 
ENDBRANCH  14  16
ENDBRANCH   9  14
ENDBRANCH   5   8
ENDBRANCH   3   4
ENDBRANCH   2   3
ENDBRANCH   1   2
BRANCH   1  22
ATOM     22  C   UNL A   1      36.935  20.319  25.021  1.00  0.00     0.002 C 
BRANCH  22  23
ATOM     23  C   UNL A   1      38.136  19.373  25.014  1.00  0.00     0.021 C 
BRANCH  23  24
ATOM     24  C   UNL A   1      39.361  19.901  25.749  1.00  0.00     0.116 C 
BRANCH  24  25
ATOM     25  N   UNL A   1      40.404  18.896  25.868  1.00  0.00    -0.352 N 
ATOM     26  C   UNL A   1      41.750  19.063  26.069  1.00  0.00     0.251 C 
ATOM     27  H   UNL A   1      40.100  17.963  25.796  1.00  0.00     0.163 HD
ATOM     28  O   UNL A   1      42.515  18.111  25.961  1.00  0.00    -0.269 OA
BRANCH  26  29
ATOM     29  C   UNL A   1      42.280  20.403  26.395  1.00  0.00     0.039 A 
ATOM     30  C   UNL A   1      42.767  21.203  25.358  1.00  0.00     0.014 A 
ATOM     31  C   UNL A   1      42.303  20.868  27.714  1.00  0.00     0.014 A 
ATOM     32  C   UNL A   1      43.227  22.490  25.638  1.00  0.00     0.010 A 
ATOM     33  C   UNL A   1      42.688  22.179  27.978  1.00  0.00     0.010 A 
ATOM     34  C   UNL A   1      43.162  23.001  26.945  1.00  0.00    -0.014 A 
BRANCH  34  35
ATOM     35  C   UNL A   1      43.591  24.392  27.245  1.00  0.00     0.031 A 
ATOM     36  C   UNL A   1      42.592  25.400  27.743  1.00  0.00     0.074 A 
ATOM     37  C   UNL A   1      44.867  24.758  27.017  1.00  0.00     0.049 A 
ATOM     38  N   UNL A   1      42.761  26.671  28.007  1.00  0.00    -0.248 NA
ATOM     39  C   UNL A   1      41.213  24.926  27.948  1.00  0.00     0.031 C 
ATOM     40  C   UNL A   1      45.916  23.885  26.487  1.00  0.00     0.029 A 
ATOM     41  N   UNL A   1      45.499  25.965  27.191  1.00  0.00    -0.354 N 
ATOM     42  C   UNL A   1      41.515  27.148  28.390  1.00  0.00     0.074 A 
ATOM     43  C   UNL A   1      40.586  26.046  28.280  1.00  0.00     0.031 C 
ATOM     44  C   UNL A   1      47.063  24.578  26.397  1.00  0.00     0.029 A 
ATOM     45  C   UNL A   1      46.822  25.954  26.821  1.00  0.00     0.049 A 
ATOM     46  H   UNL A   1      45.046  26.763  27.547  1.00  0.00     0.167 HD
ATOM     47  C   UNL A   1      41.182  28.390  28.816  1.00  0.00     0.037 A 
ATOM     48  C   UNL A   1      47.734  26.944  26.812  1.00  0.00     0.037 A 
ATOM     49  C   UNL A   1      42.116  29.475  28.957  1.00  0.00     0.049 A 
ATOM     50  C   UNL A   1      47.332  28.314  27.295  1.00  0.00     0.074 A 
ATOM     51  C   UNL A   1      41.890  30.747  29.453  1.00  0.00     0.029 A 
ATOM     52  N   UNL A   1      43.454  29.418  28.598  1.00  0.00    -0.354 N 
ATOM     53  N   UNL A   1      46.169  28.729  27.736  1.00  0.00    -0.248 NA
ATOM     54  C   UNL A   1      48.374  29.350  27.291  1.00  0.00     0.031 C 
ATOM     55  C   UNL A   1      43.074  31.479  29.336  1.00  0.00     0.029 A 
ATOM     56  C   UNL A   1      44.057  30.644  28.833  1.00  0.00     0.049 A 
ATOM     57  H   UNL A   1      43.909  28.626  28.232  1.00  0.00     0.167 HD
ATOM     58  C   UNL A   1      46.348  30.059  28.092  1.00  0.00     0.074 A 
ATOM     59  C   UNL A   1      47.737  30.377  27.834  1.00  0.00     0.031 C 
ATOM     60  C   UNL A   1      45.445  30.941  28.585  1.00  0.00     0.037 A 
BRANCH  47  61
ATOM     61  C   UNL A   1      39.745  28.654  29.166  1.00  0.00     0.064 A 
ATOM     62  C   UNL A   1      39.248  28.436  30.460  1.00  0.00     0.173 A 
ATOM     63  C   UNL A   1      38.875  29.211  28.215  1.00  0.00     0.173 A 
ATOM     64  F   UNL A   1      40.034  27.896  31.404  1.00  0.00    -0.203 F 
ATOM     65  C   UNL A   1      37.930  28.751  30.783  1.00  0.00     0.198 A 
ATOM     66  C   UNL A   1      37.569  29.553  28.550  1.00  0.00     0.198 A 
ATOM     67  F   UNL A   1      39.302  29.443  26.964  1.00  0.00    -0.203 F 
ATOM     68  F   UNL A   1      37.467  28.501  32.015  1.00  0.00    -0.200 F 
ATOM     69  C   UNL A   1      37.096  29.320  29.832  1.00  0.00     0.200 A 
ATOM     70  F   UNL A   1      36.770  30.117  27.633  1.00  0.00    -0.200 F 
ATOM     71  F   UNL A   1      35.834  29.640  30.150  1.00  0.00    -0.200 F 
ENDBRANCH  47  61
BRANCH  48  72
ATOM     72  C   UNL A   1      49.119  26.689  26.329  1.00  0.00     0.064 A 
ATOM     73  C   UNL A   1      49.476  26.921  24.993  1.00  0.00     0.173 A 
ATOM     74  C   UNL A   1      50.101  26.168  27.183  1.00  0.00     0.173 A 
ATOM     75  F   UNL A   1      48.568  27.401  24.131  1.00  0.00    -0.203 F 
ATOM     76  C   UNL A   1      50.748  26.604  24.522  1.00  0.00     0.198 A 
ATOM     77  C   UNL A   1      51.385  25.887  26.719  1.00  0.00     0.198 A 
ATOM     78  F   UNL A   1      49.817  25.934  28.472  1.00  0.00    -0.203 F 
ATOM     79  F   UNL A   1      51.039  26.770  23.224  1.00  0.00    -0.200 F 
ATOM     80  C   UNL A   1      51.703  26.090  25.386  1.00  0.00     0.200 A 
ATOM     81  F   UNL A   1      52.308  25.406  27.563  1.00  0.00    -0.200 F 
ATOM     82  F   UNL A   1      52.924  25.779  24.931  1.00  0.00    -0.200 F 
ENDBRANCH  48  72
BRANCH  60  83
ATOM     83  C   UNL A   1      45.938  32.318  28.928  1.00  0.00     0.064 A 
ATOM     84  C   UNL A   1      45.919  33.365  27.997  1.00  0.00     0.173 A 
ATOM     85  C   UNL A   1      46.403  32.599  30.223  1.00  0.00     0.173 A 
ATOM     86  F   UNL A   1      45.497  33.146  26.742  1.00  0.00    -0.203 F 
ATOM     87  C   UNL A   1      46.380  34.634  28.337  1.00  0.00     0.198 A 
ATOM     88  C   UNL A   1      46.828  33.878  30.571  1.00  0.00     0.198 A 
ATOM     89  F   UNL A   1      46.433  31.636  31.156  1.00  0.00    -0.203 F 
ATOM     90  F   UNL A   1      46.407  35.605  27.413  1.00  0.00    -0.200 F 
ATOM     91  C   UNL A   1      46.826  34.892  29.625  1.00  0.00     0.200 A 
ATOM     92  F   UNL A   1      47.240  34.128  31.822  1.00  0.00    -0.200 F 
ATOM     93  F   UNL A   1      47.261  36.116  29.953  1.00  0.00    -0.200 F 
ENDBRANCH  60  83
ENDBRANCH  34  35
ENDBRANCH  26  29
ENDBRANCH  24  25
ENDBRANCH  23  24
ENDBRANCH  22  23
ENDBRANCH   1  22
TORSDOF 15
ENDMDL
