MODEL 1
REMARK VINA RESULT:     -13.3      0.000      0.000
REMARK SMILES CCC(=O)N1CCC[C@](C[C@H]2CC(c3ccc(C)cc3)=NO2)(C(=O)NCCCCCCNC(=O)c2ccc(-c3c4nc(c(-c5c(F)c(F)c(F)c(F)c5F)c5ccc([nH]5)c(-c5c(F)c(F)c(F)c(F)c5F)c5nc(c(-c6c(F)c(F)c(F)c(F)c6F)c6ccc3[nH]6)C=C5)C=C4)cc2)C1
REMARK SMILES IDX 28 1 27 2 26 3 25 4 23 5 24 6 9 8 5 9 6 10 98 11 7 12 8 13
REMARK SMILES IDX 3 14 4 15 2 16 1 17 10 18 11 19 12 20 22 21 13 22 21 23
REMARK SMILES IDX 14 24 15 25 20 26 16 27 19 28 17 29 18 30 29 31 30 32 31 33
REMARK SMILES IDX 32 34 33 35 34 37 35 38 36 39 97 40 37 41 96 42 38 43 39 44
REMARK SMILES IDX 40 45 90 46 41 47 95 48 89 49 91 50 42 51 94 52 88 53 87 54
REMARK SMILES IDX 43 56 75 57 55 58 74 59 56 60 59 61 73 62 92 63 57 64 58 65
REMARK SMILES IDX 72 67 93 68 60 69 44 70 45 71 53 72 46 73 47 74 51 75 54 76
REMARK SMILES IDX 48 77 49 78 52 79 50 80 76 81 77 82 85 83 78 84 79 85 83 86
REMARK SMILES IDX 86 87 80 88 81 89 84 90 82 91 61 92 62 93 70 94 63 95 64 96
REMARK SMILES IDX 68 97 71 98 65 99 66 100 69 101 67 102
REMARK H PARENT 25 7 32 36 91 55 59 66
REMARK Flexibility Score: inf
ROOT
ATOM      1  C   UNL A   1      35.557  22.697  25.004  1.00  0.00     0.002 C 
ENDROOT
BRANCH   1   2
ATOM      2  C   UNL A   1      34.985  23.133  23.648  1.00  0.00     0.021 C 
BRANCH   2   3
ATOM      3  C   UNL A   1      34.787  24.643  23.485  1.00  0.00     0.116 C 
BRANCH   3   4
ATOM      4  N   UNL A   1      33.514  24.943  22.857  1.00  0.00    -0.356 N 
ATOM      5  C   UNL A   1      32.405  25.622  23.262  1.00  0.00     0.228 C 
ATOM      6  O   UNL A   1      31.440  25.554  22.496  1.00  0.00    -0.274 OA
ATOM      7  H   UNL A   1      33.436  24.579  21.945  1.00  0.00     0.163 HD
BRANCH   5   8
ATOM      8  C   UNL A   1      32.334  26.398  24.607  1.00  0.00     0.070 C 
ATOM      9  N   UNL A   1      30.631  28.116  23.815  1.00  0.00    -0.342 N 
ATOM     10  C   UNL A   1      31.625  29.179  23.795  1.00  0.00     0.119 C 
ATOM     11  C   UNL A   1      30.895  27.008  24.746  1.00  0.00     0.136 C 
ATOM     12  C   UNL A   1      33.012  28.625  23.531  1.00  0.00     0.023 C 
ATOM     13  C   UNL A   1      33.345  27.562  24.576  1.00  0.00     0.021 C 
BRANCH   9  14
ATOM     14  C   UNL A   1      29.509  28.267  23.015  1.00  0.00     0.222 C 
ATOM     15  O   UNL A   1      29.540  28.961  21.991  1.00  0.00    -0.275 OA
BRANCH  14  16
ATOM     16  C   UNL A   1      28.163  27.737  23.493  1.00  0.00     0.097 C 
ATOM     17  C   UNL A   1      26.933  28.580  23.235  1.00  0.00     0.014 C 
ENDBRANCH  14  16
ENDBRANCH   9  14
BRANCH   8  18
ATOM     18  C   UNL A   1      32.562  25.335  25.738  1.00  0.00     0.067 C 
BRANCH  18  19
ATOM     19  C   UNL A   1      31.574  24.194  26.047  1.00  0.00     0.211 C 
ATOM     20  C   UNL A   1      31.346  23.118  25.006  1.00  0.00     0.108 C 
ATOM     21  O   UNL A   1      31.921  23.520  27.258  1.00  0.00    -0.392 OA
ATOM     22  C   UNL A   1      32.011  21.983  25.704  1.00  0.00     0.091 C 
ATOM     23  N   UNL A   1      32.279  22.191  26.953  1.00  0.00    -0.090 NA
BRANCH  22  24
ATOM     24  C   UNL A   1      32.325  20.705  25.036  1.00  0.00    -0.001 A 
ATOM     25  C   UNL A   1      32.157  20.540  23.658  1.00  0.00     0.010 A 
ATOM     26  C   UNL A   1      32.897  19.682  25.795  1.00  0.00     0.010 A 
ATOM     27  C   UNL A   1      32.603  19.370  23.038  1.00  0.00     0.004 A 
ATOM     28  C   UNL A   1      33.310  18.500  25.178  1.00  0.00     0.004 A 
ATOM     29  C   UNL A   1      33.192  18.348  23.791  1.00  0.00    -0.051 A 
ATOM     30  C   UNL A   1      33.669  17.086  23.133  1.00  0.00     0.044 C 
ENDBRANCH  22  24
ENDBRANCH  18  19
ENDBRANCH   8  18
ENDBRANCH   5   8
ENDBRANCH   3   4
ENDBRANCH   2   3
ENDBRANCH   1   2
BRANCH   1  31
ATOM     31  C   UNL A   1      36.171  21.287  25.064  1.00  0.00     0.002 C 
BRANCH  31  32
ATOM     32  C   UNL A   1      37.686  21.216  25.275  1.00  0.00     0.021 C 
BRANCH  32  33
ATOM     33  C   UNL A   1      38.313  22.520  25.749  1.00  0.00     0.116 C 
BRANCH  33  34
ATOM     34  N   UNL A   1      39.754  22.463  25.939  1.00  0.00    -0.352 N 
ATOM     35  C   UNL A   1      40.630  23.465  26.333  1.00  0.00     0.251 C 
ATOM     36  H   UNL A   1      40.167  21.588  25.764  1.00  0.00     0.163 HD
ATOM     37  O   UNL A   1      41.825  23.260  26.365  1.00  0.00    -0.269 OA
BRANCH  35  38
ATOM     38  C   UNL A   1      40.078  24.750  26.837  1.00  0.00     0.039 A 
ATOM     39  C   UNL A   1      40.509  25.932  26.223  1.00  0.00     0.014 A 
ATOM     40  C   UNL A   1      39.312  24.805  27.999  1.00  0.00     0.014 A 
ATOM     41  C   UNL A   1      40.379  27.143  26.902  1.00  0.00     0.010 A 
ATOM     42  C   UNL A   1      39.269  25.984  28.718  1.00  0.00     0.010 A 
ATOM     43  C   UNL A   1      39.859  27.139  28.197  1.00  0.00    -0.014 A 
BRANCH  43  44
ATOM     44  C   UNL A   1      39.998  28.261  29.115  1.00  0.00     0.031 A 
ATOM     45  C   UNL A   1      38.953  29.297  29.207  1.00  0.00     0.074 A 
ATOM     46  C   UNL A   1      41.076  28.335  29.927  1.00  0.00     0.049 A 
ATOM     47  N   UNL A   1      39.199  30.527  29.515  1.00  0.00    -0.248 NA
ATOM     48  C   UNL A   1      37.543  29.037  28.931  1.00  0.00     0.031 C 
ATOM     49  C   UNL A   1      41.261  29.235  31.064  1.00  0.00     0.029 A 
ATOM     50  N   UNL A   1      42.327  27.715  29.765  1.00  0.00    -0.354 N 
ATOM     51  C   UNL A   1      37.993  31.143  29.732  1.00  0.00     0.074 A 
ATOM     52  C   UNL A   1      36.991  30.202  29.289  1.00  0.00     0.031 C 
ATOM     53  C   UNL A   1      42.573  29.343  31.322  1.00  0.00     0.029 A 
ATOM     54  C   UNL A   1      43.278  28.625  30.276  1.00  0.00     0.049 A 
ATOM     55  H   UNL A   1      42.502  26.827  29.376  1.00  0.00     0.167 HD
ATOM     56  C   UNL A   1      37.943  32.331  30.396  1.00  0.00     0.037 A 
ATOM     57  C   UNL A   1      44.268  29.152  29.500  1.00  0.00     0.037 A 
ATOM     58  C   UNL A   1      39.260  32.782  30.817  1.00  0.00     0.049 A 
ATOM     59  C   UNL A   1      44.274  30.659  29.448  1.00  0.00     0.074 A 
ATOM     60  C   UNL A   1      39.945  32.653  32.015  1.00  0.00     0.029 A 
ATOM     61  N   UNL A   1      40.197  33.176  29.868  1.00  0.00    -0.354 N 
ATOM     62  N   UNL A   1      43.234  31.395  29.719  1.00  0.00    -0.248 NA
ATOM     63  C   UNL A   1      45.433  31.449  29.047  1.00  0.00     0.031 C 
ATOM     64  C   UNL A   1      41.305  32.956  31.783  1.00  0.00     0.029 A 
ATOM     65  C   UNL A   1      41.447  33.281  30.445  1.00  0.00     0.049 A 
ATOM     66  H   UNL A   1      39.998  33.353  28.920  1.00  0.00     0.167 HD
ATOM     67  C   UNL A   1      43.545  32.715  29.511  1.00  0.00     0.074 A 
ATOM     68  C   UNL A   1      44.939  32.698  29.112  1.00  0.00     0.031 C 
ATOM     69  C   UNL A   1      42.609  33.698  29.677  1.00  0.00     0.037 A 
BRANCH  56  70
ATOM     70  C   UNL A   1      36.646  32.889  30.907  1.00  0.00     0.064 A 
ATOM     71  C   UNL A   1      35.862  33.766  30.131  1.00  0.00     0.173 A 
ATOM     72  C   UNL A   1      36.160  32.620  32.199  1.00  0.00     0.173 A 
ATOM     73  F   UNL A   1      36.187  34.063  28.867  1.00  0.00    -0.203 F 
ATOM     74  C   UNL A   1      34.727  34.397  30.642  1.00  0.00     0.198 A 
ATOM     75  C   UNL A   1      35.050  33.286  32.725  1.00  0.00     0.198 A 
ATOM     76  F   UNL A   1      36.761  31.709  32.980  1.00  0.00    -0.203 F 
ATOM     77  F   UNL A   1      34.028  35.237  29.866  1.00  0.00    -0.200 F 
ATOM     78  C   UNL A   1      34.339  34.182  31.949  1.00  0.00     0.200 A 
ATOM     79  F   UNL A   1      34.686  33.072  33.998  1.00  0.00    -0.200 F 
ATOM     80  F   UNL A   1      33.284  34.834  32.456  1.00  0.00    -0.200 F 
ENDBRANCH  56  70
BRANCH  57  81
ATOM     81  C   UNL A   1      44.659  28.270  28.371  1.00  0.00     0.064 A 
ATOM     82  C   UNL A   1      45.389  27.101  28.656  1.00  0.00     0.173 A 
ATOM     83  C   UNL A   1      44.010  28.346  27.132  1.00  0.00     0.173 A 
ATOM     84  F   UNL A   1      46.025  26.980  29.834  1.00  0.00    -0.203 F 
ATOM     85  C   UNL A   1      45.369  26.008  27.794  1.00  0.00     0.198 A 
ATOM     86  C   UNL A   1      44.002  27.252  26.266  1.00  0.00     0.198 A 
ATOM     87  F   UNL A   1      43.286  29.426  26.811  1.00  0.00    -0.203 F 
ATOM     88  F   UNL A   1      45.977  24.867  28.149  1.00  0.00    -0.200 F 
ATOM     89  C   UNL A   1      44.651  26.074  26.613  1.00  0.00     0.200 A 
ATOM     90  F   UNL A   1      43.285  27.305  25.134  1.00  0.00    -0.200 F 
ATOM     91  F   UNL A   1      44.546  24.992  25.829  1.00  0.00    -0.200 F 
ENDBRANCH  57  81
BRANCH  69  92
ATOM     92  C   UNL A   1      42.720  35.148  29.258  1.00  0.00     0.064 A 
ATOM     93  C   UNL A   1      42.064  35.705  28.149  1.00  0.00     0.173 A 
ATOM     94  C   UNL A   1      43.408  36.079  30.080  1.00  0.00     0.173 A 
ATOM     95  F   UNL A   1      41.278  34.967  27.356  1.00  0.00    -0.203 F 
ATOM     96  C   UNL A   1      42.141  37.071  27.849  1.00  0.00     0.198 A 
ATOM     97  C   UNL A   1      43.432  37.447  29.811  1.00  0.00     0.198 A 
ATOM     98  F   UNL A   1      44.056  35.697  31.190  1.00  0.00    -0.203 F 
ATOM     99  F   UNL A   1      41.529  37.542  26.754  1.00  0.00    -0.200 F 
ATOM    100  C   UNL A   1      42.813  37.941  28.685  1.00  0.00     0.200 A 
ATOM    101  F   UNL A   1      44.042  38.281  30.665  1.00  0.00    -0.200 F 
ATOM    102  F   UNL A   1      42.841  39.254  28.420  1.00  0.00    -0.200 F 
ENDBRANCH  69  92
ENDBRANCH  43  44
ENDBRANCH  35  38
ENDBRANCH  33  34
ENDBRANCH  32  33
ENDBRANCH  31  32
ENDBRANCH   1  31
TORSDOF 18
ENDMDL
MODEL 2
REMARK VINA RESULT:     -13.3      3.384     10.007
REMARK SMILES CCC(=O)N1CCC[C@](C[C@H]2CC(c3ccc(C)cc3)=NO2)(C(=O)NCCCCCCNC(=O)c2ccc(-c3c4nc(c(-c5c(F)c(F)c(F)c(F)c5F)c5ccc([nH]5)c(-c5c(F)c(F)c(F)c(F)c5F)c5nc(c(-c6c(F)c(F)c(F)c(F)c6F)c6ccc3[nH]6)C=C5)C=C4)cc2)C1
REMARK SMILES IDX 28 1 27 2 26 3 25 4 23 5 24 6 9 8 5 9 6 10 98 11 7 12 8 13
REMARK SMILES IDX 3 14 4 15 2 16 1 17 10 18 11 19 12 20 22 21 13 22 21 23
REMARK SMILES IDX 14 24 15 25 20 26 16 27 19 28 17 29 18 30 29 31 30 32 31 33
REMARK SMILES IDX 32 34 33 35 34 37 35 38 36 39 97 40 37 41 96 42 38 43 39 44
REMARK SMILES IDX 40 45 90 46 41 47 95 48 89 49 91 50 42 51 94 52 88 53 87 54
REMARK SMILES IDX 43 56 75 57 55 58 74 59 56 60 59 61 73 62 92 63 57 64 58 65
REMARK SMILES IDX 72 67 93 68 60 69 44 70 45 71 53 72 46 73 47 74 51 75 54 76
REMARK SMILES IDX 48 77 49 78 52 79 50 80 76 81 77 82 85 83 78 84 79 85 83 86
REMARK SMILES IDX 86 87 80 88 81 89 84 90 82 91 61 92 62 93 70 94 63 95 64 96
REMARK SMILES IDX 68 97 71 98 65 99 66 100 69 101 67 102
REMARK H PARENT 25 7 32 36 91 55 59 66
REMARK Flexibility Score: inf
ROOT
ATOM      1  C   UNL A   1      32.055  27.244  26.320  1.00  0.00     0.002 C 
ENDROOT
BRANCH   1   2
ATOM      2  C   UNL A   1      31.050  26.086  26.259  1.00  0.00     0.021 C 
BRANCH   2   3
ATOM      3  C   UNL A   1      31.606  24.775  25.698  1.00  0.00     0.116 C 
BRANCH   3   4
ATOM      4  N   UNL A   1      32.721  24.292  26.490  1.00  0.00    -0.356 N 
ATOM      5  C   UNL A   1      33.915  23.714  26.177  1.00  0.00     0.228 C 
ATOM      6  O   UNL A   1      34.566  23.301  27.140  1.00  0.00    -0.274 OA
ATOM      7  H   UNL A   1      32.588  24.407  27.459  1.00  0.00     0.163 HD
BRANCH   5   8
ATOM      8  C   UNL A   1      34.413  23.546  24.714  1.00  0.00     0.070 C 
ATOM      9  N   UNL A   1      33.529  21.177  24.421  1.00  0.00    -0.342 N 
ATOM     10  C   UNL A   1      34.871  20.611  24.445  1.00  0.00     0.119 C 
ATOM     11  C   UNL A   1      33.431  22.574  23.971  1.00  0.00     0.136 C 
ATOM     12  C   UNL A   1      35.811  21.469  25.270  1.00  0.00     0.023 C 
ATOM     13  C   UNL A   1      35.812  22.896  24.724  1.00  0.00     0.021 C 
BRANCH   9  14
ATOM     14  C   UNL A   1      32.473  20.345  24.758  1.00  0.00     0.222 C 
ATOM     15  O   UNL A   1      31.497  20.772  25.387  1.00  0.00    -0.275 OA
BRANCH  14  16
ATOM     16  C   UNL A   1      32.590  18.844  24.527  1.00  0.00     0.097 C 
ATOM     17  C   UNL A   1      32.702  17.943  25.738  1.00  0.00     0.014 C 
ENDBRANCH  14  16
ENDBRANCH   9  14
BRANCH   8  18
ATOM     18  C   UNL A   1      34.335  24.969  24.058  1.00  0.00     0.067 C 
BRANCH  18  19
ATOM     19  C   UNL A   1      33.591  25.261  22.741  1.00  0.00     0.211 C 
ATOM     20  C   UNL A   1      32.112  25.582  22.789  1.00  0.00     0.108 C 
ATOM     21  O   UNL A   1      34.214  26.325  22.018  1.00  0.00    -0.392 OA
ATOM     22  C   UNL A   1      32.181  27.023  22.422  1.00  0.00     0.091 C 
ATOM     23  N   UNL A   1      33.321  27.414  21.953  1.00  0.00    -0.090 NA
BRANCH  22  24
ATOM     24  C   UNL A   1      31.032  27.939  22.559  1.00  0.00    -0.001 A 
ATOM     25  C   UNL A   1      31.070  29.242  22.054  1.00  0.00     0.010 A 
ATOM     26  C   UNL A   1      29.852  27.445  23.119  1.00  0.00     0.010 A 
ATOM     27  C   UNL A   1      29.916  30.029  22.070  1.00  0.00     0.004 A 
ATOM     28  C   UNL A   1      28.709  28.245  23.164  1.00  0.00     0.004 A 
ATOM     29  C   UNL A   1      28.726  29.533  22.614  1.00  0.00    -0.051 A 
ATOM     30  C   UNL A   1      27.483  30.374  22.638  1.00  0.00     0.044 C 
ENDBRANCH  22  24
ENDBRANCH  18  19
ENDBRANCH   8  18
ENDBRANCH   5   8
ENDBRANCH   3   4
ENDBRANCH   2   3
ENDBRANCH   1   2
BRANCH   1  31
ATOM     31  C   UNL A   1      31.879  28.241  27.479  1.00  0.00     0.002 C 
BRANCH  31  32
ATOM     32  C   UNL A   1      32.430  29.652  27.248  1.00  0.00     0.021 C 
BRANCH  32  33
ATOM     33  C   UNL A   1      33.947  29.748  27.318  1.00  0.00     0.116 C 
BRANCH  33  34
ATOM     34  N   UNL A   1      34.446  30.806  28.183  1.00  0.00    -0.352 N 
ATOM     35  C   UNL A   1      35.613  30.853  28.934  1.00  0.00     0.251 C 
ATOM     36  H   UNL A   1      33.875  31.604  28.244  1.00  0.00     0.163 HD
ATOM     37  O   UNL A   1      35.835  31.792  29.667  1.00  0.00    -0.269 OA
BRANCH  35  38
ATOM     38  C   UNL A   1      36.644  29.801  28.733  1.00  0.00     0.039 A 
ATOM     39  C   UNL A   1      36.942  28.963  29.814  1.00  0.00     0.014 A 
ATOM     40  C   UNL A   1      37.429  29.764  27.583  1.00  0.00     0.014 A 
ATOM     41  C   UNL A   1      38.155  28.275  29.833  1.00  0.00     0.010 A 
ATOM     42  C   UNL A   1      38.673  29.165  27.639  1.00  0.00     0.010 A 
ATOM     43  C   UNL A   1      39.061  28.475  28.790  1.00  0.00    -0.014 A 
BRANCH  43  44
ATOM     44  C   UNL A   1      40.465  28.098  28.872  1.00  0.00     0.031 A 
ATOM     45  C   UNL A   1      40.938  26.816  28.318  1.00  0.00     0.074 A 
ATOM     46  C   UNL A   1      41.358  28.950  29.422  1.00  0.00     0.049 A 
ATOM     47  N   UNL A   1      41.944  26.163  28.799  1.00  0.00    -0.248 NA
ATOM     48  C   UNL A   1      40.298  26.148  27.189  1.00  0.00     0.031 C 
ATOM     49  C   UNL A   1      42.815  28.852  29.369  1.00  0.00     0.029 A 
ATOM     50  N   UNL A   1      41.111  30.004  30.318  1.00  0.00    -0.354 N 
ATOM     51  C   UNL A   1      42.241  25.159  27.914  1.00  0.00     0.074 A 
ATOM     52  C   UNL A   1      41.150  25.141  26.965  1.00  0.00     0.031 C 
ATOM     53  C   UNL A   1      43.335  29.574  30.373  1.00  0.00     0.029 A 
ATOM     54  C   UNL A   1      42.227  30.044  31.183  1.00  0.00     0.049 A 
ATOM     55  H   UNL A   1      40.322  30.592  30.338  1.00  0.00     0.167 HD
ATOM     56  C   UNL A   1      43.445  24.528  27.976  1.00  0.00     0.037 A 
ATOM     57  C   UNL A   1      42.110  29.857  32.529  1.00  0.00     0.037 A 
ATOM     58  C   UNL A   1      44.294  25.065  29.027  1.00  0.00     0.049 A 
ATOM     59  C   UNL A   1      42.945  28.723  33.067  1.00  0.00     0.074 A 
ATOM     60  C   UNL A   1      45.298  26.020  29.011  1.00  0.00     0.029 A 
ATOM     61  N   UNL A   1      43.953  24.876  30.362  1.00  0.00    -0.354 N 
ATOM     62  N   UNL A   1      43.386  27.739  32.335  1.00  0.00    -0.248 NA
ATOM     63  C   UNL A   1      43.310  28.585  34.474  1.00  0.00     0.031 C 
ATOM     64  C   UNL A   1      45.553  26.419  30.341  1.00  0.00     0.029 A 
ATOM     65  C   UNL A   1      44.712  25.699  31.171  1.00  0.00     0.049 A 
ATOM     66  H   UNL A   1      43.268  24.246  30.684  1.00  0.00     0.167 HD
ATOM     67  C   UNL A   1      44.048  26.841  33.133  1.00  0.00     0.074 A 
ATOM     68  C   UNL A   1      43.991  27.425  34.459  1.00  0.00     0.031 C 
ATOM     69  C   UNL A   1      44.570  25.687  32.618  1.00  0.00     0.037 A 
BRANCH  56  70
ATOM     70  C   UNL A   1      43.924  23.640  26.863  1.00  0.00     0.064 A 
ATOM     71  C   UNL A   1      43.478  22.310  26.735  1.00  0.00     0.173 A 
ATOM     72  C   UNL A   1      44.878  24.055  25.917  1.00  0.00     0.173 A 
ATOM     73  F   UNL A   1      42.534  21.807  27.540  1.00  0.00    -0.203 F 
ATOM     74  C   UNL A   1      44.014  21.434  25.791  1.00  0.00     0.198 A 
ATOM     75  C   UNL A   1      45.447  23.166  25.001  1.00  0.00     0.198 A 
ATOM     76  F   UNL A   1      45.284  25.334  25.871  1.00  0.00    -0.203 F 
ATOM     77  F   UNL A   1      43.567  20.172  25.725  1.00  0.00    -0.200 F 
ATOM     78  C   UNL A   1      45.021  21.853  24.944  1.00  0.00     0.200 A 
ATOM     79  F   UNL A   1      46.428  23.585  24.188  1.00  0.00    -0.200 F 
ATOM     80  F   UNL A   1      45.576  20.994  24.078  1.00  0.00    -0.200 F 
ENDBRANCH  56  70
BRANCH  57  81
ATOM     81  C   UNL A   1      40.780  30.248  33.061  1.00  0.00     0.064 A 
ATOM     82  C   UNL A   1      40.463  31.618  33.129  1.00  0.00     0.173 A 
ATOM     83  C   UNL A   1      39.722  29.333  33.119  1.00  0.00     0.173 A 
ATOM     84  F   UNL A   1      41.443  32.535  33.074  1.00  0.00    -0.203 F 
ATOM     85  C   UNL A   1      39.141  32.056  33.130  1.00  0.00     0.198 A 
ATOM     86  C   UNL A   1      38.399  29.775  33.131  1.00  0.00     0.198 A 
ATOM     87  F   UNL A   1      39.960  28.016  33.041  1.00  0.00    -0.203 F 
ATOM     88  F   UNL A   1      38.871  33.367  33.075  1.00  0.00    -0.200 F 
ATOM     89  C   UNL A   1      38.110  31.133  33.101  1.00  0.00     0.200 A 
ATOM     90  F   UNL A   1      37.399  28.883  33.075  1.00  0.00    -0.200 F 
ATOM     91  F   UNL A   1      36.840  31.548  33.000  1.00  0.00    -0.200 F 
ENDBRANCH  57  81
BRANCH  69  92
ATOM     92  C   UNL A   1      45.102  24.498  33.389  1.00  0.00     0.064 A 
ATOM     93  C   UNL A   1      44.368  23.331  33.652  1.00  0.00     0.173 A 
ATOM     94  C   UNL A   1      46.467  24.450  33.777  1.00  0.00     0.173 A 
ATOM     95  F   UNL A   1      43.104  23.189  33.234  1.00  0.00    -0.203 F 
ATOM     96  C   UNL A   1      44.933  22.229  34.306  1.00  0.00     0.198 A 
ATOM     97  C   UNL A   1      47.041  23.329  34.373  1.00  0.00     0.198 A 
ATOM     98  F   UNL A   1      47.298  25.481  33.562  1.00  0.00    -0.203 F 
ATOM     99  F   UNL A   1      44.174  21.156  34.569  1.00  0.00    -0.200 F 
ATOM    100  C   UNL A   1      46.270  22.224  34.654  1.00  0.00     0.200 A 
ATOM    101  F   UNL A   1      48.353  23.323  34.653  1.00  0.00    -0.200 F 
ATOM    102  F   UNL A   1      46.817  21.148  35.235  1.00  0.00    -0.200 F 
ENDBRANCH  69  92
ENDBRANCH  43  44
ENDBRANCH  35  38
ENDBRANCH  33  34
ENDBRANCH  32  33
ENDBRANCH  31  32
ENDBRANCH   1  31
TORSDOF 18
ENDMDL
MODEL 3
REMARK VINA RESULT:     -13.1      3.373      9.327
REMARK SMILES CCC(=O)N1CCC[C@](C[C@H]2CC(c3ccc(C)cc3)=NO2)(C(=O)NCCCCCCNC(=O)c2ccc(-c3c4nc(c(-c5c(F)c(F)c(F)c(F)c5F)c5ccc([nH]5)c(-c5c(F)c(F)c(F)c(F)c5F)c5nc(c(-c6c(F)c(F)c(F)c(F)c6F)c6ccc3[nH]6)C=C5)C=C4)cc2)C1
REMARK SMILES IDX 28 1 27 2 26 3 25 4 23 5 24 6 9 8 5 9 6 10 98 11 7 12 8 13
REMARK SMILES IDX 3 14 4 15 2 16 1 17 10 18 11 19 12 20 22 21 13 22 21 23
REMARK SMILES IDX 14 24 15 25 20 26 16 27 19 28 17 29 18 30 29 31 30 32 31 33
REMARK SMILES IDX 32 34 33 35 34 37 35 38 36 39 97 40 37 41 96 42 38 43 39 44
REMARK SMILES IDX 40 45 90 46 41 47 95 48 89 49 91 50 42 51 94 52 88 53 87 54
REMARK SMILES IDX 43 56 75 57 55 58 74 59 56 60 59 61 73 62 92 63 57 64 58 65
REMARK SMILES IDX 72 67 93 68 60 69 44 70 45 71 53 72 46 73 47 74 51 75 54 76
REMARK SMILES IDX 48 77 49 78 52 79 50 80 76 81 77 82 85 83 78 84 79 85 83 86
REMARK SMILES IDX 86 87 80 88 81 89 84 90 82 91 61 92 62 93 70 94 63 95 64 96
REMARK SMILES IDX 68 97 71 98 65 99 66 100 69 101 67 102
REMARK H PARENT 25 7 32 36 91 55 59 66
REMARK Flexibility Score: inf
ROOT
ATOM      1  C   UNL A   1      33.111  29.449  26.345  1.00  0.00     0.002 C 
ENDROOT
BRANCH   1   2
ATOM      2  C   UNL A   1      31.835  29.101  27.122  1.00  0.00     0.021 C 
BRANCH   2   3
ATOM      3  C   UNL A   1      31.581  27.603  27.312  1.00  0.00     0.116 C 
BRANCH   3   4
ATOM      4  N   UNL A   1      32.478  26.807  26.496  1.00  0.00    -0.356 N 
ATOM      5  C   UNL A   1      32.288  25.946  25.457  1.00  0.00     0.228 C 
ATOM      6  O   UNL A   1      33.295  25.334  25.092  1.00  0.00    -0.274 OA
ATOM      7  H   UNL A   1      33.425  26.913  26.744  1.00  0.00     0.163 HD
BRANCH   5   8
ATOM      8  C   UNL A   1      30.899  25.713  24.798  1.00  0.00     0.070 C 
ATOM      9  N   UNL A   1      31.797  25.380  22.439  1.00  0.00    -0.342 N 
ATOM     10  C   UNL A   1      31.269  26.661  21.994  1.00  0.00     0.119 C 
ATOM     11  C   UNL A   1      31.094  24.755  23.571  1.00  0.00     0.136 C 
ATOM     12  C   UNL A   1      31.194  27.650  23.143  1.00  0.00     0.023 C 
ATOM     13  C   UNL A   1      30.354  27.057  24.273  1.00  0.00     0.021 C 
BRANCH   9  14
ATOM     14  C   UNL A   1      32.858  24.838  21.730  1.00  0.00     0.222 C 
ATOM     15  O   UNL A   1      33.331  25.416  20.744  1.00  0.00    -0.275 OA
BRANCH  14  16
ATOM     16  C   UNL A   1      33.330  23.424  22.041  1.00  0.00     0.097 C 
ATOM     17  C   UNL A   1      34.614  23.256  22.824  1.00  0.00     0.014 C 
ENDBRANCH  14  16
ENDBRANCH   9  14
BRANCH   8  18
ATOM     18  C   UNL A   1      30.014  25.002  25.880  1.00  0.00     0.067 C 
BRANCH  18  19
ATOM     19  C   UNL A   1      30.174  23.521  26.273  1.00  0.00     0.211 C 
ATOM     20  C   UNL A   1      31.095  22.640  25.456  1.00  0.00     0.108 C 
ATOM     21  O   UNL A   1      30.587  23.386  27.635  1.00  0.00    -0.392 OA
ATOM     22  C   UNL A   1      32.176  22.448  26.461  1.00  0.00     0.091 C 
ATOM     23  N   UNL A   1      31.874  22.813  27.665  1.00  0.00    -0.090 NA
BRANCH  22  24
ATOM     24  C   UNL A   1      33.489  21.864  26.123  1.00  0.00    -0.001 A 
ATOM     25  C   UNL A   1      33.597  20.696  25.364  1.00  0.00     0.010 A 
ATOM     26  C   UNL A   1      34.640  22.563  26.492  1.00  0.00     0.010 A 
ATOM     27  C   UNL A   1      34.853  20.256  24.938  1.00  0.00     0.004 A 
ATOM     28  C   UNL A   1      35.897  22.102  26.095  1.00  0.00     0.004 A 
ATOM     29  C   UNL A   1      36.009  20.961  25.291  1.00  0.00    -0.051 A 
ATOM     30  C   UNL A   1      37.362  20.492  24.841  1.00  0.00     0.044 C 
ENDBRANCH  22  24
ENDBRANCH  18  19
ENDBRANCH   8  18
ENDBRANCH   5   8
ENDBRANCH   3   4
ENDBRANCH   2   3
ENDBRANCH   1   2
BRANCH   1  31
ATOM     31  C   UNL A   1      34.238  30.122  27.148  1.00  0.00     0.002 C 
BRANCH  31  32
ATOM     32  C   UNL A   1      33.923  31.503  27.730  1.00  0.00     0.021 C 
BRANCH  32  33
ATOM     33  C   UNL A   1      35.129  32.224  28.316  1.00  0.00     0.116 C 
BRANCH  33  34
ATOM     34  N   UNL A   1      35.211  32.185  29.767  1.00  0.00    -0.352 N 
ATOM     35  C   UNL A   1      35.881  31.288  30.588  1.00  0.00     0.251 C 
ATOM     36  H   UNL A   1      34.721  32.898  30.236  1.00  0.00     0.163 HD
ATOM     37  O   UNL A   1      35.776  31.361  31.794  1.00  0.00    -0.269 OA
BRANCH  35  38
ATOM     38  C   UNL A   1      36.829  30.320  29.978  1.00  0.00     0.039 A 
ATOM     39  C   UNL A   1      37.074  29.124  30.663  1.00  0.00     0.014 A 
ATOM     40  C   UNL A   1      37.598  30.658  28.867  1.00  0.00     0.014 A 
ATOM     41  C   UNL A   1      38.232  28.400  30.384  1.00  0.00     0.010 A 
ATOM     42  C   UNL A   1      38.794  30.000  28.654  1.00  0.00     0.010 A 
ATOM     43  C   UNL A   1      39.140  28.909  29.456  1.00  0.00    -0.014 A 
BRANCH  43  44
ATOM     44  C   UNL A   1      40.513  28.437  29.342  1.00  0.00     0.031 A 
ATOM     45  C   UNL A   1      40.812  27.108  28.777  1.00  0.00     0.074 A 
ATOM     46  C   UNL A   1      41.533  29.242  29.717  1.00  0.00     0.049 A 
ATOM     47  N   UNL A   1      41.835  26.402  29.130  1.00  0.00    -0.248 NA
ATOM     48  C   UNL A   1      39.965  26.452  27.786  1.00  0.00     0.031 C 
ATOM     49  C   UNL A   1      42.956  29.040  29.450  1.00  0.00     0.029 A 
ATOM     50  N   UNL A   1      41.494  30.338  30.594  1.00  0.00    -0.354 N 
ATOM     51  C   UNL A   1      41.928  25.352  28.253  1.00  0.00     0.074 A 
ATOM     52  C   UNL A   1      40.707  25.381  27.480  1.00  0.00     0.031 C 
ATOM     53  C   UNL A   1      43.668  29.754  30.333  1.00  0.00     0.029 A 
ATOM     54  C   UNL A   1      42.729  30.327  31.280  1.00  0.00     0.049 A 
ATOM     55  H   UNL A   1      40.757  30.981  30.707  1.00  0.00     0.167 HD
ATOM     56  C   UNL A   1      43.084  24.640  28.160  1.00  0.00     0.037 A 
ATOM     57  C   UNL A   1      42.806  30.191  32.635  1.00  0.00     0.037 A 
ATOM     58  C   UNL A   1      44.116  25.149  29.049  1.00  0.00     0.049 A 
ATOM     59  C   UNL A   1      43.638  29.019  33.089  1.00  0.00     0.074 A 
ATOM     60  C   UNL A   1      45.166  26.030  28.842  1.00  0.00     0.029 A 
ATOM     61  N   UNL A   1      43.971  25.027  30.426  1.00  0.00    -0.354 N 
ATOM     62  N   UNL A   1      43.898  27.983  32.341  1.00  0.00    -0.248 NA
ATOM     63  C   UNL A   1      44.203  28.900  34.430  1.00  0.00     0.031 C 
ATOM     64  C   UNL A   1      45.646  26.451  30.102  1.00  0.00     0.029 A 
ATOM     65  C   UNL A   1      44.895  25.819  31.078  1.00  0.00     0.049 A 
ATOM     66  H   UNL A   1      43.304  24.457  30.874  1.00  0.00     0.167 HD
ATOM     67  C   UNL A   1      44.614  27.066  33.068  1.00  0.00     0.074 A 
ATOM     68  C   UNL A   1      44.797  27.695  34.361  1.00  0.00     0.031 C 
ATOM     69  C   UNL A   1      44.975  25.862  32.529  1.00  0.00     0.037 A 
BRANCH  56  70
ATOM     70  C   UNL A   1      43.330  23.686  27.027  1.00  0.00     0.064 A 
ATOM     71  C   UNL A   1      42.921  22.339  27.093  1.00  0.00     0.173 A 
ATOM     72  C   UNL A   1      44.021  24.055  25.859  1.00  0.00     0.173 A 
ATOM     73  F   UNL A   1      42.211  21.872  28.127  1.00  0.00    -0.203 F 
ATOM     74  C   UNL A   1      43.260  21.411  26.108  1.00  0.00     0.198 A 
ATOM     75  C   UNL A   1      44.400  23.117  24.895  1.00  0.00     0.198 A 
ATOM     76  F   UNL A   1      44.352  25.337  25.637  1.00  0.00    -0.203 F 
ATOM     77  F   UNL A   1      42.863  20.136  26.230  1.00  0.00    -0.200 F 
ATOM     78  C   UNL A   1      44.027  21.792  25.025  1.00  0.00     0.200 A 
ATOM     79  F   UNL A   1      45.148  23.499  23.850  1.00  0.00    -0.200 F 
ATOM     80  F   UNL A   1      44.402  20.887  24.110  1.00  0.00    -0.200 F 
ENDBRANCH  56  70
BRANCH  57  81
ATOM     81  C   UNL A   1      41.601  30.691  33.343  1.00  0.00     0.064 A 
ATOM     82  C   UNL A   1      41.478  32.077  33.558  1.00  0.00     0.173 A 
ATOM     83  C   UNL A   1      40.442  29.913  33.445  1.00  0.00     0.173 A 
ATOM     84  F   UNL A   1      42.561  32.867  33.467  1.00  0.00    -0.203 F 
ATOM     85  C   UNL A   1      40.233  32.673  33.742  1.00  0.00     0.198 A 
ATOM     86  C   UNL A   1      39.197  30.512  33.641  1.00  0.00     0.198 A 
ATOM     87  F   UNL A   1      40.493  28.590  33.234  1.00  0.00    -0.203 F 
ATOM     88  F   UNL A   1      40.137  34.007  33.826  1.00  0.00    -0.200 F 
ATOM     89  C   UNL A   1      39.090  31.892  33.754  1.00  0.00     0.200 A 
ATOM     90  F   UNL A   1      38.087  29.761  33.627  1.00  0.00    -0.200 F 
ATOM     91  F   UNL A   1      37.884  32.469  33.832  1.00  0.00    -0.200 F 
ENDBRANCH  57  81
BRANCH  69  92
ATOM     92  C   UNL A   1      45.540  24.664  33.261  1.00  0.00     0.064 A 
ATOM     93  C   UNL A   1      46.836  24.602  33.797  1.00  0.00     0.173 A 
ATOM     94  C   UNL A   1      44.707  23.558  33.573  1.00  0.00     0.173 A 
ATOM     95  F   UNL A   1      47.691  25.627  33.686  1.00  0.00    -0.203 F 
ATOM     96  C   UNL A   1      47.284  23.497  34.531  1.00  0.00     0.198 A 
ATOM     97  C   UNL A   1      45.138  22.488  34.355  1.00  0.00     0.198 A 
ATOM     98  F   UNL A   1      43.434  23.493  33.154  1.00  0.00    -0.203 F 
ATOM     99  F   UNL A   1      48.546  23.473  34.984  1.00  0.00    -0.200 F 
ATOM    100  C   UNL A   1      46.433  22.449  34.820  1.00  0.00     0.200 A 
ATOM    101  F   UNL A   1      44.280  21.507  34.670  1.00  0.00    -0.200 F 
ATOM    102  F   UNL A   1      46.853  21.417  35.565  1.00  0.00    -0.200 F 
ENDBRANCH  69  92
ENDBRANCH  43  44
ENDBRANCH  35  38
ENDBRANCH  33  34
ENDBRANCH  32  33
ENDBRANCH  31  32
ENDBRANCH   1  31
TORSDOF 18
ENDMDL
