MODEL 1
REMARK VINA RESULT:     -11.0      0.000      0.000
REMARK SMILES CC(C)[C@@H](CCNC(=O)N1C[C@@H](C)[C@H](C)C1)CCC(=O)NCCCCCCNC(=O)c1ccc(-c2c3nc(c(-c4c(F)c(F)c(F)c(F)c4F)c4ccc([nH]4)c(-c4c(F)c(F)c(F)c(F)c4F)c4nc(c(-c5c(F)c(F)c(F)c(F)c5F)c5ccc2[nH]5)C=C4)C=C3)cc1
REMARK SMILES IDX 23 1 22 2 21 3 19 4 20 5 18 7 17 8 4 9 2 10 1 11 3 12 5 13
REMARK SMILES IDX 6 14 7 15 8 16 9 18 10 19 11 20 16 21 12 22 14 23 13 24
REMARK SMILES IDX 15 25 24 26 25 27 26 28 27 29 28 30 29 31 30 33 31 34 32 35
REMARK SMILES IDX 93 36 33 37 92 38 34 39 35 40 36 41 86 42 37 43 91 44 85 45
REMARK SMILES IDX 87 46 38 47 90 48 84 49 83 50 39 52 71 53 51 54 70 55 52 56
REMARK SMILES IDX 55 57 69 58 88 59 53 60 54 61 68 63 89 64 56 65 40 66 41 67
REMARK SMILES IDX 49 68 42 69 43 70 47 71 50 72 44 73 45 74 48 75 46 76 72 77
REMARK SMILES IDX 73 78 81 79 74 80 75 81 79 82 82 83 76 84 77 85 80 86 78 87
REMARK SMILES IDX 57 88 58 89 66 90 59 91 60 92 64 93 67 94 61 95 62 96 65 97
REMARK SMILES IDX 63 98
REMARK H PARENT 21 6 7 17 28 32 87 51 55 62
REMARK Flexibility Score: inf
ROOT
ATOM      1  C   UNL A   1      33.742  31.665  27.826  1.00  0.00     0.021 C 
ENDROOT
BRANCH   1   2
ATOM      2  C   UNL A   1      34.346  30.301  27.461  1.00  0.00     0.116 C 
BRANCH   2   3
ATOM      3  N   UNL A   1      33.400  29.240  27.749  1.00  0.00    -0.356 N 
ATOM      4  C   UNL A   1      32.207  28.920  27.177  1.00  0.00     0.220 C 
ATOM      5  O   UNL A   1      31.549  28.015  27.695  1.00  0.00    -0.275 OA
ATOM      6  H   UNL A   1      33.667  28.648  28.487  1.00  0.00     0.163 HD
BRANCH   4   7
ATOM      7  C   UNL A   1      31.727  29.601  25.906  1.00  0.00     0.100 C 
BRANCH   7   8
ATOM      8  C   UNL A   1      31.695  28.730  24.636  1.00  0.00     0.014 C 
BRANCH   8   9
ATOM      9  C   UNL A   1      30.341  28.059  24.310  1.00  0.00    -0.006 C 
BRANCH   9  10
ATOM     10  C   UNL A   1      29.699  28.392  22.925  1.00  0.00    -0.014 C 
ATOM     11  C   UNL A   1      28.192  28.654  23.085  1.00  0.00     0.007 C 
ATOM     12  C   UNL A   1      30.302  29.572  22.159  1.00  0.00     0.007 C 
ENDBRANCH   9  10
BRANCH   9  13
ATOM     13  C   UNL A   1      30.373  26.531  24.597  1.00  0.00     0.025 C 
BRANCH  13  14
ATOM     14  C   UNL A   1      31.735  25.873  24.829  1.00  0.00     0.118 C 
BRANCH  14  15
ATOM     15  N   UNL A   1      31.840  25.284  26.144  1.00  0.00    -0.338 N 
ATOM     16  C   UNL A   1      31.710  23.957  26.411  1.00  0.00     0.317 C 
ATOM     17  H   UNL A   1      32.017  25.888  26.901  1.00  0.00     0.165 HD
ATOM     18  O   UNL A   1      31.098  23.616  27.420  1.00  0.00    -0.249 OA
ATOM     19  N   UNL A   1      32.259  23.073  25.522  1.00  0.00    -0.324 N 
ATOM     20  C   UNL A   1      31.822  21.692  25.481  1.00  0.00     0.125 C 
ATOM     21  C   UNL A   1      33.585  23.230  24.940  1.00  0.00     0.125 C 
ATOM     22  C   UNL A   1      33.081  20.881  25.191  1.00  0.00     0.010 C 
ATOM     23  C   UNL A   1      33.962  21.854  24.391  1.00  0.00     0.010 C 
ATOM     24  C   UNL A   1      32.772  19.601  24.429  1.00  0.00     0.010 C 
ATOM     25  C   UNL A   1      35.451  21.577  24.548  1.00  0.00     0.010 C 
ENDBRANCH  14  15
ENDBRANCH  13  14
ENDBRANCH   9  13
ENDBRANCH   8   9
ENDBRANCH   7   8
ENDBRANCH   4   7
ENDBRANCH   2   3
ENDBRANCH   1   2
BRANCH   1  26
ATOM     26  C   UNL A   1      34.658  32.519  28.702  1.00  0.00     0.002 C 
BRANCH  26  27
ATOM     27  C   UNL A   1      35.066  33.851  28.063  1.00  0.00     0.002 C 
BRANCH  27  28
ATOM     28  C   UNL A   1      34.390  35.097  28.647  1.00  0.00     0.021 C 
BRANCH  28  29
ATOM     29  C   UNL A   1      32.924  34.915  29.028  1.00  0.00     0.116 C 
BRANCH  29  30
ATOM     30  N   UNL A   1      32.545  35.773  30.140  1.00  0.00    -0.352 N 
ATOM     31  C   UNL A   1      32.940  35.737  31.452  1.00  0.00     0.251 C 
ATOM     32  H   UNL A   1      31.907  36.489  29.916  1.00  0.00     0.163 HD
ATOM     33  O   UNL A   1      32.328  36.376  32.299  1.00  0.00    -0.269 OA
BRANCH  31  34
ATOM     34  C   UNL A   1      34.111  34.927  31.850  1.00  0.00     0.039 A 
ATOM     35  C   UNL A   1      33.914  33.608  32.267  1.00  0.00     0.014 A 
ATOM     36  C   UNL A   1      35.392  35.485  31.859  1.00  0.00     0.014 A 
ATOM     37  C   UNL A   1      35.009  32.833  32.653  1.00  0.00     0.010 A 
ATOM     38  C   UNL A   1      36.490  34.691  32.179  1.00  0.00     0.010 A 
ATOM     39  C   UNL A   1      36.308  33.363  32.592  1.00  0.00    -0.014 A 
BRANCH  39  40
ATOM     40  C   UNL A   1      37.492  32.563  32.991  1.00  0.00     0.031 A 
ATOM     41  C   UNL A   1      38.180  32.851  34.296  1.00  0.00     0.074 A 
ATOM     42  C   UNL A   1      37.987  31.633  32.153  1.00  0.00     0.049 A 
ATOM     43  N   UNL A   1      39.291  32.351  34.777  1.00  0.00    -0.248 NA
ATOM     44  C   UNL A   1      37.552  33.862  35.163  1.00  0.00     0.031 C 
ATOM     45  C   UNL A   1      37.425  31.288  30.847  1.00  0.00     0.029 A 
ATOM     46  N   UNL A   1      39.087  30.820  32.268  1.00  0.00    -0.354 N 
ATOM     47  C   UNL A   1      39.503  33.000  35.987  1.00  0.00     0.074 A 
ATOM     48  C   UNL A   1      38.436  33.965  36.144  1.00  0.00     0.031 C 
ATOM     49  C   UNL A   1      38.176  30.325  30.287  1.00  0.00     0.029 A 
ATOM     50  C   UNL A   1      39.292  30.014  31.176  1.00  0.00     0.049 A 
ATOM     51  H   UNL A   1      39.673  30.816  33.059  1.00  0.00     0.167 HD
ATOM     52  C   UNL A   1      40.486  32.794  36.894  1.00  0.00     0.037 A 
ATOM     53  C   UNL A   1      40.276  29.133  30.917  1.00  0.00     0.037 A 
ATOM     54  C   UNL A   1      41.527  31.809  36.746  1.00  0.00     0.049 A 
ATOM     55  C   UNL A   1      41.360  28.923  31.941  1.00  0.00     0.074 A 
ATOM     56  C   UNL A   1      42.539  31.483  37.631  1.00  0.00     0.029 A 
ATOM     57  N   UNL A   1      41.682  30.988  35.639  1.00  0.00    -0.354 N 
ATOM     58  N   UNL A   1      41.522  29.504  33.105  1.00  0.00    -0.248 NA
ATOM     59  C   UNL A   1      42.393  27.929  31.618  1.00  0.00     0.031 C 
ATOM     60  C   UNL A   1      43.334  30.496  37.040  1.00  0.00     0.029 A 
ATOM     61  C   UNL A   1      42.786  30.168  35.810  1.00  0.00     0.049 A 
ATOM     62  H   UNL A   1      41.096  30.988  34.848  1.00  0.00     0.167 HD
ATOM     63  C   UNL A   1      42.650  28.923  33.668  1.00  0.00     0.074 A 
ATOM     64  C   UNL A   1      43.130  27.939  32.720  1.00  0.00     0.031 C 
ATOM     65  C   UNL A   1      43.235  29.180  34.863  1.00  0.00     0.037 A 
BRANCH  52  66
ATOM     66  C   UNL A   1      40.485  33.648  38.128  1.00  0.00     0.064 A 
ATOM     67  C   UNL A   1      41.314  34.775  38.245  1.00  0.00     0.173 A 
ATOM     68  C   UNL A   1      39.621  33.357  39.195  1.00  0.00     0.173 A 
ATOM     69  F   UNL A   1      42.166  35.090  37.259  1.00  0.00    -0.203 F 
ATOM     70  C   UNL A   1      41.301  35.559  39.397  1.00  0.00     0.198 A 
ATOM     71  C   UNL A   1      39.588  34.161  40.332  1.00  0.00     0.198 A 
ATOM     72  F   UNL A   1      38.803  32.295  39.134  1.00  0.00    -0.203 F 
ATOM     73  F   UNL A   1      42.140  36.598  39.507  1.00  0.00    -0.200 F 
ATOM     74  C   UNL A   1      40.434  35.256  40.435  1.00  0.00     0.200 A 
ATOM     75  F   UNL A   1      38.740  33.875  41.329  1.00  0.00    -0.200 F 
ATOM     76  F   UNL A   1      40.418  36.014  41.540  1.00  0.00    -0.200 F 
ENDBRANCH  52  66
BRANCH  53  77
ATOM     77  C   UNL A   1      40.269  28.364  29.645  1.00  0.00     0.064 A 
ATOM     78  C   UNL A   1      39.570  27.155  29.541  1.00  0.00     0.173 A 
ATOM     79  C   UNL A   1      40.961  28.818  28.513  1.00  0.00     0.173 A 
ATOM     80  F   UNL A   1      38.909  26.670  30.603  1.00  0.00    -0.203 F 
ATOM     81  C   UNL A   1      39.579  26.416  28.359  1.00  0.00     0.198 A 
ATOM     82  C   UNL A   1      40.946  28.094  27.322  1.00  0.00     0.198 A 
ATOM     83  F   UNL A   1      41.641  29.972  28.558  1.00  0.00    -0.203 F 
ATOM     84  F   UNL A   1      38.939  25.240  28.301  1.00  0.00    -0.200 F 
ATOM     85  C   UNL A   1      40.263  26.889  27.249  1.00  0.00     0.200 A 
ATOM     86  F   UNL A   1      41.595  28.561  26.248  1.00  0.00    -0.200 F 
ATOM     87  F   UNL A   1      40.268  26.181  26.112  1.00  0.00    -0.200 F 
ENDBRANCH  53  77
BRANCH  65  88
ATOM     88  C   UNL A   1      44.428  28.351  35.242  1.00  0.00     0.064 A 
ATOM     89  C   UNL A   1      44.294  27.136  35.928  1.00  0.00     0.173 A 
ATOM     90  C   UNL A   1      45.717  28.755  34.863  1.00  0.00     0.173 A 
ATOM     91  F   UNL A   1      43.084  26.713  36.323  1.00  0.00    -0.203 F 
ATOM     92  C   UNL A   1      45.411  26.364  36.239  1.00  0.00     0.198 A 
ATOM     93  C   UNL A   1      46.828  27.968  35.150  1.00  0.00     0.198 A 
ATOM     94  F   UNL A   1      45.896  29.908  34.200  1.00  0.00    -0.203 F 
ATOM     95  F   UNL A   1      45.265  25.226  36.931  1.00  0.00    -0.200 F 
ATOM     96  C   UNL A   1      46.675  26.777  35.842  1.00  0.00     0.200 A 
ATOM     97  F   UNL A   1      48.046  28.361  34.754  1.00  0.00    -0.200 F 
ATOM     98  F   UNL A   1      47.747  26.027  36.132  1.00  0.00    -0.200 F 
ENDBRANCH  65  88
ENDBRANCH  39  40
ENDBRANCH  31  34
ENDBRANCH  29  30
ENDBRANCH  28  29
ENDBRANCH  27  28
ENDBRANCH  26  27
ENDBRANCH   1  26
TORSDOF 19
ENDMDL
MODEL 2
REMARK VINA RESULT:     -10.7      1.756      2.961
REMARK SMILES CC(C)[C@@H](CCNC(=O)N1C[C@@H](C)[C@H](C)C1)CCC(=O)NCCCCCCNC(=O)c1ccc(-c2c3nc(c(-c4c(F)c(F)c(F)c(F)c4F)c4ccc([nH]4)c(-c4c(F)c(F)c(F)c(F)c4F)c4nc(c(-c5c(F)c(F)c(F)c(F)c5F)c5ccc2[nH]5)C=C4)C=C3)cc1
REMARK SMILES IDX 23 1 22 2 21 3 19 4 20 5 18 7 17 8 4 9 2 10 1 11 3 12 5 13
REMARK SMILES IDX 6 14 7 15 8 16 9 18 10 19 11 20 16 21 12 22 14 23 13 24
REMARK SMILES IDX 15 25 24 26 25 27 26 28 27 29 28 30 29 31 30 33 31 34 32 35
REMARK SMILES IDX 93 36 33 37 92 38 34 39 35 40 36 41 86 42 37 43 91 44 85 45
REMARK SMILES IDX 87 46 38 47 90 48 84 49 83 50 39 52 71 53 51 54 70 55 52 56
REMARK SMILES IDX 55 57 69 58 88 59 53 60 54 61 68 63 89 64 56 65 40 66 41 67
REMARK SMILES IDX 49 68 42 69 43 70 47 71 50 72 44 73 45 74 48 75 46 76 72 77
REMARK SMILES IDX 73 78 81 79 74 80 75 81 79 82 82 83 76 84 77 85 80 86 78 87
REMARK SMILES IDX 57 88 58 89 66 90 59 91 60 92 64 93 67 94 61 95 62 96 65 97
REMARK SMILES IDX 63 98
REMARK H PARENT 21 6 7 17 28 32 87 51 55 62
REMARK Flexibility Score: inf
ROOT
ATOM      1  C   UNL A   1      31.845  29.045  25.780  1.00  0.00     0.021 C 
ENDROOT
BRANCH   1   2
ATOM      2  C   UNL A   1      32.470  28.990  24.378  1.00  0.00     0.116 C 
BRANCH   2   3
ATOM      3  N   UNL A   1      31.438  29.091  23.365  1.00  0.00    -0.356 N 
ATOM      4  C   UNL A   1      30.602  28.155  22.836  1.00  0.00     0.220 C 
ATOM      5  O   UNL A   1      29.880  28.498  21.898  1.00  0.00    -0.275 OA
ATOM      6  H   UNL A   1      31.321  29.994  22.992  1.00  0.00     0.163 HD
BRANCH   4   7
ATOM      7  C   UNL A   1      30.506  26.755  23.421  1.00  0.00     0.100 C 
BRANCH   7   8
ATOM      8  C   UNL A   1      31.571  25.747  22.951  1.00  0.00     0.014 C 
BRANCH   8   9
ATOM      9  C   UNL A   1      32.128  24.796  24.036  1.00  0.00    -0.006 C 
BRANCH   9  10
ATOM     10  C   UNL A   1      32.414  25.416  25.442  1.00  0.00    -0.014 C 
ATOM     11  C   UNL A   1      31.662  24.632  26.532  1.00  0.00     0.007 C 
ATOM     12  C   UNL A   1      33.882  25.511  25.861  1.00  0.00     0.007 C 
ENDBRANCH   9  10
BRANCH   9  13
ATOM     13  C   UNL A   1      31.306  23.480  24.123  1.00  0.00     0.025 C 
BRANCH  13  14
ATOM     14  C   UNL A   1      32.025  22.164  23.816  1.00  0.00     0.118 C 
BRANCH  14  15
ATOM     15  N   UNL A   1      33.175  21.959  24.667  1.00  0.00    -0.338 N 
ATOM     16  C   UNL A   1      33.350  20.890  25.489  1.00  0.00     0.317 C 
ATOM     17  H   UNL A   1      33.882  22.643  24.650  1.00  0.00     0.165 HD
ATOM     18  O   UNL A   1      33.832  21.077  26.603  1.00  0.00    -0.249 OA
ATOM     19  N   UNL A   1      32.958  19.662  25.028  1.00  0.00    -0.324 N 
ATOM     20  C   UNL A   1      32.706  18.569  25.945  1.00  0.00     0.125 C 
ATOM     21  C   UNL A   1      33.241  19.176  23.685  1.00  0.00     0.125 C 
ATOM     22  C   UNL A   1      33.211  17.320  25.230  1.00  0.00     0.010 C 
ATOM     23  C   UNL A   1      33.040  17.662  23.741  1.00  0.00     0.010 C 
ATOM     24  C   UNL A   1      32.439  16.075  25.643  1.00  0.00     0.010 C 
ATOM     25  C   UNL A   1      34.030  16.931  22.844  1.00  0.00     0.010 C 
ENDBRANCH  14  15
ENDBRANCH  13  14
ENDBRANCH   9  13
ENDBRANCH   8   9
ENDBRANCH   7   8
ENDBRANCH   4   7
ENDBRANCH   2   3
ENDBRANCH   1   2
BRANCH   1  26
ATOM     26  C   UNL A   1      32.055  30.385  26.485  1.00  0.00     0.002 C 
BRANCH  26  27
ATOM     27  C   UNL A   1      31.006  31.445  26.131  1.00  0.00     0.002 C 
BRANCH  27  28
ATOM     28  C   UNL A   1      31.437  32.899  26.355  1.00  0.00     0.021 C 
BRANCH  28  29
ATOM     29  C   UNL A   1      32.530  33.093  27.401  1.00  0.00     0.116 C 
BRANCH  29  30
ATOM     30  N   UNL A   1      32.603  34.474  27.856  1.00  0.00    -0.352 N 
ATOM     31  C   UNL A   1      33.350  35.029  28.861  1.00  0.00     0.251 C 
ATOM     32  H   UNL A   1      32.027  35.105  27.366  1.00  0.00     0.163 HD
ATOM     33  O   UNL A   1      33.097  36.157  29.268  1.00  0.00    -0.269 OA
BRANCH  31  34
ATOM     34  C   UNL A   1      34.469  34.269  29.457  1.00  0.00     0.039 A 
ATOM     35  C   UNL A   1      35.767  34.495  28.993  1.00  0.00     0.014 A 
ATOM     36  C   UNL A   1      34.230  33.300  30.435  1.00  0.00     0.014 A 
ATOM     37  C   UNL A   1      36.833  33.778  29.540  1.00  0.00     0.010 A 
ATOM     38  C   UNL A   1      35.300  32.636  31.028  1.00  0.00     0.010 A 
ATOM     39  C   UNL A   1      36.610  32.858  30.577  1.00  0.00    -0.014 A 
BRANCH  39  40
ATOM     40  C   UNL A   1      37.722  32.086  31.182  1.00  0.00     0.031 A 
ATOM     41  C   UNL A   1      38.202  32.430  32.565  1.00  0.00     0.074 A 
ATOM     42  C   UNL A   1      38.344  31.131  30.465  1.00  0.00     0.049 A 
ATOM     43  N   UNL A   1      39.228  31.960  33.228  1.00  0.00    -0.248 NA
ATOM     44  C   UNL A   1      37.444  33.465  33.286  1.00  0.00     0.031 C 
ATOM     45  C   UNL A   1      37.991  30.733  29.103  1.00  0.00     0.029 A 
ATOM     46  N   UNL A   1      39.418  30.335  30.778  1.00  0.00    -0.354 N 
ATOM     47  C   UNL A   1      39.249  32.655  34.430  1.00  0.00     0.074 A 
ATOM     48  C   UNL A   1      38.166  33.614  34.386  1.00  0.00     0.031 C 
ATOM     49  C   UNL A   1      38.823  29.757  28.701  1.00  0.00     0.029 A 
ATOM     50  C   UNL A   1      39.791  29.492  29.761  1.00  0.00     0.049 A 
ATOM     51  H   UNL A   1      39.876  30.366  31.648  1.00  0.00     0.167 HD
ATOM     52  C   UNL A   1      40.084  32.493  35.485  1.00  0.00     0.037 A 
ATOM     53  C   UNL A   1      40.808  28.612  29.689  1.00  0.00     0.037 A 
ATOM     54  C   UNL A   1      41.139  31.515  35.535  1.00  0.00     0.049 A 
ATOM     55  C   UNL A   1      41.724  28.451  30.874  1.00  0.00     0.074 A 
ATOM     56  C   UNL A   1      42.006  31.233  36.576  1.00  0.00     0.029 A 
ATOM     57  N   UNL A   1      41.466  30.655  34.497  1.00  0.00    -0.354 N 
ATOM     58  N   UNL A   1      41.703  29.077  32.027  1.00  0.00    -0.248 NA
ATOM     59  C   UNL A   1      42.799  27.458  30.751  1.00  0.00     0.031 C 
ATOM     60  C   UNL A   1      42.887  30.233  36.151  1.00  0.00     0.029 A 
ATOM     61  C   UNL A   1      42.534  29.854  34.866  1.00  0.00     0.049 A 
ATOM     62  H   UNL A   1      41.007  30.620  33.626  1.00  0.00     0.167 HD
ATOM     63  C   UNL A   1      42.734  28.530  32.777  1.00  0.00     0.074 A 
ATOM     64  C   UNL A   1      43.358  27.517  31.951  1.00  0.00     0.031 C 
ATOM     65  C   UNL A   1      43.128  28.837  34.037  1.00  0.00     0.037 A 
BRANCH  52  66
ATOM     66  C   UNL A   1      39.889  33.392  36.670  1.00  0.00     0.064 A 
ATOM     67  C   UNL A   1      40.580  34.609  36.794  1.00  0.00     0.173 A 
ATOM     68  C   UNL A   1      38.978  33.051  37.681  1.00  0.00     0.173 A 
ATOM     69  F   UNL A   1      41.471  34.976  35.861  1.00  0.00    -0.203 F 
ATOM     70  C   UNL A   1      40.388  35.433  37.900  1.00  0.00     0.198 A 
ATOM     71  C   UNL A   1      38.765  33.893  38.770  1.00  0.00     0.198 A 
ATOM     72  F   UNL A   1      38.287  31.904  37.611  1.00  0.00    -0.203 F 
ATOM     73  F   UNL A   1      41.099  36.563  38.022  1.00  0.00    -0.200 F 
ATOM     74  C   UNL A   1      39.477  35.079  38.883  1.00  0.00     0.200 A 
ATOM     75  F   UNL A   1      37.874  33.556  39.713  1.00  0.00    -0.200 F 
ATOM     76  F   UNL A   1      39.289  35.876  39.944  1.00  0.00    -0.200 F 
ENDBRANCH  52  66
BRANCH  53  77
ATOM     77  C   UNL A   1      41.000  27.797  28.462  1.00  0.00     0.064 A 
ATOM     78  C   UNL A   1      41.832  28.243  27.426  1.00  0.00     0.173 A 
ATOM     79  C   UNL A   1      40.356  26.562  28.296  1.00  0.00     0.173 A 
ATOM     80  F   UNL A   1      42.454  29.427  27.530  1.00  0.00    -0.203 F 
ATOM     81  C   UNL A   1      41.997  27.495  26.261  1.00  0.00     0.198 A 
ATOM     82  C   UNL A   1      40.544  25.801  27.144  1.00  0.00     0.198 A 
ATOM     83  F   UNL A   1      39.554  26.087  29.260  1.00  0.00    -0.203 F 
ATOM     84  F   UNL A   1      42.763  27.967  25.268  1.00  0.00    -0.200 F 
ATOM     85  C   UNL A   1      41.357  26.273  26.124  1.00  0.00     0.200 A 
ATOM     86  F   UNL A   1      39.936  24.614  27.021  1.00  0.00    -0.200 F 
ATOM     87  F   UNL A   1      41.520  25.552  25.006  1.00  0.00    -0.200 F 
ENDBRANCH  53  77
BRANCH  65  88
ATOM     88  C   UNL A   1      44.253  28.035  34.625  1.00  0.00     0.064 A 
ATOM     89  C   UNL A   1      44.025  26.827  35.298  1.00  0.00     0.173 A 
ATOM     90  C   UNL A   1      45.581  28.458  34.461  1.00  0.00     0.173 A 
ATOM     91  F   UNL A   1      42.772  26.388  35.491  1.00  0.00    -0.203 F 
ATOM     92  C   UNL A   1      45.085  26.080  35.805  1.00  0.00     0.198 A 
ATOM     93  C   UNL A   1      46.640  27.695  34.944  1.00  0.00     0.198 A 
ATOM     94  F   UNL A   1      45.851  29.604  33.819  1.00  0.00    -0.203 F 
ATOM     95  F   UNL A   1      44.843  24.949  36.481  1.00  0.00    -0.200 F 
ATOM     96  C   UNL A   1      46.391  26.511  35.620  1.00  0.00     0.200 A 
ATOM     97  F   UNL A   1      47.901  28.105  34.752  1.00  0.00    -0.200 F 
ATOM     98  F   UNL A   1      47.412  25.785  36.098  1.00  0.00    -0.200 F 
ENDBRANCH  65  88
ENDBRANCH  39  40
ENDBRANCH  31  34
ENDBRANCH  29  30
ENDBRANCH  28  29
ENDBRANCH  27  28
ENDBRANCH  26  27
ENDBRANCH   1  26
TORSDOF 19
ENDMDL
MODEL 3
REMARK VINA RESULT:     -10.6      3.082      9.012
REMARK SMILES CC(C)[C@@H](CCNC(=O)N1C[C@@H](C)[C@H](C)C1)CCC(=O)NCCCCCCNC(=O)c1ccc(-c2c3nc(c(-c4c(F)c(F)c(F)c(F)c4F)c4ccc([nH]4)c(-c4c(F)c(F)c(F)c(F)c4F)c4nc(c(-c5c(F)c(F)c(F)c(F)c5F)c5ccc2[nH]5)C=C4)C=C3)cc1
REMARK SMILES IDX 23 1 22 2 21 3 19 4 20 5 18 7 17 8 4 9 2 10 1 11 3 12 5 13
REMARK SMILES IDX 6 14 7 15 8 16 9 18 10 19 11 20 16 21 12 22 14 23 13 24
REMARK SMILES IDX 15 25 24 26 25 27 26 28 27 29 28 30 29 31 30 33 31 34 32 35
REMARK SMILES IDX 93 36 33 37 92 38 34 39 35 40 36 41 86 42 37 43 91 44 85 45
REMARK SMILES IDX 87 46 38 47 90 48 84 49 83 50 39 52 71 53 51 54 70 55 52 56
REMARK SMILES IDX 55 57 69 58 88 59 53 60 54 61 68 63 89 64 56 65 40 66 41 67
REMARK SMILES IDX 49 68 42 69 43 70 47 71 50 72 44 73 45 74 48 75 46 76 72 77
REMARK SMILES IDX 73 78 81 79 74 80 75 81 79 82 82 83 76 84 77 85 80 86 78 87
REMARK SMILES IDX 57 88 58 89 66 90 59 91 60 92 64 93 67 94 61 95 62 96 65 97
REMARK SMILES IDX 63 98
REMARK H PARENT 21 6 7 17 28 32 87 51 55 62
REMARK Flexibility Score: inf
ROOT
ATOM      1  C   UNL A   1      38.427  23.078  26.490  1.00  0.00     0.021 C 
ENDROOT
BRANCH   1   2
ATOM      2  C   UNL A   1      37.215  23.479  25.636  1.00  0.00     0.116 C 
BRANCH   2   3
ATOM      3  N   UNL A   1      36.014  23.503  26.449  1.00  0.00    -0.356 N 
ATOM      4  C   UNL A   1      34.997  22.607  26.576  1.00  0.00     0.220 C 
ATOM      5  O   UNL A   1      34.033  22.933  27.272  1.00  0.00    -0.275 OA
ATOM      6  H   UNL A   1      35.917  24.309  27.005  1.00  0.00     0.163 HD
BRANCH   4   7
ATOM      7  C   UNL A   1      35.070  21.227  25.944  1.00  0.00     0.100 C 
BRANCH   7   8
ATOM      8  C   UNL A   1      34.639  21.129  24.469  1.00  0.00     0.014 C 
BRANCH   8   9
ATOM      9  C   UNL A   1      33.357  20.310  24.192  1.00  0.00    -0.006 C 
BRANCH   9  10
ATOM     10  C   UNL A   1      33.458  18.759  24.354  1.00  0.00    -0.014 C 
ATOM     11  C   UNL A   1      32.759  18.313  25.651  1.00  0.00     0.007 C 
ATOM     12  C   UNL A   1      32.901  17.915  23.206  1.00  0.00     0.007 C 
ENDBRANCH   9  10
BRANCH   9  13
ATOM     13  C   UNL A   1      32.124  20.905  24.929  1.00  0.00     0.025 C 
BRANCH  13  14
ATOM     14  C   UNL A   1      31.753  22.362  24.644  1.00  0.00     0.118 C 
BRANCH  14  15
ATOM     15  N   UNL A   1      30.631  22.806  25.440  1.00  0.00    -0.338 N 
ATOM     16  C   UNL A   1      30.567  23.996  26.093  1.00  0.00     0.317 C 
ATOM     17  H   UNL A   1      29.858  22.201  25.515  1.00  0.00     0.165 HD
ATOM     18  O   UNL A   1      30.071  24.026  27.216  1.00  0.00    -0.249 OA
ATOM     19  N   UNL A   1      31.081  25.097  25.461  1.00  0.00    -0.324 N 
ATOM     20  C   UNL A   1      31.444  26.282  26.210  1.00  0.00     0.125 C 
ATOM     21  C   UNL A   1      30.846  25.405  24.057  1.00  0.00     0.125 C 
ATOM     22  C   UNL A   1      31.067  27.456  25.312  1.00  0.00     0.010 C 
ATOM     23  C   UNL A   1      31.199  26.883  23.892  1.00  0.00     0.010 C 
ATOM     24  C   UNL A   1      31.962  28.665  25.548  1.00  0.00     0.010 C 
ATOM     25  C   UNL A   1      30.287  27.569  22.885  1.00  0.00     0.010 C 
ENDBRANCH  14  15
ENDBRANCH  13  14
ENDBRANCH   9  13
ENDBRANCH   8   9
ENDBRANCH   7   8
ENDBRANCH   4   7
ENDBRANCH   2   3
ENDBRANCH   1   2
BRANCH   1  26
ATOM     26  C   UNL A   1      39.291  21.994  25.845  1.00  0.00     0.002 C 
BRANCH  26  27
ATOM     27  C   UNL A   1      40.088  21.154  26.849  1.00  0.00     0.002 C 
BRANCH  27  28
ATOM     28  C   UNL A   1      41.437  20.627  26.344  1.00  0.00     0.021 C 
BRANCH  28  29
ATOM     29  C   UNL A   1      42.654  21.413  26.820  1.00  0.00     0.116 C 
BRANCH  29  30
ATOM     30  N   UNL A   1      43.312  22.107  25.723  1.00  0.00    -0.352 N 
ATOM     31  C   UNL A   1      43.383  23.447  25.447  1.00  0.00     0.251 C 
ATOM     32  H   UNL A   1      43.778  21.523  25.081  1.00  0.00     0.163 HD
ATOM     33  O   UNL A   1      43.762  23.833  24.348  1.00  0.00    -0.269 OA
BRANCH  31  34
ATOM     34  C   UNL A   1      43.003  24.435  26.480  1.00  0.00     0.039 A 
ATOM     35  C   UNL A   1      43.637  25.680  26.493  1.00  0.00     0.014 A 
ATOM     36  C   UNL A   1      42.063  24.114  27.461  1.00  0.00     0.014 A 
ATOM     37  C   UNL A   1      43.296  26.621  27.466  1.00  0.00     0.010 A 
ATOM     38  C   UNL A   1      41.674  25.076  28.388  1.00  0.00     0.010 A 
ATOM     39  C   UNL A   1      42.296  26.333  28.409  1.00  0.00    -0.014 A 
BRANCH  39  40
ATOM     40  C   UNL A   1      41.907  27.314  29.452  1.00  0.00     0.031 A 
ATOM     41  C   UNL A   1      42.674  27.369  30.745  1.00  0.00     0.074 A 
ATOM     42  C   UNL A   1      40.829  28.098  29.267  1.00  0.00     0.049 A 
ATOM     43  N   UNL A   1      42.429  28.067  31.825  1.00  0.00    -0.248 NA
ATOM     44  C   UNL A   1      43.856  26.498  30.847  1.00  0.00     0.031 C 
ATOM     45  C   UNL A   1      39.988  28.110  28.071  1.00  0.00     0.029 A 
ATOM     46  N   UNL A   1      40.246  29.024  30.095  1.00  0.00    -0.354 N 
ATOM     47  C   UNL A   1      43.411  27.703  32.738  1.00  0.00     0.074 A 
ATOM     48  C   UNL A   1      44.224  26.688  32.105  1.00  0.00     0.031 C 
ATOM     49  C   UNL A   1      39.004  29.010  28.235  1.00  0.00     0.029 A 
ATOM     50  C   UNL A   1      39.122  29.607  29.562  1.00  0.00     0.049 A 
ATOM     51  H   UNL A   1      40.599  29.250  30.986  1.00  0.00     0.167 HD
ATOM     52  C   UNL A   1      43.627  28.189  33.983  1.00  0.00     0.037 A 
ATOM     53  C   UNL A   1      38.277  30.512  30.091  1.00  0.00     0.037 A 
ATOM     54  C   UNL A   1      42.834  29.223  34.595  1.00  0.00     0.049 A 
ATOM     55  C   UNL A   1      38.538  31.036  31.479  1.00  0.00     0.074 A 
ATOM     56  C   UNL A   1      43.001  29.823  35.830  1.00  0.00     0.029 A 
ATOM     57  N   UNL A   1      41.722  29.812  34.010  1.00  0.00    -0.354 N 
ATOM     58  N   UNL A   1      39.500  30.724  32.313  1.00  0.00    -0.248 NA
ATOM     59  C   UNL A   1      37.599  32.042  31.994  1.00  0.00     0.031 C 
ATOM     60  C   UNL A   1      41.965  30.745  36.011  1.00  0.00     0.029 A 
ATOM     61  C   UNL A   1      41.183  30.758  34.867  1.00  0.00     0.049 A 
ATOM     62  H   UNL A   1      41.368  29.591  33.118  1.00  0.00     0.167 HD
ATOM     63  C   UNL A   1      39.305  31.519  33.434  1.00  0.00     0.074 A 
ATOM     64  C   UNL A   1      38.136  32.332  33.171  1.00  0.00     0.031 C 
ATOM     65  C   UNL A   1      40.030  31.572  34.578  1.00  0.00     0.037 A 
BRANCH  52  66
ATOM     66  C   UNL A   1      44.768  27.609  34.768  1.00  0.00     0.064 A 
ATOM     67  C   UNL A   1      44.599  26.483  35.589  1.00  0.00     0.173 A 
ATOM     68  C   UNL A   1      46.052  28.164  34.674  1.00  0.00     0.173 A 
ATOM     69  F   UNL A   1      43.389  25.920  35.723  1.00  0.00    -0.203 F 
ATOM     70  C   UNL A   1      45.667  25.955  36.311  1.00  0.00     0.198 A 
ATOM     71  C   UNL A   1      47.125  27.615  35.373  1.00  0.00     0.198 A 
ATOM     72  F   UNL A   1      46.271  29.238  33.899  1.00  0.00    -0.203 F 
ATOM     73  F   UNL A   1      45.470  24.912  37.130  1.00  0.00    -0.200 F 
ATOM     74  C   UNL A   1      46.930  26.516  36.197  1.00  0.00     0.200 A 
ATOM     75  F   UNL A   1      48.347  28.151  35.251  1.00  0.00    -0.200 F 
ATOM     76  F   UNL A   1      47.957  26.005  36.887  1.00  0.00    -0.200 F 
ENDBRANCH  52  66
BRANCH  53  77
ATOM     77  C   UNL A   1      37.120  31.000  29.297  1.00  0.00     0.064 A 
ATOM     78  C   UNL A   1      37.124  32.285  28.737  1.00  0.00     0.173 A 
ATOM     79  C   UNL A   1      35.989  30.199  29.083  1.00  0.00     0.173 A 
ATOM     80  F   UNL A   1      38.175  33.096  28.931  1.00  0.00    -0.203 F 
ATOM     81  C   UNL A   1      36.032  32.759  28.012  1.00  0.00     0.198 A 
ATOM     82  C   UNL A   1      34.910  30.662  28.333  1.00  0.00     0.198 A 
ATOM     83  F   UNL A   1      35.938  28.960  29.592  1.00  0.00    -0.203 F 
ATOM     84  F   UNL A   1      36.044  34.008  27.527  1.00  0.00    -0.200 F 
ATOM     85  C   UNL A   1      34.928  31.945  27.806  1.00  0.00     0.200 A 
ATOM     86  F   UNL A   1      33.852  29.868  28.124  1.00  0.00    -0.200 F 
ATOM     87  F   UNL A   1      33.880  32.399  27.105  1.00  0.00    -0.200 F 
ENDBRANCH  53  77
BRANCH  65  88
ATOM     88  C   UNL A   1      39.617  32.578  35.613  1.00  0.00     0.064 A 
ATOM     89  C   UNL A   1      38.680  32.271  36.609  1.00  0.00     0.173 A 
ATOM     90  C   UNL A   1      40.211  33.849  35.637  1.00  0.00     0.173 A 
ATOM     91  F   UNL A   1      38.075  31.073  36.620  1.00  0.00    -0.203 F 
ATOM     92  C   UNL A   1      38.337  33.207  37.581  1.00  0.00     0.198 A 
ATOM     93  C   UNL A   1      39.888  34.773  36.627  1.00  0.00     0.198 A 
ATOM     94  F   UNL A   1      41.118  34.190  34.708  1.00  0.00    -0.203 F 
ATOM     95  F   UNL A   1      37.408  32.906  38.499  1.00  0.00    -0.200 F 
ATOM     96  C   UNL A   1      38.947  34.453  37.593  1.00  0.00     0.200 A 
ATOM     97  F   UNL A   1      40.488  35.970  36.646  1.00  0.00    -0.200 F 
ATOM     98  F   UNL A   1      38.624  35.349  38.537  1.00  0.00    -0.200 F 
ENDBRANCH  65  88
ENDBRANCH  39  40
ENDBRANCH  31  34
ENDBRANCH  29  30
ENDBRANCH  28  29
ENDBRANCH  27  28
ENDBRANCH  26  27
ENDBRANCH   1  26
TORSDOF 19
ENDMDL
