MODEL 1
REMARK VINA RESULT:     -12.9      0.000      0.000
REMARK SMILES Cc1ccc(O[C@H](C)C(=O)Nc2ccsc2C(=O)NCCCCCCNC(=O)c2ccc(-c3c4nc(c(-c5c(F)c(F)c(F)c(F)c5F)c5ccc([nH]5)c(-c5c(F)c(F)c(F)c(F)c5F)c5nc(c(-c6c(F)c(F)c(F)c(F)c6F)c6ccc3[nH]6)C=C5)C=C4)cc2)cc1
REMARK SMILES IDX 21 1 20 2 19 3 17 4 18 5 16 7 12 8 13 9 14 10 15 11 11 12
REMARK SMILES IDX 9 13 10 14 7 16 8 17 6 18 5 19 1 20 2 21 3 22 93 23 4 24
REMARK SMILES IDX 92 25 22 26 23 27 24 28 25 29 26 30 27 31 28 33 29 34 30 35
REMARK SMILES IDX 91 36 31 37 90 38 32 39 33 40 34 41 84 42 35 43 89 44 83 45
REMARK SMILES IDX 85 46 36 47 88 48 82 49 81 50 37 52 69 53 49 54 68 55 50 56
REMARK SMILES IDX 53 57 67 58 86 59 51 60 52 61 66 63 87 64 54 65 38 66 39 67
REMARK SMILES IDX 47 68 40 69 41 70 45 71 48 72 42 73 43 74 46 75 44 76 70 77
REMARK SMILES IDX 71 78 79 79 72 80 73 81 77 82 80 83 74 84 75 85 78 86 76 87
REMARK SMILES IDX 55 88 56 89 64 90 57 91 58 92 62 93 65 94 59 95 60 96 63 97
REMARK SMILES IDX 61 98
REMARK H PARENT 19 6 11 15 26 32 85 51 53 62
REMARK Flexibility Score: inf
ROOT
ATOM      1  C   UNL A   1      32.453  27.491  26.992  1.00  0.00     0.021 C 
ENDROOT
BRANCH   1   2
ATOM      2  C   UNL A   1      31.666  26.331  26.387  1.00  0.00     0.116 C 
BRANCH   2   3
ATOM      3  N   UNL A   1      30.572  26.687  25.522  1.00  0.00    -0.351 N 
ATOM      4  C   UNL A   1      30.315  26.375  24.203  1.00  0.00     0.263 C 
ATOM      5  O   UNL A   1      29.243  26.834  23.789  1.00  0.00    -0.268 OA
ATOM      6  H   UNL A   1      29.888  27.254  25.946  1.00  0.00     0.163 HD
BRANCH   4   7
ATOM      7  C   UNL A   1      31.220  25.599  23.345  1.00  0.00     0.115 A 
ATOM      8  C   UNL A   1      31.601  24.264  23.234  1.00  0.00     0.065 A 
ATOM      9  C   UNL A   1      32.506  24.049  22.146  1.00  0.00     0.038 A 
ATOM     10  C   UNL A   1      32.864  25.205  21.503  1.00  0.00     0.068 A 
ATOM     11  S   UNL A   1      32.081  26.555  22.168  1.00  0.00    -0.137 S 
BRANCH   8  12
ATOM     12  N   UNL A   1      31.081  23.226  23.987  1.00  0.00    -0.321 N 
ATOM     13  C   UNL A   1      31.603  22.635  25.110  1.00  0.00     0.265 C 
ATOM     14  O   UNL A   1      30.891  21.797  25.683  1.00  0.00    -0.270 OA
ATOM     15  H   UNL A   1      30.219  22.863  23.676  1.00  0.00     0.170 HD
BRANCH  13  16
ATOM     16  C   UNL A   1      32.994  22.992  25.696  1.00  0.00     0.259 C 
ATOM     17  C   UNL A   1      32.939  22.723  27.192  1.00  0.00     0.064 C 
BRANCH  16  18
ATOM     18  O   UNL A   1      34.030  22.487  24.866  1.00  0.00    -0.481 OA
BRANCH  18  19
ATOM     19  C   UNL A   1      35.368  22.468  25.078  1.00  0.00     0.120 A 
ATOM     20  C   UNL A   1      39.516  21.702  26.056  1.00  0.00     0.044 C 
ATOM     21  C   UNL A   1      38.099  21.972  25.647  1.00  0.00    -0.051 A 
ATOM     22  C   UNL A   1      37.532  23.232  25.863  1.00  0.00     0.007 A 
ATOM     23  C   UNL A   1      37.296  20.965  25.114  1.00  0.00     0.007 A 
ATOM     24  C   UNL A   1      36.184  23.479  25.567  1.00  0.00     0.047 A 
ATOM     25  C   UNL A   1      35.949  21.216  24.835  1.00  0.00     0.047 A 
ENDBRANCH  18  19
ENDBRANCH  16  18
ENDBRANCH  13  16
ENDBRANCH   8  12
ENDBRANCH   4   7
ENDBRANCH   2   3
ENDBRANCH   1   2
BRANCH   1  26
ATOM     26  C   UNL A   1      31.689  28.751  27.420  1.00  0.00     0.002 C 
BRANCH  26  27
ATOM     27  C   UNL A   1      31.854  30.047  26.615  1.00  0.00     0.002 C 
BRANCH  27  28
ATOM     28  C   UNL A   1      32.763  31.140  27.174  1.00  0.00     0.021 C 
BRANCH  28  29
ATOM     29  C   UNL A   1      34.159  30.706  27.599  1.00  0.00     0.116 C 
BRANCH  29  30
ATOM     30  N   UNL A   1      34.772  31.541  28.627  1.00  0.00    -0.352 N 
ATOM     31  C   UNL A   1      35.908  31.292  29.384  1.00  0.00     0.251 C 
ATOM     32  H   UNL A   1      34.318  32.396  28.808  1.00  0.00     0.163 HD
ATOM     33  O   UNL A   1      36.302  32.102  30.209  1.00  0.00    -0.269 OA
BRANCH  31  34
ATOM     34  C   UNL A   1      36.717  30.088  29.081  1.00  0.00     0.039 A 
ATOM     35  C   UNL A   1      36.889  29.142  30.098  1.00  0.00     0.014 A 
ATOM     36  C   UNL A   1      37.476  30.018  27.916  1.00  0.00     0.014 A 
ATOM     37  C   UNL A   1      38.003  28.309  30.065  1.00  0.00     0.010 A 
ATOM     38  C   UNL A   1      38.635  29.268  27.929  1.00  0.00     0.010 A 
ATOM     39  C   UNL A   1      38.939  28.481  29.046  1.00  0.00    -0.014 A 
BRANCH  39  40
ATOM     40  C   UNL A   1      40.319  28.018  29.149  1.00  0.00     0.031 A 
ATOM     41  C   UNL A   1      40.706  26.672  28.693  1.00  0.00     0.074 A 
ATOM     42  C   UNL A   1      41.263  28.889  29.570  1.00  0.00     0.049 A 
ATOM     43  N   UNL A   1      41.797  26.070  29.035  1.00  0.00    -0.248 NA
ATOM     44  C   UNL A   1      39.838  25.853  27.859  1.00  0.00     0.031 C 
ATOM     45  C   UNL A   1      42.713  28.760  29.451  1.00  0.00     0.029 A 
ATOM     46  N   UNL A   1      41.080  30.003  30.409  1.00  0.00    -0.354 N 
ATOM     47  C   UNL A   1      41.923  24.950  28.244  1.00  0.00     0.074 A 
ATOM     48  C   UNL A   1      40.625  24.797  27.635  1.00  0.00     0.031 C 
ATOM     49  C   UNL A   1      43.293  29.527  30.388  1.00  0.00     0.029 A 
ATOM     50  C   UNL A   1      42.229  30.040  31.232  1.00  0.00     0.049 A 
ATOM     51  H   UNL A   1      40.316  30.623  30.421  1.00  0.00     0.167 HD
ATOM     52  C   UNL A   1      43.165  24.400  28.087  1.00  0.00     0.037 A 
ATOM     53  C   UNL A   1      42.149  29.849  32.580  1.00  0.00     0.037 A 
ATOM     54  C   UNL A   1      44.112  24.970  29.055  1.00  0.00     0.049 A 
ATOM     55  C   UNL A   1      42.997  28.712  33.093  1.00  0.00     0.074 A 
ATOM     56  C   UNL A   1      45.140  25.893  28.947  1.00  0.00     0.029 A 
ATOM     57  N   UNL A   1      43.882  24.802  30.419  1.00  0.00    -0.354 N 
ATOM     58  N   UNL A   1      43.413  27.722  32.353  1.00  0.00    -0.248 NA
ATOM     59  C   UNL A   1      43.409  28.581  34.488  1.00  0.00     0.031 C 
ATOM     60  C   UNL A   1      45.493  26.318  30.253  1.00  0.00     0.029 A 
ATOM     61  C   UNL A   1      44.691  25.642  31.158  1.00  0.00     0.049 A 
ATOM     62  H   UNL A   1      43.232  24.170  30.804  1.00  0.00     0.167 HD
ATOM     63  C   UNL A   1      44.107  26.832  33.130  1.00  0.00     0.074 A 
ATOM     64  C   UNL A   1      44.095  27.425  34.454  1.00  0.00     0.031 C 
ATOM     65  C   UNL A   1      44.620  25.675  32.613  1.00  0.00     0.037 A 
BRANCH  52  66
ATOM     66  C   UNL A   1      43.608  23.592  26.867  1.00  0.00     0.064 A 
ATOM     67  C   UNL A   1      43.236  22.231  26.734  1.00  0.00     0.173 A 
ATOM     68  C   UNL A   1      44.484  24.037  25.856  1.00  0.00     0.173 A 
ATOM     69  F   UNL A   1      42.318  21.675  27.536  1.00  0.00    -0.203 F 
ATOM     70  C   UNL A   1      43.790  21.379  25.771  1.00  0.00     0.198 A 
ATOM     71  C   UNL A   1      45.058  23.182  24.908  1.00  0.00     0.198 A 
ATOM     72  F   UNL A   1      44.794  25.323  25.697  1.00  0.00    -0.203 F 
ATOM     73  F   UNL A   1      43.421  20.092  25.729  1.00  0.00    -0.200 F 
ATOM     74  C   UNL A   1      44.728  21.847  24.877  1.00  0.00     0.200 A 
ATOM     75  F   UNL A   1      45.939  23.674  24.025  1.00  0.00    -0.200 F 
ATOM     76  F   UNL A   1      45.288  21.029  23.977  1.00  0.00    -0.200 F 
ENDBRANCH  52  66
BRANCH  53  77
ATOM     77  C   UNL A   1      40.843  30.254  33.164  1.00  0.00     0.064 A 
ATOM     78  C   UNL A   1      40.572  31.626  33.328  1.00  0.00     0.173 A 
ATOM     79  C   UNL A   1      39.759  29.369  33.225  1.00  0.00     0.173 A 
ATOM     80  F   UNL A   1      41.574  32.518  33.275  1.00  0.00    -0.203 F 
ATOM     81  C   UNL A   1      39.265  32.100  33.432  1.00  0.00     0.198 A 
ATOM     82  C   UNL A   1      38.453  29.848  33.346  1.00  0.00     0.198 A 
ATOM     83  F   UNL A   1      39.947  28.052  33.057  1.00  0.00    -0.203 F 
ATOM     84  F   UNL A   1      39.035  33.421  33.474  1.00  0.00    -0.200 F 
ATOM     85  C   UNL A   1      38.206  31.211  33.417  1.00  0.00     0.200 A 
ATOM     86  F   UNL A   1      37.423  28.991  33.297  1.00  0.00    -0.200 F 
ATOM     87  F   UNL A   1      36.945  31.667  33.424  1.00  0.00    -0.200 F 
ENDBRANCH  53  77
BRANCH  65  88
ATOM     88  C   UNL A   1      45.192  24.519  33.403  1.00  0.00     0.064 A 
ATOM     89  C   UNL A   1      44.500  23.328  33.675  1.00  0.00     0.173 A 
ATOM     90  C   UNL A   1      46.551  24.532  33.806  1.00  0.00     0.173 A 
ATOM     91  F   UNL A   1      43.252  23.127  33.233  1.00  0.00    -0.203 F 
ATOM     92  C   UNL A   1      45.094  22.263  34.362  1.00  0.00     0.198 A 
ATOM     93  C   UNL A   1      47.157  23.445  34.438  1.00  0.00     0.198 A 
ATOM     94  F   UNL A   1      47.342  25.589  33.574  1.00  0.00    -0.203 F 
ATOM     95  F   UNL A   1      44.372  21.167  34.636  1.00  0.00    -0.200 F 
ATOM     96  C   UNL A   1      46.423  22.317  34.734  1.00  0.00     0.200 A 
ATOM     97  F   UNL A   1      48.463  23.494  34.739  1.00  0.00    -0.200 F 
ATOM     98  F   UNL A   1      46.999  21.278  35.352  1.00  0.00    -0.200 F 
ENDBRANCH  65  88
ENDBRANCH  39  40
ENDBRANCH  31  34
ENDBRANCH  29  30
ENDBRANCH  28  29
ENDBRANCH  27  28
ENDBRANCH  26  27
ENDBRANCH   1  26
TORSDOF 17
ENDMDL
MODEL 2
REMARK VINA RESULT:     -12.5      1.274      2.820
REMARK SMILES Cc1ccc(O[C@H](C)C(=O)Nc2ccsc2C(=O)NCCCCCCNC(=O)c2ccc(-c3c4nc(c(-c5c(F)c(F)c(F)c(F)c5F)c5ccc([nH]5)c(-c5c(F)c(F)c(F)c(F)c5F)c5nc(c(-c6c(F)c(F)c(F)c(F)c6F)c6ccc3[nH]6)C=C5)C=C4)cc2)cc1
REMARK SMILES IDX 21 1 20 2 19 3 17 4 18 5 16 7 12 8 13 9 14 10 15 11 11 12
REMARK SMILES IDX 9 13 10 14 7 16 8 17 6 18 5 19 1 20 2 21 3 22 93 23 4 24
REMARK SMILES IDX 92 25 22 26 23 27 24 28 25 29 26 30 27 31 28 33 29 34 30 35
REMARK SMILES IDX 91 36 31 37 90 38 32 39 33 40 34 41 84 42 35 43 89 44 83 45
REMARK SMILES IDX 85 46 36 47 88 48 82 49 81 50 37 52 69 53 49 54 68 55 50 56
REMARK SMILES IDX 53 57 67 58 86 59 51 60 52 61 66 63 87 64 54 65 38 66 39 67
REMARK SMILES IDX 47 68 40 69 41 70 45 71 48 72 42 73 43 74 46 75 44 76 70 77
REMARK SMILES IDX 71 78 79 79 72 80 73 81 77 82 80 83 74 84 75 85 78 86 76 87
REMARK SMILES IDX 55 88 56 89 64 90 57 91 58 92 62 93 65 94 59 95 60 96 63 97
REMARK SMILES IDX 61 98
REMARK H PARENT 19 6 11 15 26 32 85 51 53 62
REMARK Flexibility Score: inf
ROOT
ATOM      1  C   UNL A   1      33.686  27.428  24.975  1.00  0.00     0.021 C 
ENDROOT
BRANCH   1   2
ATOM      2  C   UNL A   1      34.364  26.060  24.939  1.00  0.00     0.116 C 
BRANCH   2   3
ATOM      3  N   UNL A   1      33.946  25.171  23.887  1.00  0.00    -0.351 N 
ATOM      4  C   UNL A   1      34.314  23.876  23.589  1.00  0.00     0.263 C 
ATOM      5  O   UNL A   1      33.714  23.406  22.614  1.00  0.00    -0.268 OA
ATOM      6  H   UNL A   1      33.280  25.556  23.272  1.00  0.00     0.163 HD
BRANCH   4   7
ATOM      7  C   UNL A   1      35.336  23.117  24.321  1.00  0.00     0.115 A 
ATOM      8  C   UNL A   1      35.516  22.679  25.632  1.00  0.00     0.065 A 
ATOM      9  C   UNL A   1      36.710  21.905  25.784  1.00  0.00     0.038 A 
ATOM     10  C   UNL A   1      37.456  21.829  24.637  1.00  0.00     0.068 A 
ATOM     11  S   UNL A   1      36.707  22.646  23.353  1.00  0.00    -0.137 S 
BRANCH   8  12
ATOM     12  N   UNL A   1      34.599  22.844  26.655  1.00  0.00    -0.321 N 
ATOM     13  C   UNL A   1      33.313  22.373  26.739  1.00  0.00     0.265 C 
ATOM     14  O   UNL A   1      32.722  22.550  27.815  1.00  0.00    -0.270 OA
ATOM     15  H   UNL A   1      34.911  23.371  27.427  1.00  0.00     0.170 HD
BRANCH  13  16
ATOM     16  C   UNL A   1      32.603  21.615  25.588  1.00  0.00     0.259 C 
ATOM     17  C   UNL A   1      32.938  20.139  25.742  1.00  0.00     0.064 C 
BRANCH  16  18
ATOM     18  O   UNL A   1      31.273  22.083  25.426  1.00  0.00    -0.481 OA
BRANCH  18  19
ATOM     19  C   UNL A   1      30.828  23.336  25.162  1.00  0.00     0.120 A 
ATOM     20  C   UNL A   1      29.919  27.319  23.727  1.00  0.00     0.044 C 
ATOM     21  C   UNL A   1      30.164  25.921  24.211  1.00  0.00    -0.051 A 
ATOM     22  C   UNL A   1      30.263  25.657  25.580  1.00  0.00     0.007 A 
ATOM     23  C   UNL A   1      30.372  24.873  23.315  1.00  0.00     0.007 A 
ATOM     24  C   UNL A   1      30.577  24.373  26.049  1.00  0.00     0.047 A 
ATOM     25  C   UNL A   1      30.700  23.599  23.791  1.00  0.00     0.047 A 
ENDBRANCH  18  19
ENDBRANCH  16  18
ENDBRANCH  13  16
ENDBRANCH   8  12
ENDBRANCH   4   7
ENDBRANCH   2   3
ENDBRANCH   1   2
BRANCH   1  26
ATOM     26  C   UNL A   1      32.972  27.859  26.263  1.00  0.00     0.002 C 
BRANCH  26  27
ATOM     27  C   UNL A   1      33.740  28.663  27.321  1.00  0.00     0.002 C 
BRANCH  27  28
ATOM     28  C   UNL A   1      33.333  30.114  27.570  1.00  0.00     0.021 C 
BRANCH  28  29
ATOM     29  C   UNL A   1      34.418  31.163  27.372  1.00  0.00     0.116 C 
BRANCH  29  30
ATOM     30  N   UNL A   1      34.872  31.811  28.599  1.00  0.00    -0.352 N 
ATOM     31  C   UNL A   1      35.842  31.388  29.496  1.00  0.00     0.251 C 
ATOM     32  H   UNL A   1      34.430  32.663  28.820  1.00  0.00     0.163 HD
ATOM     33  O   UNL A   1      36.116  32.051  30.483  1.00  0.00    -0.269 OA
BRANCH  31  34
ATOM     34  C   UNL A   1      36.640  30.182  29.167  1.00  0.00     0.039 A 
ATOM     35  C   UNL A   1      36.826  29.226  30.172  1.00  0.00     0.014 A 
ATOM     36  C   UNL A   1      37.378  30.121  27.988  1.00  0.00     0.014 A 
ATOM     37  C   UNL A   1      37.936  28.389  30.111  1.00  0.00     0.010 A 
ATOM     38  C   UNL A   1      38.533  29.366  27.973  1.00  0.00     0.010 A 
ATOM     39  C   UNL A   1      38.854  28.567  29.077  1.00  0.00    -0.014 A 
BRANCH  39  40
ATOM     40  C   UNL A   1      40.233  28.097  29.151  1.00  0.00     0.031 A 
ATOM     41  C   UNL A   1      40.601  26.742  28.703  1.00  0.00     0.074 A 
ATOM     42  C   UNL A   1      41.192  28.967  29.536  1.00  0.00     0.049 A 
ATOM     43  N   UNL A   1      41.696  26.138  29.025  1.00  0.00    -0.248 NA
ATOM     44  C   UNL A   1      39.706  25.918  27.903  1.00  0.00     0.031 C 
ATOM     45  C   UNL A   1      42.638  28.827  29.381  1.00  0.00     0.029 A 
ATOM     46  N   UNL A   1      41.038  30.093  30.365  1.00  0.00    -0.354 N 
ATOM     47  C   UNL A   1      41.796  25.007  28.246  1.00  0.00     0.074 A 
ATOM     48  C   UNL A   1      40.481  24.854  27.672  1.00  0.00     0.031 C 
ATOM     49  C   UNL A   1      43.247  29.603  30.293  1.00  0.00     0.029 A 
ATOM     50  C   UNL A   1      42.208  30.134  31.157  1.00  0.00     0.049 A 
ATOM     51  H   UNL A   1      40.278  30.718  30.387  1.00  0.00     0.167 HD
ATOM     52  C   UNL A   1      43.030  24.447  28.064  1.00  0.00     0.037 A 
ATOM     53  C   UNL A   1      42.162  29.961  32.509  1.00  0.00     0.037 A 
ATOM     54  C   UNL A   1      44.005  25.024  29.000  1.00  0.00     0.049 A 
ATOM     55  C   UNL A   1      43.016  28.826  33.016  1.00  0.00     0.074 A 
ATOM     56  C   UNL A   1      45.035  25.939  28.853  1.00  0.00     0.029 A 
ATOM     57  N   UNL A   1      43.809  24.875  30.372  1.00  0.00    -0.354 N 
ATOM     58  N   UNL A   1      43.407  27.824  32.279  1.00  0.00    -0.248 NA
ATOM     59  C   UNL A   1      43.462  28.711  34.401  1.00  0.00     0.031 C 
ATOM     60  C   UNL A   1      45.424  26.379  30.144  1.00  0.00     0.029 A 
ATOM     61  C   UNL A   1      44.642  25.721  31.079  1.00  0.00     0.049 A 
ATOM     62  H   UNL A   1      43.166  24.253  30.782  1.00  0.00     0.167 HD
ATOM     63  C   UNL A   1      44.116  26.940  33.049  1.00  0.00     0.074 A 
ATOM     64  C   UNL A   1      44.141  27.550  34.365  1.00  0.00     0.031 C 
ATOM     65  C   UNL A   1      44.608  25.773  32.534  1.00  0.00     0.037 A 
BRANCH  52  66
ATOM     66  C   UNL A   1      43.437  23.620  26.844  1.00  0.00     0.064 A 
ATOM     67  C   UNL A   1      43.076  22.254  26.752  1.00  0.00     0.173 A 
ATOM     68  C   UNL A   1      44.269  24.055  25.794  1.00  0.00     0.173 A 
ATOM     69  F   UNL A   1      42.196  21.702  27.597  1.00  0.00    -0.203 F 
ATOM     70  C   UNL A   1      43.604  21.389  25.785  1.00  0.00     0.198 A 
ATOM     71  C   UNL A   1      44.818  23.188  24.841  1.00  0.00     0.198 A 
ATOM     72  F   UNL A   1      44.558  25.341  25.598  1.00  0.00    -0.203 F 
ATOM     73  F   UNL A   1      43.249  20.097  25.781  1.00  0.00    -0.200 F 
ATOM     74  C   UNL A   1      44.502  21.850  24.848  1.00  0.00     0.200 A 
ATOM     75  F   UNL A   1      45.660  23.673  23.916  1.00  0.00    -0.200 F 
ATOM     76  F   UNL A   1      45.038  21.020  23.943  1.00  0.00    -0.200 F 
ENDBRANCH  52  66
BRANCH  53  77
ATOM     77  C   UNL A   1      40.873  30.382  33.121  1.00  0.00     0.064 A 
ATOM     78  C   UNL A   1      40.614  31.757  33.273  1.00  0.00     0.173 A 
ATOM     79  C   UNL A   1      39.786  29.504  33.222  1.00  0.00     0.173 A 
ATOM     80  F   UNL A   1      41.619  32.643  33.181  1.00  0.00    -0.203 F 
ATOM     81  C   UNL A   1      39.313  32.241  33.404  1.00  0.00     0.198 A 
ATOM     82  C   UNL A   1      38.487  29.992  33.370  1.00  0.00     0.198 A 
ATOM     83  F   UNL A   1      39.963  28.184  33.067  1.00  0.00    -0.203 F 
ATOM     84  F   UNL A   1      39.092  33.563  33.433  1.00  0.00    -0.200 F 
ATOM     85  C   UNL A   1      38.248  31.358  33.428  1.00  0.00     0.200 A 
ATOM     86  F   UNL A   1      37.451  29.140  33.359  1.00  0.00    -0.200 F 
ATOM     87  F   UNL A   1      36.991  31.821  33.461  1.00  0.00    -0.200 F 
ENDBRANCH  53  77
BRANCH  65  88
ATOM     88  C   UNL A   1      45.194  24.624  33.325  1.00  0.00     0.064 A 
ATOM     89  C   UNL A   1      44.504  23.438  33.625  1.00  0.00     0.173 A 
ATOM     90  C   UNL A   1      46.561  24.637  33.698  1.00  0.00     0.173 A 
ATOM     91  F   UNL A   1      43.246  23.237  33.213  1.00  0.00    -0.203 F 
ATOM     92  C   UNL A   1      45.110  22.379  34.311  1.00  0.00     0.198 A 
ATOM     93  C   UNL A   1      47.177  23.555  34.329  1.00  0.00     0.198 A 
ATOM     94  F   UNL A   1      47.350  25.689  33.437  1.00  0.00    -0.203 F 
ATOM     95  F   UNL A   1      44.390  21.288  34.613  1.00  0.00    -0.200 F 
ATOM     96  C   UNL A   1      46.447  22.433  34.653  1.00  0.00     0.200 A 
ATOM     97  F   UNL A   1      48.489  23.603  34.602  1.00  0.00    -0.200 F 
ATOM     98  F   UNL A   1      47.033  21.399  35.271  1.00  0.00    -0.200 F 
ENDBRANCH  65  88
ENDBRANCH  39  40
ENDBRANCH  31  34
ENDBRANCH  29  30
ENDBRANCH  28  29
ENDBRANCH  27  28
ENDBRANCH  26  27
ENDBRANCH   1  26
TORSDOF 17
ENDMDL
MODEL 3
REMARK VINA RESULT:     -12.4      3.029      4.833
REMARK SMILES Cc1ccc(O[C@H](C)C(=O)Nc2ccsc2C(=O)NCCCCCCNC(=O)c2ccc(-c3c4nc(c(-c5c(F)c(F)c(F)c(F)c5F)c5ccc([nH]5)c(-c5c(F)c(F)c(F)c(F)c5F)c5nc(c(-c6c(F)c(F)c(F)c(F)c6F)c6ccc3[nH]6)C=C5)C=C4)cc2)cc1
REMARK SMILES IDX 21 1 20 2 19 3 17 4 18 5 16 7 12 8 13 9 14 10 15 11 11 12
REMARK SMILES IDX 9 13 10 14 7 16 8 17 6 18 5 19 1 20 2 21 3 22 93 23 4 24
REMARK SMILES IDX 92 25 22 26 23 27 24 28 25 29 26 30 27 31 28 33 29 34 30 35
REMARK SMILES IDX 91 36 31 37 90 38 32 39 33 40 34 41 84 42 35 43 89 44 83 45
REMARK SMILES IDX 85 46 36 47 88 48 82 49 81 50 37 52 69 53 49 54 68 55 50 56
REMARK SMILES IDX 53 57 67 58 86 59 51 60 52 61 66 63 87 64 54 65 38 66 39 67
REMARK SMILES IDX 47 68 40 69 41 70 45 71 48 72 42 73 43 74 46 75 44 76 70 77
REMARK SMILES IDX 71 78 79 79 72 80 73 81 77 82 80 83 74 84 75 85 78 86 76 87
REMARK SMILES IDX 55 88 56 89 64 90 57 91 58 92 62 93 65 94 59 95 60 96 63 97
REMARK SMILES IDX 61 98
REMARK H PARENT 19 6 11 15 26 32 85 51 53 62
REMARK Flexibility Score: inf
ROOT
ATOM      1  C   UNL A   1      35.491  29.392  27.580  1.00  0.00     0.021 C 
ENDROOT
BRANCH   1   2
ATOM      2  C   UNL A   1      34.247  28.988  26.793  1.00  0.00     0.116 C 
BRANCH   2   3
ATOM      3  N   UNL A   1      33.082  28.657  27.572  1.00  0.00    -0.351 N 
ATOM      4  C   UNL A   1      31.824  28.237  27.195  1.00  0.00     0.263 C 
ATOM      5  O   UNL A   1      31.073  28.009  28.152  1.00  0.00    -0.268 OA
ATOM      6  H   UNL A   1      33.206  28.747  28.544  1.00  0.00     0.163 HD
BRANCH   4   7
ATOM      7  C   UNL A   1      31.383  28.092  25.801  1.00  0.00     0.115 A 
ATOM      8  C   UNL A   1      31.000  27.040  24.972  1.00  0.00     0.065 A 
ATOM      9  C   UNL A   1      30.600  27.492  23.674  1.00  0.00     0.038 A 
ATOM     10  C   UNL A   1      30.756  28.843  23.500  1.00  0.00     0.068 A 
ATOM     11  S   UNL A   1      31.337  29.589  24.908  1.00  0.00    -0.137 S 
BRANCH   8  12
ATOM     12  N   UNL A   1      30.883  25.720  25.370  1.00  0.00    -0.321 N 
ATOM     13  C   UNL A   1      31.804  24.707  25.265  1.00  0.00     0.265 C 
ATOM     14  O   UNL A   1      31.513  23.629  25.804  1.00  0.00    -0.270 OA
ATOM     15  H   UNL A   1      30.025  25.473  25.785  1.00  0.00     0.170 HD
BRANCH  13  16
ATOM     16  C   UNL A   1      33.171  24.866  24.550  1.00  0.00     0.259 C 
ATOM     17  C   UNL A   1      34.131  25.502  25.543  1.00  0.00     0.064 C 
BRANCH  16  18
ATOM     18  O   UNL A   1      33.493  23.691  23.821  1.00  0.00    -0.481 OA
BRANCH  18  19
ATOM     19  C   UNL A   1      34.579  22.887  23.923  1.00  0.00     0.120 A 
ATOM     20  C   UNL A   1      37.795  20.184  24.971  1.00  0.00     0.044 C 
ATOM     21  C   UNL A   1      36.663  21.074  24.555  1.00  0.00    -0.051 A 
ATOM     22  C   UNL A   1      36.914  22.238  23.823  1.00  0.00     0.007 A 
ATOM     23  C   UNL A   1      35.352  20.804  24.945  1.00  0.00     0.007 A 
ATOM     24  C   UNL A   1      35.879  23.127  23.499  1.00  0.00     0.047 A 
ATOM     25  C   UNL A   1      34.327  21.703  24.630  1.00  0.00     0.047 A 
ENDBRANCH  18  19
ENDBRANCH  16  18
ENDBRANCH  13  16
ENDBRANCH   8  12
ENDBRANCH   4   7
ENDBRANCH   2   3
ENDBRANCH   1   2
BRANCH   1  26
ATOM     26  C   UNL A   1      35.807  30.886  27.735  1.00  0.00     0.002 C 
BRANCH  26  27
ATOM     27  C   UNL A   1      34.674  31.871  28.053  1.00  0.00     0.002 C 
BRANCH  27  28
ATOM     28  C   UNL A   1      34.577  32.435  29.469  1.00  0.00     0.021 C 
BRANCH  28  29
ATOM     29  C   UNL A   1      34.582  33.953  29.593  1.00  0.00     0.116 C 
BRANCH  29  30
ATOM     30  N   UNL A   1      33.598  34.492  30.526  1.00  0.00    -0.352 N 
ATOM     31  C   UNL A   1      33.664  34.569  31.909  1.00  0.00     0.251 C 
ATOM     32  H   UNL A   1      32.775  34.850  30.118  1.00  0.00     0.163 HD
ATOM     33  O   UNL A   1      32.751  35.060  32.555  1.00  0.00    -0.269 OA
BRANCH  31  34
ATOM     34  C   UNL A   1      34.921  34.170  32.586  1.00  0.00     0.039 A 
ATOM     35  C   UNL A   1      36.046  34.984  32.411  1.00  0.00     0.014 A 
ATOM     36  C   UNL A   1      35.044  32.911  33.168  1.00  0.00     0.014 A 
ATOM     37  C   UNL A   1      37.313  34.427  32.560  1.00  0.00     0.010 A 
ATOM     38  C   UNL A   1      36.294  32.327  33.216  1.00  0.00     0.010 A 
ATOM     39  C   UNL A   1      37.419  33.063  32.826  1.00  0.00    -0.014 A 
BRANCH  39  40
ATOM     40  C   UNL A   1      38.627  32.293  32.553  1.00  0.00     0.031 A 
ATOM     41  C   UNL A   1      38.567  31.015  31.822  1.00  0.00     0.074 A 
ATOM     42  C   UNL A   1      39.823  32.827  32.888  1.00  0.00     0.049 A 
ATOM     43  N   UNL A   1      39.507  30.129  31.821  1.00  0.00    -0.248 NA
ATOM     44  C   UNL A   1      37.385  30.597  31.082  1.00  0.00     0.031 C 
ATOM     45  C   UNL A   1      41.146  32.405  32.436  1.00  0.00     0.029 A 
ATOM     46  N   UNL A   1      40.083  33.760  33.907  1.00  0.00    -0.354 N 
ATOM     47  C   UNL A   1      39.200  29.193  30.859  1.00  0.00     0.074 A 
ATOM     48  C   UNL A   1      37.820  29.460  30.532  1.00  0.00     0.031 C 
ATOM     49  C   UNL A   1      42.059  32.817  33.330  1.00  0.00     0.029 A 
ATOM     50  C   UNL A   1      41.328  33.373  34.455  1.00  0.00     0.049 A 
ATOM     51  H   UNL A   1      39.520  34.519  34.180  1.00  0.00     0.167 HD
ATOM     52  C   UNL A   1      40.210  28.423  30.352  1.00  0.00     0.037 A 
ATOM     53  C   UNL A   1      41.437  32.935  35.743  1.00  0.00     0.037 A 
ATOM     54  C   UNL A   1      41.425  28.560  31.166  1.00  0.00     0.049 A 
ATOM     55  C   UNL A   1      42.037  31.557  35.877  1.00  0.00     0.074 A 
ATOM     56  C   UNL A   1      42.622  29.232  30.980  1.00  0.00     0.029 A 
ATOM     57  N   UNL A   1      41.400  28.174  32.506  1.00  0.00    -0.354 N 
ATOM     58  N   UNL A   1      42.047  30.671  34.921  1.00  0.00    -0.248 NA
ATOM     59  C   UNL A   1      42.636  31.059  37.111  1.00  0.00     0.031 C 
ATOM     60  C   UNL A   1      43.294  29.294  32.227  1.00  0.00     0.029 A 
ATOM     61  C   UNL A   1      42.515  28.646  33.170  1.00  0.00     0.049 A 
ATOM     62  H   UNL A   1      40.686  27.639  32.921  1.00  0.00     0.167 HD
ATOM     63  C   UNL A   1      42.611  29.510  35.381  1.00  0.00     0.074 A 
ATOM     64  C   UNL A   1      42.983  29.810  36.751  1.00  0.00     0.031 C 
ATOM     65  C   UNL A   1      42.708  28.398  34.593  1.00  0.00     0.037 A 
BRANCH  52  66
ATOM     66  C   UNL A   1      40.209  27.801  28.955  1.00  0.00     0.064 A 
ATOM     67  C   UNL A   1      39.663  26.511  28.745  1.00  0.00     0.173 A 
ATOM     68  C   UNL A   1      40.821  28.347  27.810  1.00  0.00     0.173 A 
ATOM     69  F   UNL A   1      38.941  25.894  29.689  1.00  0.00    -0.203 F 
ATOM     70  C   UNL A   1      39.834  25.795  27.554  1.00  0.00     0.198 A 
ATOM     71  C   UNL A   1      41.015  27.624  26.626  1.00  0.00     0.198 A 
ATOM     72  F   UNL A   1      41.220  29.617  27.751  1.00  0.00    -0.203 F 
ATOM     73  F   UNL A   1      39.323  24.562  27.438  1.00  0.00    -0.200 F 
ATOM     74  C   UNL A   1      40.540  26.340  26.504  1.00  0.00     0.200 A 
ATOM     75  F   UNL A   1      41.673  28.195  25.605  1.00  0.00    -0.200 F 
ATOM     76  F   UNL A   1      40.737  25.646  25.375  1.00  0.00    -0.200 F 
ENDBRANCH  52  66
BRANCH  53  77
ATOM     77  C   UNL A   1      40.402  33.494  36.653  1.00  0.00     0.064 A 
ATOM     78  C   UNL A   1      39.254  32.724  36.924  1.00  0.00     0.173 A 
ATOM     79  C   UNL A   1      40.677  34.568  37.507  1.00  0.00     0.173 A 
ATOM     80  F   UNL A   1      38.946  31.680  36.138  1.00  0.00    -0.203 F 
ATOM     81  C   UNL A   1      38.484  32.947  38.064  1.00  0.00     0.198 A 
ATOM     82  C   UNL A   1      39.892  34.798  38.639  1.00  0.00     0.198 A 
ATOM     83  F   UNL A   1      41.765  35.327  37.316  1.00  0.00    -0.203 F 
ATOM     84  F   UNL A   1      37.464  32.125  38.352  1.00  0.00    -0.200 F 
ATOM     85  C   UNL A   1      38.818  33.970  38.933  1.00  0.00     0.200 A 
ATOM     86  F   UNL A   1      40.235  35.766  39.501  1.00  0.00    -0.200 F 
ATOM     87  F   UNL A   1      38.137  34.131  40.076  1.00  0.00    -0.200 F 
ENDBRANCH  53  77
BRANCH  65  88
ATOM     88  C   UNL A   1      43.090  27.008  35.052  1.00  0.00     0.064 A 
ATOM     89  C   UNL A   1      42.186  25.940  35.175  1.00  0.00     0.173 A 
ATOM     90  C   UNL A   1      44.451  26.672  35.257  1.00  0.00     0.173 A 
ATOM     91  F   UNL A   1      40.888  26.084  34.879  1.00  0.00    -0.203 F 
ATOM     92  C   UNL A   1      42.599  24.656  35.549  1.00  0.00     0.198 A 
ATOM     93  C   UNL A   1      44.866  25.376  35.572  1.00  0.00     0.198 A 
ATOM     94  F   UNL A   1      45.427  27.583  35.132  1.00  0.00    -0.203 F 
ATOM     95  F   UNL A   1      41.686  23.684  35.698  1.00  0.00    -0.200 F 
ATOM     96  C   UNL A   1      43.938  24.372  35.737  1.00  0.00     0.200 A 
ATOM     97  F   UNL A   1      46.174  25.107  35.693  1.00  0.00    -0.200 F 
ATOM     98  F   UNL A   1      44.332  23.131  36.051  1.00  0.00    -0.200 F 
ENDBRANCH  65  88
ENDBRANCH  39  40
ENDBRANCH  31  34
ENDBRANCH  29  30
ENDBRANCH  28  29
ENDBRANCH  27  28
ENDBRANCH  26  27
ENDBRANCH   1  26
TORSDOF 17
ENDMDL
