MODEL 1
REMARK VINA RESULT:     -13.2      0.000      0.000
REMARK SMILES Cc1ccc(C(=O)NC2(CC(=O)NCCCCCCNC(=O)c3ccc(-c4c5nc(c(-c6c(F)c(F)c(F)c(F)c6F)c6ccc([nH]6)c(-c6c(F)c(F)c(F)c(F)c6F)c6nc(c(-c7c(F)c(F)c(F)c(F)c7F)c7ccc4[nH]7)C=C6)C=C5)cc3)CCC2)cc1
REMARK SMILES IDX 16 1 15 2 14 3 13 4 11 5 12 6 10 8 9 9 86 10 88 11 87 12
REMARK SMILES IDX 8 13 6 14 7 15 5 17 1 18 2 19 3 20 90 21 4 22 89 23 17 24
REMARK SMILES IDX 18 25 19 26 20 27 21 28 22 30 23 31 24 32 85 33 25 34 84 35
REMARK SMILES IDX 26 36 27 37 28 38 78 39 29 40 83 41 77 42 79 43 30 44 82 45
REMARK SMILES IDX 76 46 75 47 31 49 63 50 43 51 62 52 44 53 47 54 61 55 80 56
REMARK SMILES IDX 45 57 46 58 60 60 81 61 48 62 32 63 33 64 41 65 34 66 35 67
REMARK SMILES IDX 39 68 42 69 36 70 37 71 40 72 38 73 64 74 65 75 73 76 66 77
REMARK SMILES IDX 67 78 71 79 74 80 68 81 69 82 72 83 70 84 49 85 50 86 58 87
REMARK SMILES IDX 51 88 52 89 56 90 59 91 53 92 54 93 57 94 55 95
REMARK H PARENT 13 7 8 16 20 29 79 48 47 59
REMARK Flexibility Score: inf
ROOT
ATOM      1  C   UNL A   1      39.853  20.168  25.932  1.00  0.00     0.002 C 
ENDROOT
BRANCH   1   2
ATOM      2  C   UNL A   1      39.975  21.462  26.708  1.00  0.00     0.021 C 
BRANCH   2   3
ATOM      3  C   UNL A   1      38.872  22.440  26.396  1.00  0.00     0.116 C 
BRANCH   3   4
ATOM      4  N   UNL A   1      38.274  22.329  24.861  1.00  0.00    -0.356 N 
ATOM      5  C   UNL A   1      36.625  22.791  23.878  1.00  0.00     0.222 C 
ATOM      6  O   UNL A   1      36.417  22.955  22.645  1.00  0.00    -0.275 OA
ATOM      7  H   UNL A   1      38.932  21.909  24.260  1.00  0.00     0.163 HD
BRANCH   5   8
ATOM      8  C   UNL A   1      34.947  23.046  24.729  1.00  0.00     0.128 C 
BRANCH   8   9
ATOM      9  C   UNL A   1      33.470  22.452  24.170  1.00  0.00     0.049 C 
ATOM     10  C   UNL A   1      32.221  22.630  25.102  1.00  0.00     0.029 C 
ATOM     11  C   UNL A   1      32.756  20.926  23.950  1.00  0.00     0.029 C 
ATOM     12  C   UNL A   1      32.152  21.086  25.325  1.00  0.00     0.005 C 
BRANCH   9  13
ATOM     13  N   UNL A   1      33.414  22.908  22.791  1.00  0.00    -0.346 N 
ATOM     14  C   UNL A   1      33.224  24.253  22.665  1.00  0.00     0.251 C 
ATOM     15  O   UNL A   1      33.313  24.859  21.612  1.00  0.00    -0.269 OA
ATOM     16  H   UNL A   1      33.506  22.302  22.020  1.00  0.00     0.164 HD
BRANCH  14  17
ATOM     17  C   UNL A   1      32.694  24.876  23.925  1.00  0.00     0.039 A 
ATOM     18  C   UNL A   1      31.779  28.202  27.624  1.00  0.00     0.044 C 
ATOM     19  C   UNL A   1      31.927  27.555  26.268  1.00  0.00    -0.051 A 
ATOM     20  C   UNL A   1      33.620  27.305  25.691  1.00  0.00     0.004 A 
ATOM     21  C   UNL A   1      30.560  26.563  25.651  1.00  0.00     0.004 A 
ATOM     22  C   UNL A   1      33.999  25.986  24.536  1.00  0.00     0.014 A 
ATOM     23  C   UNL A   1      30.905  25.183  24.495  1.00  0.00     0.014 A 
ENDBRANCH  14  17
ENDBRANCH   9  13
ENDBRANCH   8   9
ENDBRANCH   5   8
ENDBRANCH   3   4
ENDBRANCH   2   3
ENDBRANCH   1   2
BRANCH   1  24
ATOM     24  C   UNL A   1      41.009  19.170  26.127  1.00  0.00     0.002 C 
BRANCH  24  25
ATOM     25  C   UNL A   1      42.386  19.737  26.505  1.00  0.00     0.021 C 
BRANCH  25  26
ATOM     26  C   UNL A   1      43.364  19.728  25.368  1.00  0.00     0.116 C 
BRANCH  26  27
ATOM     27  N   UNL A   1      44.594  20.374  25.749  1.00  0.00    -0.352 N 
ATOM     28  C   UNL A   1      44.931  21.703  25.638  1.00  0.00     0.251 C 
ATOM     29  H   UNL A   1      45.283  19.789  26.139  1.00  0.00     0.163 HD
ATOM     30  O   UNL A   1      46.111  22.026  25.568  1.00  0.00    -0.269 OA
BRANCH  28  31
ATOM     31  C   UNL A   1      43.884  22.725  25.903  1.00  0.00     0.039 A 
ATOM     32  C   UNL A   1      44.016  23.845  25.069  1.00  0.00     0.014 A 
ATOM     33  C   UNL A   1      43.381  22.865  27.190  1.00  0.00     0.014 A 
ATOM     34  C   UNL A   1      44.016  25.103  25.637  1.00  0.00     0.010 A 
ATOM     35  C   UNL A   1      43.593  24.066  27.803  1.00  0.00     0.010 A 
ATOM     36  C   UNL A   1      43.944  25.166  27.020  1.00  0.00    -0.014 A 
BRANCH  36  37
ATOM     37  C   UNL A   1      43.959  26.388  27.777  1.00  0.00     0.031 A 
ATOM     38  C   UNL A   1      42.627  27.008  27.897  1.00  0.00     0.074 A 
ATOM     39  C   UNL A   1      45.089  26.667  28.462  1.00  0.00     0.049 A 
ATOM     40  N   UNL A   1      42.417  28.226  28.213  1.00  0.00    -0.248 NA
ATOM     41  C   UNL A   1      41.378  26.294  27.592  1.00  0.00     0.031 C 
ATOM     42  C   UNL A   1      45.300  27.590  29.569  1.00  0.00     0.029 A 
ATOM     43  N   UNL A   1      46.390  26.230  28.143  1.00  0.00    -0.354 N 
ATOM     44  C   UNL A   1      41.074  28.348  28.514  1.00  0.00     0.074 A 
ATOM     45  C   UNL A   1      40.451  27.177  27.970  1.00  0.00     0.031 C 
ATOM     46  C   UNL A   1      46.604  27.924  29.614  1.00  0.00     0.029 A 
ATOM     47  C   UNL A   1      47.243  27.315  28.457  1.00  0.00     0.049 A 
ATOM     48  H   UNL A   1      46.650  25.353  27.777  1.00  0.00     0.167 HD
ATOM     49  C   UNL A   1      40.719  29.363  29.350  1.00  0.00     0.037 A 
ATOM     50  C   UNL A   1      47.850  28.008  27.445  1.00  0.00     0.037 A 
ATOM     51  C   UNL A   1      41.919  30.139  29.655  1.00  0.00     0.049 A 
ATOM     52  C   UNL A   1      47.274  29.400  27.336  1.00  0.00     0.074 A 
ATOM     53  C   UNL A   1      42.831  30.049  30.694  1.00  0.00     0.029 A 
ATOM     54  N   UNL A   1      42.556  30.806  28.617  1.00  0.00    -0.354 N 
ATOM     55  N   UNL A   1      46.041  29.702  27.652  1.00  0.00    -0.248 NA
ATOM     56  C   UNL A   1      48.071  30.569  26.978  1.00  0.00     0.031 C 
ATOM     57  C   UNL A   1      44.057  30.602  30.234  1.00  0.00     0.029 A 
ATOM     58  C   UNL A   1      43.884  31.027  28.925  1.00  0.00     0.049 A 
ATOM     59  H   UNL A   1      42.122  31.082  27.778  1.00  0.00     0.167 HD
ATOM     60  C   UNL A   1      45.891  31.062  27.612  1.00  0.00     0.074 A 
ATOM     61  C   UNL A   1      47.182  31.557  27.167  1.00  0.00     0.031 C 
ATOM     62  C   UNL A   1      44.746  31.709  27.978  1.00  0.00     0.037 A 
BRANCH  49  63
ATOM     63  C   UNL A   1      39.426  29.534  30.112  1.00  0.00     0.064 A 
ATOM     64  C   UNL A   1      38.584  30.627  29.797  1.00  0.00     0.173 A 
ATOM     65  C   UNL A   1      38.958  28.721  31.161  1.00  0.00     0.173 A 
ATOM     66  F   UNL A   1      38.870  31.465  28.791  1.00  0.00    -0.203 F 
ATOM     67  C   UNL A   1      37.412  30.910  30.499  1.00  0.00     0.198 A 
ATOM     68  C   UNL A   1      37.784  29.009  31.871  1.00  0.00     0.198 A 
ATOM     69  F   UNL A   1      39.588  27.604  31.531  1.00  0.00    -0.203 F 
ATOM     70  F   UNL A   1      36.674  31.974  30.155  1.00  0.00    -0.200 F 
ATOM     71  C   UNL A   1      37.014  30.105  31.544  1.00  0.00     0.200 A 
ATOM     72  F   UNL A   1      37.403  28.207  32.877  1.00  0.00    -0.200 F 
ATOM     73  F   UNL A   1      35.890  30.376  32.219  1.00  0.00    -0.200 F 
ENDBRANCH  49  63
BRANCH  50  74
ATOM     74  C   UNL A   1      48.247  27.094  26.330  1.00  0.00     0.064 A 
ATOM     75  C   UNL A   1      47.560  27.279  25.110  1.00  0.00     0.173 A 
ATOM     76  C   UNL A   1      49.524  26.521  26.265  1.00  0.00     0.173 A 
ATOM     77  F   UNL A   1      46.312  27.776  25.116  1.00  0.00    -0.203 F 
ATOM     78  C   UNL A   1      48.210  27.138  23.886  1.00  0.00     0.198 A 
ATOM     79  C   UNL A   1      50.153  26.331  25.028  1.00  0.00     0.198 A 
ATOM     80  F   UNL A   1      50.220  26.281  27.385  1.00  0.00    -0.203 F 
ATOM     81  F   UNL A   1      47.598  27.520  22.755  1.00  0.00    -0.200 F 
ATOM     82  C   UNL A   1      49.524  26.709  23.850  1.00  0.00     0.200 A 
ATOM     83  F   UNL A   1      51.412  25.870  24.985  1.00  0.00    -0.200 F 
ATOM     84  F   UNL A   1      50.192  26.701  22.688  1.00  0.00    -0.200 F 
ENDBRANCH  50  74
BRANCH  62  85
ATOM     85  C   UNL A   1      44.376  33.104  27.542  1.00  0.00     0.064 A 
ATOM     86  C   UNL A   1      43.916  33.405  26.251  1.00  0.00     0.173 A 
ATOM     87  C   UNL A   1      44.303  34.165  28.478  1.00  0.00     0.173 A 
ATOM     88  F   UNL A   1      43.778  32.456  25.315  1.00  0.00    -0.203 F 
ATOM     89  C   UNL A   1      43.520  34.693  25.892  1.00  0.00     0.198 A 
ATOM     90  C   UNL A   1      43.815  35.424  28.140  1.00  0.00     0.198 A 
ATOM     91  F   UNL A   1      44.664  34.011  29.760  1.00  0.00    -0.203 F 
ATOM     92  F   UNL A   1      43.170  34.945  24.625  1.00  0.00    -0.200 F 
ATOM     93  C   UNL A   1      43.458  35.698  26.838  1.00  0.00     0.200 A 
ATOM     94  F   UNL A   1      43.675  36.359  29.090  1.00  0.00    -0.200 F 
ATOM     95  F   UNL A   1      43.032  36.921  26.500  1.00  0.00    -0.200 F 
ENDBRANCH  62  85
ENDBRANCH  36  37
ENDBRANCH  28  31
ENDBRANCH  26  27
ENDBRANCH  25  26
ENDBRANCH  24  25
ENDBRANCH   1  24
TORSDOF 16
ENDMDL
MODEL 2
REMARK VINA RESULT:     -12.7      4.653     10.668
REMARK SMILES Cc1ccc(C(=O)NC2(CC(=O)NCCCCCCNC(=O)c3ccc(-c4c5nc(c(-c6c(F)c(F)c(F)c(F)c6F)c6ccc([nH]6)c(-c6c(F)c(F)c(F)c(F)c6F)c6nc(c(-c7c(F)c(F)c(F)c(F)c7F)c7ccc4[nH]7)C=C6)C=C5)cc3)CCC2)cc1
REMARK SMILES IDX 16 1 15 2 14 3 13 4 11 5 12 6 10 8 9 9 86 10 88 11 87 12
REMARK SMILES IDX 8 13 6 14 7 15 5 17 1 18 2 19 3 20 90 21 4 22 89 23 17 24
REMARK SMILES IDX 18 25 19 26 20 27 21 28 22 30 23 31 24 32 85 33 25 34 84 35
REMARK SMILES IDX 26 36 27 37 28 38 78 39 29 40 83 41 77 42 79 43 30 44 82 45
REMARK SMILES IDX 76 46 75 47 31 49 63 50 43 51 62 52 44 53 47 54 61 55 80 56
REMARK SMILES IDX 45 57 46 58 60 60 81 61 48 62 32 63 33 64 41 65 34 66 35 67
REMARK SMILES IDX 39 68 42 69 36 70 37 71 40 72 38 73 64 74 65 75 73 76 66 77
REMARK SMILES IDX 67 78 71 79 74 80 68 81 69 82 72 83 70 84 49 85 50 86 58 87
REMARK SMILES IDX 51 88 52 89 56 90 59 91 53 92 54 93 57 94 55 95
REMARK H PARENT 13 7 8 16 20 29 79 48 47 59
REMARK Flexibility Score: inf
ROOT
ATOM      1  C   UNL A   1      33.225  30.580  26.981  1.00  0.00     0.002 C 
ENDROOT
BRANCH   1   2
ATOM      2  C   UNL A   1      31.973  29.731  26.913  1.00  0.00     0.021 C 
BRANCH   2   3
ATOM      3  C   UNL A   1      32.187  28.328  27.420  1.00  0.00     0.116 C 
BRANCH   3   4
ATOM      4  N   UNL A   1      31.030  27.247  26.951  1.00  0.00    -0.356 N 
ATOM      5  C   UNL A   1      30.577  26.160  25.366  1.00  0.00     0.222 C 
ATOM      6  O   UNL A   1      29.858  25.131  25.249  1.00  0.00    -0.275 OA
ATOM      7  H   UNL A   1      30.375  27.103  27.672  1.00  0.00     0.163 HD
BRANCH   5   8
ATOM      8  C   UNL A   1      31.190  26.570  23.617  1.00  0.00     0.128 C 
BRANCH   8   9
ATOM      9  C   UNL A   1      32.767  27.019  23.217  1.00  0.00     0.049 C 
ATOM     10  C   UNL A   1      33.920  26.523  24.158  1.00  0.00     0.029 C 
ATOM     11  C   UNL A   1      33.698  28.440  23.267  1.00  0.00     0.029 C 
ATOM     12  C   UNL A   1      34.188  27.990  24.623  1.00  0.00     0.005 C 
BRANCH   9  13
ATOM     13  N   UNL A   1      32.845  26.770  21.787  1.00  0.00    -0.346 N 
ATOM     14  C   UNL A   1      32.919  25.446  21.464  1.00  0.00     0.251 C 
ATOM     15  O   UNL A   1      32.824  25.015  20.327  1.00  0.00    -0.269 OA
ATOM     16  H   UNL A   1      32.843  27.490  21.115  1.00  0.00     0.164 HD
BRANCH  14  17
ATOM     17  C   UNL A   1      33.333  24.595  22.629  1.00  0.00     0.039 A 
ATOM     18  C   UNL A   1      33.800  20.674  25.790  1.00  0.00     0.044 C 
ATOM     19  C   UNL A   1      33.774  21.532  24.549  1.00  0.00    -0.051 A 
ATOM     20  C   UNL A   1      32.136  22.006  23.949  1.00  0.00     0.004 A 
ATOM     21  C   UNL A   1      35.241  22.494  24.154  1.00  0.00     0.004 A 
ATOM     22  C   UNL A   1      31.919  23.514  23.002  1.00  0.00     0.014 A 
ATOM     23  C   UNL A   1      35.061  24.059  23.218  1.00  0.00     0.014 A 
ENDBRANCH  14  17
ENDBRANCH   9  13
ENDBRANCH   8   9
ENDBRANCH   5   8
ENDBRANCH   3   4
ENDBRANCH   2   3
ENDBRANCH   1   2
BRANCH   1  24
ATOM     24  C   UNL A   1      34.470  29.874  27.547  1.00  0.00     0.002 C 
BRANCH  24  25
ATOM     25  C   UNL A   1      35.669  30.749  27.943  1.00  0.00     0.021 C 
BRANCH  25  26
ATOM     26  C   UNL A   1      35.669  31.134  29.393  1.00  0.00     0.116 C 
BRANCH  26  27
ATOM     27  N   UNL A   1      34.858  32.306  29.610  1.00  0.00    -0.352 N 
ATOM     28  C   UNL A   1      34.833  33.137  30.705  1.00  0.00     0.251 C 
ATOM     29  H   UNL A   1      34.242  32.542  28.879  1.00  0.00     0.163 HD
ATOM     30  O   UNL A   1      33.824  33.788  30.949  1.00  0.00    -0.269 OA
BRANCH  28  31
ATOM     31  C   UNL A   1      36.117  33.450  31.389  1.00  0.00     0.039 A 
ATOM     32  C   UNL A   1      37.076  33.962  30.504  1.00  0.00     0.014 A 
ATOM     33  C   UNL A   1      36.507  32.687  32.481  1.00  0.00     0.014 A 
ATOM     34  C   UNL A   1      38.338  33.404  30.493  1.00  0.00     0.010 A 
ATOM     35  C   UNL A   1      37.663  31.974  32.348  1.00  0.00     0.010 A 
ATOM     36  C   UNL A   1      38.551  32.319  31.329  1.00  0.00    -0.014 A 
BRANCH  36  37
ATOM     37  C   UNL A   1      39.793  31.602  31.424  1.00  0.00     0.031 A 
ATOM     38  C   UNL A   1      39.823  30.390  30.584  1.00  0.00     0.074 A 
ATOM     39  C   UNL A   1      40.816  32.230  32.042  1.00  0.00     0.049 A 
ATOM     40  N   UNL A   1      40.641  29.422  30.733  1.00  0.00    -0.248 NA
ATOM     41  C   UNL A   1      38.853  30.132  29.510  1.00  0.00     0.031 C 
ATOM     42  C   UNL A   1      42.244  31.952  31.990  1.00  0.00     0.029 A 
ATOM     43  N   UNL A   1      40.708  33.228  33.032  1.00  0.00    -0.354 N 
ATOM     44  C   UNL A   1      40.560  28.637  29.599  1.00  0.00     0.074 A 
ATOM     45  C   UNL A   1      39.343  29.025  28.949  1.00  0.00     0.031 C 
ATOM     46  C   UNL A   1      42.826  32.461  33.093  1.00  0.00     0.029 A 
ATOM     47  C   UNL A   1      41.762  32.975  33.942  1.00  0.00     0.049 A 
ATOM     48  H   UNL A   1      40.039  33.949  33.079  1.00  0.00     0.167 HD
ATOM     49  C   UNL A   1      41.654  27.886  29.290  1.00  0.00     0.037 A 
ATOM     50  C   UNL A   1      41.470  32.511  35.196  1.00  0.00     0.037 A 
ATOM     51  C   UNL A   1      42.642  28.068  30.351  1.00  0.00     0.049 A 
ATOM     52  C   UNL A   1      41.927  31.080  35.352  1.00  0.00     0.074 A 
ATOM     53  C   UNL A   1      43.700  28.953  30.477  1.00  0.00     0.029 A 
ATOM     54  N   UNL A   1      42.325  27.634  31.631  1.00  0.00    -0.354 N 
ATOM     55  N   UNL A   1      41.982  30.224  34.363  1.00  0.00    -0.248 NA
ATOM     56  C   UNL A   1      42.462  30.543  36.599  1.00  0.00     0.031 C 
ATOM     57  C   UNL A   1      43.963  29.107  31.866  1.00  0.00     0.029 A 
ATOM     58  C   UNL A   1      43.069  28.317  32.572  1.00  0.00     0.049 A 
ATOM     59  H   UNL A   1      41.661  26.938  31.838  1.00  0.00     0.167 HD
ATOM     60  C   UNL A   1      42.601  29.083  34.797  1.00  0.00     0.074 A 
ATOM     61  C   UNL A   1      42.864  29.324  36.205  1.00  0.00     0.031 C 
ATOM     62  C   UNL A   1      42.898  28.027  33.984  1.00  0.00     0.037 A 
BRANCH  49  63
ATOM     63  C   UNL A   1      41.987  27.220  27.975  1.00  0.00     0.064 A 
ATOM     64  C   UNL A   1      42.220  25.824  27.953  1.00  0.00     0.173 A 
ATOM     65  C   UNL A   1      42.129  27.854  26.727  1.00  0.00     0.173 A 
ATOM     66  F   UNL A   1      42.078  25.072  29.054  1.00  0.00    -0.203 F 
ATOM     67  C   UNL A   1      42.610  25.138  26.802  1.00  0.00     0.198 A 
ATOM     68  C   UNL A   1      42.527  27.166  25.573  1.00  0.00     0.198 A 
ATOM     69  F   UNL A   1      41.865  29.152  26.555  1.00  0.00    -0.203 F 
ATOM     70  F   UNL A   1      42.831  23.818  26.862  1.00  0.00    -0.200 F 
ATOM     71  C   UNL A   1      42.772  25.810  25.612  1.00  0.00     0.200 A 
ATOM     72  F   UNL A   1      42.667  27.834  24.418  1.00  0.00    -0.200 F 
ATOM     73  F   UNL A   1      43.148  25.153  24.507  1.00  0.00    -0.200 F 
ENDBRANCH  49  63
BRANCH  50  74
ATOM     74  C   UNL A   1      40.214  33.132  35.720  1.00  0.00     0.064 A 
ATOM     75  C   UNL A   1      39.141  32.243  35.954  1.00  0.00     0.173 A 
ATOM     76  C   UNL A   1      40.231  34.322  36.459  1.00  0.00     0.173 A 
ATOM     77  F   UNL A   1      39.045  31.111  35.236  1.00  0.00    -0.203 F 
ATOM     78  C   UNL A   1      38.283  32.415  37.038  1.00  0.00     0.198 A 
ATOM     79  C   UNL A   1      39.332  34.514  37.514  1.00  0.00     0.198 A 
ATOM     80  F   UNL A   1      41.199  35.230  36.264  1.00  0.00    -0.203 F 
ATOM     81  F   UNL A   1      37.408  31.450  37.358  1.00  0.00    -0.200 F 
ATOM     82  C   UNL A   1      38.412  33.529  37.847  1.00  0.00     0.200 A 
ATOM     83  F   UNL A   1      39.421  35.616  38.274  1.00  0.00    -0.200 F 
ATOM     84  F   UNL A   1      37.679  33.629  38.965  1.00  0.00    -0.200 F 
ENDBRANCH  50  74
BRANCH  62  85
ATOM     85  C   UNL A   1      43.150  26.622  34.467  1.00  0.00     0.064 A 
ATOM     86  C   UNL A   1      42.151  25.818  35.039  1.00  0.00     0.173 A 
ATOM     87  C   UNL A   1      44.379  25.968  34.201  1.00  0.00     0.173 A 
ATOM     88  F   UNL A   1      40.896  26.261  35.192  1.00  0.00    -0.203 F 
ATOM     89  C   UNL A   1      42.395  24.499  35.418  1.00  0.00     0.198 A 
ATOM     90  C   UNL A   1      44.586  24.624  34.493  1.00  0.00     0.198 A 
ATOM     91  F   UNL A   1      45.408  26.598  33.615  1.00  0.00    -0.203 F 
ATOM     92  F   UNL A   1      41.433  23.804  36.037  1.00  0.00    -0.200 F 
ATOM     93  C   UNL A   1      43.606  23.899  35.135  1.00  0.00     0.200 A 
ATOM     94  F   UNL A   1      45.734  24.034  34.128  1.00  0.00    -0.200 F 
ATOM     95  F   UNL A   1      43.820  22.618  35.459  1.00  0.00    -0.200 F 
ENDBRANCH  62  85
ENDBRANCH  36  37
ENDBRANCH  28  31
ENDBRANCH  26  27
ENDBRANCH  25  26
ENDBRANCH  24  25
ENDBRANCH   1  24
TORSDOF 16
ENDMDL
MODEL 3
REMARK VINA RESULT:     -12.7      4.008      9.956
REMARK SMILES Cc1ccc(C(=O)NC2(CC(=O)NCCCCCCNC(=O)c3ccc(-c4c5nc(c(-c6c(F)c(F)c(F)c(F)c6F)c6ccc([nH]6)c(-c6c(F)c(F)c(F)c(F)c6F)c6nc(c(-c7c(F)c(F)c(F)c(F)c7F)c7ccc4[nH]7)C=C6)C=C5)cc3)CCC2)cc1
REMARK SMILES IDX 16 1 15 2 14 3 13 4 11 5 12 6 10 8 9 9 86 10 88 11 87 12
REMARK SMILES IDX 8 13 6 14 7 15 5 17 1 18 2 19 3 20 90 21 4 22 89 23 17 24
REMARK SMILES IDX 18 25 19 26 20 27 21 28 22 30 23 31 24 32 85 33 25 34 84 35
REMARK SMILES IDX 26 36 27 37 28 38 78 39 29 40 83 41 77 42 79 43 30 44 82 45
REMARK SMILES IDX 76 46 75 47 31 49 63 50 43 51 62 52 44 53 47 54 61 55 80 56
REMARK SMILES IDX 45 57 46 58 60 60 81 61 48 62 32 63 33 64 41 65 34 66 35 67
REMARK SMILES IDX 39 68 42 69 36 70 37 71 40 72 38 73 64 74 65 75 73 76 66 77
REMARK SMILES IDX 67 78 71 79 74 80 68 81 69 82 72 83 70 84 49 85 50 86 58 87
REMARK SMILES IDX 51 88 52 89 56 90 59 91 53 92 54 93 57 94 55 95
REMARK H PARENT 13 7 8 16 20 29 79 48 47 59
REMARK Flexibility Score: inf
ROOT
ATOM      1  C   UNL A   1      32.517  28.143  27.378  1.00  0.00     0.002 C 
ENDROOT
BRANCH   1   2
ATOM      2  C   UNL A   1      32.687  27.022  26.375  1.00  0.00     0.021 C 
BRANCH   2   3
ATOM      3  C   UNL A   1      31.449  26.175  26.226  1.00  0.00     0.116 C 
BRANCH   3   4
ATOM      4  N   UNL A   1      31.485  24.758  27.072  1.00  0.00    -0.356 N 
ATOM      5  C   UNL A   1      32.719  23.246  27.375  1.00  0.00     0.222 C 
ATOM      6  O   UNL A   1      32.761  22.388  28.298  1.00  0.00    -0.275 OA
ATOM      7  H   UNL A   1      30.646  24.628  27.571  1.00  0.00     0.163 HD
BRANCH   5   8
ATOM      8  C   UNL A   1      34.132  22.806  26.187  1.00  0.00     0.128 C 
BRANCH   8   9
ATOM      9  C   UNL A   1      34.063  21.625  24.984  1.00  0.00     0.049 C 
ATOM     10  C   UNL A   1      32.822  21.643  24.024  1.00  0.00     0.029 C 
ATOM     11  C   UNL A   1      33.760  19.954  24.909  1.00  0.00     0.029 C 
ATOM     12  C   UNL A   1      32.315  20.298  24.632  1.00  0.00     0.005 C 
BRANCH   9  13
ATOM     13  N   UNL A   1      35.406  21.617  24.429  1.00  0.00    -0.346 N 
ATOM     14  C   UNL A   1      35.713  22.742  23.721  1.00  0.00     0.251 C 
ATOM     15  O   UNL A   1      36.832  23.011  23.318  1.00  0.00    -0.269 OA
ATOM     16  H   UNL A   1      36.035  20.870  24.553  1.00  0.00     0.164 HD
BRANCH  14  17
ATOM     17  C   UNL A   1      34.491  23.515  23.316  1.00  0.00     0.039 A 
ATOM     18  C   UNL A   1      31.420  27.326  22.038  1.00  0.00     0.044 C 
ATOM     19  C   UNL A   1      32.586  26.370  22.098  1.00  0.00    -0.051 A 
ATOM     20  C   UNL A   1      33.682  26.545  23.524  1.00  0.00     0.004 A 
ATOM     21  C   UNL A   1      32.461  24.825  21.184  1.00  0.00     0.004 A 
ATOM     22  C   UNL A   1      34.621  25.139  24.124  1.00  0.00     0.014 A 
ATOM     23  C   UNL A   1      33.378  23.355  21.782  1.00  0.00     0.014 A 
ENDBRANCH  14  17
ENDBRANCH   9  13
ENDBRANCH   8   9
ENDBRANCH   5   8
ENDBRANCH   3   4
ENDBRANCH   2   3
ENDBRANCH   1   2
BRANCH   1  24
ATOM     24  C   UNL A   1      33.520  29.303  27.247  1.00  0.00     0.002 C 
BRANCH  24  25
ATOM     25  C   UNL A   1      35.014  28.975  27.394  1.00  0.00     0.021 C 
BRANCH  25  26
ATOM     26  C   UNL A   1      35.851  30.169  27.748  1.00  0.00     0.116 C 
BRANCH  26  27
ATOM     27  N   UNL A   1      35.053  31.370  27.745  1.00  0.00    -0.352 N 
ATOM     28  C   UNL A   1      34.874  32.278  28.761  1.00  0.00     0.251 C 
ATOM     29  H   UNL A   1      34.574  31.564  26.907  1.00  0.00     0.163 HD
ATOM     30  O   UNL A   1      33.860  32.966  28.789  1.00  0.00    -0.269 OA
BRANCH  28  31
ATOM     31  C   UNL A   1      36.036  32.614  29.627  1.00  0.00     0.039 A 
ATOM     32  C   UNL A   1      37.070  33.231  28.907  1.00  0.00     0.014 A 
ATOM     33  C   UNL A   1      36.326  31.806  30.718  1.00  0.00     0.014 A 
ATOM     34  C   UNL A   1      38.354  32.742  29.034  1.00  0.00     0.010 A 
ATOM     35  C   UNL A   1      37.531  31.164  30.700  1.00  0.00     0.010 A 
ATOM     36  C   UNL A   1      38.522  31.620  29.830  1.00  0.00    -0.014 A 
BRANCH  36  37
ATOM     37  C   UNL A   1      39.781  30.963  30.050  1.00  0.00     0.031 A 
ATOM     38  C   UNL A   1      39.829  29.603  29.482  1.00  0.00     0.074 A 
ATOM     39  C   UNL A   1      40.797  31.729  30.504  1.00  0.00     0.049 A 
ATOM     40  N   UNL A   1      40.671  28.705  29.815  1.00  0.00    -0.248 NA
ATOM     41  C   UNL A   1      38.850  29.106  28.504  1.00  0.00     0.031 C 
ATOM     42  C   UNL A   1      42.231  31.475  30.484  1.00  0.00     0.029 A 
ATOM     43  N   UNL A   1      40.680  32.909  31.264  1.00  0.00    -0.354 N 
ATOM     44  C   UNL A   1      40.594  27.698  28.873  1.00  0.00     0.074 A 
ATOM     45  C   UNL A   1      39.358  27.916  28.179  1.00  0.00     0.031 C 
ATOM     46  C   UNL A   1      42.817  32.216  31.445  1.00  0.00     0.029 A 
ATOM     47  C   UNL A   1      41.752  32.875  32.187  1.00  0.00     0.049 A 
ATOM     48  H   UNL A   1      39.994  33.610  31.172  1.00  0.00     0.167 HD
ATOM     49  C   UNL A   1      41.701  26.921  28.707  1.00  0.00     0.037 A 
ATOM     50  C   UNL A   1      41.489  32.678  33.515  1.00  0.00     0.037 A 
ATOM     51  C   UNL A   1      42.699  27.342  29.688  1.00  0.00     0.049 A 
ATOM     52  C   UNL A   1      41.982  31.321  33.960  1.00  0.00     0.074 A 
ATOM     53  C   UNL A   1      43.737  28.255  29.606  1.00  0.00     0.029 A 
ATOM     54  N   UNL A   1      42.410  27.181  31.036  1.00  0.00    -0.354 N 
ATOM     55  N   UNL A   1      42.044  30.279  33.171  1.00  0.00    -0.248 NA
ATOM     56  C   UNL A   1      42.548  31.070  35.281  1.00  0.00     0.031 C 
ATOM     57  C   UNL A   1      44.015  28.703  30.926  1.00  0.00     0.029 A 
ATOM     58  C   UNL A   1      43.151  28.061  31.799  1.00  0.00     0.049 A 
ATOM     59  H   UNL A   1      41.767  26.529  31.397  1.00  0.00     0.167 HD
ATOM     60  C   UNL A   1      42.696  29.267  33.823  1.00  0.00     0.074 A 
ATOM     61  C   UNL A   1      42.973  29.803  35.143  1.00  0.00     0.031 C 
ATOM     62  C   UNL A   1      43.007  28.070  33.243  1.00  0.00     0.037 A 
BRANCH  49  63
ATOM     63  C   UNL A   1      42.031  26.002  27.555  1.00  0.00     0.064 A 
ATOM     64  C   UNL A   1      41.355  24.763  27.450  1.00  0.00     0.173 A 
ATOM     65  C   UNL A   1      42.992  26.227  26.553  1.00  0.00     0.173 A 
ATOM     66  F   UNL A   1      40.378  24.423  28.304  1.00  0.00    -0.203 F 
ATOM     67  C   UNL A   1      41.650  23.817  26.468  1.00  0.00     0.198 A 
ATOM     68  C   UNL A   1      43.293  25.274  25.570  1.00  0.00     0.198 A 
ATOM     69  F   UNL A   1      43.663  27.377  26.456  1.00  0.00    -0.203 F 
ATOM     70  F   UNL A   1      40.979  22.657  26.443  1.00  0.00    -0.200 F 
ATOM     71  C   UNL A   1      42.626  24.068  25.530  1.00  0.00     0.200 A 
ATOM     72  F   UNL A   1      44.238  25.540  24.655  1.00  0.00    -0.200 F 
ATOM     73  F   UNL A   1      42.911  23.161  24.587  1.00  0.00    -0.200 F 
ENDBRANCH  49  63
BRANCH  50  74
ATOM     74  C   UNL A   1      40.226  33.369  33.922  1.00  0.00     0.064 A 
ATOM     75  C   UNL A   1      39.126  32.527  34.196  1.00  0.00     0.173 A 
ATOM     76  C   UNL A   1      40.238  34.627  34.539  1.00  0.00     0.173 A 
ATOM     77  F   UNL A   1      39.035  31.331  33.591  1.00  0.00    -0.203 F 
ATOM     78  C   UNL A   1      38.228  32.820  35.220  1.00  0.00     0.198 A 
ATOM     79  C   UNL A   1      39.300  34.938  35.531  1.00  0.00     0.198 A 
ATOM     80  F   UNL A   1      41.231  35.494  34.296  1.00  0.00    -0.203 F 
ATOM     81  F   UNL A   1      37.321  31.907  35.597  1.00  0.00    -0.200 F 
ATOM     82  C   UNL A   1      38.347  34.007  35.920  1.00  0.00     0.200 A 
ATOM     83  F   UNL A   1      39.381  36.109  36.181  1.00  0.00    -0.200 F 
ATOM     84  F   UNL A   1      37.572  34.231  36.990  1.00  0.00    -0.200 F 
ENDBRANCH  50  74
BRANCH  62  85
ATOM     85  C   UNL A   1      43.299  26.803  34.005  1.00  0.00     0.064 A 
ATOM     86  C   UNL A   1      42.311  26.070  34.680  1.00  0.00     0.173 A 
ATOM     87  C   UNL A   1      44.571  26.182  33.928  1.00  0.00     0.173 A 
ATOM     88  F   UNL A   1      41.029  26.462  34.688  1.00  0.00    -0.203 F 
ATOM     89  C   UNL A   1      42.597  24.867  35.324  1.00  0.00     0.198 A 
ATOM     90  C   UNL A   1      44.826  24.935  34.488  1.00  0.00     0.198 A 
ATOM     91  F   UNL A   1      45.599  26.743  33.275  1.00  0.00    -0.203 F 
ATOM     92  F   UNL A   1      41.636  24.251  36.025  1.00  0.00    -0.200 F 
ATOM     93  C   UNL A   1      43.849  24.293  35.218  1.00  0.00     0.200 A 
ATOM     94  F   UNL A   1      46.018  24.352  34.298  1.00  0.00    -0.200 F 
ATOM     95  F   UNL A   1      44.105  23.115  35.797  1.00  0.00    -0.200 F 
ENDBRANCH  62  85
ENDBRANCH  36  37
ENDBRANCH  28  31
ENDBRANCH  26  27
ENDBRANCH  25  26
ENDBRANCH  24  25
ENDBRANCH   1  24
TORSDOF 16
ENDMDL
