MODEL 1
REMARK VINA RESULT:      -9.3      0.000      0.000
REMARK SMILES C[C@@H](C(=O)NCCCCCCNC(=O)c1ccc(-c2c3nc(c(-c4c(F)c(F)c(F)c(F)c4F)c4ccc([nH]4)c(-c4c(F)c(F)c(F)c(F)c4F)c4nc(c(-c5c(F)c(F)c(F)c(F)c5F)c5ccc2[nH]5)C=C4)C=C3)cc1)c1ccc(-c2cccc(OC(=O)NC3CC3)c2)c(F)c1
REMARK SMILES IDX 7 1 6 2 5 3 3 4 4 5 2 7 1 8 78 9 79 10 97 11 80 12 95 13
REMARK SMILES IDX 81 14 96 15 82 16 83 17 94 18 84 19 86 20 85 21 87 22 88 23
REMARK SMILES IDX 89 24 90 25 91 27 92 28 93 29 8 30 9 31 10 32 11 33 12 34
REMARK SMILES IDX 13 35 14 37 15 38 16 39 77 40 17 41 76 42 18 43 19 44 20 45
REMARK SMILES IDX 70 46 21 47 75 48 69 49 71 50 22 51 74 52 68 53 67 54 23 56
REMARK SMILES IDX 55 57 35 58 54 59 36 60 39 61 53 62 72 63 37 64 38 65 52 67
REMARK SMILES IDX 73 68 40 69 24 70 25 71 33 72 26 73 27 74 31 75 34 76 28 77
REMARK SMILES IDX 29 78 32 79 30 80 56 81 57 82 65 83 58 84 59 85 63 86 66 87
REMARK SMILES IDX 60 88 61 89 64 90 62 91 41 92 42 93 50 94 43 95 44 96 48 97
REMARK SMILES IDX 51 98 45 99 46 100 49 101 47 102
REMARK H PARENT 5 6 90 26 12 36 71 55 39 66
REMARK Flexibility Score: inf
ROOT
ATOM      1  C   UNL A   1      44.899  23.526  27.652  1.00  0.00     0.021 C 
ENDROOT
BRANCH   1   2
ATOM      2  C   UNL A   1      45.562  24.386  28.733  1.00  0.00     0.116 C 
BRANCH   2   3
ATOM      3  N   UNL A   1      46.927  24.676  28.350  1.00  0.00    -0.356 N 
ATOM      4  C   UNL A   1      47.410  24.976  27.109  1.00  0.00     0.227 C 
ATOM      5  O   UNL A   1      48.604  24.748  26.908  1.00  0.00    -0.274 OA
ATOM      6  H   UNL A   1      47.591  24.653  29.075  1.00  0.00     0.163 HD
BRANCH   4   7
ATOM      7  C   UNL A   1      46.465  25.605  26.069  1.00  0.00     0.105 C 
ATOM      8  C   UNL A   1      47.127  25.554  24.683  1.00  0.00     0.023 C 
BRANCH   7   9
ATOM      9  C   UNL A   1      45.999  27.017  26.434  1.00  0.00    -0.033 A 
ATOM     10  C   UNL A   1      46.916  28.054  26.677  1.00  0.00     0.005 A 
ATOM     11  C   UNL A   1      44.635  27.311  26.581  1.00  0.00     0.044 A 
ATOM     12  C   UNL A   1      46.487  29.355  26.958  1.00  0.00     0.012 A 
ATOM     13  C   UNL A   1      44.213  28.602  26.870  1.00  0.00     0.131 A 
ATOM     14  C   UNL A   1      45.122  29.648  27.052  1.00  0.00     0.018 A 
ATOM     15  F   UNL A   1      42.893  28.820  26.980  1.00  0.00    -0.206 F 
BRANCH  14  16
ATOM     16  C   UNL A   1      44.662  30.982  27.427  1.00  0.00    -0.012 A 
ATOM     17  C   UNL A   1      44.141  31.267  28.697  1.00  0.00     0.009 A 
ATOM     18  C   UNL A   1      44.741  32.011  26.478  1.00  0.00     0.056 A 
ATOM     19  C   UNL A   1      43.720  32.560  29.013  1.00  0.00     0.004 A 
ATOM     20  C   UNL A   1      44.322  33.295  26.792  1.00  0.00     0.133 A 
ATOM     21  C   UNL A   1      43.810  33.576  28.060  1.00  0.00     0.047 A 
BRANCH  20  22
ATOM     22  O   UNL A   1      44.371  34.379  25.885  1.00  0.00    -0.410 OA
BRANCH  22  23
ATOM     23  C   UNL A   1      45.001  34.380  24.644  1.00  0.00     0.412 C 
ATOM     24  O   UNL A   1      44.526  33.991  23.580  1.00  0.00    -0.224 OA
ATOM     25  N   UNL A   1      46.282  34.863  24.672  1.00  0.00    -0.318 N 
ATOM     26  H   UNL A   1      46.758  34.839  23.811  1.00  0.00     0.167 HD
BRANCH  25  27
ATOM     27  C   UNL A   1      47.025  35.397  25.762  1.00  0.00     0.085 C 
ATOM     28  C   UNL A   1      47.765  34.622  26.815  1.00  0.00     0.027 C 
ATOM     29  C   UNL A   1      48.528  35.293  25.717  1.00  0.00     0.027 C 
ENDBRANCH  25  27
ENDBRANCH  22  23
ENDBRANCH  20  22
ENDBRANCH  14  16
ENDBRANCH   7   9
ENDBRANCH   4   7
ENDBRANCH   2   3
ENDBRANCH   1   2
BRANCH   1  30
ATOM     30  C   UNL A   1      43.380  23.713  27.562  1.00  0.00     0.002 C 
BRANCH  30  31
ATOM     31  C   UNL A   1      42.577  22.824  28.514  1.00  0.00     0.002 C 
BRANCH  31  32
ATOM     32  C   UNL A   1      41.416  22.080  27.850  1.00  0.00     0.021 C 
BRANCH  32  33
ATOM     33  C   UNL A   1      41.406  22.168  26.328  1.00  0.00     0.116 C 
BRANCH  33  34
ATOM     34  N   UNL A   1      40.055  22.272  25.804  1.00  0.00    -0.352 N 
ATOM     35  C   UNL A   1      39.072  23.181  26.096  1.00  0.00     0.251 C 
ATOM     36  H   UNL A   1      39.808  21.587  25.142  1.00  0.00     0.163 HD
ATOM     37  O   UNL A   1      37.917  22.973  25.737  1.00  0.00    -0.269 OA
BRANCH  35  38
ATOM     38  C   UNL A   1      39.395  24.405  26.860  1.00  0.00     0.039 A 
ATOM     39  C   UNL A   1      38.908  24.526  28.162  1.00  0.00     0.014 A 
ATOM     40  C   UNL A   1      40.149  25.438  26.293  1.00  0.00     0.014 A 
ATOM     41  C   UNL A   1      39.220  25.659  28.913  1.00  0.00     0.010 A 
ATOM     42  C   UNL A   1      40.525  26.532  27.069  1.00  0.00     0.010 A 
ATOM     43  C   UNL A   1      40.061  26.655  28.387  1.00  0.00    -0.014 A 
BRANCH  43  44
ATOM     44  C   UNL A   1      40.470  27.812  29.224  1.00  0.00     0.031 A 
ATOM     45  C   UNL A   1      41.838  27.868  29.844  1.00  0.00     0.074 A 
ATOM     46  C   UNL A   1      39.588  28.809  29.440  1.00  0.00     0.049 A 
ATOM     47  N   UNL A   1      42.366  28.802  30.597  1.00  0.00    -0.248 NA
ATOM     48  C   UNL A   1      42.725  26.718  29.607  1.00  0.00     0.031 C 
ATOM     49  C   UNL A   1      38.213  28.843  28.937  1.00  0.00     0.029 A 
ATOM     50  N   UNL A   1      39.715  29.987  30.134  1.00  0.00    -0.354 N 
ATOM     51  C   UNL A   1      43.643  28.358  30.913  1.00  0.00     0.074 A 
ATOM     52  C   UNL A   1      43.789  27.042  30.328  1.00  0.00     0.031 C 
ATOM     53  C   UNL A   1      37.635  29.995  29.312  1.00  0.00     0.029 A 
ATOM     54  C   UNL A   1      38.581  30.763  30.114  1.00  0.00     0.049 A 
ATOM     55  H   UNL A   1      40.540  30.250  30.600  1.00  0.00     0.167 HD
ATOM     56  C   UNL A   1      44.616  29.001  31.601  1.00  0.00     0.037 A 
ATOM     57  C   UNL A   1      38.331  31.955  30.686  1.00  0.00     0.037 A 
ATOM     58  C   UNL A   1      44.469  30.314  32.178  1.00  0.00     0.049 A 
ATOM     59  C   UNL A   1      39.425  32.635  31.463  1.00  0.00     0.074 A 
ATOM     60  C   UNL A   1      45.407  31.064  32.866  1.00  0.00     0.029 A 
ATOM     61  N   UNL A   1      43.307  31.071  32.135  1.00  0.00    -0.354 N 
ATOM     62  N   UNL A   1      40.652  32.235  31.694  1.00  0.00    -0.248 NA
ATOM     63  C   UNL A   1      39.102  33.942  32.053  1.00  0.00     0.031 C 
ATOM     64  C   UNL A   1      44.798  32.251  33.284  1.00  0.00     0.029 A 
ATOM     65  C   UNL A   1      43.500  32.270  32.804  1.00  0.00     0.049 A 
ATOM     66  H   UNL A   1      42.471  30.796  31.695  1.00  0.00     0.167 HD
ATOM     67  C   UNL A   1      41.253  33.248  32.428  1.00  0.00     0.074 A 
ATOM     68  C   UNL A   1      40.266  34.296  32.577  1.00  0.00     0.031 C 
ATOM     69  C   UNL A   1      42.506  33.304  32.943  1.00  0.00     0.037 A 
BRANCH  56  70
ATOM     70  C   UNL A   1      45.940  28.308  31.758  1.00  0.00     0.064 A 
ATOM     71  C   UNL A   1      47.032  28.623  30.935  1.00  0.00     0.173 A 
ATOM     72  C   UNL A   1      46.141  27.372  32.784  1.00  0.00     0.173 A 
ATOM     73  F   UNL A   1      46.891  29.503  29.933  1.00  0.00    -0.203 F 
ATOM     74  C   UNL A   1      48.271  28.014  31.122  1.00  0.00     0.198 A 
ATOM     75  C   UNL A   1      47.389  26.788  32.988  1.00  0.00     0.198 A 
ATOM     76  F   UNL A   1      45.132  27.039  33.603  1.00  0.00    -0.203 F 
ATOM     77  F   UNL A   1      49.289  28.304  30.300  1.00  0.00    -0.200 F 
ATOM     78  C   UNL A   1      48.451  27.107  32.155  1.00  0.00     0.200 A 
ATOM     79  F   UNL A   1      47.565  25.924  33.997  1.00  0.00    -0.200 F 
ATOM     80  F   UNL A   1      49.648  26.536  32.346  1.00  0.00    -0.200 F 
ENDBRANCH  56  70
BRANCH  57  81
ATOM     81  C   UNL A   1      36.992  32.589  30.546  1.00  0.00     0.064 A 
ATOM     82  C   UNL A   1      36.679  33.397  29.443  1.00  0.00     0.173 A 
ATOM     83  C   UNL A   1      36.009  32.434  31.536  1.00  0.00     0.173 A 
ATOM     84  F   UNL A   1      37.590  33.591  28.478  1.00  0.00    -0.203 F 
ATOM     85  C   UNL A   1      35.456  34.056  29.356  1.00  0.00     0.198 A 
ATOM     86  C   UNL A   1      34.771  33.064  31.429  1.00  0.00     0.198 A 
ATOM     87  F   UNL A   1      36.251  31.666  32.609  1.00  0.00    -0.203 F 
ATOM     88  F   UNL A   1      35.214  34.879  28.326  1.00  0.00    -0.200 F 
ATOM     89  C   UNL A   1      34.502  33.887  30.347  1.00  0.00     0.200 A 
ATOM     90  F   UNL A   1      33.845  32.880  32.380  1.00  0.00    -0.200 F 
ATOM     91  F   UNL A   1      33.327  34.526  30.265  1.00  0.00    -0.200 F 
ENDBRANCH  57  81
BRANCH  69  92
ATOM     92  C   UNL A   1      42.884  34.555  33.687  1.00  0.00     0.064 A 
ATOM     93  C   UNL A   1      43.394  35.682  33.024  1.00  0.00     0.173 A 
ATOM     94  C   UNL A   1      42.729  34.628  35.079  1.00  0.00     0.173 A 
ATOM     95  F   UNL A   1      43.576  35.659  31.694  1.00  0.00    -0.203 F 
ATOM     96  C   UNL A   1      43.777  36.817  33.734  1.00  0.00     0.198 A 
ATOM     97  C   UNL A   1      43.076  35.780  35.781  1.00  0.00     0.198 A 
ATOM     98  F   UNL A   1      42.237  33.584  35.762  1.00  0.00    -0.203 F 
ATOM     99  F   UNL A   1      44.328  37.853  33.086  1.00  0.00    -0.200 F 
ATOM    100  C   UNL A   1      43.613  36.867  35.109  1.00  0.00     0.200 A 
ATOM    101  F   UNL A   1      42.900  35.833  37.108  1.00  0.00    -0.200 F 
ATOM    102  F   UNL A   1      43.982  37.961  35.789  1.00  0.00    -0.200 F 
ENDBRANCH  69  92
ENDBRANCH  43  44
ENDBRANCH  35  38
ENDBRANCH  33  34
ENDBRANCH  32  33
ENDBRANCH  31  32
ENDBRANCH  30  31
ENDBRANCH   1  30
TORSDOF 18
ENDMDL
MODEL 2
REMARK VINA RESULT:      -9.2      5.090     12.107
REMARK SMILES C[C@@H](C(=O)NCCCCCCNC(=O)c1ccc(-c2c3nc(c(-c4c(F)c(F)c(F)c(F)c4F)c4ccc([nH]4)c(-c4c(F)c(F)c(F)c(F)c4F)c4nc(c(-c5c(F)c(F)c(F)c(F)c5F)c5ccc2[nH]5)C=C4)C=C3)cc1)c1ccc(-c2cccc(OC(=O)NC3CC3)c2)c(F)c1
REMARK SMILES IDX 7 1 6 2 5 3 3 4 4 5 2 7 1 8 78 9 79 10 97 11 80 12 95 13
REMARK SMILES IDX 81 14 96 15 82 16 83 17 94 18 84 19 86 20 85 21 87 22 88 23
REMARK SMILES IDX 89 24 90 25 91 27 92 28 93 29 8 30 9 31 10 32 11 33 12 34
REMARK SMILES IDX 13 35 14 37 15 38 16 39 77 40 17 41 76 42 18 43 19 44 20 45
REMARK SMILES IDX 70 46 21 47 75 48 69 49 71 50 22 51 74 52 68 53 67 54 23 56
REMARK SMILES IDX 55 57 35 58 54 59 36 60 39 61 53 62 72 63 37 64 38 65 52 67
REMARK SMILES IDX 73 68 40 69 24 70 25 71 33 72 26 73 27 74 31 75 34 76 28 77
REMARK SMILES IDX 29 78 32 79 30 80 56 81 57 82 65 83 58 84 59 85 63 86 66 87
REMARK SMILES IDX 60 88 61 89 64 90 62 91 41 92 42 93 50 94 43 95 44 96 48 97
REMARK SMILES IDX 51 98 45 99 46 100 49 101 47 102
REMARK H PARENT 5 6 90 26 12 36 71 55 39 66
REMARK Flexibility Score: inf
ROOT
ATOM      1  C   UNL A   1      40.506  28.701  29.815  1.00  0.00     0.021 C 
ENDROOT
BRANCH   1   2
ATOM      2  C   UNL A   1      40.157  30.191  29.745  1.00  0.00     0.116 C 
BRANCH   2   3
ATOM      3  N   UNL A   1      39.040  30.467  30.622  1.00  0.00    -0.356 N 
ATOM      4  C   UNL A   1      38.077  31.425  30.488  1.00  0.00     0.227 C 
ATOM      5  O   UNL A   1      37.506  31.787  31.519  1.00  0.00    -0.274 OA
ATOM      6  H   UNL A   1      38.963  29.890  31.415  1.00  0.00     0.163 HD
BRANCH   4   7
ATOM      7  C   UNL A   1      37.740  31.959  29.084  1.00  0.00     0.105 C 
ATOM      8  C   UNL A   1      37.516  33.477  29.156  1.00  0.00     0.023 C 
BRANCH   7   9
ATOM      9  C   UNL A   1      36.571  31.234  28.414  1.00  0.00    -0.033 A 
ATOM     10  C   UNL A   1      36.707  29.930  27.906  1.00  0.00     0.005 A 
ATOM     11  C   UNL A   1      35.331  31.868  28.244  1.00  0.00     0.044 A 
ATOM     12  C   UNL A   1      35.623  29.250  27.343  1.00  0.00     0.012 A 
ATOM     13  C   UNL A   1      34.259  31.193  27.674  1.00  0.00     0.131 A 
ATOM     14  C   UNL A   1      34.377  29.874  27.225  1.00  0.00     0.018 A 
ATOM     15  F   UNL A   1      33.095  31.851  27.557  1.00  0.00    -0.206 F 
BRANCH  14  16
ATOM     16  C   UNL A   1      33.259  29.207  26.563  1.00  0.00    -0.012 A 
ATOM     17  C   UNL A   1      32.520  28.189  27.182  1.00  0.00     0.009 A 
ATOM     18  C   UNL A   1      32.919  29.599  25.261  1.00  0.00     0.056 A 
ATOM     19  C   UNL A   1      31.454  27.585  26.513  1.00  0.00     0.004 A 
ATOM     20  C   UNL A   1      31.861  28.999  24.597  1.00  0.00     0.133 A 
ATOM     21  C   UNL A   1      31.123  27.989  25.218  1.00  0.00     0.047 A 
BRANCH  20  22
ATOM     22  O   UNL A   1      31.464  29.342  23.283  1.00  0.00    -0.410 OA
BRANCH  22  23
ATOM     23  C   UNL A   1      30.405  28.780  22.575  1.00  0.00     0.412 C 
ATOM     24  O   UNL A   1      30.403  27.696  21.997  1.00  0.00    -0.224 OA
ATOM     25  N   UNL A   1      29.282  29.562  22.541  1.00  0.00    -0.318 N 
ATOM     26  H   UNL A   1      28.534  29.200  22.015  1.00  0.00     0.167 HD
BRANCH  25  27
ATOM     27  C   UNL A   1      29.037  30.822  23.156  1.00  0.00     0.085 C 
ATOM     28  C   UNL A   1      28.298  31.987  22.563  1.00  0.00     0.027 C 
ATOM     29  C   UNL A   1      27.631  31.137  23.598  1.00  0.00     0.027 C 
ENDBRANCH  25  27
ENDBRANCH  22  23
ENDBRANCH  20  22
ENDBRANCH  14  16
ENDBRANCH   7   9
ENDBRANCH   4   7
ENDBRANCH   2   3
ENDBRANCH   1   2
BRANCH   1  30
ATOM     30  C   UNL A   1      39.468  27.794  29.145  1.00  0.00     0.002 C 
BRANCH  30  31
ATOM     31  C   UNL A   1      40.005  26.988  27.960  1.00  0.00     0.002 C 
BRANCH  31  32
ATOM     32  C   UNL A   1      39.390  25.594  27.817  1.00  0.00     0.021 C 
BRANCH  32  33
ATOM     33  C   UNL A   1      39.613  24.950  26.453  1.00  0.00     0.116 C 
BRANCH  33  34
ATOM     34  N   UNL A   1      40.384  23.723  26.557  1.00  0.00    -0.352 N 
ATOM     35  C   UNL A   1      41.737  23.529  26.449  1.00  0.00     0.251 C 
ATOM     36  H   UNL A   1      39.857  22.909  26.729  1.00  0.00     0.163 HD
ATOM     37  O   UNL A   1      42.186  22.393  26.327  1.00  0.00    -0.269 OA
BRANCH  35  38
ATOM     38  C   UNL A   1      42.656  24.686  26.462  1.00  0.00     0.039 A 
ATOM     39  C   UNL A   1      43.213  25.082  27.679  1.00  0.00     0.014 A 
ATOM     40  C   UNL A   1      42.951  25.395  25.292  1.00  0.00     0.014 A 
ATOM     41  C   UNL A   1      44.104  26.155  27.715  1.00  0.00     0.010 A 
ATOM     42  C   UNL A   1      43.900  26.414  25.316  1.00  0.00     0.010 A 
ATOM     43  C   UNL A   1      44.483  26.807  26.530  1.00  0.00    -0.014 A 
BRANCH  43  44
ATOM     44  C   UNL A   1      45.506  27.884  26.560  1.00  0.00     0.031 A 
ATOM     45  C   UNL A   1      45.112  29.312  26.814  1.00  0.00     0.074 A 
ATOM     46  C   UNL A   1      46.797  27.569  26.335  1.00  0.00     0.049 A 
ATOM     47  N   UNL A   1      45.871  30.379  26.881  1.00  0.00    -0.248 NA
ATOM     48  C   UNL A   1      43.679  29.587  26.998  1.00  0.00     0.031 C 
ATOM     49  C   UNL A   1      47.295  26.227  26.023  1.00  0.00     0.029 A 
ATOM     50  N   UNL A   1      47.927  28.348  26.336  1.00  0.00    -0.354 N 
ATOM     51  C   UNL A   1      45.011  31.442  27.123  1.00  0.00     0.074 A 
ATOM     52  C   UNL A   1      43.668  30.907  27.124  1.00  0.00     0.031 C 
ATOM     53  C   UNL A   1      48.631  26.272  25.894  1.00  0.00     0.029 A 
ATOM     54  C   UNL A   1      49.079  27.648  26.073  1.00  0.00     0.049 A 
ATOM     55  H   UNL A   1      47.912  29.317  26.510  1.00  0.00     0.167 HD
ATOM     56  C   UNL A   1      45.318  32.741  27.354  1.00  0.00     0.037 A 
ATOM     57  C   UNL A   1      50.354  28.071  25.979  1.00  0.00     0.037 A 
ATOM     58  C   UNL A   1      46.658  33.271  27.357  1.00  0.00     0.049 A 
ATOM     59  C   UNL A   1      50.660  29.525  26.219  1.00  0.00     0.074 A 
ATOM     60  C   UNL A   1      47.073  34.566  27.611  1.00  0.00     0.029 A 
ATOM     61  N   UNL A   1      47.801  32.531  27.089  1.00  0.00    -0.354 N 
ATOM     62  N   UNL A   1      49.843  30.507  26.518  1.00  0.00    -0.248 NA
ATOM     63  C   UNL A   1      52.069  29.929  26.120  1.00  0.00     0.031 C 
ATOM     64  C   UNL A   1      48.461  34.622  27.448  1.00  0.00     0.029 A 
ATOM     65  C   UNL A   1      48.918  33.350  27.152  1.00  0.00     0.049 A 
ATOM     66  H   UNL A   1      47.816  31.568  26.886  1.00  0.00     0.167 HD
ATOM     67  C   UNL A   1      50.640  31.633  26.667  1.00  0.00     0.074 A 
ATOM     68  C   UNL A   1      52.008  31.207  26.459  1.00  0.00     0.031 C 
ATOM     69  C   UNL A   1      50.274  32.910  26.943  1.00  0.00     0.037 A 
BRANCH  56  70
ATOM     70  C   UNL A   1      44.186  33.687  27.642  1.00  0.00     0.064 A 
ATOM     71  C   UNL A   1      43.584  33.742  28.908  1.00  0.00     0.173 A 
ATOM     72  C   UNL A   1      43.746  34.596  26.667  1.00  0.00     0.173 A 
ATOM     73  F   UNL A   1      43.960  32.889  29.873  1.00  0.00    -0.203 F 
ATOM     74  C   UNL A   1      42.572  34.659  29.183  1.00  0.00     0.198 A 
ATOM     75  C   UNL A   1      42.756  35.532  26.955  1.00  0.00     0.198 A 
ATOM     76  F   UNL A   1      44.292  34.590  25.442  1.00  0.00    -0.203 F 
ATOM     77  F   UNL A   1      41.987  34.668  30.389  1.00  0.00    -0.200 F 
ATOM     78  C   UNL A   1      42.168  35.561  28.210  1.00  0.00     0.200 A 
ATOM     79  F   UNL A   1      42.378  36.413  26.018  1.00  0.00    -0.200 F 
ATOM     80  F   UNL A   1      41.207  36.455  28.482  1.00  0.00    -0.200 F 
ENDBRANCH  56  70
BRANCH  57  81
ATOM     81  C   UNL A   1      51.442  27.112  25.646  1.00  0.00     0.064 A 
ATOM     82  C   UNL A   1      52.125  26.408  26.649  1.00  0.00     0.173 A 
ATOM     83  C   UNL A   1      51.849  26.909  24.319  1.00  0.00     0.173 A 
ATOM     84  F   UNL A   1      51.786  26.580  27.935  1.00  0.00    -0.203 F 
ATOM     85  C   UNL A   1      53.197  25.574  26.342  1.00  0.00     0.198 A 
ATOM     86  C   UNL A   1      52.897  26.045  24.009  1.00  0.00     0.198 A 
ATOM     87  F   UNL A   1      51.225  27.550  23.319  1.00  0.00    -0.203 F 
ATOM     88  F   UNL A   1      53.877  24.972  27.327  1.00  0.00    -0.200 F 
ATOM     89  C   UNL A   1      53.580  25.391  25.022  1.00  0.00     0.200 A 
ATOM     90  F   UNL A   1      53.250  25.856  22.730  1.00  0.00    -0.200 F 
ATOM     91  F   UNL A   1      54.616  24.593  24.727  1.00  0.00    -0.200 F 
ENDBRANCH  57  81
BRANCH  69  92
ATOM     92  C   UNL A   1      51.376  33.926  27.064  1.00  0.00     0.064 A 
ATOM     93  C   UNL A   1      52.032  34.160  28.283  1.00  0.00     0.173 A 
ATOM     94  C   UNL A   1      51.783  34.669  25.947  1.00  0.00     0.173 A 
ATOM     95  F   UNL A   1      51.671  33.486  29.385  1.00  0.00    -0.203 F 
ATOM     96  C   UNL A   1      53.023  35.133  28.386  1.00  0.00     0.198 A 
ATOM     97  C   UNL A   1      52.802  35.614  26.046  1.00  0.00     0.198 A 
ATOM     98  F   UNL A   1      51.198  34.479  24.755  1.00  0.00    -0.203 F 
ATOM     99  F   UNL A   1      53.584  35.389  29.576  1.00  0.00    -0.200 F 
ATOM    100  C   UNL A   1      53.410  35.855  27.268  1.00  0.00     0.200 A 
ATOM    101  F   UNL A   1      53.187  36.298  24.960  1.00  0.00    -0.200 F 
ATOM    102  F   UNL A   1      54.364  36.791  27.370  1.00  0.00    -0.200 F 
ENDBRANCH  69  92
ENDBRANCH  43  44
ENDBRANCH  35  38
ENDBRANCH  33  34
ENDBRANCH  32  33
ENDBRANCH  31  32
ENDBRANCH  30  31
ENDBRANCH   1  30
TORSDOF 18
ENDMDL
MODEL 3
REMARK VINA RESULT:      -9.1      4.953     11.607
REMARK SMILES C[C@@H](C(=O)NCCCCCCNC(=O)c1ccc(-c2c3nc(c(-c4c(F)c(F)c(F)c(F)c4F)c4ccc([nH]4)c(-c4c(F)c(F)c(F)c(F)c4F)c4nc(c(-c5c(F)c(F)c(F)c(F)c5F)c5ccc2[nH]5)C=C4)C=C3)cc1)c1ccc(-c2cccc(OC(=O)NC3CC3)c2)c(F)c1
REMARK SMILES IDX 7 1 6 2 5 3 3 4 4 5 2 7 1 8 78 9 79 10 97 11 80 12 95 13
REMARK SMILES IDX 81 14 96 15 82 16 83 17 94 18 84 19 86 20 85 21 87 22 88 23
REMARK SMILES IDX 89 24 90 25 91 27 92 28 93 29 8 30 9 31 10 32 11 33 12 34
REMARK SMILES IDX 13 35 14 37 15 38 16 39 77 40 17 41 76 42 18 43 19 44 20 45
REMARK SMILES IDX 70 46 21 47 75 48 69 49 71 50 22 51 74 52 68 53 67 54 23 56
REMARK SMILES IDX 55 57 35 58 54 59 36 60 39 61 53 62 72 63 37 64 38 65 52 67
REMARK SMILES IDX 73 68 40 69 24 70 25 71 33 72 26 73 27 74 31 75 34 76 28 77
REMARK SMILES IDX 29 78 32 79 30 80 56 81 57 82 65 83 58 84 59 85 63 86 66 87
REMARK SMILES IDX 60 88 61 89 64 90 62 91 41 92 42 93 50 94 43 95 44 96 48 97
REMARK SMILES IDX 51 98 45 99 46 100 49 101 47 102
REMARK H PARENT 5 6 90 26 12 36 71 55 39 66
REMARK Flexibility Score: inf
ROOT
ATOM      1  C   UNL A   1      33.673  28.585  25.911  1.00  0.00     0.021 C 
ENDROOT
BRANCH   1   2
ATOM      2  C   UNL A   1      33.118  29.327  24.690  1.00  0.00     0.116 C 
BRANCH   2   3
ATOM      3  N   UNL A   1      31.726  29.653  24.916  1.00  0.00    -0.356 N 
ATOM      4  C   UNL A   1      30.721  29.745  23.997  1.00  0.00     0.227 C 
ATOM      5  O   UNL A   1      29.755  30.449  24.299  1.00  0.00    -0.274 OA
ATOM      6  H   UNL A   1      31.472  29.830  25.850  1.00  0.00     0.163 HD
BRANCH   4   7
ATOM      7  C   UNL A   1      30.831  28.952  22.682  1.00  0.00     0.105 C 
ATOM      8  C   UNL A   1      29.558  29.168  21.850  1.00  0.00     0.023 C 
BRANCH   7   9
ATOM      9  C   UNL A   1      31.145  27.467  22.883  1.00  0.00    -0.033 A 
ATOM     10  C   UNL A   1      30.315  26.638  23.658  1.00  0.00     0.005 A 
ATOM     11  C   UNL A   1      32.301  26.894  22.334  1.00  0.00     0.044 A 
ATOM     12  C   UNL A   1      30.575  25.272  23.796  1.00  0.00     0.012 A 
ATOM     13  C   UNL A   1      32.561  25.538  22.482  1.00  0.00     0.131 A 
ATOM     14  C   UNL A   1      31.703  24.700  23.201  1.00  0.00     0.018 A 
ATOM     15  F   UNL A   1      33.676  25.048  21.916  1.00  0.00    -0.206 F 
BRANCH  14  16
ATOM     16  C   UNL A   1      32.032  23.292  23.406  1.00  0.00    -0.012 A 
ATOM     17  C   UNL A   1      31.805  22.317  22.424  1.00  0.00     0.009 A 
ATOM     18  C   UNL A   1      32.592  22.904  24.632  1.00  0.00     0.056 A 
ATOM     19  C   UNL A   1      32.143  20.984  22.662  1.00  0.00     0.004 A 
ATOM     20  C   UNL A   1      32.926  21.580  24.868  1.00  0.00     0.133 A 
ATOM     21  C   UNL A   1      32.704  20.613  23.886  1.00  0.00     0.047 A 
BRANCH  20  22
ATOM     22  O   UNL A   1      33.490  21.119  26.080  1.00  0.00    -0.410 OA
BRANCH  22  23
ATOM     23  C   UNL A   1      34.200  21.889  26.998  1.00  0.00     0.412 C 
ATOM     24  O   UNL A   1      33.749  22.434  28.003  1.00  0.00    -0.224 OA
ATOM     25  N   UNL A   1      35.528  22.029  26.696  1.00  0.00    -0.318 N 
ATOM     26  H   UNL A   1      36.040  22.600  27.313  1.00  0.00     0.167 HD
BRANCH  25  27
ATOM     27  C   UNL A   1      36.277  21.471  25.623  1.00  0.00     0.085 C 
ATOM     28  C   UNL A   1      36.511  22.084  24.272  1.00  0.00     0.027 C 
ATOM     29  C   UNL A   1      37.610  22.088  25.288  1.00  0.00     0.027 C 
ENDBRANCH  25  27
ENDBRANCH  22  23
ENDBRANCH  20  22
ENDBRANCH  14  16
ENDBRANCH   7   9
ENDBRANCH   4   7
ENDBRANCH   2   3
ENDBRANCH   1   2
BRANCH   1  30
ATOM     30  C   UNL A   1      33.298  29.234  27.248  1.00  0.00     0.002 C 
BRANCH  30  31
ATOM     31  C   UNL A   1      33.911  30.617  27.473  1.00  0.00     0.002 C 
BRANCH  31  32
ATOM     32  C   UNL A   1      32.886  31.743  27.626  1.00  0.00     0.021 C 
BRANCH  32  33
ATOM     33  C   UNL A   1      33.332  33.078  27.039  1.00  0.00     0.116 C 
BRANCH  33  34
ATOM     34  N   UNL A   1      32.883  34.198  27.847  1.00  0.00    -0.352 N 
ATOM     35  C   UNL A   1      33.271  34.580  29.104  1.00  0.00     0.251 C 
ATOM     36  H   UNL A   1      32.195  34.766  27.431  1.00  0.00     0.163 HD
ATOM     37  O   UNL A   1      32.614  35.411  29.725  1.00  0.00    -0.269 OA
BRANCH  35  38
ATOM     38  C   UNL A   1      34.473  33.982  29.724  1.00  0.00     0.039 A 
ATOM     39  C   UNL A   1      34.301  32.981  30.681  1.00  0.00     0.014 A 
ATOM     40  C   UNL A   1      35.759  34.418  29.388  1.00  0.00     0.014 A 
ATOM     41  C   UNL A   1      35.418  32.382  31.263  1.00  0.00     0.010 A 
ATOM     42  C   UNL A   1      36.874  33.766  29.910  1.00  0.00     0.010 A 
ATOM     43  C   UNL A   1      36.714  32.743  30.857  1.00  0.00    -0.014 A 
BRANCH  43  44
ATOM     44  C   UNL A   1      37.899  32.035  31.406  1.00  0.00     0.031 A 
ATOM     45  C   UNL A   1      38.436  32.377  32.768  1.00  0.00     0.074 A 
ATOM     46  C   UNL A   1      38.503  31.090  30.659  1.00  0.00     0.049 A 
ATOM     47  N   UNL A   1      39.455  31.857  33.407  1.00  0.00    -0.248 NA
ATOM     48  C   UNL A   1      37.756  33.455  33.503  1.00  0.00     0.031 C 
ATOM     49  C   UNL A   1      38.107  30.708  29.301  1.00  0.00     0.029 A 
ATOM     50  N   UNL A   1      39.574  30.276  30.931  1.00  0.00    -0.354 N 
ATOM     51  C   UNL A   1      39.531  32.536  34.616  1.00  0.00     0.074 A 
ATOM     52  C   UNL A   1      38.499  33.550  34.596  1.00  0.00     0.031 C 
ATOM     53  C   UNL A   1      38.903  29.716  28.872  1.00  0.00     0.029 A 
ATOM     54  C   UNL A   1      39.889  29.418  29.906  1.00  0.00     0.049 A 
ATOM     55  H   UNL A   1      40.068  30.305  31.782  1.00  0.00     0.167 HD
ATOM     56  C   UNL A   1      40.364  32.314  35.660  1.00  0.00     0.037 A 
ATOM     57  C   UNL A   1      40.868  28.500  29.807  1.00  0.00     0.037 A 
ATOM     58  C   UNL A   1      41.388  31.299  35.679  1.00  0.00     0.049 A 
ATOM     59  C   UNL A   1      41.793  28.291  30.976  1.00  0.00     0.074 A 
ATOM     60  C   UNL A   1      42.262  30.975  36.702  1.00  0.00     0.029 A 
ATOM     61  N   UNL A   1      41.676  30.447  34.624  1.00  0.00    -0.354 N 
ATOM     62  N   UNL A   1      41.807  28.892  32.141  1.00  0.00    -0.248 NA
ATOM     63  C   UNL A   1      42.834  27.265  30.820  1.00  0.00     0.031 C 
ATOM     64  C   UNL A   1      43.112  29.962  36.248  1.00  0.00     0.029 A 
ATOM     65  C   UNL A   1      42.729  29.612  34.965  1.00  0.00     0.049 A 
ATOM     66  H   UNL A   1      41.202  30.437  33.761  1.00  0.00     0.167 HD
ATOM     67  C   UNL A   1      42.835  28.302  32.863  1.00  0.00     0.074 A 
ATOM     68  C   UNL A   1      43.400  27.272  32.017  1.00  0.00     0.031 C 
ATOM     69  C   UNL A   1      43.280  28.590  34.111  1.00  0.00     0.037 A 
BRANCH  56  70
ATOM     70  C   UNL A   1      40.199  33.170  36.884  1.00  0.00     0.064 A 
ATOM     71  C   UNL A   1      41.017  34.289  37.109  1.00  0.00     0.173 A 
ATOM     72  C   UNL A   1      39.173  32.914  37.806  1.00  0.00     0.173 A 
ATOM     73  F   UNL A   1      42.020  34.573  36.265  1.00  0.00    -0.203 F 
ATOM     74  C   UNL A   1      40.823  35.108  38.218  1.00  0.00     0.198 A 
ATOM     75  C   UNL A   1      38.962  33.753  38.897  1.00  0.00     0.198 A 
ATOM     76  F   UNL A   1      38.359  31.861  37.636  1.00  0.00    -0.203 F 
ATOM     77  F   UNL A   1      41.640  36.150  38.431  1.00  0.00    -0.200 F 
ATOM     78  C   UNL A   1      39.789  34.847  39.104  1.00  0.00     0.200 A 
ATOM     79  F   UNL A   1      37.952  33.508  39.743  1.00  0.00    -0.200 F 
ATOM     80  F   UNL A   1      39.592  35.647  40.161  1.00  0.00    -0.200 F 
ENDBRANCH  56  70
BRANCH  57  81
ATOM     81  C   UNL A   1      41.029  27.703  28.560  1.00  0.00     0.064 A 
ATOM     82  C   UNL A   1      41.893  28.118  27.537  1.00  0.00     0.173 A 
ATOM     83  C   UNL A   1      40.290  26.529  28.349  1.00  0.00     0.173 A 
ATOM     84  F   UNL A   1      42.609  29.243  27.682  1.00  0.00    -0.203 F 
ATOM     85  C   UNL A   1      41.981  27.416  26.337  1.00  0.00     0.198 A 
ATOM     86  C   UNL A   1      40.407  25.806  27.164  1.00  0.00     0.198 A 
ATOM     87  F   UNL A   1      39.454  26.081  29.298  1.00  0.00    -0.203 F 
ATOM     88  F   UNL A   1      42.760  27.876  25.350  1.00  0.00    -0.200 F 
ATOM     89  C   UNL A   1      41.240  26.258  26.153  1.00  0.00     0.200 A 
ATOM     90  F   UNL A   1      39.703  24.677  27.000  1.00  0.00    -0.200 F 
ATOM     91  F   UNL A   1      41.319  25.586  24.997  1.00  0.00    -0.200 F 
ENDBRANCH  57  81
BRANCH  69  92
ATOM     92  C   UNL A   1      44.414  27.758  34.642  1.00  0.00     0.064 A 
ATOM     93  C   UNL A   1      45.753  28.150  34.486  1.00  0.00     0.173 A 
ATOM     94  C   UNL A   1      44.156  26.557  35.319  1.00  0.00     0.173 A 
ATOM     95  F   UNL A   1      46.053  29.283  33.834  1.00  0.00    -0.203 F 
ATOM     96  C   UNL A   1      46.792  27.346  34.949  1.00  0.00     0.198 A 
ATOM     97  C   UNL A   1      45.197  25.776  35.816  1.00  0.00     0.198 A 
ATOM     98  F   UNL A   1      42.896  26.139  35.506  1.00  0.00    -0.203 F 
ATOM     99  F   UNL A   1      48.063  27.707  34.725  1.00  0.00    -0.200 F 
ATOM    100  C   UNL A   1      46.514  26.164  35.617  1.00  0.00     0.200 A 
ATOM    101  F   UNL A   1      44.927  24.642  36.476  1.00  0.00    -0.200 F 
ATOM    102  F   UNL A   1      47.515  25.393  36.062  1.00  0.00    -0.200 F 
ENDBRANCH  69  92
ENDBRANCH  43  44
ENDBRANCH  35  38
ENDBRANCH  33  34
ENDBRANCH  32  33
ENDBRANCH  31  32
ENDBRANCH  30  31
ENDBRANCH   1  30
TORSDOF 18
ENDMDL
