MODEL 1
REMARK VINA RESULT:     -11.0      0.000      0.000
REMARK SMILES CC(C)[C@H](NC(=O)[C@H](C)NC(=O)C[NH3+])C(=O)NCCCCCCNC(=O)c1ccc(-c2c3nc(c(-c4c(F)c(F)c(F)c(F)c4F)c4ccc([nH]4)c(-c4c(F)c(F)c(F)c(F)c4F)c4nc(c(-c5c(F)c(F)c(F)c(F)c5F)c5ccc2[nH]5)C=C4)C=C3)cc1
REMARK SMILES IDX 19 1 18 2 17 3 15 4 16 5 4 7 2 8 1 9 3 10 5 11 6 12 7 14
REMARK SMILES IDX 8 15 9 16 10 17 11 18 12 20 13 21 14 22 20 26 21 27 22 28
REMARK SMILES IDX 23 29 24 30 25 31 26 33 27 34 28 35 89 36 29 37 88 38 30 39
REMARK SMILES IDX 31 40 32 41 82 42 33 43 87 44 81 45 83 46 34 47 86 48 80 49
REMARK SMILES IDX 79 50 35 52 67 53 47 54 66 55 48 56 51 57 65 58 84 59 49 60
REMARK SMILES IDX 50 61 64 63 85 64 52 65 36 66 37 67 45 68 38 69 39 70 43 71
REMARK SMILES IDX 46 72 40 73 41 74 44 75 42 76 68 77 69 78 77 79 70 80 71 81
REMARK SMILES IDX 75 82 78 83 72 84 73 85 76 86 74 87 53 88 54 89 62 90 55 91
REMARK SMILES IDX 56 92 60 93 63 94 57 95 58 96 61 97 59 98
REMARK H PARENT 17 6 5 13 10 19 14 23 14 24 14 25 24 32 83 51 51 62
REMARK Flexibility Score: inf
ROOT
ATOM      1  C   UNL A   1      31.686  28.683  27.394  1.00  0.00     0.021 C 
ENDROOT
BRANCH   1   2
ATOM      2  C   UNL A   1      32.630  27.521  27.110  1.00  0.00     0.116 C 
BRANCH   2   3
ATOM      3  N   UNL A   1      33.523  27.804  26.006  1.00  0.00    -0.354 N 
ATOM      4  C   UNL A   1      33.640  27.254  24.770  1.00  0.00     0.242 C 
ATOM      5  O   UNL A   1      34.322  27.877  23.949  1.00  0.00    -0.273 OA
ATOM      6  H   UNL A   1      34.163  28.530  26.184  1.00  0.00     0.163 HD
BRANCH   4   7
ATOM      7  C   UNL A   1      32.899  25.970  24.340  1.00  0.00     0.173 C 
BRANCH   7   8
ATOM      8  C   UNL A   1      33.713  24.654  24.445  1.00  0.00     0.015 C 
ATOM      9  C   UNL A   1      34.403  24.183  23.165  1.00  0.00     0.010 C 
ATOM     10  C   UNL A   1      34.765  24.762  25.556  1.00  0.00     0.010 C 
ENDBRANCH   7   8
BRANCH   7  11
ATOM     11  N   UNL A   1      32.210  26.130  23.056  1.00  0.00    -0.342 N 
ATOM     12  C   UNL A   1      31.036  26.759  22.775  1.00  0.00     0.242 C 
ATOM     13  H   UNL A   1      32.663  25.721  22.284  1.00  0.00     0.164 HD
ATOM     14  O   UNL A   1      30.738  26.894  21.583  1.00  0.00    -0.273 OA
BRANCH  12  15
ATOM     15  C   UNL A   1      30.126  27.278  23.898  1.00  0.00     0.168 C 
ATOM     16  C   UNL A   1      29.780  26.142  24.853  1.00  0.00     0.041 C 
BRANCH  15  17
ATOM     17  N   UNL A   1      28.923  27.812  23.265  1.00  0.00    -0.340 N 
ATOM     18  C   UNL A   1      28.718  29.060  22.750  1.00  0.00     0.275 C 
ATOM     19  H   UNL A   1      28.160  27.193  23.202  1.00  0.00     0.164 HD
ATOM     20  O   UNL A   1      27.641  29.316  22.209  1.00  0.00    -0.268 OA
BRANCH  18  21
ATOM     21  C   UNL A   1      29.831  30.110  22.830  1.00  0.00     0.360 C 
BRANCH  21  22
ATOM     22  N   UNL A   1      30.669  30.101  21.619  1.00  0.00    -0.350 N 
ATOM     23  H   UNL A   1      31.097  29.182  21.509  1.00  0.00     0.344 HD
ATOM     24  H   UNL A   1      31.398  30.809  21.704  1.00  0.00     0.344 HD
ATOM     25  H   UNL A   1      30.091  30.305  20.804  1.00  0.00     0.344 HD
ENDBRANCH  21  22
ENDBRANCH  18  21
ENDBRANCH  15  17
ENDBRANCH  12  15
ENDBRANCH   7  11
ENDBRANCH   4   7
ENDBRANCH   2   3
ENDBRANCH   1   2
BRANCH   1  26
ATOM     26  C   UNL A   1      32.283  30.061  27.092  1.00  0.00     0.002 C 
BRANCH  26  27
ATOM     27  C   UNL A   1      31.475  30.927  26.119  1.00  0.00     0.002 C 
BRANCH  27  28
ATOM     28  C   UNL A   1      31.361  32.406  26.496  1.00  0.00     0.021 C 
BRANCH  28  29
ATOM     29  C   UNL A   1      32.512  32.942  27.337  1.00  0.00     0.116 C 
BRANCH  29  30
ATOM     30  N   UNL A   1      32.342  34.345  27.671  1.00  0.00    -0.352 N 
ATOM     31  C   UNL A   1      32.986  35.097  28.620  1.00  0.00     0.251 C 
ATOM     32  H   UNL A   1      31.666  34.825  27.140  1.00  0.00     0.163 HD
ATOM     33  O   UNL A   1      32.592  36.226  28.884  1.00  0.00    -0.269 OA
BRANCH  31  34
ATOM     34  C   UNL A   1      34.145  34.531  29.342  1.00  0.00     0.039 A 
ATOM     35  C   UNL A   1      33.926  33.902  30.569  1.00  0.00     0.014 A 
ATOM     36  C   UNL A   1      35.438  34.623  28.819  1.00  0.00     0.014 A 
ATOM     37  C   UNL A   1      34.997  33.323  31.249  1.00  0.00     0.010 A 
ATOM     38  C   UNL A   1      36.491  33.978  29.458  1.00  0.00     0.010 A 
ATOM     39  C   UNL A   1      36.283  33.329  30.685  1.00  0.00    -0.014 A 
BRANCH  39  40
ATOM     40  C   UNL A   1      37.419  32.663  31.369  1.00  0.00     0.031 A 
ATOM     41  C   UNL A   1      38.131  31.514  30.711  1.00  0.00     0.074 A 
ATOM     42  C   UNL A   1      37.777  33.062  32.605  1.00  0.00     0.049 A 
ATOM     43  N   UNL A   1      39.115  30.779  31.167  1.00  0.00    -0.248 NA
ATOM     44  C   UNL A   1      37.660  31.121  29.374  1.00  0.00     0.031 C 
ATOM     45  C   UNL A   1      37.130  34.133  33.367  1.00  0.00     0.029 A 
ATOM     46  N   UNL A   1      38.765  32.611  33.442  1.00  0.00    -0.354 N 
ATOM     47  C   UNL A   1      39.369  29.836  30.180  1.00  0.00     0.074 A 
ATOM     48  C   UNL A   1      38.402  30.052  29.127  1.00  0.00     0.031 C 
ATOM     49  C   UNL A   1      37.755  34.273  34.547  1.00  0.00     0.029 A 
ATOM     50  C   UNL A   1      38.818  33.277  34.643  1.00  0.00     0.049 A 
ATOM     51  H   UNL A   1      39.379  31.879  33.205  1.00  0.00     0.167 HD
ATOM     52  C   UNL A   1      40.339  28.890  30.146  1.00  0.00     0.037 A 
ATOM     53  C   UNL A   1      39.627  33.099  35.704  1.00  0.00     0.037 A 
ATOM     54  C   UNL A   1      41.313  28.694  31.189  1.00  0.00     0.049 A 
ATOM     55  C   UNL A   1      40.689  32.033  35.643  1.00  0.00     0.074 A 
ATOM     56  C   UNL A   1      42.372  27.804  31.223  1.00  0.00     0.029 A 
ATOM     57  N   UNL A   1      41.342  29.396  32.384  1.00  0.00    -0.354 N 
ATOM     58  N   UNL A   1      40.969  31.197  34.674  1.00  0.00    -0.248 NA
ATOM     59  C   UNL A   1      41.554  31.894  36.823  1.00  0.00     0.031 C 
ATOM     60  C   UNL A   1      43.007  27.928  32.462  1.00  0.00     0.029 A 
ATOM     61  C   UNL A   1      42.385  28.939  33.175  1.00  0.00     0.049 A 
ATOM     62  H   UNL A   1      40.715  30.112  32.635  1.00  0.00     0.167 HD
ATOM     63  C   UNL A   1      42.058  30.456  35.112  1.00  0.00     0.074 A 
ATOM     64  C   UNL A   1      42.399  30.953  36.428  1.00  0.00     0.031 C 
ATOM     65  C   UNL A   1      42.716  29.451  34.481  1.00  0.00     0.037 A 
BRANCH  52  66
ATOM     66  C   UNL A   1      40.398  27.995  28.942  1.00  0.00     0.064 A 
ATOM     67  C   UNL A   1      39.691  26.784  28.886  1.00  0.00     0.173 A 
ATOM     68  C   UNL A   1      41.137  28.373  27.809  1.00  0.00     0.173 A 
ATOM     69  F   UNL A   1      38.977  26.370  29.943  1.00  0.00    -0.203 F 
ATOM     70  C   UNL A   1      39.744  25.972  27.755  1.00  0.00     0.198 A 
ATOM     71  C   UNL A   1      41.162  27.575  26.669  1.00  0.00     0.198 A 
ATOM     72  F   UNL A   1      41.828  29.523  27.806  1.00  0.00    -0.203 F 
ATOM     73  F   UNL A   1      39.100  24.797  27.745  1.00  0.00    -0.200 F 
ATOM     74  C   UNL A   1      40.472  26.373  26.645  1.00  0.00     0.200 A 
ATOM     75  F   UNL A   1      41.853  27.971  25.591  1.00  0.00    -0.200 F 
ATOM     76  F   UNL A   1      40.513  25.596  25.553  1.00  0.00    -0.200 F 
ENDBRANCH  52  66
BRANCH  53  77
ATOM     77  C   UNL A   1      39.478  33.959  36.907  1.00  0.00     0.064 A 
ATOM     78  C   UNL A   1      40.105  35.212  36.980  1.00  0.00     0.173 A 
ATOM     79  C   UNL A   1      38.719  33.545  38.011  1.00  0.00     0.173 A 
ATOM     80  F   UNL A   1      40.859  35.644  35.958  1.00  0.00    -0.203 F 
ATOM     81  C   UNL A   1      40.001  36.003  38.122  1.00  0.00     0.198 A 
ATOM     82  C   UNL A   1      38.590  34.352  39.139  1.00  0.00     0.198 A 
ATOM     83  F   UNL A   1      38.093  32.359  37.990  1.00  0.00    -0.203 F 
ATOM     84  F   UNL A   1      40.655  37.171  38.187  1.00  0.00    -0.200 F 
ATOM     85  C   UNL A   1      39.239  35.576  39.199  1.00  0.00     0.200 A 
ATOM     86  F   UNL A   1      37.837  33.942  40.170  1.00  0.00    -0.200 F 
ATOM     87  F   UNL A   1      39.137  36.338  40.296  1.00  0.00    -0.200 F 
ENDBRANCH  53  77
BRANCH  65  88
ATOM     88  C   UNL A   1      43.897  28.851  35.189  1.00  0.00     0.064 A 
ATOM     89  C   UNL A   1      45.200  29.335  34.994  1.00  0.00     0.173 A 
ATOM     90  C   UNL A   1      43.718  27.801  36.103  1.00  0.00     0.173 A 
ATOM     91  F   UNL A   1      45.427  30.327  34.121  1.00  0.00    -0.203 F 
ATOM     92  C   UNL A   1      46.281  28.769  35.664  1.00  0.00     0.198 A 
ATOM     93  C   UNL A   1      44.797  27.262  36.796  1.00  0.00     0.198 A 
ATOM     94  F   UNL A   1      42.492  27.306  36.332  1.00  0.00    -0.203 F 
ATOM     95  F   UNL A   1      47.523  29.211  35.420  1.00  0.00    -0.200 F 
ATOM     96  C   UNL A   1      46.078  27.739  36.571  1.00  0.00     0.200 A 
ATOM     97  F   UNL A   1      44.595  26.277  37.684  1.00  0.00    -0.200 F 
ATOM     98  F   UNL A   1      47.119  27.201  37.220  1.00  0.00    -0.200 F 
ENDBRANCH  65  88
ENDBRANCH  39  40
ENDBRANCH  31  34
ENDBRANCH  29  30
ENDBRANCH  28  29
ENDBRANCH  27  28
ENDBRANCH  26  27
ENDBRANCH   1  26
TORSDOF 19
ENDMDL
MODEL 2
REMARK VINA RESULT:     -11.0      1.705      7.781
REMARK SMILES CC(C)[C@H](NC(=O)[C@H](C)NC(=O)C[NH3+])C(=O)NCCCCCCNC(=O)c1ccc(-c2c3nc(c(-c4c(F)c(F)c(F)c(F)c4F)c4ccc([nH]4)c(-c4c(F)c(F)c(F)c(F)c4F)c4nc(c(-c5c(F)c(F)c(F)c(F)c5F)c5ccc2[nH]5)C=C4)C=C3)cc1
REMARK SMILES IDX 19 1 18 2 17 3 15 4 16 5 4 7 2 8 1 9 3 10 5 11 6 12 7 14
REMARK SMILES IDX 8 15 9 16 10 17 11 18 12 20 13 21 14 22 20 26 21 27 22 28
REMARK SMILES IDX 23 29 24 30 25 31 26 33 27 34 28 35 89 36 29 37 88 38 30 39
REMARK SMILES IDX 31 40 32 41 82 42 33 43 87 44 81 45 83 46 34 47 86 48 80 49
REMARK SMILES IDX 79 50 35 52 67 53 47 54 66 55 48 56 51 57 65 58 84 59 49 60
REMARK SMILES IDX 50 61 64 63 85 64 52 65 36 66 37 67 45 68 38 69 39 70 43 71
REMARK SMILES IDX 46 72 40 73 41 74 44 75 42 76 68 77 69 78 77 79 70 80 71 81
REMARK SMILES IDX 75 82 78 83 72 84 73 85 76 86 74 87 53 88 54 89 62 90 55 91
REMARK SMILES IDX 56 92 60 93 63 94 57 95 58 96 61 97 59 98
REMARK H PARENT 17 6 5 13 10 19 14 23 14 24 14 25 24 32 83 51 51 62
REMARK Flexibility Score: inf
ROOT
ATOM      1  C   UNL A   1      35.360  31.407  28.161  1.00  0.00     0.021 C 
ENDROOT
BRANCH   1   2
ATOM      2  C   UNL A   1      34.383  30.514  27.407  1.00  0.00     0.116 C 
BRANCH   2   3
ATOM      3  N   UNL A   1      33.151  31.203  27.090  1.00  0.00    -0.354 N 
ATOM      4  C   UNL A   1      32.046  30.817  26.401  1.00  0.00     0.242 C 
ATOM      5  O   UNL A   1      31.043  31.530  26.517  1.00  0.00    -0.273 OA
ATOM      6  H   UNL A   1      33.104  32.122  27.439  1.00  0.00     0.163 HD
BRANCH   4   7
ATOM      7  C   UNL A   1      31.971  29.509  25.583  1.00  0.00     0.173 C 
BRANCH   7   8
ATOM      8  C   UNL A   1      31.853  28.203  26.411  1.00  0.00     0.015 C 
ATOM      9  C   UNL A   1      33.103  27.325  26.467  1.00  0.00     0.010 C 
ATOM     10  C   UNL A   1      31.409  28.515  27.845  1.00  0.00     0.010 C 
ENDBRANCH   7   8
BRANCH   7  11
ATOM     11  N   UNL A   1      32.996  29.449  24.538  1.00  0.00    -0.342 N 
ATOM     12  C   UNL A   1      32.903  28.995  23.258  1.00  0.00     0.242 C 
ATOM     13  H   UNL A   1      33.882  29.787  24.801  1.00  0.00     0.164 HD
ATOM     14  O   UNL A   1      33.872  29.192  22.516  1.00  0.00    -0.273 OA
BRANCH  12  15
ATOM     15  C   UNL A   1      31.643  28.269  22.764  1.00  0.00     0.168 C 
ATOM     16  C   UNL A   1      32.033  27.001  22.016  1.00  0.00     0.041 C 
BRANCH  15  17
ATOM     17  N   UNL A   1      30.930  29.195  21.886  1.00  0.00    -0.340 N 
ATOM     18  C   UNL A   1      29.631  29.605  21.962  1.00  0.00     0.275 C 
ATOM     19  H   UNL A   1      31.455  29.569  21.142  1.00  0.00     0.164 HD
ATOM     20  O   UNL A   1      29.215  30.434  21.150  1.00  0.00    -0.268 OA
BRANCH  18  21
ATOM     21  C   UNL A   1      28.719  29.053  23.064  1.00  0.00     0.360 C 
BRANCH  21  22
ATOM     22  N   UNL A   1      27.326  28.934  22.601  1.00  0.00    -0.350 N 
ATOM     23  H   UNL A   1      27.173  29.569  21.819  1.00  0.00     0.344 HD
ATOM     24  H   UNL A   1      26.693  29.175  23.364  1.00  0.00     0.344 HD
ATOM     25  H   UNL A   1      27.148  27.976  22.301  1.00  0.00     0.344 HD
ENDBRANCH  21  22
ENDBRANCH  18  21
ENDBRANCH  15  17
ENDBRANCH  12  15
ENDBRANCH   7  11
ENDBRANCH   4   7
ENDBRANCH   2   3
ENDBRANCH   1   2
BRANCH   1  26
ATOM     26  C   UNL A   1      35.080  32.906  28.013  1.00  0.00     0.002 C 
BRANCH  26  27
ATOM     27  C   UNL A   1      34.495  33.590  29.254  1.00  0.00     0.002 C 
BRANCH  27  28
ATOM     28  C   UNL A   1      33.265  34.464  29.002  1.00  0.00     0.021 C 
BRANCH  28  29
ATOM     29  C   UNL A   1      33.385  35.898  29.502  1.00  0.00     0.116 C 
BRANCH  29  30
ATOM     30  N   UNL A   1      32.513  36.161  30.632  1.00  0.00    -0.352 N 
ATOM     31  C   UNL A   1      32.619  35.733  31.931  1.00  0.00     0.251 C 
ATOM     32  H   UNL A   1      31.732  36.729  30.438  1.00  0.00     0.163 HD
ATOM     33  O   UNL A   1      31.696  35.907  32.716  1.00  0.00    -0.269 OA
BRANCH  31  34
ATOM     34  C   UNL A   1      33.845  35.035  32.375  1.00  0.00     0.039 A 
ATOM     35  C   UNL A   1      33.730  33.741  32.884  1.00  0.00     0.014 A 
ATOM     36  C   UNL A   1      35.096  35.653  32.296  1.00  0.00     0.014 A 
ATOM     37  C   UNL A   1      34.876  33.047  33.270  1.00  0.00     0.010 A 
ATOM     38  C   UNL A   1      36.245  34.932  32.607  1.00  0.00     0.010 A 
ATOM     39  C   UNL A   1      36.146  33.625  33.106  1.00  0.00    -0.014 A 
BRANCH  39  40
ATOM     40  C   UNL A   1      37.377  32.873  33.456  1.00  0.00     0.031 A 
ATOM     41  C   UNL A   1      38.105  33.168  34.737  1.00  0.00     0.074 A 
ATOM     42  C   UNL A   1      37.866  31.961  32.595  1.00  0.00     0.049 A 
ATOM     43  N   UNL A   1      39.217  32.651  35.197  1.00  0.00    -0.248 NA
ATOM     44  C   UNL A   1      37.522  34.201  35.609  1.00  0.00     0.031 C 
ATOM     45  C   UNL A   1      37.275  31.622  31.298  1.00  0.00     0.029 A 
ATOM     46  N   UNL A   1      38.974  31.156  32.675  1.00  0.00    -0.354 N 
ATOM     47  C   UNL A   1      39.468  33.300  36.399  1.00  0.00     0.074 A 
ATOM     48  C   UNL A   1      38.427  34.289  36.571  1.00  0.00     0.031 C 
ATOM     49  C   UNL A   1      38.012  30.662  30.716  1.00  0.00     0.029 A 
ATOM     50  C   UNL A   1      39.147  30.346  31.578  1.00  0.00     0.049 A 
ATOM     51  H   UNL A   1      39.586  31.158  33.445  1.00  0.00     0.167 HD
ATOM     52  C   UNL A   1      40.464  33.073  37.288  1.00  0.00     0.037 A 
ATOM     53  C   UNL A   1      40.117  29.456  31.296  1.00  0.00     0.037 A 
ATOM     54  C   UNL A   1      41.485  32.072  37.120  1.00  0.00     0.049 A 
ATOM     55  C   UNL A   1      41.217  29.232  32.299  1.00  0.00     0.074 A 
ATOM     56  C   UNL A   1      42.502  31.724  37.991  1.00  0.00     0.029 A 
ATOM     57  N   UNL A   1      41.621  31.262  36.003  1.00  0.00    -0.354 N 
ATOM     58  N   UNL A   1      41.403  29.798  33.467  1.00  0.00    -0.248 NA
ATOM     59  C   UNL A   1      42.240  28.236  31.947  1.00  0.00     0.031 C 
ATOM     60  C   UNL A   1      43.287  30.743  37.377  1.00  0.00     0.029 A 
ATOM     61  C   UNL A   1      42.723  30.435  36.150  1.00  0.00     0.049 A 
ATOM     62  H   UNL A   1      41.024  31.275  35.220  1.00  0.00     0.167 HD
ATOM     63  C   UNL A   1      42.541  29.208  34.001  1.00  0.00     0.074 A 
ATOM     64  C   UNL A   1      42.993  28.227  33.037  1.00  0.00     0.031 C 
ATOM     65  C   UNL A   1      43.156  29.458  35.184  1.00  0.00     0.037 A 
BRANCH  52  66
ATOM     66  C   UNL A   1      40.498  33.921  38.527  1.00  0.00     0.064 A 
ATOM     67  C   UNL A   1      41.256  35.101  38.595  1.00  0.00     0.173 A 
ATOM     68  C   UNL A   1      39.728  33.574  39.649  1.00  0.00     0.173 A 
ATOM     69  F   UNL A   1      42.018  35.474  37.555  1.00  0.00    -0.203 F 
ATOM     70  C   UNL A   1      41.265  35.884  39.746  1.00  0.00     0.198 A 
ATOM     71  C   UNL A   1      39.714  34.377  40.786  1.00  0.00     0.198 A 
ATOM     72  F   UNL A   1      38.981  32.460  39.638  1.00  0.00    -0.203 F 
ATOM     73  F   UNL A   1      42.035  36.979  39.803  1.00  0.00    -0.200 F 
ATOM     74  C   UNL A   1      40.487  35.527  40.837  1.00  0.00     0.200 A 
ATOM     75  F   UNL A   1      38.951  34.038  41.834  1.00  0.00    -0.200 F 
ATOM     76  F   UNL A   1      40.489  36.288  41.940  1.00  0.00    -0.200 F 
ENDBRANCH  52  66
BRANCH  53  77
ATOM     77  C   UNL A   1      40.083  28.695  30.019  1.00  0.00     0.064 A 
ATOM     78  C   UNL A   1      39.477  27.433  29.948  1.00  0.00     0.173 A 
ATOM     79  C   UNL A   1      40.664  29.207  28.850  1.00  0.00     0.173 A 
ATOM     80  F   UNL A   1      38.924  26.891  31.043  1.00  0.00    -0.203 F 
ATOM     81  C   UNL A   1      39.478  26.700  28.762  1.00  0.00     0.198 A 
ATOM     82  C   UNL A   1      40.635  28.487  27.658  1.00  0.00     0.198 A 
ATOM     83  F   UNL A   1      41.250  30.413  28.862  1.00  0.00    -0.203 F 
ATOM     84  F   UNL A   1      38.940  25.473  28.736  1.00  0.00    -0.200 F 
ATOM     85  C   UNL A   1      40.052  27.229  27.617  1.00  0.00     0.200 A 
ATOM     86  F   UNL A   1      41.177  29.011  26.549  1.00  0.00    -0.200 F 
ATOM     87  F   UNL A   1      40.052  26.526  26.477  1.00  0.00    -0.200 F 
ENDBRANCH  53  77
BRANCH  65  88
ATOM     88  C   UNL A   1      44.363  28.628  35.520  1.00  0.00     0.064 A 
ATOM     89  C   UNL A   1      45.661  29.039  35.180  1.00  0.00     0.173 A 
ATOM     90  C   UNL A   1      44.220  27.422  36.224  1.00  0.00     0.173 A 
ATOM     91  F   UNL A   1      45.850  30.177  34.495  1.00  0.00    -0.203 F 
ATOM     92  C   UNL A   1      46.767  28.259  35.506  1.00  0.00     0.198 A 
ATOM     93  C   UNL A   1      45.331  26.663  36.577  1.00  0.00     0.198 A 
ATOM     94  F   UNL A   1      43.002  26.986  36.580  1.00  0.00    -0.203 F 
ATOM     95  F   UNL A   1      47.992  28.645  35.122  1.00  0.00    -0.200 F 
ATOM     96  C   UNL A   1      46.602  27.076  36.211  1.00  0.00     0.200 A 
ATOM     97  F   UNL A   1      45.170  25.528  37.273  1.00  0.00    -0.200 F 
ATOM     98  F   UNL A   1      47.668  26.331  36.529  1.00  0.00    -0.200 F 
ENDBRANCH  65  88
ENDBRANCH  39  40
ENDBRANCH  31  34
ENDBRANCH  29  30
ENDBRANCH  28  29
ENDBRANCH  27  28
ENDBRANCH  26  27
ENDBRANCH   1  26
TORSDOF 19
ENDMDL
MODEL 3
REMARK VINA RESULT:     -10.6      4.129      7.908
REMARK SMILES CC(C)[C@H](NC(=O)[C@H](C)NC(=O)C[NH3+])C(=O)NCCCCCCNC(=O)c1ccc(-c2c3nc(c(-c4c(F)c(F)c(F)c(F)c4F)c4ccc([nH]4)c(-c4c(F)c(F)c(F)c(F)c4F)c4nc(c(-c5c(F)c(F)c(F)c(F)c5F)c5ccc2[nH]5)C=C4)C=C3)cc1
REMARK SMILES IDX 19 1 18 2 17 3 15 4 16 5 4 7 2 8 1 9 3 10 5 11 6 12 7 14
REMARK SMILES IDX 8 15 9 16 10 17 11 18 12 20 13 21 14 22 20 26 21 27 22 28
REMARK SMILES IDX 23 29 24 30 25 31 26 33 27 34 28 35 89 36 29 37 88 38 30 39
REMARK SMILES IDX 31 40 32 41 82 42 33 43 87 44 81 45 83 46 34 47 86 48 80 49
REMARK SMILES IDX 79 50 35 52 67 53 47 54 66 55 48 56 51 57 65 58 84 59 49 60
REMARK SMILES IDX 50 61 64 63 85 64 52 65 36 66 37 67 45 68 38 69 39 70 43 71
REMARK SMILES IDX 46 72 40 73 41 74 44 75 42 76 68 77 69 78 77 79 70 80 71 81
REMARK SMILES IDX 75 82 78 83 72 84 73 85 76 86 74 87 53 88 54 89 62 90 55 91
REMARK SMILES IDX 56 92 60 93 63 94 57 95 58 96 61 97 59 98
REMARK H PARENT 17 6 5 13 10 19 14 23 14 24 14 25 24 32 83 51 51 62
REMARK Flexibility Score: inf
ROOT
ATOM      1  C   UNL A   1      34.392  26.664  25.667  1.00  0.00     0.021 C 
ENDROOT
BRANCH   1   2
ATOM      2  C   UNL A   1      33.415  27.406  26.570  1.00  0.00     0.116 C 
BRANCH   2   3
ATOM      3  N   UNL A   1      32.840  28.561  25.915  1.00  0.00    -0.354 N 
ATOM      4  C   UNL A   1      32.119  28.692  24.772  1.00  0.00     0.242 C 
ATOM      5  O   UNL A   1      31.541  29.771  24.601  1.00  0.00    -0.273 OA
ATOM      6  H   UNL A   1      33.001  29.410  26.386  1.00  0.00     0.163 HD
BRANCH   4   7
ATOM      7  C   UNL A   1      31.923  27.544  23.758  1.00  0.00     0.173 C 
BRANCH   7   8
ATOM      8  C   UNL A   1      32.661  27.709  22.404  1.00  0.00     0.015 C 
ATOM      9  C   UNL A   1      33.976  28.485  22.442  1.00  0.00     0.010 C 
ATOM     10  C   UNL A   1      32.920  26.339  21.764  1.00  0.00     0.010 C 
ENDBRANCH   7   8
BRANCH   7  11
ATOM     11  N   UNL A   1      30.515  27.164  23.614  1.00  0.00    -0.342 N 
ATOM     12  C   UNL A   1      29.879  26.027  24.008  1.00  0.00     0.242 C 
ATOM     13  H   UNL A   1      29.946  27.829  23.165  1.00  0.00     0.164 HD
ATOM     14  O   UNL A   1      28.648  26.005  23.912  1.00  0.00    -0.273 OA
BRANCH  12  15
ATOM     15  C   UNL A   1      30.668  24.825  24.550  1.00  0.00     0.168 C 
ATOM     16  C   UNL A   1      30.807  23.763  23.465  1.00  0.00     0.041 C 
BRANCH  15  17
ATOM     17  N   UNL A   1      29.927  24.306  25.696  1.00  0.00    -0.340 N 
ATOM     18  C   UNL A   1      30.362  23.460  26.676  1.00  0.00     0.275 C 
ATOM     19  H   UNL A   1      28.991  24.602  25.772  1.00  0.00     0.164 HD
ATOM     20  O   UNL A   1      29.598  23.165  27.596  1.00  0.00    -0.268 OA
BRANCH  18  21
ATOM     21  C   UNL A   1      31.793  22.912  26.630  1.00  0.00     0.360 C 
BRANCH  21  22
ATOM     22  N   UNL A   1      31.834  21.563  26.042  1.00  0.00    -0.350 N 
ATOM     23  H   UNL A   1      32.217  20.907  26.723  1.00  0.00     0.344 HD
ATOM     24  H   UNL A   1      32.425  21.572  25.210  1.00  0.00     0.344 HD
ATOM     25  H   UNL A   1      30.891  21.274  25.786  1.00  0.00     0.344 HD
ENDBRANCH  21  22
ENDBRANCH  18  21
ENDBRANCH  15  17
ENDBRANCH  12  15
ENDBRANCH   7  11
ENDBRANCH   4   7
ENDBRANCH   2   3
ENDBRANCH   1   2
BRANCH   1  26
ATOM     26  C   UNL A   1      34.223  25.142  25.679  1.00  0.00     0.002 C 
BRANCH  26  27
ATOM     27  C   UNL A   1      34.708  24.417  24.419  1.00  0.00     0.002 C 
BRANCH  27  28
ATOM     28  C   UNL A   1      36.077  23.743  24.536  1.00  0.00     0.021 C 
BRANCH  28  29
ATOM     29  C   UNL A   1      36.525  23.447  25.961  1.00  0.00     0.116 C 
BRANCH  29  30
ATOM     30  N   UNL A   1      37.664  22.548  26.004  1.00  0.00    -0.352 N 
ATOM     31  C   UNL A   1      38.972  22.818  26.314  1.00  0.00     0.251 C 
ATOM     32  H   UNL A   1      37.469  21.610  25.778  1.00  0.00     0.163 HD
ATOM     33  O   UNL A   1      39.838  21.972  26.130  1.00  0.00    -0.269 OA
BRANCH  31  34
ATOM     34  C   UNL A   1      39.341  24.146  26.849  1.00  0.00     0.039 A 
ATOM     35  C   UNL A   1      39.008  24.451  28.169  1.00  0.00     0.014 A 
ATOM     36  C   UNL A   1      40.003  25.087  26.054  1.00  0.00     0.014 A 
ATOM     37  C   UNL A   1      39.383  25.681  28.709  1.00  0.00     0.010 A 
ATOM     38  C   UNL A   1      40.445  26.280  26.616  1.00  0.00     0.010 A 
ATOM     39  C   UNL A   1      40.131  26.593  27.947  1.00  0.00    -0.014 A 
BRANCH  39  40
ATOM     40  C   UNL A   1      40.589  27.880  28.530  1.00  0.00     0.031 A 
ATOM     41  C   UNL A   1      42.031  28.070  28.904  1.00  0.00     0.074 A 
ATOM     42  C   UNL A   1      39.693  28.857  28.767  1.00  0.00     0.049 A 
ATOM     43  N   UNL A   1      42.613  29.103  29.463  1.00  0.00    -0.248 NA
ATOM     44  C   UNL A   1      42.940  26.943  28.640  1.00  0.00     0.031 C 
ATOM     45  C   UNL A   1      38.257  28.772  28.491  1.00  0.00     0.029 A 
ATOM     46  N   UNL A   1      39.854  30.111  29.299  1.00  0.00    -0.354 N 
ATOM     47  C   UNL A   1      43.945  28.744  29.625  1.00  0.00     0.074 A 
ATOM     48  C   UNL A   1      44.076  27.381  29.160  1.00  0.00     0.031 C 
ATOM     49  C   UNL A   1      37.674  29.932  28.833  1.00  0.00     0.029 A 
ATOM     50  C   UNL A   1      38.684  30.827  29.388  1.00  0.00     0.049 A 
ATOM     51  H   UNL A   1      40.726  30.464  29.590  1.00  0.00     0.167 HD
ATOM     52  C   UNL A   1      44.969  29.494  30.096  1.00  0.00     0.037 A 
ATOM     53  C   UNL A   1      38.453  32.063  29.871  1.00  0.00     0.037 A 
ATOM     54  C   UNL A   1      44.836  30.858  30.538  1.00  0.00     0.049 A 
ATOM     55  C   UNL A   1      39.610  32.870  30.398  1.00  0.00     0.074 A 
ATOM     56  C   UNL A   1      45.823  31.723  30.976  1.00  0.00     0.029 A 
ATOM     57  N   UNL A   1      43.638  31.554  30.602  1.00  0.00    -0.354 N 
ATOM     58  N   UNL A   1      40.877  32.548  30.476  1.00  0.00    -0.248 NA
ATOM     59  C   UNL A   1      39.302  34.218  30.896  1.00  0.00     0.031 C 
ATOM     60  C   UNL A   1      45.215  32.923  31.358  1.00  0.00     0.029 A 
ATOM     61  C   UNL A   1      43.858  32.829  31.099  1.00  0.00     0.049 A 
ATOM     62  H   UNL A   1      42.761  31.196  30.334  1.00  0.00     0.167 HD
ATOM     63  C   UNL A   1      41.522  33.660  31.002  1.00  0.00     0.074 A 
ATOM     64  C   UNL A   1      40.507  34.672  31.207  1.00  0.00     0.031 C 
ATOM     65  C   UNL A   1      42.837  33.828  31.290  1.00  0.00     0.037 A 
BRANCH  52  66
ATOM     66  C   UNL A   1      46.329  28.858  30.158  1.00  0.00     0.064 A 
ATOM     67  C   UNL A   1      46.774  28.176  31.301  1.00  0.00     0.173 A 
ATOM     68  C   UNL A   1      47.182  28.893  29.044  1.00  0.00     0.173 A 
ATOM     69  F   UNL A   1      46.003  28.121  32.398  1.00  0.00    -0.203 F 
ATOM     70  C   UNL A   1      48.031  27.578  31.337  1.00  0.00     0.198 A 
ATOM     71  C   UNL A   1      48.425  28.266  29.072  1.00  0.00     0.198 A 
ATOM     72  F   UNL A   1      46.806  29.526  27.923  1.00  0.00    -0.203 F 
ATOM     73  F   UNL A   1      48.453  26.975  32.457  1.00  0.00    -0.200 F 
ATOM     74  C   UNL A   1      48.852  27.616  30.220  1.00  0.00     0.200 A 
ATOM     75  F   UNL A   1      49.211  28.290  27.987  1.00  0.00    -0.200 F 
ATOM     76  F   UNL A   1      50.057  27.030  30.252  1.00  0.00    -0.200 F 
ENDBRANCH  52  66
BRANCH  53  77
ATOM     77  C   UNL A   1      37.075  32.621  29.860  1.00  0.00     0.064 A 
ATOM     78  C   UNL A   1      36.229  32.473  30.969  1.00  0.00     0.173 A 
ATOM     79  C   UNL A   1      36.572  33.300  28.742  1.00  0.00     0.173 A 
ATOM     80  F   UNL A   1      36.657  31.814  32.056  1.00  0.00    -0.203 F 
ATOM     81  C   UNL A   1      34.923  32.960  30.947  1.00  0.00     0.198 A 
ATOM     82  C   UNL A   1      35.277  33.814  28.734  1.00  0.00     0.198 A 
ATOM     83  F   UNL A   1      37.342  33.475  27.658  1.00  0.00    -0.203 F 
ATOM     84  F   UNL A   1      34.118  32.758  31.999  1.00  0.00    -0.200 F 
ATOM     85  C   UNL A   1      34.450  33.635  29.832  1.00  0.00     0.200 A 
ATOM     86  F   UNL A   1      34.830  34.481  27.660  1.00  0.00    -0.200 F 
ATOM     87  F   UNL A   1      33.195  34.105  29.812  1.00  0.00    -0.200 F 
ENDBRANCH  53  77
BRANCH  65  88
ATOM     88  C   UNL A   1      43.259  35.168  31.820  1.00  0.00     0.064 A 
ATOM     89  C   UNL A   1      43.699  36.194  30.969  1.00  0.00     0.173 A 
ATOM     90  C   UNL A   1      43.188  35.442  33.194  1.00  0.00     0.173 A 
ATOM     91  F   UNL A   1      43.798  35.980  29.649  1.00  0.00    -0.203 F 
ATOM     92  C   UNL A   1      44.081  37.432  31.479  1.00  0.00     0.198 A 
ATOM     93  C   UNL A   1      43.538  36.692  33.696  1.00  0.00     0.198 A 
ATOM     94  F   UNL A   1      42.768  34.499  34.052  1.00  0.00    -0.203 F 
ATOM     95  F   UNL A   1      44.550  38.378  30.653  1.00  0.00    -0.200 F 
ATOM     96  C   UNL A   1      43.993  37.683  32.841  1.00  0.00     0.200 A 
ATOM     97  F   UNL A   1      43.436  36.936  35.010  1.00  0.00    -0.200 F 
ATOM     98  F   UNL A   1      44.354  38.877  33.328  1.00  0.00    -0.200 F 
ENDBRANCH  65  88
ENDBRANCH  39  40
ENDBRANCH  31  34
ENDBRANCH  29  30
ENDBRANCH  28  29
ENDBRANCH  27  28
ENDBRANCH  26  27
ENDBRANCH   1  26
TORSDOF 19
ENDMDL
