MODEL 1
REMARK VINA RESULT:     -11.0      0.000      0.000
REMARK SMILES CCO[C@H](CCn1nnc2c(cnn2C)c1=O)C(=O)NCCCCCCNC(=O)c1ccc(-c2c3nc(c(-c4c(F)c(F)c(F)c(F)c4F)c4ccc([nH]4)c(-c4c(F)c(F)c(F)c(F)c4F)c4nc(c(-c5c(F)c(F)c(F)c(F)c5F)c5ccc2[nH]5)C=C4)C=C3)cc1
REMARK SMILES IDX 23 1 22 2 21 3 20 4 18 5 19 6 4 8 3 9 2 10 1 11 5 12 6 13
REMARK SMILES IDX 7 14 8 15 16 16 9 17 11 18 17 19 10 20 12 21 14 22 13 23
REMARK SMILES IDX 15 24 24 25 25 26 26 27 27 28 28 29 29 31 30 32 31 33 92 34
REMARK SMILES IDX 32 35 91 36 33 37 34 38 35 39 85 40 36 41 90 42 84 43 86 44
REMARK SMILES IDX 37 45 89 46 83 47 82 48 38 50 70 51 50 52 69 53 51 54 54 55
REMARK SMILES IDX 68 56 87 57 52 58 53 59 67 61 88 62 55 63 39 64 40 65 48 66
REMARK SMILES IDX 41 67 42 68 46 69 49 70 43 71 44 72 47 73 45 74 71 75 72 76
REMARK SMILES IDX 80 77 73 78 74 79 78 80 81 81 75 82 76 83 79 84 77 85 56 86
REMARK SMILES IDX 57 87 65 88 58 89 59 90 63 91 66 92 60 93 61 94 64 95 62 96
REMARK H PARENT 20 7 27 30 86 49 54 60
REMARK Flexibility Score: inf
ROOT
ATOM      1  C   UNL A   1      43.221  24.914  29.338  1.00  0.00     0.002 C 
ENDROOT
BRANCH   1   2
ATOM      2  C   UNL A   1      43.818  26.315  29.234  1.00  0.00     0.021 C 
BRANCH   2   3
ATOM      3  C   UNL A   1      45.028  26.415  28.319  1.00  0.00     0.116 C 
BRANCH   3   4
ATOM      4  N   UNL A   1      44.754  27.132  27.094  1.00  0.00    -0.354 N 
ATOM      5  C   UNL A   1      45.104  26.865  25.810  1.00  0.00     0.249 C 
ATOM      6  O   UNL A   1      44.406  27.393  24.938  1.00  0.00    -0.272 OA
ATOM      7  H   UNL A   1      44.224  27.953  27.211  1.00  0.00     0.163 HD
BRANCH   5   8
ATOM      8  C   UNL A   1      46.286  25.944  25.435  1.00  0.00     0.208 C 
BRANCH   8   9
ATOM      9  O   UNL A   1      47.102  26.292  24.316  1.00  0.00    -0.369 OA
BRANCH   9  10
ATOM     10  C   UNL A   1      48.512  26.117  24.350  1.00  0.00     0.158 C 
ATOM     11  C   UNL A   1      49.160  26.303  25.715  1.00  0.00     0.035 C 
ENDBRANCH   9  10
ENDBRANCH   8   9
BRANCH   8  12
ATOM     12  C   UNL A   1      45.991  24.422  25.437  1.00  0.00     0.066 C 
BRANCH  12  13
ATOM     13  C   UNL A   1      44.732  23.945  24.676  1.00  0.00     0.153 C 
BRANCH  13  14
ATOM     14  N   UNL A   1      44.435  22.525  24.769  1.00  0.00    -0.210 N 
ATOM     15  N   UNL A   1      43.122  22.172  25.106  1.00  0.00    -0.062 NA
ATOM     16  C   UNL A   1      45.437  21.589  24.473  1.00  0.00     0.280 A 
ATOM     17  N   UNL A   1      42.802  20.958  25.275  1.00  0.00    -0.111 NA
ATOM     18  C   UNL A   1      45.092  20.277  24.904  1.00  0.00     0.108 A 
ATOM     19  O   UNL A   1      46.522  21.873  23.971  1.00  0.00    -0.267 OA
ATOM     20  C   UNL A   1      43.795  20.046  25.259  1.00  0.00     0.187 A 
ATOM     21  C   UNL A   1      45.788  19.105  25.210  1.00  0.00     0.151 A 
ATOM     22  N   UNL A   1      43.748  18.747  25.680  1.00  0.00    -0.249 N 
ATOM     23  N   UNL A   1      44.971  18.159  25.695  1.00  0.00    -0.179 NA
ATOM     24  C   UNL A   1      42.612  18.017  26.185  1.00  0.00     0.176 C 
ENDBRANCH  13  14
ENDBRANCH  12  13
ENDBRANCH   8  12
ENDBRANCH   5   8
ENDBRANCH   3   4
ENDBRANCH   2   3
ENDBRANCH   1   2
BRANCH   1  25
ATOM     25  C   UNL A   1      43.687  23.894  28.299  1.00  0.00     0.002 C 
BRANCH  25  26
ATOM     26  C   UNL A   1      43.175  22.463  28.477  1.00  0.00     0.021 C 
BRANCH  26  27
ATOM     27  C   UNL A   1      41.675  22.351  28.714  1.00  0.00     0.116 C 
BRANCH  27  28
ATOM     28  N   UNL A   1      40.946  22.066  27.490  1.00  0.00    -0.352 N 
ATOM     29  C   UNL A   1      40.094  22.887  26.792  1.00  0.00     0.251 C 
ATOM     30  H   UNL A   1      41.080  21.166  27.112  1.00  0.00     0.163 HD
ATOM     31  O   UNL A   1      39.329  22.429  25.951  1.00  0.00    -0.269 OA
BRANCH  29  32
ATOM     32  C   UNL A   1      40.084  24.329  27.090  1.00  0.00     0.039 A 
ATOM     33  C   UNL A   1      39.304  24.802  28.142  1.00  0.00     0.014 A 
ATOM     34  C   UNL A   1      40.871  25.202  26.338  1.00  0.00     0.014 A 
ATOM     35  C   UNL A   1      39.388  26.147  28.492  1.00  0.00     0.010 A 
ATOM     36  C   UNL A   1      41.008  26.524  26.731  1.00  0.00     0.010 A 
ATOM     37  C   UNL A   1      40.265  27.008  27.808  1.00  0.00    -0.014 A 
BRANCH  37  38
ATOM     38  C   UNL A   1      40.461  28.366  28.328  1.00  0.00     0.031 A 
ATOM     39  C   UNL A   1      41.676  29.086  27.842  1.00  0.00     0.074 A 
ATOM     40  C   UNL A   1      39.575  29.063  29.068  1.00  0.00     0.049 A 
ATOM     41  N   UNL A   1      42.664  29.539  28.544  1.00  0.00    -0.248 NA
ATOM     42  C   UNL A   1      41.827  29.292  26.394  1.00  0.00     0.031 C 
ATOM     43  C   UNL A   1      38.196  28.707  29.407  1.00  0.00     0.029 A 
ATOM     44  N   UNL A   1      39.717  30.313  29.608  1.00  0.00    -0.354 N 
ATOM     45  C   UNL A   1      43.504  30.207  27.655  1.00  0.00     0.074 A 
ATOM     46  C   UNL A   1      42.987  29.948  26.335  1.00  0.00     0.031 C 
ATOM     47  C   UNL A   1      37.567  29.790  29.912  1.00  0.00     0.029 A 
ATOM     48  C   UNL A   1      38.537  30.858  30.083  1.00  0.00     0.049 A 
ATOM     49  H   UNL A   1      40.582  30.781  29.655  1.00  0.00     0.167 HD
ATOM     50  C   UNL A   1      44.467  31.067  28.090  1.00  0.00     0.037 A 
ATOM     51  C   UNL A   1      38.349  32.102  30.579  1.00  0.00     0.037 A 
ATOM     52  C   UNL A   1      44.732  30.899  29.492  1.00  0.00     0.049 A 
ATOM     53  C   UNL A   1      39.654  32.608  31.059  1.00  0.00     0.074 A 
ATOM     54  C   UNL A   1      45.277  29.912  30.284  1.00  0.00     0.029 A 
ATOM     55  N   UNL A   1      44.132  31.791  30.339  1.00  0.00    -0.354 N 
ATOM     56  N   UNL A   1      40.288  32.133  32.095  1.00  0.00    -0.248 NA
ATOM     57  C   UNL A   1      40.426  33.517  30.221  1.00  0.00     0.031 C 
ATOM     58  C   UNL A   1      44.660  30.060  31.561  1.00  0.00     0.029 A 
ATOM     59  C   UNL A   1      43.772  31.133  31.484  1.00  0.00     0.049 A 
ATOM     60  H   UNL A   1      43.985  32.746  30.155  1.00  0.00     0.167 HD
ATOM     61  C   UNL A   1      41.624  32.336  31.807  1.00  0.00     0.074 A 
ATOM     62  C   UNL A   1      41.635  33.345  30.759  1.00  0.00     0.031 C 
ATOM     63  C   UNL A   1      42.571  31.450  32.226  1.00  0.00     0.037 A 
BRANCH  50  64
ATOM     64  C   UNL A   1      44.942  32.298  27.354  1.00  0.00     0.064 A 
ATOM     65  C   UNL A   1      46.243  32.315  26.801  1.00  0.00     0.173 A 
ATOM     66  C   UNL A   1      44.306  33.552  27.446  1.00  0.00     0.173 A 
ATOM     67  F   UNL A   1      46.951  31.182  26.685  1.00  0.00    -0.203 F 
ATOM     68  C   UNL A   1      46.882  33.506  26.444  1.00  0.00     0.198 A 
ATOM     69  C   UNL A   1      44.928  34.734  27.039  1.00  0.00     0.198 A 
ATOM     70  F   UNL A   1      43.113  33.698  28.035  1.00  0.00    -0.203 F 
ATOM     71  F   UNL A   1      48.161  33.482  26.046  1.00  0.00    -0.200 F 
ATOM     72  C   UNL A   1      46.226  34.715  26.569  1.00  0.00     0.200 A 
ATOM     73  F   UNL A   1      44.284  35.901  27.185  1.00  0.00    -0.200 F 
ATOM     74  F   UNL A   1      46.855  35.864  26.286  1.00  0.00    -0.200 F 
ENDBRANCH  50  64
BRANCH  51  75
ATOM     75  C   UNL A   1      37.125  32.930  30.561  1.00  0.00     0.064 A 
ATOM     76  C   UNL A   1      36.673  33.541  29.380  1.00  0.00     0.173 A 
ATOM     77  C   UNL A   1      36.233  32.936  31.650  1.00  0.00     0.173 A 
ATOM     78  F   UNL A   1      37.442  33.542  28.281  1.00  0.00    -0.203 F 
ATOM     79  C   UNL A   1      35.396  34.102  29.289  1.00  0.00     0.198 A 
ATOM     80  C   UNL A   1      34.963  33.508  31.563  1.00  0.00     0.198 A 
ATOM     81  F   UNL A   1      36.541  32.307  32.794  1.00  0.00    -0.203 F 
ATOM     82  F   UNL A   1      34.977  34.619  28.125  1.00  0.00    -0.200 F 
ATOM     83  C   UNL A   1      34.540  34.078  30.377  1.00  0.00     0.200 A 
ATOM     84  F   UNL A   1      34.134  33.448  32.614  1.00  0.00    -0.200 F 
ATOM     85  F   UNL A   1      33.296  34.566  30.272  1.00  0.00    -0.200 F 
ENDBRANCH  51  75
BRANCH  63  86
ATOM     86  C   UNL A   1      42.224  30.554  33.379  1.00  0.00     0.064 A 
ATOM     87  C   UNL A   1      41.702  29.258  33.243  1.00  0.00     0.173 A 
ATOM     88  C   UNL A   1      42.546  30.992  34.671  1.00  0.00     0.173 A 
ATOM     89  F   UNL A   1      41.461  28.733  32.035  1.00  0.00    -0.203 F 
ATOM     90  C   UNL A   1      41.469  28.457  34.359  1.00  0.00     0.198 A 
ATOM     91  C   UNL A   1      42.350  30.175  35.781  1.00  0.00     0.198 A 
ATOM     92  F   UNL A   1      43.096  32.203  34.855  1.00  0.00    -0.203 F 
ATOM     93  F   UNL A   1      40.951  27.229  34.209  1.00  0.00    -0.200 F 
ATOM     94  C   UNL A   1      41.801  28.912  35.626  1.00  0.00     0.200 A 
ATOM     95  F   UNL A   1      42.718  30.602  36.996  1.00  0.00    -0.200 F 
ATOM     96  F   UNL A   1      41.614  28.126  36.694  1.00  0.00    -0.200 F 
ENDBRANCH  63  86
ENDBRANCH  37  38
ENDBRANCH  29  32
ENDBRANCH  27  28
ENDBRANCH  26  27
ENDBRANCH  25  26
ENDBRANCH   1  25
TORSDOF 18
ENDMDL
MODEL 2
REMARK VINA RESULT:     -10.8      4.185      6.578
REMARK SMILES CCO[C@H](CCn1nnc2c(cnn2C)c1=O)C(=O)NCCCCCCNC(=O)c1ccc(-c2c3nc(c(-c4c(F)c(F)c(F)c(F)c4F)c4ccc([nH]4)c(-c4c(F)c(F)c(F)c(F)c4F)c4nc(c(-c5c(F)c(F)c(F)c(F)c5F)c5ccc2[nH]5)C=C4)C=C3)cc1
REMARK SMILES IDX 23 1 22 2 21 3 20 4 18 5 19 6 4 8 3 9 2 10 1 11 5 12 6 13
REMARK SMILES IDX 7 14 8 15 16 16 9 17 11 18 17 19 10 20 12 21 14 22 13 23
REMARK SMILES IDX 15 24 24 25 25 26 26 27 27 28 28 29 29 31 30 32 31 33 92 34
REMARK SMILES IDX 32 35 91 36 33 37 34 38 35 39 85 40 36 41 90 42 84 43 86 44
REMARK SMILES IDX 37 45 89 46 83 47 82 48 38 50 70 51 50 52 69 53 51 54 54 55
REMARK SMILES IDX 68 56 87 57 52 58 53 59 67 61 88 62 55 63 39 64 40 65 48 66
REMARK SMILES IDX 41 67 42 68 46 69 49 70 43 71 44 72 47 73 45 74 71 75 72 76
REMARK SMILES IDX 80 77 73 78 74 79 78 80 81 81 75 82 76 83 79 84 77 85 56 86
REMARK SMILES IDX 57 87 65 88 58 89 59 90 63 91 66 92 60 93 61 94 64 95 62 96
REMARK H PARENT 20 7 27 30 86 49 54 60
REMARK Flexibility Score: inf
ROOT
ATOM      1  C   UNL A   1      37.761  21.833  25.275  1.00  0.00     0.002 C 
ENDROOT
BRANCH   1   2
ATOM      2  C   UNL A   1      36.393  22.468  25.511  1.00  0.00     0.021 C 
BRANCH   2   3
ATOM      3  C   UNL A   1      35.317  21.490  25.955  1.00  0.00     0.116 C 
BRANCH   3   4
ATOM      4  N   UNL A   1      34.617  21.921  27.145  1.00  0.00    -0.354 N 
ATOM      5  C   UNL A   1      33.467  22.626  27.294  1.00  0.00     0.249 C 
ATOM      6  O   UNL A   1      32.889  22.496  28.378  1.00  0.00    -0.272 OA
ATOM      7  H   UNL A   1      35.048  21.658  27.990  1.00  0.00     0.163 HD
BRANCH   5   8
ATOM      8  C   UNL A   1      32.883  23.527  26.183  1.00  0.00     0.208 C 
BRANCH   8   9
ATOM      9  O   UNL A   1      32.625  24.901  26.476  1.00  0.00    -0.369 OA
BRANCH   9  10
ATOM     10  C   UNL A   1      31.761  25.678  25.658  1.00  0.00     0.158 C 
ATOM     11  C   UNL A   1      31.114  26.873  26.343  1.00  0.00     0.035 C 
ENDBRANCH   9  10
ENDBRANCH   8   9
BRANCH   8  12
ATOM     12  C   UNL A   1      31.721  22.922  25.355  1.00  0.00     0.066 C 
BRANCH  12  13
ATOM     13  C   UNL A   1      32.093  22.182  24.050  1.00  0.00     0.153 C 
BRANCH  13  14
ATOM     14  N   UNL A   1      32.172  20.733  24.143  1.00  0.00    -0.210 N 
ATOM     15  N   UNL A   1      32.183  20.179  25.430  1.00  0.00    -0.062 NA
ATOM     16  C   UNL A   1      32.184  19.965  22.969  1.00  0.00     0.280 A 
ATOM     17  N   UNL A   1      32.321  18.931  25.596  1.00  0.00    -0.111 NA
ATOM     18  C   UNL A   1      32.574  18.617  23.212  1.00  0.00     0.108 A 
ATOM     19  O   UNL A   1      31.961  20.413  21.848  1.00  0.00    -0.267 OA
ATOM     20  C   UNL A   1      32.599  18.187  24.506  1.00  0.00     0.187 A 
ATOM     21  C   UNL A   1      33.100  17.572  22.450  1.00  0.00     0.151 A 
ATOM     22  N   UNL A   1      33.054  16.900  24.464  1.00  0.00    -0.249 N 
ATOM     23  N   UNL A   1      33.405  16.511  23.212  1.00  0.00    -0.179 NA
ATOM     24  C   UNL A   1      33.288  16.003  25.569  1.00  0.00     0.176 C 
ENDBRANCH  13  14
ENDBRANCH  12  13
ENDBRANCH   8  12
ENDBRANCH   5   8
ENDBRANCH   3   4
ENDBRANCH   2   3
ENDBRANCH   1   2
BRANCH   1  25
ATOM     25  C   UNL A   1      38.912  22.350  26.139  1.00  0.00     0.002 C 
BRANCH  25  26
ATOM     26  C   UNL A   1      39.993  21.332  26.509  1.00  0.00     0.021 C 
BRANCH  26  27
ATOM     27  C   UNL A   1      41.238  21.933  27.146  1.00  0.00     0.116 C 
BRANCH  27  28
ATOM     28  N   UNL A   1      42.258  22.255  26.162  1.00  0.00    -0.352 N 
ATOM     29  C   UNL A   1      42.647  23.492  25.709  1.00  0.00     0.251 C 
ATOM     30  H   UNL A   1      42.730  21.486  25.767  1.00  0.00     0.163 HD
ATOM     31  O   UNL A   1      43.302  23.606  24.679  1.00  0.00    -0.269 OA
BRANCH  29  32
ATOM     32  C   UNL A   1      42.239  24.691  26.459  1.00  0.00     0.039 A 
ATOM     33  C   UNL A   1      42.905  25.017  27.638  1.00  0.00     0.014 A 
ATOM     34  C   UNL A   1      41.214  25.504  25.974  1.00  0.00     0.014 A 
ATOM     35  C   UNL A   1      42.593  26.211  28.282  1.00  0.00     0.010 A 
ATOM     36  C   UNL A   1      40.954  26.726  26.574  1.00  0.00     0.010 A 
ATOM     37  C   UNL A   1      41.638  27.087  27.735  1.00  0.00    -0.014 A 
BRANCH  37  38
ATOM     38  C   UNL A   1      41.478  28.415  28.339  1.00  0.00     0.031 A 
ATOM     39  C   UNL A   1      42.562  29.401  28.053  1.00  0.00     0.074 A 
ATOM     40  C   UNL A   1      40.382  28.859  28.987  1.00  0.00     0.049 A 
ATOM     41  N   UNL A   1      43.341  29.993  28.900  1.00  0.00    -0.248 NA
ATOM     42  C   UNL A   1      42.839  29.739  26.649  1.00  0.00     0.031 C 
ATOM     43  C   UNL A   1      39.079  28.206  29.123  1.00  0.00     0.029 A 
ATOM     44  N   UNL A   1      40.191  30.069  29.598  1.00  0.00    -0.354 N 
ATOM     45  C   UNL A   1      44.121  30.882  28.163  1.00  0.00     0.074 A 
ATOM     46  C   UNL A   1      43.833  30.621  26.775  1.00  0.00     0.031 C 
ATOM     47  C   UNL A   1      38.179  29.097  29.589  1.00  0.00     0.029 A 
ATOM     48  C   UNL A   1      38.874  30.325  29.936  1.00  0.00     0.049 A 
ATOM     49  H   UNL A   1      40.924  30.700  29.781  1.00  0.00     0.167 HD
ATOM     50  C   UNL A   1      44.819  31.886  28.761  1.00  0.00     0.037 A 
ATOM     51  C   UNL A   1      38.367  31.465  30.460  1.00  0.00     0.037 A 
ATOM     52  C   UNL A   1      44.944  31.674  30.177  1.00  0.00     0.049 A 
ATOM     53  C   UNL A   1      39.469  32.191  31.133  1.00  0.00     0.074 A 
ATOM     54  C   UNL A   1      45.587  30.763  30.988  1.00  0.00     0.029 A 
ATOM     55  N   UNL A   1      44.071  32.360  30.977  1.00  0.00    -0.354 N 
ATOM     56  N   UNL A   1      40.060  31.780  32.220  1.00  0.00    -0.248 NA
ATOM     57  C   UNL A   1      40.125  33.297  30.448  1.00  0.00     0.031 C 
ATOM     58  C   UNL A   1      44.803  30.688  32.177  1.00  0.00     0.029 A 
ATOM     59  C   UNL A   1      43.723  31.561  32.032  1.00  0.00     0.049 A 
ATOM     60  H   UNL A   1      43.748  33.276  30.820  1.00  0.00     0.167 HD
ATOM     61  C   UNL A   1      41.347  32.273  32.122  1.00  0.00     0.074 A 
ATOM     62  C   UNL A   1      41.269  33.337  31.133  1.00  0.00     0.031 C 
ATOM     63  C   UNL A   1      42.403  31.570  32.622  1.00  0.00     0.037 A 
BRANCH  50  64
ATOM     64  C   UNL A   1      45.108  33.240  28.153  1.00  0.00     0.064 A 
ATOM     65  C   UNL A   1      46.449  33.625  27.927  1.00  0.00     0.173 A 
ATOM     66  C   UNL A   1      44.159  34.278  28.083  1.00  0.00     0.173 A 
ATOM     67  F   UNL A   1      47.440  32.723  27.990  1.00  0.00    -0.203 F 
ATOM     68  C   UNL A   1      46.814  34.959  27.726  1.00  0.00     0.198 A 
ATOM     69  C   UNL A   1      44.521  35.602  27.829  1.00  0.00     0.198 A 
ATOM     70  F   UNL A   1      42.867  34.075  28.369  1.00  0.00    -0.203 F 
ATOM     71  F   UNL A   1      48.109  35.291  27.645  1.00  0.00    -0.200 F 
ATOM     72  C   UNL A   1      45.849  35.948  27.684  1.00  0.00     0.200 A 
ATOM     73  F   UNL A   1      43.575  36.552  27.810  1.00  0.00    -0.200 F 
ATOM     74  F   UNL A   1      46.199  37.235  27.553  1.00  0.00    -0.200 F 
ENDBRANCH  50  64
BRANCH  51  75
ATOM     75  C   UNL A   1      37.007  32.025  30.319  1.00  0.00     0.064 A 
ATOM     76  C   UNL A   1      36.087  31.985  31.378  1.00  0.00     0.173 A 
ATOM     77  C   UNL A   1      36.664  32.836  29.220  1.00  0.00     0.173 A 
ATOM     78  F   UNL A   1      36.355  31.273  32.482  1.00  0.00    -0.203 F 
ATOM     79  C   UNL A   1      34.905  32.732  31.349  1.00  0.00     0.198 A 
ATOM     80  C   UNL A   1      35.478  33.570  29.185  1.00  0.00     0.198 A 
ATOM     81  F   UNL A   1      37.514  33.002  28.196  1.00  0.00    -0.203 F 
ATOM     82  F   UNL A   1      34.082  32.718  32.407  1.00  0.00    -0.200 F 
ATOM     83  C   UNL A   1      34.605  33.529  30.257  1.00  0.00     0.200 A 
ATOM     84  F   UNL A   1      35.217  34.362  28.136  1.00  0.00    -0.200 F 
ATOM     85  F   UNL A   1      33.501  34.288  30.254  1.00  0.00    -0.200 F 
ENDBRANCH  51  75
BRANCH  63  86
ATOM     86  C   UNL A   1      42.117  30.541  33.676  1.00  0.00     0.064 A 
ATOM     87  C   UNL A   1      41.765  29.209  33.404  1.00  0.00     0.173 A 
ATOM     88  C   UNL A   1      42.325  30.897  35.016  1.00  0.00     0.173 A 
ATOM     89  F   UNL A   1      41.645  28.769  32.145  1.00  0.00    -0.203 F 
ATOM     90  C   UNL A   1      41.583  28.289  34.435  1.00  0.00     0.198 A 
ATOM     91  C   UNL A   1      42.181  29.966  36.041  1.00  0.00     0.198 A 
ATOM     92  F   UNL A   1      42.714  32.142  35.329  1.00  0.00    -0.203 F 
ATOM     93  F   UNL A   1      41.226  27.027  34.155  1.00  0.00    -0.200 F 
ATOM     94  C   UNL A   1      41.799  28.666  35.752  1.00  0.00     0.200 A 
ATOM     95  F   UNL A   1      42.439  30.324  37.306  1.00  0.00    -0.200 F 
ATOM     96  F   UNL A   1      41.663  27.771  36.739  1.00  0.00    -0.200 F 
ENDBRANCH  63  86
ENDBRANCH  37  38
ENDBRANCH  29  32
ENDBRANCH  27  28
ENDBRANCH  26  27
ENDBRANCH  25  26
ENDBRANCH   1  25
TORSDOF 18
ENDMDL
MODEL 3
REMARK VINA RESULT:     -10.7      3.995      6.994
REMARK SMILES CCO[C@H](CCn1nnc2c(cnn2C)c1=O)C(=O)NCCCCCCNC(=O)c1ccc(-c2c3nc(c(-c4c(F)c(F)c(F)c(F)c4F)c4ccc([nH]4)c(-c4c(F)c(F)c(F)c(F)c4F)c4nc(c(-c5c(F)c(F)c(F)c(F)c5F)c5ccc2[nH]5)C=C4)C=C3)cc1
REMARK SMILES IDX 23 1 22 2 21 3 20 4 18 5 19 6 4 8 3 9 2 10 1 11 5 12 6 13
REMARK SMILES IDX 7 14 8 15 16 16 9 17 11 18 17 19 10 20 12 21 14 22 13 23
REMARK SMILES IDX 15 24 24 25 25 26 26 27 27 28 28 29 29 31 30 32 31 33 92 34
REMARK SMILES IDX 32 35 91 36 33 37 34 38 35 39 85 40 36 41 90 42 84 43 86 44
REMARK SMILES IDX 37 45 89 46 83 47 82 48 38 50 70 51 50 52 69 53 51 54 54 55
REMARK SMILES IDX 68 56 87 57 52 58 53 59 67 61 88 62 55 63 39 64 40 65 48 66
REMARK SMILES IDX 41 67 42 68 46 69 49 70 43 71 44 72 47 73 45 74 71 75 72 76
REMARK SMILES IDX 80 77 73 78 74 79 78 80 81 81 75 82 76 83 79 84 77 85 56 86
REMARK SMILES IDX 57 87 65 88 58 89 59 90 63 91 66 92 60 93 61 94 64 95 62 96
REMARK H PARENT 20 7 27 30 86 49 54 60
REMARK Flexibility Score: inf
ROOT
ATOM      1  C   UNL A   1      37.041  23.659  25.181  1.00  0.00     0.002 C 
ENDROOT
BRANCH   1   2
ATOM      2  C   UNL A   1      35.609  23.855  25.675  1.00  0.00     0.021 C 
BRANCH   2   3
ATOM      3  C   UNL A   1      35.045  22.675  26.449  1.00  0.00     0.116 C 
BRANCH   3   4
ATOM      4  N   UNL A   1      35.418  21.397  25.884  1.00  0.00    -0.354 N 
ATOM      5  C   UNL A   1      34.656  20.391  25.385  1.00  0.00     0.249 C 
ATOM      6  O   UNL A   1      35.224  19.619  24.605  1.00  0.00    -0.272 OA
ATOM      7  H   UNL A   1      36.387  21.230  25.856  1.00  0.00     0.163 HD
BRANCH   5   8
ATOM      8  C   UNL A   1      33.164  20.210  25.739  1.00  0.00     0.208 C 
BRANCH   8   9
ATOM      9  O   UNL A   1      32.685  18.903  26.058  1.00  0.00    -0.369 OA
BRANCH   9  10
ATOM     10  C   UNL A   1      32.362  17.968  25.038  1.00  0.00     0.158 C 
ATOM     11  C   UNL A   1      32.717  16.519  25.344  1.00  0.00     0.035 C 
ENDBRANCH   9  10
ENDBRANCH   8   9
BRANCH   8  12
ATOM     12  C   UNL A   1      32.153  20.949  24.826  1.00  0.00     0.066 C 
BRANCH  12  13
ATOM     13  C   UNL A   1      31.297  22.061  25.474  1.00  0.00     0.153 C 
BRANCH  13  14
ATOM     14  N   UNL A   1      31.641  23.424  25.102  1.00  0.00    -0.210 N 
ATOM     15  N   UNL A   1      31.806  23.686  23.735  1.00  0.00    -0.062 NA
ATOM     16  C   UNL A   1      31.741  24.408  26.097  1.00  0.00     0.280 A 
ATOM     17  N   UNL A   1      32.175  24.831  23.337  1.00  0.00    -0.111 NA
ATOM     18  C   UNL A   1      32.378  25.590  25.624  1.00  0.00     0.108 A 
ATOM     19  O   UNL A   1      31.392  24.248  27.264  1.00  0.00    -0.267 OA
ATOM     20  C   UNL A   1      32.536  25.728  24.275  1.00  0.00     0.187 A 
ATOM     21  C   UNL A   1      33.051  26.668  26.202  1.00  0.00     0.151 A 
ATOM     22  N   UNL A   1      33.213  26.901  24.097  1.00  0.00    -0.249 N 
ATOM     23  N   UNL A   1      33.575  27.479  25.271  1.00  0.00    -0.179 NA
ATOM     24  C   UNL A   1      33.653  27.495  22.859  1.00  0.00     0.176 C 
ENDBRANCH  13  14
ENDBRANCH  12  13
ENDBRANCH   8  12
ENDBRANCH   5   8
ENDBRANCH   3   4
ENDBRANCH   2   3
ENDBRANCH   1   2
BRANCH   1  25
ATOM     25  C   UNL A   1      38.093  23.347  26.245  1.00  0.00     0.002 C 
BRANCH  25  26
ATOM     26  C   UNL A   1      38.926  22.082  26.026  1.00  0.00     0.021 C 
BRANCH  26  27
ATOM     27  C   UNL A   1      40.116  21.936  26.965  1.00  0.00     0.116 C 
BRANCH  27  28
ATOM     28  N   UNL A   1      41.384  22.066  26.267  1.00  0.00    -0.352 N 
ATOM     29  C   UNL A   1      42.081  23.211  25.969  1.00  0.00     0.251 C 
ATOM     30  H   UNL A   1      41.797  21.223  25.968  1.00  0.00     0.163 HD
ATOM     31  O   UNL A   1      42.977  23.202  25.132  1.00  0.00    -0.269 OA
BRANCH  29  32
ATOM     32  C   UNL A   1      41.718  24.468  26.645  1.00  0.00     0.039 A 
ATOM     33  C   UNL A   1      42.202  24.716  27.927  1.00  0.00     0.014 A 
ATOM     34  C   UNL A   1      40.920  25.407  25.991  1.00  0.00     0.014 A 
ATOM     35  C   UNL A   1      41.952  25.953  28.515  1.00  0.00     0.010 A 
ATOM     36  C   UNL A   1      40.731  26.663  26.546  1.00  0.00     0.010 A 
ATOM     37  C   UNL A   1      41.241  26.944  27.814  1.00  0.00    -0.014 A 
BRANCH  37  38
ATOM     38  C   UNL A   1      41.164  28.291  28.392  1.00  0.00     0.031 A 
ATOM     39  C   UNL A   1      42.284  29.218  28.049  1.00  0.00     0.074 A 
ATOM     40  C   UNL A   1      40.111  28.802  29.062  1.00  0.00     0.049 A 
ATOM     41  N   UNL A   1      43.116  29.790  28.857  1.00  0.00    -0.248 NA
ATOM     42  C   UNL A   1      42.531  29.511  26.630  1.00  0.00     0.031 C 
ATOM     43  C   UNL A   1      38.784  28.215  29.253  1.00  0.00     0.029 A 
ATOM     44  N   UNL A   1      39.997  30.033  29.650  1.00  0.00    -0.354 N 
ATOM     45  C   UNL A   1      43.913  30.624  28.076  1.00  0.00     0.074 A 
ATOM     46  C   UNL A   1      43.569  30.347  26.704  1.00  0.00     0.031 C 
ATOM     47  C   UNL A   1      37.942  29.159  29.727  1.00  0.00     0.029 A 
ATOM     48  C   UNL A   1      38.705  30.359  30.023  1.00  0.00     0.049 A 
ATOM     49  H   UNL A   1      40.765  30.631  29.796  1.00  0.00     0.167 HD
ATOM     50  C   UNL A   1      44.677  31.607  28.629  1.00  0.00     0.037 A 
ATOM     51  C   UNL A   1      38.270  31.533  30.536  1.00  0.00     0.037 A 
ATOM     52  C   UNL A   1      44.837  31.419  30.045  1.00  0.00     0.049 A 
ATOM     53  C   UNL A   1      39.425  32.220  31.157  1.00  0.00     0.074 A 
ATOM     54  C   UNL A   1      45.461  30.497  30.856  1.00  0.00     0.029 A 
ATOM     55  N   UNL A   1      44.024  32.164  30.855  1.00  0.00    -0.354 N 
ATOM     56  N   UNL A   1      40.031  31.805  32.235  1.00  0.00    -0.248 NA
ATOM     57  C   UNL A   1      40.111  33.278  30.427  1.00  0.00     0.031 C 
ATOM     58  C   UNL A   1      44.713  30.486  32.071  1.00  0.00     0.029 A 
ATOM     59  C   UNL A   1      43.672  31.406  31.939  1.00  0.00     0.049 A 
ATOM     60  H   UNL A   1      43.740  33.091  30.687  1.00  0.00     0.167 HD
ATOM     61  C   UNL A   1      41.336  32.233  32.086  1.00  0.00     0.074 A 
ATOM     62  C   UNL A   1      41.277  33.278  31.075  1.00  0.00     0.031 C 
ATOM     63  C   UNL A   1      42.373  31.491  32.569  1.00  0.00     0.037 A 
BRANCH  50  64
ATOM     64  C   UNL A   1      45.010  32.931  27.980  1.00  0.00     0.064 A 
ATOM     65  C   UNL A   1      46.357  33.234  27.679  1.00  0.00     0.173 A 
ATOM     66  C   UNL A   1      44.119  34.021  27.940  1.00  0.00     0.173 A 
ATOM     67  F   UNL A   1      47.296  32.278  27.708  1.00  0.00    -0.203 F 
ATOM     68  C   UNL A   1      46.786  34.542  27.433  1.00  0.00     0.198 A 
ATOM     69  C   UNL A   1      44.542  35.318  27.642  1.00  0.00     0.198 A 
ATOM     70  F   UNL A   1      42.834  33.898  28.296  1.00  0.00    -0.203 F 
ATOM     71  F   UNL A   1      48.092  34.797  27.279  1.00  0.00    -0.200 F 
ATOM     72  C   UNL A   1      45.879  35.584  27.422  1.00  0.00     0.200 A 
ATOM     73  F   UNL A   1      43.652  36.320  27.654  1.00  0.00    -0.200 F 
ATOM     74  F   UNL A   1      46.293  36.846  27.248  1.00  0.00    -0.200 F 
ENDBRANCH  50  64
BRANCH  51  75
ATOM     75  C   UNL A   1      36.934  32.154  30.423  1.00  0.00     0.064 A 
ATOM     76  C   UNL A   1      36.000  32.074  31.469  1.00  0.00     0.173 A 
ATOM     77  C   UNL A   1      36.635  33.055  29.383  1.00  0.00     0.173 A 
ATOM     78  F   UNL A   1      36.228  31.274  32.520  1.00  0.00    -0.203 F 
ATOM     79  C   UNL A   1      34.849  32.867  31.483  1.00  0.00     0.198 A 
ATOM     80  C   UNL A   1      35.479  33.836  29.392  1.00  0.00     0.198 A 
ATOM     81  F   UNL A   1      37.502  33.262  28.382  1.00  0.00    -0.203 F 
ATOM     82  F   UNL A   1      34.013  32.808  32.531  1.00  0.00    -0.200 F 
ATOM     83  C   UNL A   1      34.592  33.752  30.450  1.00  0.00     0.200 A 
ATOM     84  F   UNL A   1      35.261  34.711  28.400  1.00  0.00    -0.200 F 
ATOM     85  F   UNL A   1      33.518  34.551  30.492  1.00  0.00    -0.200 F 
ENDBRANCH  51  75
BRANCH  63  86
ATOM     86  C   UNL A   1      42.072  30.500  33.655  1.00  0.00     0.064 A 
ATOM     87  C   UNL A   1      41.686  29.170  33.426  1.00  0.00     0.173 A 
ATOM     88  C   UNL A   1      42.302  30.890  34.982  1.00  0.00     0.173 A 
ATOM     89  F   UNL A   1      41.542  28.697  32.181  1.00  0.00    -0.203 F 
ATOM     90  C   UNL A   1      41.491  28.286  34.484  1.00  0.00     0.198 A 
ATOM     91  C   UNL A   1      42.146  29.993  36.035  1.00  0.00     0.198 A 
ATOM     92  F   UNL A   1      42.724  32.134  35.255  1.00  0.00    -0.203 F 
ATOM     93  F   UNL A   1      41.102  27.025  34.244  1.00  0.00    -0.200 F 
ATOM     94  C   UNL A   1      41.730  28.695  35.787  1.00  0.00     0.200 A 
ATOM     95  F   UNL A   1      42.425  30.380  37.287  1.00  0.00    -0.200 F 
ATOM     96  F   UNL A   1      41.582  27.832  36.801  1.00  0.00    -0.200 F 
ENDBRANCH  63  86
ENDBRANCH  37  38
ENDBRANCH  29  32
ENDBRANCH  27  28
ENDBRANCH  26  27
ENDBRANCH  25  26
ENDBRANCH   1  25
TORSDOF 18
ENDMDL
