MODEL 1
REMARK VINA RESULT:     -12.1      0.000      0.000
REMARK SMILES Cc1cc(C)c2c(O[C@@H](C)C(=O)NCCCCCCNC(=O)c3ccc(-c4c5nc(c(-c6c(F)c(F)c(F)c(F)c6F)c6ccc([nH]6)c(-c6c(F)c(F)c(F)c(F)c6F)c6nc(c(-c7c(F)c(F)c(F)c(F)c7F)c7ccc4[nH]7)C=C6)C=C5)cc3)nsc2n1
REMARK SMILES IDX 16 1 15 2 14 3 13 4 11 5 12 6 9 8 10 9 8 10 7 11 1 12 2 13
REMARK SMILES IDX 3 14 89 15 4 16 88 17 5 18 6 19 87 20 86 21 17 22 18 23
REMARK SMILES IDX 19 24 20 25 21 26 22 28 23 29 24 30 85 31 25 32 84 33 26 34
REMARK SMILES IDX 27 35 28 36 78 37 29 38 83 39 77 40 79 41 30 42 82 43 76 44
REMARK SMILES IDX 75 45 31 47 63 48 43 49 62 50 44 51 47 52 61 53 80 54 45 55
REMARK SMILES IDX 46 56 60 58 81 59 48 60 32 61 33 62 41 63 34 64 35 65 39 66
REMARK SMILES IDX 42 67 36 68 37 69 40 70 38 71 64 72 65 73 73 74 66 75 67 76
REMARK SMILES IDX 71 77 74 78 68 79 69 80 72 81 70 82 49 83 50 84 58 85 51 86
REMARK SMILES IDX 52 87 56 88 59 89 53 90 54 91 57 92 55 93
REMARK H PARENT 13 7 20 27 79 46 47 57
REMARK Flexibility Score: inf
ROOT
ATOM      1  C   UNL A   1      33.626  28.308  26.360  1.00  0.00     0.002 C 
ENDROOT
BRANCH   1   2
ATOM      2  C   UNL A   1      32.250  27.858  26.860  1.00  0.00     0.021 C 
BRANCH   2   3
ATOM      3  C   UNL A   1      31.474  26.947  25.923  1.00  0.00     0.116 C 
BRANCH   3   4
ATOM      4  N   UNL A   1      30.616  25.943  26.495  1.00  0.00    -0.353 N 
ATOM      5  C   UNL A   1      30.648  24.598  26.219  1.00  0.00     0.260 C 
ATOM      6  O   UNL A   1      30.336  23.839  27.146  1.00  0.00    -0.271 OA
ATOM      7  H   UNL A   1      29.945  26.249  27.147  1.00  0.00     0.163 HD
BRANCH   5   8
ATOM      8  C   UNL A   1      30.964  24.000  24.788  1.00  0.00     0.260 C 
ATOM      9  C   UNL A   1      30.333  24.744  23.602  1.00  0.00     0.064 C 
BRANCH   8  10
ATOM     10  O   UNL A   1      31.283  22.681  24.465  1.00  0.00    -0.463 OA
BRANCH  10  11
ATOM     11  C   UNL A   1      32.326  21.969  24.953  1.00  0.00     0.235 A 
ATOM     12  C   UNL A   1      37.969  21.407  25.169  1.00  0.00     0.067 C 
ATOM     13  C   UNL A   1      36.502  21.695  25.295  1.00  0.00     0.039 A 
ATOM     14  C   UNL A   1      36.060  23.005  25.359  1.00  0.00     0.027 A 
ATOM     15  N   UNL A   1      35.673  20.646  25.287  1.00  0.00    -0.240 NA
ATOM     16  C   UNL A   1      34.682  23.321  25.290  1.00  0.00    -0.034 A 
ATOM     17  C   UNL A   1      34.364  20.957  25.270  1.00  0.00     0.147 A 
ATOM     18  C   UNL A   1      34.399  24.801  25.285  1.00  0.00     0.045 C 
ATOM     19  C   UNL A   1      33.756  22.224  25.219  1.00  0.00     0.078 A 
ATOM     20  S   UNL A   1      33.207  19.717  25.243  1.00  0.00    -0.012 S 
ATOM     21  N   UNL A   1      31.920  20.702  25.032  1.00  0.00    -0.153 NA
ENDBRANCH  10  11
ENDBRANCH   8  10
ENDBRANCH   5   8
ENDBRANCH   3   4
ENDBRANCH   2   3
ENDBRANCH   1   2
BRANCH   1  22
ATOM     22  C   UNL A   1      34.478  29.207  27.282  1.00  0.00     0.002 C 
BRANCH  22  23
ATOM     23  C   UNL A   1      34.008  30.646  27.533  1.00  0.00     0.021 C 
BRANCH  23  24
ATOM     24  C   UNL A   1      35.117  31.655  27.757  1.00  0.00     0.116 C 
BRANCH  24  25
ATOM     25  N   UNL A   1      35.013  32.416  29.004  1.00  0.00    -0.352 N 
ATOM     26  C   UNL A   1      35.588  32.135  30.240  1.00  0.00     0.251 C 
ATOM     27  H   UNL A   1      34.465  33.232  28.962  1.00  0.00     0.163 HD
ATOM     28  O   UNL A   1      35.170  32.658  31.257  1.00  0.00    -0.269 OA
BRANCH  26  29
ATOM     29  C   UNL A   1      36.726  31.188  30.304  1.00  0.00     0.039 A 
ATOM     30  C   UNL A   1      36.558  29.801  30.375  1.00  0.00     0.014 A 
ATOM     31  C   UNL A   1      38.005  31.721  30.298  1.00  0.00     0.014 A 
ATOM     32  C   UNL A   1      37.699  28.995  30.406  1.00  0.00     0.010 A 
ATOM     33  C   UNL A   1      39.084  30.941  30.019  1.00  0.00     0.010 A 
ATOM     34  C   UNL A   1      38.960  29.587  30.227  1.00  0.00    -0.014 A 
BRANCH  34  35
ATOM     35  C   UNL A   1      40.198  28.826  30.202  1.00  0.00     0.031 A 
ATOM     36  C   UNL A   1      40.816  28.675  31.533  1.00  0.00     0.074 A 
ATOM     37  C   UNL A   1      40.628  28.145  29.115  1.00  0.00     0.049 A 
ATOM     38  N   UNL A   1      41.879  29.261  31.961  1.00  0.00    -0.248 NA
ATOM     39  C   UNL A   1      40.079  27.931  32.565  1.00  0.00     0.031 C 
ATOM     40  C   UNL A   1      39.949  27.937  27.826  1.00  0.00     0.029 A 
ATOM     41  N   UNL A   1      41.762  27.409  28.966  1.00  0.00    -0.354 N 
ATOM     42  C   UNL A   1      42.071  28.793  33.255  1.00  0.00     0.074 A 
ATOM     43  C   UNL A   1      40.840  28.154  33.638  1.00  0.00     0.031 C 
ATOM     44  C   UNL A   1      40.581  26.969  27.124  1.00  0.00     0.029 A 
ATOM     45  C   UNL A   1      41.800  26.615  27.824  1.00  0.00     0.049 A 
ATOM     46  H   UNL A   1      42.501  27.436  29.617  1.00  0.00     0.167 HD
ATOM     47  C   UNL A   1      43.323  28.741  33.782  1.00  0.00     0.037 A 
ATOM     48  C   UNL A   1      42.770  25.729  27.488  1.00  0.00     0.037 A 
ATOM     49  C   UNL A   1      44.241  29.533  32.996  1.00  0.00     0.049 A 
ATOM     50  C   UNL A   1      43.979  26.116  28.255  1.00  0.00     0.074 A 
ATOM     51  C   UNL A   1      44.346  30.870  32.672  1.00  0.00     0.029 A 
ATOM     52  N   UNL A   1      45.010  28.857  32.080  1.00  0.00    -0.354 N 
ATOM     53  N   UNL A   1      44.642  27.221  28.058  1.00  0.00    -0.248 NA
ATOM     54  C   UNL A   1      44.191  25.478  29.545  1.00  0.00     0.031 C 
ATOM     55  C   UNL A   1      44.811  30.892  31.323  1.00  0.00     0.029 A 
ATOM     56  C   UNL A   1      45.031  29.575  30.914  1.00  0.00     0.049 A 
ATOM     57  H   UNL A   1      45.468  28.000  32.235  1.00  0.00     0.167 HD
ATOM     58  C   UNL A   1      44.999  27.645  29.329  1.00  0.00     0.074 A 
ATOM     59  C   UNL A   1      44.792  26.483  30.189  1.00  0.00     0.031 C 
ATOM     60  C   UNL A   1      45.147  28.974  29.603  1.00  0.00     0.037 A 
BRANCH  47  61
ATOM     61  C   UNL A   1      43.808  27.670  34.728  1.00  0.00     0.064 A 
ATOM     62  C   UNL A   1      44.384  28.061  35.953  1.00  0.00     0.173 A 
ATOM     63  C   UNL A   1      44.012  26.321  34.365  1.00  0.00     0.173 A 
ATOM     64  F   UNL A   1      44.272  29.325  36.389  1.00  0.00    -0.203 F 
ATOM     65  C   UNL A   1      45.173  27.192  36.710  1.00  0.00     0.198 A 
ATOM     66  C   UNL A   1      44.753  25.441  35.151  1.00  0.00     0.198 A 
ATOM     67  F   UNL A   1      43.612  25.824  33.190  1.00  0.00    -0.203 F 
ATOM     68  F   UNL A   1      45.810  27.648  37.797  1.00  0.00    -0.200 F 
ATOM     69  C   UNL A   1      45.361  25.884  36.305  1.00  0.00     0.200 A 
ATOM     70  F   UNL A   1      44.942  24.182  34.729  1.00  0.00    -0.200 F 
ATOM     71  F   UNL A   1      46.166  25.065  36.994  1.00  0.00    -0.200 F 
ENDBRANCH  47  61
BRANCH  48  72
ATOM     72  C   UNL A   1      42.659  24.417  26.804  1.00  0.00     0.064 A 
ATOM     73  C   UNL A   1      43.186  24.227  25.514  1.00  0.00     0.173 A 
ATOM     74  C   UNL A   1      42.318  23.251  27.515  1.00  0.00     0.173 A 
ATOM     75  F   UNL A   1      43.572  25.283  24.782  1.00  0.00    -0.203 F 
ATOM     76  C   UNL A   1      43.400  22.950  24.986  1.00  0.00     0.198 A 
ATOM     77  C   UNL A   1      42.530  21.975  26.986  1.00  0.00     0.198 A 
ATOM     78  F   UNL A   1      41.869  23.324  28.776  1.00  0.00    -0.203 F 
ATOM     79  F   UNL A   1      43.973  22.810  23.782  1.00  0.00    -0.200 F 
ATOM     80  C   UNL A   1      43.087  21.824  25.729  1.00  0.00     0.200 A 
ATOM     81  F   UNL A   1      42.257  20.893  27.729  1.00  0.00    -0.200 F 
ATOM     82  F   UNL A   1      43.359  20.601  25.255  1.00  0.00    -0.200 F 
ENDBRANCH  48  72
BRANCH  60  83
ATOM     83  C   UNL A   1      45.222  29.927  28.439  1.00  0.00     0.064 A 
ATOM     84  C   UNL A   1      44.113  30.588  27.882  1.00  0.00     0.173 A 
ATOM     85  C   UNL A   1      46.493  30.312  27.991  1.00  0.00     0.173 A 
ATOM     86  F   UNL A   1      42.870  30.334  28.307  1.00  0.00    -0.203 F 
ATOM     87  C   UNL A   1      44.275  31.578  26.912  1.00  0.00     0.198 A 
ATOM     88  C   UNL A   1      46.652  31.325  27.050  1.00  0.00     0.198 A 
ATOM     89  F   UNL A   1      47.589  29.745  28.519  1.00  0.00    -0.203 F 
ATOM     90  F   UNL A   1      43.201  32.199  26.398  1.00  0.00    -0.200 F 
ATOM     91  C   UNL A   1      45.544  31.955  26.509  1.00  0.00     0.200 A 
ATOM     92  F   UNL A   1      47.885  31.718  26.698  1.00  0.00    -0.200 F 
ATOM     93  F   UNL A   1      45.702  32.946  25.619  1.00  0.00    -0.200 F 
ENDBRANCH  60  83
ENDBRANCH  34  35
ENDBRANCH  26  29
ENDBRANCH  24  25
ENDBRANCH  23  24
ENDBRANCH  22  23
ENDBRANCH   1  22
TORSDOF 15
ENDMDL
MODEL 2
REMARK VINA RESULT:     -12.0      3.228      8.311
REMARK SMILES Cc1cc(C)c2c(O[C@@H](C)C(=O)NCCCCCCNC(=O)c3ccc(-c4c5nc(c(-c6c(F)c(F)c(F)c(F)c6F)c6ccc([nH]6)c(-c6c(F)c(F)c(F)c(F)c6F)c6nc(c(-c7c(F)c(F)c(F)c(F)c7F)c7ccc4[nH]7)C=C6)C=C5)cc3)nsc2n1
REMARK SMILES IDX 16 1 15 2 14 3 13 4 11 5 12 6 9 8 10 9 8 10 7 11 1 12 2 13
REMARK SMILES IDX 3 14 89 15 4 16 88 17 5 18 6 19 87 20 86 21 17 22 18 23
REMARK SMILES IDX 19 24 20 25 21 26 22 28 23 29 24 30 85 31 25 32 84 33 26 34
REMARK SMILES IDX 27 35 28 36 78 37 29 38 83 39 77 40 79 41 30 42 82 43 76 44
REMARK SMILES IDX 75 45 31 47 63 48 43 49 62 50 44 51 47 52 61 53 80 54 45 55
REMARK SMILES IDX 46 56 60 58 81 59 48 60 32 61 33 62 41 63 34 64 35 65 39 66
REMARK SMILES IDX 42 67 36 68 37 69 40 70 38 71 64 72 65 73 73 74 66 75 67 76
REMARK SMILES IDX 71 77 74 78 68 79 69 80 72 81 70 82 49 83 50 84 58 85 51 86
REMARK SMILES IDX 52 87 56 88 59 89 53 90 54 91 57 92 55 93
REMARK H PARENT 13 7 20 27 79 46 47 57
REMARK Flexibility Score: inf
ROOT
ATOM      1  C   UNL A   1      35.436  24.466  25.252  1.00  0.00     0.002 C 
ENDROOT
BRANCH   1   2
ATOM      2  C   UNL A   1      34.276  25.392  25.631  1.00  0.00     0.021 C 
BRANCH   2   3
ATOM      3  C   UNL A   1      33.815  26.349  24.545  1.00  0.00     0.116 C 
BRANCH   3   4
ATOM      4  N   UNL A   1      33.854  25.905  23.176  1.00  0.00    -0.353 N 
ATOM      5  C   UNL A   1      32.909  26.167  22.213  1.00  0.00     0.260 C 
ATOM      6  O   UNL A   1      33.325  26.271  21.052  1.00  0.00    -0.271 OA
ATOM      7  H   UNL A   1      34.630  25.365  22.904  1.00  0.00     0.163 HD
BRANCH   5   8
ATOM      8  C   UNL A   1      31.356  26.245  22.502  1.00  0.00     0.260 C 
ATOM      9  C   UNL A   1      30.762  27.659  22.579  1.00  0.00     0.064 C 
BRANCH   8  10
ATOM     10  O   UNL A   1      30.563  25.311  23.170  1.00  0.00    -0.463 OA
BRANCH  10  11
ATOM     11  C   UNL A   1      30.989  24.421  24.097  1.00  0.00     0.235 A 
ATOM     12  C   UNL A   1      32.514  19.055  25.140  1.00  0.00     0.067 C 
ATOM     13  C   UNL A   1      32.333  20.508  24.813  1.00  0.00     0.039 A 
ATOM     14  C   UNL A   1      32.799  21.005  23.608  1.00  0.00     0.027 A 
ATOM     15  N   UNL A   1      31.670  21.254  25.701  1.00  0.00    -0.240 NA
ATOM     16  C   UNL A   1      32.485  22.319  23.183  1.00  0.00    -0.034 A 
ATOM     17  C   UNL A   1      31.418  22.516  25.308  1.00  0.00     0.147 A 
ATOM     18  C   UNL A   1      33.004  22.652  21.808  1.00  0.00     0.045 C 
ATOM     19  C   UNL A   1      31.720  23.138  24.084  1.00  0.00     0.078 A 
ATOM     20  S   UNL A   1      30.570  23.563  26.338  1.00  0.00    -0.012 S 
ATOM     21  N   UNL A   1      30.430  24.778  25.253  1.00  0.00    -0.153 NA
ENDBRANCH  10  11
ENDBRANCH   8  10
ENDBRANCH   5   8
ENDBRANCH   3   4
ENDBRANCH   2   3
ENDBRANCH   1   2
BRANCH   1  22
ATOM     22  C   UNL A   1      35.251  22.945  25.454  1.00  0.00     0.002 C 
BRANCH  22  23
ATOM     23  C   UNL A   1      36.386  22.157  26.120  1.00  0.00     0.021 C 
BRANCH  23  24
ATOM     24  C   UNL A   1      37.784  22.631  25.780  1.00  0.00     0.116 C 
BRANCH  24  25
ATOM     25  N   UNL A   1      38.863  21.872  26.416  1.00  0.00    -0.352 N 
ATOM     26  C   UNL A   1      40.042  22.349  26.982  1.00  0.00     0.251 C 
ATOM     27  H   UNL A   1      38.738  20.896  26.449  1.00  0.00     0.163 HD
ATOM     28  O   UNL A   1      40.985  21.606  27.182  1.00  0.00    -0.269 OA
BRANCH  26  29
ATOM     29  C   UNL A   1      40.136  23.784  27.341  1.00  0.00     0.039 A 
ATOM     30  C   UNL A   1      39.118  24.704  27.073  1.00  0.00     0.014 A 
ATOM     31  C   UNL A   1      41.298  24.213  27.964  1.00  0.00     0.014 A 
ATOM     32  C   UNL A   1      39.297  26.030  27.476  1.00  0.00     0.010 A 
ATOM     33  C   UNL A   1      41.337  25.405  28.619  1.00  0.00     0.010 A 
ATOM     34  C   UNL A   1      40.420  26.363  28.252  1.00  0.00    -0.014 A 
BRANCH  34  35
ATOM     35  C   UNL A   1      40.670  27.703  28.753  1.00  0.00     0.031 A 
ATOM     36  C   UNL A   1      41.876  28.326  28.175  1.00  0.00     0.074 A 
ATOM     37  C   UNL A   1      39.779  28.393  29.502  1.00  0.00     0.049 A 
ATOM     38  N   UNL A   1      42.998  28.535  28.772  1.00  0.00    -0.248 NA
ATOM     39  C   UNL A   1      41.905  28.584  26.728  1.00  0.00     0.031 C 
ATOM     40  C   UNL A   1      38.404  28.026  29.876  1.00  0.00     0.029 A 
ATOM     41  N   UNL A   1      39.899  29.641  30.032  1.00  0.00    -0.354 N 
ATOM     42  C   UNL A   1      43.814  29.152  27.833  1.00  0.00     0.074 A 
ATOM     43  C   UNL A   1      43.172  28.967  26.558  1.00  0.00     0.031 C 
ATOM     44  C   UNL A   1      37.760  29.103  30.379  1.00  0.00     0.029 A 
ATOM     45  C   UNL A   1      38.717  30.181  30.530  1.00  0.00     0.049 A 
ATOM     46  H   UNL A   1      40.756  30.124  30.060  1.00  0.00     0.167 HD
ATOM     47  C   UNL A   1      44.804  29.993  28.236  1.00  0.00     0.037 A 
ATOM     48  C   UNL A   1      38.548  31.432  31.028  1.00  0.00     0.037 A 
ATOM     49  C   UNL A   1      45.067  29.829  29.647  1.00  0.00     0.049 A 
ATOM     50  C   UNL A   1      39.896  31.920  31.409  1.00  0.00     0.074 A 
ATOM     51  C   UNL A   1      45.511  28.793  30.444  1.00  0.00     0.029 A 
ATOM     52  N   UNL A   1      44.474  30.733  30.494  1.00  0.00    -0.354 N 
ATOM     53  N   UNL A   1      40.605  31.414  32.379  1.00  0.00    -0.248 NA
ATOM     54  C   UNL A   1      40.640  32.684  30.420  1.00  0.00     0.031 C 
ATOM     55  C   UNL A   1      44.777  28.917  31.661  1.00  0.00     0.029 A 
ATOM     56  C   UNL A   1      43.975  30.057  31.575  1.00  0.00     0.049 A 
ATOM     57  H   UNL A   1      44.416  31.705  30.348  1.00  0.00     0.167 HD
ATOM     58  C   UNL A   1      41.905  31.416  31.898  1.00  0.00     0.074 A 
ATOM     59  C   UNL A   1      41.880  32.306  30.740  1.00  0.00     0.031 C 
ATOM     60  C   UNL A   1      42.801  30.473  32.311  1.00  0.00     0.037 A 
BRANCH  47  61
ATOM     61  C   UNL A   1      45.233  31.230  27.487  1.00  0.00     0.064 A 
ATOM     62  C   UNL A   1      46.572  31.331  27.060  1.00  0.00     0.173 A 
ATOM     63  C   UNL A   1      44.489  32.429  27.439  1.00  0.00     0.173 A 
ATOM     64  F   UNL A   1      47.379  30.259  27.082  1.00  0.00    -0.203 F 
ATOM     65  C   UNL A   1      47.142  32.553  26.696  1.00  0.00     0.198 A 
ATOM     66  C   UNL A   1      45.046  33.636  27.022  1.00  0.00     0.198 A 
ATOM     67  F   UNL A   1      43.237  32.518  27.900  1.00  0.00    -0.203 F 
ATOM     68  F   UNL A   1      48.453  32.621  26.428  1.00  0.00    -0.200 F 
ATOM     69  C   UNL A   1      46.379  33.706  26.683  1.00  0.00     0.200 A 
ATOM     70  F   UNL A   1      44.295  34.747  27.038  1.00  0.00    -0.200 F 
ATOM     71  F   UNL A   1      46.937  34.889  26.395  1.00  0.00    -0.200 F 
ENDBRANCH  47  61
BRANCH  48  72
ATOM     72  C   UNL A   1      37.381  32.342  30.923  1.00  0.00     0.064 A 
ATOM     73  C   UNL A   1      37.102  33.025  29.726  1.00  0.00     0.173 A 
ATOM     74  C   UNL A   1      36.350  32.317  31.881  1.00  0.00     0.173 A 
ATOM     75  F   UNL A   1      38.015  33.065  28.744  1.00  0.00    -0.203 F 
ATOM     76  C   UNL A   1      35.854  33.609  29.484  1.00  0.00     0.198 A 
ATOM     77  C   UNL A   1      35.104  32.903  31.640  1.00  0.00     0.198 A 
ATOM     78  F   UNL A   1      36.496  31.637  33.027  1.00  0.00    -0.203 F 
ATOM     79  F   UNL A   1      35.603  34.188  28.301  1.00  0.00    -0.200 F 
ATOM     80  C   UNL A   1      34.851  33.533  30.435  1.00  0.00     0.200 A 
ATOM     81  F   UNL A   1      34.129  32.791  32.553  1.00  0.00    -0.200 F 
ATOM     82  F   UNL A   1      33.632  34.028  30.177  1.00  0.00    -0.200 F 
ENDBRANCH  48  72
BRANCH  60  83
ATOM     83  C   UNL A   1      42.441  29.641  33.514  1.00  0.00     0.064 A 
ATOM     84  C   UNL A   1      41.815  28.383  33.451  1.00  0.00     0.173 A 
ATOM     85  C   UNL A   1      42.909  30.065  34.765  1.00  0.00     0.173 A 
ATOM     86  F   UNL A   1      41.407  27.871  32.284  1.00  0.00    -0.203 F 
ATOM     87  C   UNL A   1      41.657  27.597  34.592  1.00  0.00     0.198 A 
ATOM     88  C   UNL A   1      42.782  29.262  35.895  1.00  0.00     0.198 A 
ATOM     89  F   UNL A   1      43.551  31.238  34.877  1.00  0.00    -0.203 F 
ATOM     90  F   UNL A   1      41.061  26.397  34.506  1.00  0.00    -0.200 F 
ATOM     91  C   UNL A   1      42.154  28.031  35.809  1.00  0.00     0.200 A 
ATOM     92  F   UNL A   1      43.305  29.668  37.061  1.00  0.00    -0.200 F 
ATOM     93  F   UNL A   1      42.053  27.252  36.896  1.00  0.00    -0.200 F 
ENDBRANCH  60  83
ENDBRANCH  34  35
ENDBRANCH  26  29
ENDBRANCH  24  25
ENDBRANCH  23  24
ENDBRANCH  22  23
ENDBRANCH   1  22
TORSDOF 15
ENDMDL
MODEL 3
REMARK VINA RESULT:     -11.9      1.805      3.237
REMARK SMILES Cc1cc(C)c2c(O[C@@H](C)C(=O)NCCCCCCNC(=O)c3ccc(-c4c5nc(c(-c6c(F)c(F)c(F)c(F)c6F)c6ccc([nH]6)c(-c6c(F)c(F)c(F)c(F)c6F)c6nc(c(-c7c(F)c(F)c(F)c(F)c7F)c7ccc4[nH]7)C=C6)C=C5)cc3)nsc2n1
REMARK SMILES IDX 16 1 15 2 14 3 13 4 11 5 12 6 9 8 10 9 8 10 7 11 1 12 2 13
REMARK SMILES IDX 3 14 89 15 4 16 88 17 5 18 6 19 87 20 86 21 17 22 18 23
REMARK SMILES IDX 19 24 20 25 21 26 22 28 23 29 24 30 85 31 25 32 84 33 26 34
REMARK SMILES IDX 27 35 28 36 78 37 29 38 83 39 77 40 79 41 30 42 82 43 76 44
REMARK SMILES IDX 75 45 31 47 63 48 43 49 62 50 44 51 47 52 61 53 80 54 45 55
REMARK SMILES IDX 46 56 60 58 81 59 48 60 32 61 33 62 41 63 34 64 35 65 39 66
REMARK SMILES IDX 42 67 36 68 37 69 40 70 38 71 64 72 65 73 73 74 66 75 67 76
REMARK SMILES IDX 71 77 74 78 68 79 69 80 72 81 70 82 49 83 50 84 58 85 51 86
REMARK SMILES IDX 52 87 56 88 59 89 53 90 54 91 57 92 55 93
REMARK H PARENT 13 7 20 27 79 46 47 57
REMARK Flexibility Score: inf
ROOT
ATOM      1  C   UNL A   1      32.105  29.819  26.603  1.00  0.00     0.002 C 
ENDROOT
BRANCH   1   2
ATOM      2  C   UNL A   1      31.636  28.612  27.421  1.00  0.00     0.021 C 
BRANCH   2   3
ATOM      3  C   UNL A   1      31.967  27.250  26.835  1.00  0.00     0.116 C 
BRANCH   3   4
ATOM      4  N   UNL A   1      30.916  26.272  26.732  1.00  0.00    -0.353 N 
ATOM      5  C   UNL A   1      31.033  25.010  26.203  1.00  0.00     0.260 C 
ATOM      6  O   UNL A   1      30.313  24.136  26.703  1.00  0.00    -0.271 OA
ATOM      7  H   UNL A   1      30.031  26.532  27.074  1.00  0.00     0.163 HD
BRANCH   5   8
ATOM      8  C   UNL A   1      31.948  24.657  24.962  1.00  0.00     0.260 C 
ATOM      9  C   UNL A   1      33.259  23.927  25.286  1.00  0.00     0.064 C 
BRANCH   8  10
ATOM     10  O   UNL A   1      32.010  25.313  23.731  1.00  0.00    -0.463 OA
BRANCH  10  11
ATOM     11  C   UNL A   1      31.824  26.638  23.524  1.00  0.00     0.235 A 
ATOM     12  C   UNL A   1      28.399  30.657  21.445  1.00  0.00     0.067 C 
ATOM     13  C   UNL A   1      29.187  29.621  22.191  1.00  0.00     0.039 A 
ATOM     14  C   UNL A   1      28.528  28.607  22.864  1.00  0.00     0.027 A 
ATOM     15  N   UNL A   1      30.519  29.705  22.125  1.00  0.00    -0.240 NA
ATOM     16  C   UNL A   1      29.233  27.512  23.419  1.00  0.00    -0.034 A 
ATOM     17  C   UNL A   1      31.182  28.683  22.698  1.00  0.00     0.147 A 
ATOM     18  C   UNL A   1      28.341  26.464  24.033  1.00  0.00     0.045 C 
ATOM     19  C   UNL A   1      30.666  27.531  23.317  1.00  0.00     0.078 A 
ATOM     20  S   UNL A   1      32.877  28.661  22.668  1.00  0.00    -0.012 S 
ATOM     21  N   UNL A   1      33.030  27.161  23.301  1.00  0.00    -0.153 NA
ENDBRANCH  10  11
ENDBRANCH   8  10
ENDBRANCH   5   8
ENDBRANCH   3   4
ENDBRANCH   2   3
ENDBRANCH   1   2
BRANCH   1  22
ATOM     22  C   UNL A   1      32.970  30.886  27.308  1.00  0.00     0.002 C 
BRANCH  22  23
ATOM     23  C   UNL A   1      34.450  30.572  27.561  1.00  0.00     0.021 C 
BRANCH  23  24
ATOM     24  C   UNL A   1      35.328  31.780  27.820  1.00  0.00     0.116 C 
BRANCH  24  25
ATOM     25  N   UNL A   1      35.129  32.417  29.123  1.00  0.00    -0.352 N 
ATOM     26  C   UNL A   1      35.616  32.021  30.366  1.00  0.00     0.251 C 
ATOM     27  H   UNL A   1      34.579  33.233  29.121  1.00  0.00     0.163 HD
ATOM     28  O   UNL A   1      35.121  32.443  31.395  1.00  0.00    -0.269 OA
BRANCH  26  29
ATOM     29  C   UNL A   1      36.754  31.072  30.421  1.00  0.00     0.039 A 
ATOM     30  C   UNL A   1      36.586  29.688  30.524  1.00  0.00     0.014 A 
ATOM     31  C   UNL A   1      38.033  31.604  30.374  1.00  0.00     0.014 A 
ATOM     32  C   UNL A   1      37.727  28.881  30.543  1.00  0.00     0.010 A 
ATOM     33  C   UNL A   1      39.104  30.817  30.084  1.00  0.00     0.010 A 
ATOM     34  C   UNL A   1      38.984  29.467  30.322  1.00  0.00    -0.014 A 
BRANCH  34  35
ATOM     35  C   UNL A   1      40.219  28.704  30.282  1.00  0.00     0.031 A 
ATOM     36  C   UNL A   1      40.850  28.547  31.607  1.00  0.00     0.074 A 
ATOM     37  C   UNL A   1      40.638  28.026  29.189  1.00  0.00     0.049 A 
ATOM     38  N   UNL A   1      41.919  29.130  32.026  1.00  0.00    -0.248 NA
ATOM     39  C   UNL A   1      40.122  27.801  32.643  1.00  0.00     0.031 C 
ATOM     40  C   UNL A   1      39.946  27.823  27.906  1.00  0.00     0.029 A 
ATOM     41  N   UNL A   1      41.769  27.288  29.026  1.00  0.00    -0.354 N 
ATOM     42  C   UNL A   1      42.123  28.657  33.316  1.00  0.00     0.074 A 
ATOM     43  C   UNL A   1      40.894  28.019  33.710  1.00  0.00     0.031 C 
ATOM     44  C   UNL A   1      40.569  26.856  27.194  1.00  0.00     0.029 A 
ATOM     45  C   UNL A   1      41.794  26.498  27.881  1.00  0.00     0.049 A 
ATOM     46  H   UNL A   1      42.514  27.312  29.670  1.00  0.00     0.167 HD
ATOM     47  C   UNL A   1      43.380  28.601  33.831  1.00  0.00     0.037 A 
ATOM     48  C   UNL A   1      42.759  25.611  27.533  1.00  0.00     0.037 A 
ATOM     49  C   UNL A   1      44.291  29.393  33.039  1.00  0.00     0.049 A 
ATOM     50  C   UNL A   1      43.977  25.993  28.289  1.00  0.00     0.074 A 
ATOM     51  C   UNL A   1      44.396  30.732  32.718  1.00  0.00     0.029 A 
ATOM     52  N   UNL A   1      45.050  28.720  32.113  1.00  0.00    -0.354 N 
ATOM     53  N   UNL A   1      44.640  27.098  28.090  1.00  0.00    -0.248 NA
ATOM     54  C   UNL A   1      44.199  25.351  29.575  1.00  0.00     0.031 C 
ATOM     55  C   UNL A   1      44.848  30.757  31.365  1.00  0.00     0.029 A 
ATOM     56  C   UNL A   1      45.061  29.441  30.949  1.00  0.00     0.049 A 
ATOM     57  H   UNL A   1      45.508  27.861  32.261  1.00  0.00     0.167 HD
ATOM     58  C   UNL A   1      45.010  27.517  29.358  1.00  0.00     0.074 A 
ATOM     59  C   UNL A   1      44.809  26.352  30.216  1.00  0.00     0.031 C 
ATOM     60  C   UNL A   1      45.163  28.844  29.635  1.00  0.00     0.037 A 
BRANCH  47  61
ATOM     61  C   UNL A   1      43.872  27.526  34.769  1.00  0.00     0.064 A 
ATOM     62  C   UNL A   1      44.414  27.909  36.011  1.00  0.00     0.173 A 
ATOM     63  C   UNL A   1      44.116  26.188  34.388  1.00  0.00     0.173 A 
ATOM     64  F   UNL A   1      44.262  29.163  36.466  1.00  0.00    -0.203 F 
ATOM     65  C   UNL A   1      45.209  27.047  36.769  1.00  0.00     0.198 A 
ATOM     66  C   UNL A   1      44.862  25.313  35.173  1.00  0.00     0.198 A 
ATOM     67  F   UNL A   1      43.751  25.702  33.197  1.00  0.00    -0.203 F 
ATOM     68  F   UNL A   1      45.813  27.500  37.876  1.00  0.00    -0.200 F 
ATOM     69  C   UNL A   1      45.436  25.750  36.346  1.00  0.00     0.200 A 
ATOM     70  F   UNL A   1      45.090  24.067  34.734  1.00  0.00    -0.200 F 
ATOM     71  F   UNL A   1      46.248  24.940  37.038  1.00  0.00    -0.200 F 
ENDBRANCH  47  61
BRANCH  48  72
ATOM     72  C   UNL A   1      42.638  24.302  26.846  1.00  0.00     0.064 A 
ATOM     73  C   UNL A   1      43.199  24.100  25.571  1.00  0.00     0.173 A 
ATOM     74  C   UNL A   1      42.251  23.144  27.546  1.00  0.00     0.173 A 
ATOM     75  F   UNL A   1      43.630  25.146  24.851  1.00  0.00    -0.203 F 
ATOM     76  C   UNL A   1      43.400  22.817  25.050  1.00  0.00     0.198 A 
ATOM     77  C   UNL A   1      42.450  21.863  27.023  1.00  0.00     0.198 A 
ATOM     78  F   UNL A   1      41.767  23.228  28.794  1.00  0.00    -0.203 F 
ATOM     79  F   UNL A   1      44.004  22.665  23.863  1.00  0.00    -0.200 F 
ATOM     80  C   UNL A   1      43.040  21.699  25.783  1.00  0.00     0.200 A 
ATOM     81  F   UNL A   1      42.131  20.788  27.758  1.00  0.00    -0.200 F 
ATOM     82  F   UNL A   1      43.298  20.470  25.317  1.00  0.00    -0.200 F 
ENDBRANCH  48  72
BRANCH  60  83
ATOM     83  C   UNL A   1      45.228  29.801  28.473  1.00  0.00     0.064 A 
ATOM     84  C   UNL A   1      44.114  30.457  27.922  1.00  0.00     0.173 A 
ATOM     85  C   UNL A   1      46.495  30.196  28.023  1.00  0.00     0.173 A 
ATOM     86  F   UNL A   1      42.874  30.194  28.349  1.00  0.00    -0.203 F 
ATOM     87  C   UNL A   1      44.266  31.451  26.954  1.00  0.00     0.198 A 
ATOM     88  C   UNL A   1      46.645  31.213  27.085  1.00  0.00     0.198 A 
ATOM     89  F   UNL A   1      47.597  29.634  28.546  1.00  0.00    -0.203 F 
ATOM     90  F   UNL A   1      43.187  32.066  26.445  1.00  0.00    -0.200 F 
ATOM     91  C   UNL A   1      45.532  31.837  26.548  1.00  0.00     0.200 A 
ATOM     92  F   UNL A   1      47.874  31.614  26.730  1.00  0.00    -0.200 F 
ATOM     93  F   UNL A   1      45.681  32.831  25.661  1.00  0.00    -0.200 F 
ENDBRANCH  60  83
ENDBRANCH  34  35
ENDBRANCH  26  29
ENDBRANCH  24  25
ENDBRANCH  23  24
ENDBRANCH  22  23
ENDBRANCH   1  22
TORSDOF 15
ENDMDL
