MODEL 1
REMARK VINA RESULT:     -10.5      0.000      0.000
REMARK SMILES CCC(CC)C[N@H+]1[C@@H]2CC[C@H]1C[C@H](CC(=O)NCCCCCCNC(=O)c1ccc(-c3c4nc(c(-c5c(F)c(F)c(F)c(F)c5F)c5ccc([nH]5)c(-c5c(F)c(F)c(F)c(F)c5F)c5nc(c(-c6c(F)c(F)c(F)c(F)c6F)c6ccc3[nH]6)C=C5)C=C4)cc1)C2
REMARK SMILES IDX 19 1 18 2 17 3 15 4 16 5 14 7 13 8 7 9 8 10 11 11 9 13 90 14
REMARK SMILES IDX 10 15 12 16 6 17 3 18 2 19 1 20 4 21 5 22 20 23 21 24 22 25
REMARK SMILES IDX 23 26 24 27 25 28 26 30 27 31 28 32 89 33 29 34 88 35 30 36
REMARK SMILES IDX 31 37 32 38 82 39 33 40 87 41 81 42 83 43 34 44 86 45 80 46
REMARK SMILES IDX 79 47 35 49 67 50 47 51 66 52 48 53 51 54 65 55 84 56 49 57
REMARK SMILES IDX 50 58 64 60 85 61 52 62 36 63 37 64 45 65 38 66 39 67 43 68
REMARK SMILES IDX 46 69 40 70 41 71 44 72 42 73 68 74 69 75 77 76 70 77 71 78
REMARK SMILES IDX 75 79 78 80 72 81 73 82 76 83 74 84 53 85 54 86 62 87 55 88
REMARK SMILES IDX 56 89 60 90 63 91 57 92 58 93 61 94 59 95
REMARK H PARENT 17 6 7 12 24 29 83 48 51 59
REMARK Flexibility Score: inf
ROOT
ATOM      1  C   UNL A   1      40.121  22.818  27.437  1.00  0.00     0.021 C 
ENDROOT
BRANCH   1   2
ATOM      2  C   UNL A   1      39.080  23.445  26.506  1.00  0.00     0.116 C 
BRANCH   2   3
ATOM      3  N   UNL A   1      38.565  22.458  25.573  1.00  0.00    -0.356 N 
ATOM      4  C   UNL A   1      37.402  22.416  24.868  1.00  0.00     0.220 C 
ATOM      5  O   UNL A   1      37.156  21.399  24.216  1.00  0.00    -0.275 OA
ATOM      6  H   UNL A   1      39.159  21.686  25.427  1.00  0.00     0.163 HD
BRANCH   4   7
ATOM      7  C   UNL A   1      36.435  23.587  24.861  1.00  0.00     0.104 C 
BRANCH   7   8
ATOM      8  C   UNL A   1      35.197  23.386  25.762  1.00  0.00     0.010 C 
ATOM      9  N   UNL A   1      33.088  21.274  25.809  1.00  0.00    -0.330 N 
ATOM     10  C   UNL A   1      33.977  21.449  26.972  1.00  0.00     0.184 C 
ATOM     11  C   UNL A   1      32.712  22.654  25.493  1.00  0.00     0.184 C 
ATOM     12  H   UNL A   1      32.291  20.674  26.023  1.00  0.00     0.348 HD
ATOM     13  C   UNL A   1      33.147  22.399  27.847  1.00  0.00     0.071 C 
ATOM     14  C   UNL A   1      35.328  22.074  26.574  1.00  0.00     0.069 C 
ATOM     15  C   UNL A   1      32.287  23.183  26.861  1.00  0.00     0.071 C 
ATOM     16  C   UNL A   1      33.896  23.453  24.939  1.00  0.00     0.069 C 
BRANCH   9  17
ATOM     17  C   UNL A   1      33.651  20.519  24.680  1.00  0.00     0.266 C 
BRANCH  17  18
ATOM     18  C   UNL A   1      32.936  19.165  24.456  1.00  0.00     0.044 C 
BRANCH  18  19
ATOM     19  C   UNL A   1      32.153  19.196  23.128  1.00  0.00     0.006 C 
ATOM     20  C   UNL A   1      32.153  20.564  22.464  1.00  0.00     0.004 C 
ENDBRANCH  18  19
BRANCH  18  21
ATOM     21  C   UNL A   1      33.924  17.985  24.579  1.00  0.00     0.006 C 
ATOM     22  C   UNL A   1      34.025  17.076  23.366  1.00  0.00     0.004 C 
ENDBRANCH  18  21
ENDBRANCH  17  18
ENDBRANCH   9  17
ENDBRANCH   7   8
ENDBRANCH   4   7
ENDBRANCH   2   3
ENDBRANCH   1   2
BRANCH   1  23
ATOM     23  C   UNL A   1      41.130  21.901  26.747  1.00  0.00     0.002 C 
BRANCH  23  24
ATOM     24  C   UNL A   1      41.968  21.035  27.689  1.00  0.00     0.002 C 
BRANCH  24  25
ATOM     25  C   UNL A   1      42.276  19.617  27.196  1.00  0.00     0.021 C 
BRANCH  25  26
ATOM     26  C   UNL A   1      41.986  19.354  25.719  1.00  0.00     0.116 C 
BRANCH  26  27
ATOM     27  N   UNL A   1      43.159  18.888  25.000  1.00  0.00    -0.352 N 
ATOM     28  C   UNL A   1      44.264  19.573  24.562  1.00  0.00     0.251 C 
ATOM     29  H   UNL A   1      43.161  17.925  24.792  1.00  0.00     0.163 HD
ATOM     30  O   UNL A   1      45.049  19.036  23.790  1.00  0.00    -0.269 OA
BRANCH  28  31
ATOM     31  C   UNL A   1      44.515  20.962  25.007  1.00  0.00     0.039 A 
ATOM     32  C   UNL A   1      43.992  22.012  24.247  1.00  0.00     0.014 A 
ATOM     33  C   UNL A   1      45.305  21.237  26.126  1.00  0.00     0.014 A 
ATOM     34  C   UNL A   1      44.220  23.334  24.635  1.00  0.00     0.010 A 
ATOM     35  C   UNL A   1      45.478  22.554  26.551  1.00  0.00     0.010 A 
ATOM     36  C   UNL A   1      44.944  23.616  25.804  1.00  0.00    -0.014 A 
BRANCH  36  37
ATOM     37  C   UNL A   1      45.151  25.018  26.248  1.00  0.00     0.031 A 
ATOM     38  C   UNL A   1      46.506  25.662  26.141  1.00  0.00     0.074 A 
ATOM     39  C   UNL A   1      44.121  25.702  26.782  1.00  0.00     0.049 A 
ATOM     40  N   UNL A   1      46.876  26.872  26.479  1.00  0.00    -0.248 NA
ATOM     41  C   UNL A   1      47.594  24.830  25.605  1.00  0.00     0.031 C 
ATOM     42  C   UNL A   1      42.774  25.170  26.989  1.00  0.00     0.029 A 
ATOM     43  N   UNL A   1      44.046  26.990  27.247  1.00  0.00    -0.354 N 
ATOM     44  C   UNL A   1      48.236  26.942  26.206  1.00  0.00     0.074 A 
ATOM     45  C   UNL A   1      48.637  25.637  25.726  1.00  0.00     0.031 C 
ATOM     46  C   UNL A   1      41.997  26.133  27.514  1.00  0.00     0.029 A 
ATOM     47  C   UNL A   1      42.798  27.338  27.705  1.00  0.00     0.049 A 
ATOM     48  H   UNL A   1      44.813  27.608  27.254  1.00  0.00     0.167 HD
ATOM     49  C   UNL A   1      49.069  28.004  26.321  1.00  0.00     0.037 A 
ATOM     50  C   UNL A   1      42.350  28.501  28.214  1.00  0.00     0.037 A 
ATOM     51  C   UNL A   1      48.663  29.308  26.778  1.00  0.00     0.049 A 
ATOM     52  C   UNL A   1      43.291  29.670  28.317  1.00  0.00     0.074 A 
ATOM     53  C   UNL A   1      49.418  30.464  26.877  1.00  0.00     0.029 A 
ATOM     54  N   UNL A   1      47.385  29.629  27.214  1.00  0.00    -0.354 N 
ATOM     55  N   UNL A   1      44.558  29.745  27.986  1.00  0.00    -0.248 NA
ATOM     56  C   UNL A   1      42.735  30.921  28.852  1.00  0.00     0.031 C 
ATOM     57  C   UNL A   1      48.608  31.473  27.411  1.00  0.00     0.029 A 
ATOM     58  C   UNL A   1      47.336  30.959  27.599  1.00  0.00     0.049 A 
ATOM     59  H   UNL A   1      46.626  29.003  27.245  1.00  0.00     0.167 HD
ATOM     60  C   UNL A   1      44.943  31.052  28.247  1.00  0.00     0.074 A 
ATOM     61  C   UNL A   1      43.771  31.741  28.747  1.00  0.00     0.031 C 
ATOM     62  C   UNL A   1      46.159  31.630  28.092  1.00  0.00     0.037 A 
BRANCH  49  63
ATOM     63  C   UNL A   1      50.507  27.802  25.938  1.00  0.00     0.064 A 
ATOM     64  C   UNL A   1      51.488  27.505  26.898  1.00  0.00     0.173 A 
ATOM     65  C   UNL A   1      50.906  27.871  24.595  1.00  0.00     0.173 A 
ATOM     66  F   UNL A   1      51.161  27.439  28.198  1.00  0.00    -0.203 F 
ATOM     67  C   UNL A   1      52.817  27.316  26.531  1.00  0.00     0.198 A 
ATOM     68  C   UNL A   1      52.232  27.652  24.229  1.00  0.00     0.198 A 
ATOM     69  F   UNL A   1      50.008  28.145  23.637  1.00  0.00    -0.203 F 
ATOM     70  F   UNL A   1      53.744  27.082  27.471  1.00  0.00    -0.200 F 
ATOM     71  C   UNL A   1      53.187  27.383  25.197  1.00  0.00     0.200 A 
ATOM     72  F   UNL A   1      52.586  27.705  22.937  1.00  0.00    -0.200 F 
ATOM     73  F   UNL A   1      54.466  27.193  24.844  1.00  0.00    -0.200 F 
ENDBRANCH  49  63
BRANCH  50  74
ATOM     74  C   UNL A   1      40.928  28.630  28.626  1.00  0.00     0.064 A 
ATOM     75  C   UNL A   1      40.534  28.344  29.940  1.00  0.00     0.173 A 
ATOM     76  C   UNL A   1      39.939  29.038  27.721  1.00  0.00     0.173 A 
ATOM     77  F   UNL A   1      41.441  27.931  30.837  1.00  0.00    -0.203 F 
ATOM     78  C   UNL A   1      39.199  28.441  30.329  1.00  0.00     0.198 A 
ATOM     79  C   UNL A   1      38.609  29.161  28.118  1.00  0.00     0.198 A 
ATOM     80  F   UNL A   1      40.266  29.329  26.453  1.00  0.00    -0.203 F 
ATOM     81  F   UNL A   1      38.842  28.118  31.579  1.00  0.00    -0.200 F 
ATOM     82  C   UNL A   1      38.238  28.855  29.419  1.00  0.00     0.200 A 
ATOM     83  F   UNL A   1      37.685  29.575  27.239  1.00  0.00    -0.200 F 
ATOM     84  F   UNL A   1      36.955  28.951  29.793  1.00  0.00    -0.200 F 
ENDBRANCH  50  74
BRANCH  62  85
ATOM     85  C   UNL A   1      46.273  33.086  28.438  1.00  0.00     0.064 A 
ATOM     86  C   UNL A   1      46.031  34.089  27.487  1.00  0.00     0.173 A 
ATOM     87  C   UNL A   1      46.613  33.483  29.739  1.00  0.00     0.173 A 
ATOM     88  F   UNL A   1      45.718  33.760  26.224  1.00  0.00    -0.203 F 
ATOM     89  C   UNL A   1      46.156  35.435  27.819  1.00  0.00     0.198 A 
ATOM     90  C   UNL A   1      46.709  34.830  30.076  1.00  0.00     0.198 A 
ATOM     91  F   UNL A   1      46.849  32.564  30.687  1.00  0.00    -0.203 F 
ATOM     92  F   UNL A   1      45.974  36.375  26.881  1.00  0.00    -0.200 F 
ATOM     93  C   UNL A   1      46.489  35.805  29.113  1.00  0.00     0.200 A 
ATOM     94  F   UNL A   1      47.020  35.187  31.330  1.00  0.00    -0.200 F 
ATOM     95  F   UNL A   1      46.610  37.101  29.431  1.00  0.00    -0.200 F 
ENDBRANCH  62  85
ENDBRANCH  36  37
ENDBRANCH  28  31
ENDBRANCH  26  27
ENDBRANCH  25  26
ENDBRANCH  24  25
ENDBRANCH  23  24
ENDBRANCH   1  23
TORSDOF 18
ENDMDL
MODEL 2
REMARK VINA RESULT:     -10.4      7.002     12.359
REMARK SMILES CCC(CC)C[N@H+]1[C@@H]2CC[C@H]1C[C@H](CC(=O)NCCCCCCNC(=O)c1ccc(-c3c4nc(c(-c5c(F)c(F)c(F)c(F)c5F)c5ccc([nH]5)c(-c5c(F)c(F)c(F)c(F)c5F)c5nc(c(-c6c(F)c(F)c(F)c(F)c6F)c6ccc3[nH]6)C=C5)C=C4)cc1)C2
REMARK SMILES IDX 19 1 18 2 17 3 15 4 16 5 14 7 13 8 7 9 8 10 11 11 9 13 90 14
REMARK SMILES IDX 10 15 12 16 6 17 3 18 2 19 1 20 4 21 5 22 20 23 21 24 22 25
REMARK SMILES IDX 23 26 24 27 25 28 26 30 27 31 28 32 89 33 29 34 88 35 30 36
REMARK SMILES IDX 31 37 32 38 82 39 33 40 87 41 81 42 83 43 34 44 86 45 80 46
REMARK SMILES IDX 79 47 35 49 67 50 47 51 66 52 48 53 51 54 65 55 84 56 49 57
REMARK SMILES IDX 50 58 64 60 85 61 52 62 36 63 37 64 45 65 38 66 39 67 43 68
REMARK SMILES IDX 46 69 40 70 41 71 44 72 42 73 68 74 69 75 77 76 70 77 71 78
REMARK SMILES IDX 75 79 78 80 72 81 73 82 76 83 74 84 53 85 54 86 62 87 55 88
REMARK SMILES IDX 56 89 60 90 63 91 57 92 58 93 61 94 59 95
REMARK H PARENT 17 6 7 12 24 29 83 48 51 59
REMARK Flexibility Score: inf
ROOT
ATOM      1  C   UNL A   1      35.633  32.027  28.012  1.00  0.00     0.021 C 
ENDROOT
BRANCH   1   2
ATOM      2  C   UNL A   1      35.128  30.623  27.663  1.00  0.00     0.116 C 
BRANCH   2   3
ATOM      3  N   UNL A   1      33.679  30.610  27.562  1.00  0.00    -0.356 N 
ATOM      4  C   UNL A   1      32.815  29.606  27.251  1.00  0.00     0.220 C 
ATOM      5  O   UNL A   1      31.620  29.887  27.128  1.00  0.00    -0.275 OA
ATOM      6  H   UNL A   1      33.249  31.476  27.749  1.00  0.00     0.163 HD
BRANCH   4   7
ATOM      7  C   UNL A   1      33.290  28.174  27.074  1.00  0.00     0.104 C 
BRANCH   7   8
ATOM      8  C   UNL A   1      32.583  27.413  25.932  1.00  0.00     0.010 C 
ATOM      9  N   UNL A   1      33.139  24.773  24.654  1.00  0.00    -0.330 N 
ATOM     10  C   UNL A   1      31.869  24.988  25.373  1.00  0.00     0.184 C 
ATOM     11  C   UNL A   1      33.255  25.995  23.853  1.00  0.00     0.184 C 
ATOM     12  H   UNL A   1      33.122  23.921  24.094  1.00  0.00     0.348 HD
ATOM     13  C   UNL A   1      30.945  25.429  24.229  1.00  0.00     0.071 C 
ATOM     14  C   UNL A   1      31.999  26.078  26.454  1.00  0.00     0.069 C 
ATOM     15  C   UNL A   1      31.874  26.077  23.207  1.00  0.00     0.071 C 
ATOM     16  C   UNL A   1      33.525  27.223  24.727  1.00  0.00     0.069 C 
BRANCH   9  17
ATOM     17  C   UNL A   1      34.309  24.478  25.493  1.00  0.00     0.266 C 
BRANCH  17  18
ATOM     18  C   UNL A   1      34.888  23.068  25.230  1.00  0.00     0.044 C 
BRANCH  18  19
ATOM     19  C   UNL A   1      36.427  23.134  25.171  1.00  0.00     0.006 C 
ATOM     20  C   UNL A   1      37.029  22.191  24.141  1.00  0.00     0.004 C 
ENDBRANCH  18  19
BRANCH  18  21
ATOM     21  C   UNL A   1      34.338  22.041  26.244  1.00  0.00     0.006 C 
ATOM     22  C   UNL A   1      33.840  22.612  27.561  1.00  0.00     0.004 C 
ENDBRANCH  18  21
ENDBRANCH  17  18
ENDBRANCH   9  17
ENDBRANCH   7   8
ENDBRANCH   4   7
ENDBRANCH   2   3
ENDBRANCH   1   2
BRANCH   1  23
ATOM     23  C   UNL A   1      34.692  32.847  28.893  1.00  0.00     0.002 C 
BRANCH  23  24
ATOM     24  C   UNL A   1      34.598  34.331  28.533  1.00  0.00     0.002 C 
BRANCH  24  25
ATOM     25  C   UNL A   1      33.242  34.996  28.796  1.00  0.00     0.021 C 
BRANCH  25  26
ATOM     26  C   UNL A   1      33.290  36.310  29.573  1.00  0.00     0.116 C 
BRANCH  26  27
ATOM     27  N   UNL A   1      32.407  36.303  30.727  1.00  0.00    -0.352 N 
ATOM     28  C   UNL A   1      32.515  35.640  31.924  1.00  0.00     0.251 C 
ATOM     29  H   UNL A   1      31.602  36.861  30.635  1.00  0.00     0.163 HD
ATOM     30  O   UNL A   1      31.557  35.601  32.688  1.00  0.00    -0.269 OA
BRANCH  28  31
ATOM     31  C   UNL A   1      33.775  34.961  32.300  1.00  0.00     0.039 A 
ATOM     32  C   UNL A   1      33.707  33.662  32.812  1.00  0.00     0.014 A 
ATOM     33  C   UNL A   1      35.008  35.612  32.208  1.00  0.00     0.014 A 
ATOM     34  C   UNL A   1      34.878  33.000  33.186  1.00  0.00     0.010 A 
ATOM     35  C   UNL A   1      36.182  34.927  32.519  1.00  0.00     0.010 A 
ATOM     36  C   UNL A   1      36.128  33.617  33.020  1.00  0.00    -0.014 A 
BRANCH  36  37
ATOM     37  C   UNL A   1      37.380  32.900  33.372  1.00  0.00     0.031 A 
ATOM     38  C   UNL A   1      38.098  33.202  34.658  1.00  0.00     0.074 A 
ATOM     39  C   UNL A   1      37.890  31.998  32.512  1.00  0.00     0.049 A 
ATOM     40  N   UNL A   1      39.202  32.681  35.132  1.00  0.00    -0.248 NA
ATOM     41  C   UNL A   1      37.511  34.244  35.515  1.00  0.00     0.031 C 
ATOM     42  C   UNL A   1      37.317  31.657  31.210  1.00  0.00     0.029 A 
ATOM     43  N   UNL A   1      39.005  31.204  32.603  1.00  0.00    -0.354 N 
ATOM     44  C   UNL A   1      39.446  33.335  36.332  1.00  0.00     0.074 A 
ATOM     45  C   UNL A   1      38.405  34.329  36.489  1.00  0.00     0.031 C 
ATOM     46  C   UNL A   1      38.068  30.703  30.635  1.00  0.00     0.029 A 
ATOM     47  C   UNL A   1      39.188  30.385  31.516  1.00  0.00     0.049 A 
ATOM     48  H   UNL A   1      39.618  31.219  33.374  1.00  0.00     0.167 HD
ATOM     49  C   UNL A   1      40.431  33.111  37.234  1.00  0.00     0.037 A 
ATOM     50  C   UNL A   1      40.148  29.476  31.261  1.00  0.00     0.037 A 
ATOM     51  C   UNL A   1      41.453  32.107  37.087  1.00  0.00     0.049 A 
ATOM     52  C   UNL A   1      41.222  29.235  32.285  1.00  0.00     0.074 A 
ATOM     53  C   UNL A   1      42.462  31.764  37.970  1.00  0.00     0.029 A 
ATOM     54  N   UNL A   1      41.594  31.282  35.980  1.00  0.00    -0.354 N 
ATOM     55  N   UNL A   1      41.399  29.809  33.451  1.00  0.00    -0.248 NA
ATOM     56  C   UNL A   1      42.224  28.209  31.964  1.00  0.00     0.031 C 
ATOM     57  C   UNL A   1      43.239  30.760  37.380  1.00  0.00     0.029 A 
ATOM     58  C   UNL A   1      42.684  30.443  36.151  1.00  0.00     0.049 A 
ATOM     59  H   UNL A   1      41.006  31.292  35.191  1.00  0.00     0.167 HD
ATOM     60  C   UNL A   1      42.512  29.199  34.012  1.00  0.00     0.074 A 
ATOM     61  C   UNL A   1      42.959  28.197  33.067  1.00  0.00     0.031 C 
ATOM     62  C   UNL A   1      43.114  29.448  35.201  1.00  0.00     0.037 A 
BRANCH  49  63
ATOM     63  C   UNL A   1      40.449  33.966  38.469  1.00  0.00     0.064 A 
ATOM     64  C   UNL A   1      39.705  33.624  39.610  1.00  0.00     0.173 A 
ATOM     65  C   UNL A   1      41.244  35.121  38.529  1.00  0.00     0.173 A 
ATOM     66  F   UNL A   1      38.920  32.536  39.602  1.00  0.00    -0.203 F 
ATOM     67  C   UNL A   1      39.731  34.422  40.750  1.00  0.00     0.198 A 
ATOM     68  C   UNL A   1      41.291  35.900  39.682  1.00  0.00     0.198 A 
ATOM     69  F   UNL A   1      41.979  35.490  37.469  1.00  0.00    -0.203 F 
ATOM     70  F   UNL A   1      38.975  34.101  41.809  1.00  0.00    -0.200 F 
ATOM     71  C   UNL A   1      40.530  35.555  40.788  1.00  0.00     0.200 A 
ATOM     72  F   UNL A   1      42.072  36.988  39.721  1.00  0.00    -0.200 F 
ATOM     73  F   UNL A   1      40.560  36.318  41.889  1.00  0.00    -0.200 F 
ENDBRANCH  49  63
BRANCH  50  74
ATOM     74  C   UNL A   1      40.111  28.694  29.998  1.00  0.00     0.064 A 
ATOM     75  C   UNL A   1      39.480  27.443  29.947  1.00  0.00     0.173 A 
ATOM     76  C   UNL A   1      40.704  29.176  28.823  1.00  0.00     0.173 A 
ATOM     77  F   UNL A   1      38.915  26.932  31.050  1.00  0.00    -0.203 F 
ATOM     78  C   UNL A   1      39.461  26.694  28.771  1.00  0.00     0.198 A 
ATOM     79  C   UNL A   1      40.661  28.438  27.642  1.00  0.00     0.198 A 
ATOM     80  F   UNL A   1      41.316  30.369  28.819  1.00  0.00    -0.203 F 
ATOM     81  F   UNL A   1      38.890  25.482  28.761  1.00  0.00    -0.200 F 
ATOM     82  C   UNL A   1      40.046  27.195  27.619  1.00  0.00     0.200 A 
ATOM     83  F   UNL A   1      41.216  28.931  26.526  1.00  0.00    -0.200 F 
ATOM     84  F   UNL A   1      40.025  26.476  26.488  1.00  0.00    -0.200 F 
ENDBRANCH  50  74
BRANCH  62  85
ATOM     85  C   UNL A   1      44.301  28.602  35.557  1.00  0.00     0.064 A 
ATOM     86  C   UNL A   1      44.160  27.400  36.267  1.00  0.00     0.173 A 
ATOM     87  C   UNL A   1      45.591  28.989  35.170  1.00  0.00     0.173 A 
ATOM     88  F   UNL A   1      42.947  26.994  36.673  1.00  0.00    -0.203 F 
ATOM     89  C   UNL A   1      45.272  26.633  36.604  1.00  0.00     0.198 A 
ATOM     90  C   UNL A   1      46.699  28.206  35.483  1.00  0.00     0.198 A 
ATOM     91  F   UNL A   1      45.780  30.127  34.484  1.00  0.00    -0.203 F 
ATOM     92  F   UNL A   1      45.121  25.518  37.330  1.00  0.00    -0.200 F 
ATOM     93  C   UNL A   1      46.540  27.034  36.207  1.00  0.00     0.200 A 
ATOM     94  F   UNL A   1      47.922  28.588  35.089  1.00  0.00    -0.200 F 
ATOM     95  F   UNL A   1      47.609  26.296  36.533  1.00  0.00    -0.200 F 
ENDBRANCH  62  85
ENDBRANCH  36  37
ENDBRANCH  28  31
ENDBRANCH  26  27
ENDBRANCH  25  26
ENDBRANCH  24  25
ENDBRANCH  23  24
ENDBRANCH   1  23
TORSDOF 18
ENDMDL
MODEL 3
REMARK VINA RESULT:     -10.4      1.054      2.772
REMARK SMILES CCC(CC)C[N@H+]1[C@@H]2CC[C@H]1C[C@H](CC(=O)NCCCCCCNC(=O)c1ccc(-c3c4nc(c(-c5c(F)c(F)c(F)c(F)c5F)c5ccc([nH]5)c(-c5c(F)c(F)c(F)c(F)c5F)c5nc(c(-c6c(F)c(F)c(F)c(F)c6F)c6ccc3[nH]6)C=C5)C=C4)cc1)C2
REMARK SMILES IDX 19 1 18 2 17 3 15 4 16 5 14 7 13 8 7 9 8 10 11 11 9 13 90 14
REMARK SMILES IDX 10 15 12 16 6 17 3 18 2 19 1 20 4 21 5 22 20 23 21 24 22 25
REMARK SMILES IDX 23 26 24 27 25 28 26 30 27 31 28 32 89 33 29 34 88 35 30 36
REMARK SMILES IDX 31 37 32 38 82 39 33 40 87 41 81 42 83 43 34 44 86 45 80 46
REMARK SMILES IDX 79 47 35 49 67 50 47 51 66 52 48 53 51 54 65 55 84 56 49 57
REMARK SMILES IDX 50 58 64 60 85 61 52 62 36 63 37 64 45 65 38 66 39 67 43 68
REMARK SMILES IDX 46 69 40 70 41 71 44 72 42 73 68 74 69 75 77 76 70 77 71 78
REMARK SMILES IDX 75 79 78 80 72 81 73 82 76 83 74 84 53 85 54 86 62 87 55 88
REMARK SMILES IDX 56 89 60 90 63 91 57 92 58 93 61 94 59 95
REMARK H PARENT 17 6 7 12 24 29 83 48 51 59
REMARK Flexibility Score: inf
ROOT
ATOM      1  C   UNL A   1      41.214  22.044  26.148  1.00  0.00     0.021 C 
ENDROOT
BRANCH   1   2
ATOM      2  C   UNL A   1      39.703  22.074  26.395  1.00  0.00     0.116 C 
BRANCH   2   3
ATOM      3  N   UNL A   1      39.051  20.965  25.720  1.00  0.00    -0.356 N 
ATOM      4  C   UNL A   1      37.877  20.902  25.035  1.00  0.00     0.220 C 
ATOM      5  O   UNL A   1      37.493  19.798  24.642  1.00  0.00    -0.275 OA
ATOM      6  H   UNL A   1      39.542  20.113  25.767  1.00  0.00     0.163 HD
BRANCH   4   7
ATOM      7  C   UNL A   1      37.060  22.149  24.741  1.00  0.00     0.104 C 
BRANCH   7   8
ATOM      8  C   UNL A   1      35.598  21.863  24.338  1.00  0.00     0.010 C 
ATOM      9  N   UNL A   1      33.042  23.264  24.984  1.00  0.00    -0.330 N 
ATOM     10  C   UNL A   1      33.502  23.185  23.586  1.00  0.00     0.184 C 
ATOM     11  C   UNL A   1      33.246  21.892  25.459  1.00  0.00     0.184 C 
ATOM     12  H   UNL A   1      32.074  23.577  25.051  1.00  0.00     0.348 HD
ATOM     13  C   UNL A   1      32.773  21.925  23.098  1.00  0.00     0.071 C 
ATOM     14  C   UNL A   1      35.032  23.030  23.492  1.00  0.00     0.069 C 
ATOM     15  C   UNL A   1      32.581  21.078  24.352  1.00  0.00     0.071 C 
ATOM     16  C   UNL A   1      34.733  21.548  25.575  1.00  0.00     0.069 C 
BRANCH   9  17
ATOM     17  C   UNL A   1      33.679  24.299  25.811  1.00  0.00     0.266 C 
BRANCH  17  18
ATOM     18  C   UNL A   1      32.727  25.477  26.125  1.00  0.00     0.044 C 
BRANCH  18  19
ATOM     19  C   UNL A   1      33.372  26.807  25.685  1.00  0.00     0.006 C 
ATOM     20  C   UNL A   1      33.665  26.866  24.194  1.00  0.00     0.004 C 
ENDBRANCH  18  19
BRANCH  18  21
ATOM     21  C   UNL A   1      31.322  25.231  25.534  1.00  0.00     0.006 C 
ATOM     22  C   UNL A   1      30.294  26.320  25.794  1.00  0.00     0.004 C 
ENDBRANCH  18  21
ENDBRANCH  17  18
ENDBRANCH   9  17
ENDBRANCH   7   8
ENDBRANCH   4   7
ENDBRANCH   2   3
ENDBRANCH   1   2
BRANCH   1  23
ATOM     23  C   UNL A   1      42.041  21.466  27.296  1.00  0.00     0.002 C 
BRANCH  23  24
ATOM     24  C   UNL A   1      41.971  19.945  27.442  1.00  0.00     0.002 C 
BRANCH  24  25
ATOM     25  C   UNL A   1      42.327  19.138  26.188  1.00  0.00     0.021 C 
BRANCH  25  26
ATOM     26  C   UNL A   1      43.755  18.600  26.132  1.00  0.00     0.116 C 
BRANCH  26  27
ATOM     27  N   UNL A   1      44.275  18.552  24.776  1.00  0.00    -0.352 N 
ATOM     28  C   UNL A   1      44.662  19.566  23.937  1.00  0.00     0.251 C 
ATOM     29  H   UNL A   1      44.360  17.647  24.398  1.00  0.00     0.163 HD
ATOM     30  O   UNL A   1      44.876  19.330  22.753  1.00  0.00    -0.269 OA
BRANCH  28  31
ATOM     31  C   UNL A   1      44.818  20.947  24.444  1.00  0.00     0.039 A 
ATOM     32  C   UNL A   1      45.497  21.143  25.651  1.00  0.00     0.014 A 
ATOM     33  C   UNL A   1      44.254  22.037  23.776  1.00  0.00     0.014 A 
ATOM     34  C   UNL A   1      45.651  22.434  26.161  1.00  0.00     0.010 A 
ATOM     35  C   UNL A   1      44.464  23.331  24.251  1.00  0.00     0.010 A 
ATOM     36  C   UNL A   1      45.158  23.542  25.453  1.00  0.00    -0.014 A 
BRANCH  36  37
ATOM     37  C   UNL A   1      45.359  24.920  25.967  1.00  0.00     0.031 A 
ATOM     38  C   UNL A   1      46.711  25.574  25.895  1.00  0.00     0.074 A 
ATOM     39  C   UNL A   1      44.325  25.572  26.533  1.00  0.00     0.049 A 
ATOM     40  N   UNL A   1      47.076  26.767  26.294  1.00  0.00    -0.248 NA
ATOM     41  C   UNL A   1      47.803  24.774  25.320  1.00  0.00     0.031 C 
ATOM     42  C   UNL A   1      42.979  25.026  26.711  1.00  0.00     0.029 A 
ATOM     43  N   UNL A   1      44.244  26.835  27.063  1.00  0.00    -0.354 N 
ATOM     44  C   UNL A   1      48.436  26.855  26.028  1.00  0.00     0.074 A 
ATOM     45  C   UNL A   1      48.843  25.578  25.483  1.00  0.00     0.031 C 
ATOM     46  C   UNL A   1      42.198  25.958  27.282  1.00  0.00     0.029 A 
ATOM     47  C   UNL A   1      42.995  27.155  27.535  1.00  0.00     0.049 A 
ATOM     48  H   UNL A   1      45.009  27.454  27.102  1.00  0.00     0.167 HD
ATOM     49  C   UNL A   1      49.265  27.913  26.198  1.00  0.00     0.037 A 
ATOM     50  C   UNL A   1      42.541  28.289  28.101  1.00  0.00     0.037 A 
ATOM     51  C   UNL A   1      48.853  29.191  26.720  1.00  0.00     0.049 A 
ATOM     52  C   UNL A   1      43.477  29.454  28.265  1.00  0.00     0.074 A 
ATOM     53  C   UNL A   1      49.604  30.343  26.878  1.00  0.00     0.029 A 
ATOM     54  N   UNL A   1      47.574  29.484  27.169  1.00  0.00    -0.354 N 
ATOM     55  N   UNL A   1      44.745  29.551  27.941  1.00  0.00    -0.248 NA
ATOM     56  C   UNL A   1      42.917  30.674  28.862  1.00  0.00     0.031 C 
ATOM     57  C   UNL A   1      48.789  31.321  27.462  1.00  0.00     0.029 A 
ATOM     58  C   UNL A   1      47.518  30.793  27.621  1.00  0.00     0.049 A 
ATOM     59  H   UNL A   1      46.817  28.855  27.166  1.00  0.00     0.167 HD
ATOM     60  C   UNL A   1      45.125  30.844  28.269  1.00  0.00     0.074 A 
ATOM     61  C   UNL A   1      43.949  31.503  28.800  1.00  0.00     0.031 C 
ATOM     62  C   UNL A   1      46.339  31.434  28.145  1.00  0.00     0.037 A 
BRANCH  49  63
ATOM     63  C   UNL A   1      50.705  27.736  25.808  1.00  0.00     0.064 A 
ATOM     64  C   UNL A   1      51.133  27.914  24.482  1.00  0.00     0.173 A 
ATOM     65  C   UNL A   1      51.673  27.421  26.772  1.00  0.00     0.173 A 
ATOM     66  F   UNL A   1      50.245  28.205  23.519  1.00  0.00    -0.203 F 
ATOM     67  C   UNL A   1      52.471  27.750  24.133  1.00  0.00     0.198 A 
ATOM     68  C   UNL A   1      53.015  27.288  26.423  1.00  0.00     0.198 A 
ATOM     69  F   UNL A   1      51.319  27.248  28.054  1.00  0.00    -0.203 F 
ATOM     70  F   UNL A   1      52.848  27.876  22.853  1.00  0.00    -0.200 F 
ATOM     71  C   UNL A   1      53.411  27.445  25.105  1.00  0.00     0.200 A 
ATOM     72  F   UNL A   1      53.925  27.005  27.366  1.00  0.00    -0.200 F 
ATOM     73  F   UNL A   1      54.700  27.295  24.768  1.00  0.00    -0.200 F 
ENDBRANCH  49  63
BRANCH  50  74
ATOM     74  C   UNL A   1      41.119  28.392  28.517  1.00  0.00     0.064 A 
ATOM     75  C   UNL A   1      40.711  27.972  29.791  1.00  0.00     0.173 A 
ATOM     76  C   UNL A   1      40.141  28.907  27.656  1.00  0.00     0.173 A 
ATOM     77  F   UNL A   1      41.607  27.453  30.644  1.00  0.00    -0.203 F 
ATOM     78  C   UNL A   1      39.375  28.044  30.180  1.00  0.00     0.198 A 
ATOM     79  C   UNL A   1      38.809  29.004  28.056  1.00  0.00     0.198 A 
ATOM     80  F   UNL A   1      40.480  29.328  26.428  1.00  0.00    -0.203 F 
ATOM     81  F   UNL A   1      39.006  27.594  31.387  1.00  0.00    -0.200 F 
ATOM     82  C   UNL A   1      38.426  28.566  29.314  1.00  0.00     0.200 A 
ATOM     83  F   UNL A   1      37.897  29.522  27.221  1.00  0.00    -0.200 F 
ATOM     84  F   UNL A   1      37.142  28.638  29.689  1.00  0.00    -0.200 F 
ENDBRANCH  50  74
BRANCH  62  85
ATOM     85  C   UNL A   1      46.447  32.871  28.564  1.00  0.00     0.064 A 
ATOM     86  C   UNL A   1      46.798  33.231  29.874  1.00  0.00     0.173 A 
ATOM     87  C   UNL A   1      46.212  33.900  27.641  1.00  0.00     0.173 A 
ATOM     88  F   UNL A   1      47.017  32.283  30.799  1.00  0.00    -0.203 F 
ATOM     89  C   UNL A   1      46.878  34.568  30.252  1.00  0.00     0.198 A 
ATOM     90  C   UNL A   1      46.322  35.237  28.014  1.00  0.00     0.198 A 
ATOM     91  F   UNL A   1      45.879  33.611  26.374  1.00  0.00    -0.203 F 
ATOM     92  F   UNL A   1      47.161  34.889  31.522  1.00  0.00    -0.200 F 
ATOM     93  C   UNL A   1      46.645  35.570  29.321  1.00  0.00     0.200 A 
ATOM     94  F   UNL A   1      46.109  36.204  27.111  1.00  0.00    -0.200 F 
ATOM     95  F   UNL A   1      46.723  36.856  29.687  1.00  0.00    -0.200 F 
ENDBRANCH  62  85
ENDBRANCH  36  37
ENDBRANCH  28  31
ENDBRANCH  26  27
ENDBRANCH  25  26
ENDBRANCH  24  25
ENDBRANCH  23  24
ENDBRANCH   1  23
TORSDOF 18
ENDMDL
