MODEL 1
REMARK VINA RESULT:     -11.2      0.000      0.000
REMARK SMILES N#CCC(=O)N/N=C/c1ccc(OCc2ccc(C(=O)NCCCCCCNC(=O)c3ccc(-c4c5nc(c(-c6c(F)c(F)c(F)c(F)c6F)c6ccc([nH]6)c(-c6c(F)c(F)c(F)c(F)c6F)c6nc(c(-c7c(F)c(F)c(F)c(F)c7F)c7ccc4[nH]7)C=C6)C=C5)cc3)cc2)c(Br)c1
REMARK SMILES IDX 22 1 21 2 19 3 20 4 18 6 15 7 16 8 95 9 17 10 94 11 14 12
REMARK SMILES IDX 13 13 12 14 9 15 10 16 98 17 11 18 96 19 97 20 8 21 7 22
REMARK SMILES IDX 6 23 4 24 5 25 3 27 2 28 1 29 23 30 24 31 25 32 26 33 27 34
REMARK SMILES IDX 28 35 29 36 30 38 31 39 32 40 93 41 33 42 92 43 34 44 35 45
REMARK SMILES IDX 36 46 86 47 37 48 91 49 85 50 87 51 38 52 90 53 84 54 83 55
REMARK SMILES IDX 39 57 71 58 51 59 70 60 52 61 55 62 69 63 88 64 53 65 54 66
REMARK SMILES IDX 68 68 89 69 56 70 40 71 41 72 49 73 42 74 43 75 47 76 50 77
REMARK SMILES IDX 44 78 45 79 48 80 46 81 72 82 73 83 81 84 74 85 75 86 79 87
REMARK SMILES IDX 82 88 76 89 77 90 80 91 78 92 57 93 58 94 66 95 59 96 60 97
REMARK SMILES IDX 64 98 67 99 61 100 62 101 65 102 63 103
REMARK H PARENT 21 5 6 26 28 37 87 56 55 67
REMARK Flexibility Score: inf
ROOT
ATOM      1  C   UNL A   1      38.981  22.739  26.117  1.00  0.00     0.116 C 
ENDROOT
BRANCH   1   2
ATOM      2  N   UNL A   1      38.231  21.608  25.609  1.00  0.00    -0.352 N 
ATOM      3  C   UNL A   1      36.897  21.440  25.354  1.00  0.00     0.251 C 
ATOM      4  O   UNL A   1      36.511  20.330  24.987  1.00  0.00    -0.269 OA
ATOM      5  H   UNL A   1      38.782  20.817  25.412  1.00  0.00     0.163 HD
BRANCH   3   6
ATOM      6  C   UNL A   1      35.927  22.562  25.415  1.00  0.00     0.039 A 
ATOM      7  C   UNL A   1      33.892  24.502  25.636  1.00  0.00    -0.011 A 
ATOM      8  C   UNL A   1      34.089  23.555  26.649  1.00  0.00     0.008 A 
ATOM      9  C   UNL A   1      34.776  24.516  24.547  1.00  0.00     0.008 A 
ATOM     10  C   UNL A   1      35.098  22.599  26.541  1.00  0.00     0.014 A 
ATOM     11  C   UNL A   1      35.796  23.559  24.444  1.00  0.00     0.014 A 
BRANCH   7  12
ATOM     12  C   UNL A   1      32.716  25.454  25.704  1.00  0.00     0.265 C 
BRANCH  12  13
ATOM     13  O   UNL A   1      32.765  26.610  24.860  1.00  0.00    -0.488 OA
BRANCH  13  14
ATOM     14  C   UNL A   1      32.822  27.830  25.471  1.00  0.00     0.134 A 
ATOM     15  C   UNL A   1      33.239  30.230  26.852  1.00  0.00    -0.004 A 
ATOM     16  C   UNL A   1      34.108  29.160  27.054  1.00  0.00     0.013 A 
ATOM     17  C   UNL A   1      32.187  30.122  25.937  1.00  0.00     0.029 A 
ATOM     18  C   UNL A   1      33.901  27.971  26.355  1.00  0.00     0.048 A 
ATOM     19  C   UNL A   1      31.991  28.931  25.226  1.00  0.00     0.060 A 
ATOM     20  Br  UNL A   1      30.655  28.964  23.878  1.00  0.00    -0.047 Br
BRANCH  15  21
ATOM     21  C   UNL A   1      33.462  31.475  27.613  1.00  0.00     0.141 C 
ATOM     22  N   UNL A   1      34.643  31.805  28.032  1.00  0.00    -0.181 NA
BRANCH  22  23
ATOM     23  N   UNL A   1      34.722  33.002  28.667  1.00  0.00    -0.246 N 
ATOM     24  C   UNL A   1      34.756  33.137  30.039  1.00  0.00     0.254 C 
ATOM     25  O   UNL A   1      34.568  34.246  30.546  1.00  0.00    -0.272 OA
ATOM     26  H   UNL A   1      34.756  33.819  28.119  1.00  0.00     0.193 HD
BRANCH  24  27
ATOM     27  C   UNL A   1      35.152  31.952  30.885  1.00  0.00     0.221 C 
BRANCH  27  28
ATOM     28  C   UNL A   1      35.832  32.363  32.181  1.00  0.00     0.072 C 
ATOM     29  N   UNL A   1      36.396  32.705  33.255  1.00  0.00    -0.198 NA
ENDBRANCH  27  28
ENDBRANCH  24  27
ENDBRANCH  22  23
ENDBRANCH  15  21
ENDBRANCH  13  14
ENDBRANCH  12  13
ENDBRANCH   7  12
ENDBRANCH   3   6
ENDBRANCH   1   2
BRANCH   1  30
ATOM     30  C   UNL A   1      40.064  22.243  27.076  1.00  0.00     0.021 C 
BRANCH  30  31
ATOM     31  C   UNL A   1      41.290  21.662  26.356  1.00  0.00     0.002 C 
BRANCH  31  32
ATOM     32  C   UNL A   1      41.904  20.430  27.031  1.00  0.00     0.002 C 
BRANCH  32  33
ATOM     33  C   UNL A   1      42.121  19.230  26.105  1.00  0.00     0.021 C 
BRANCH  33  34
ATOM     34  C   UNL A   1      43.526  18.638  26.161  1.00  0.00     0.116 C 
BRANCH  34  35
ATOM     35  N   UNL A   1      44.130  18.562  24.840  1.00  0.00    -0.352 N 
ATOM     36  C   UNL A   1      44.559  19.569  24.020  1.00  0.00     0.251 C 
ATOM     37  H   UNL A   1      44.247  17.651  24.484  1.00  0.00     0.163 HD
ATOM     38  O   UNL A   1      44.823  19.332  22.840  1.00  0.00    -0.269 OA
BRANCH  36  39
ATOM     39  C   UNL A   1      44.703  20.945  24.538  1.00  0.00     0.039 A 
ATOM     40  C   UNL A   1      45.361  21.138  25.754  1.00  0.00     0.014 A 
ATOM     41  C   UNL A   1      44.155  22.036  23.853  1.00  0.00     0.014 A 
ATOM     42  C   UNL A   1      45.507  22.429  26.264  1.00  0.00     0.010 A 
ATOM     43  C   UNL A   1      44.362  23.329  24.328  1.00  0.00     0.010 A 
ATOM     44  C   UNL A   1      45.030  23.537  25.544  1.00  0.00    -0.014 A 
BRANCH  44  45
ATOM     45  C   UNL A   1      45.235  24.912  26.060  1.00  0.00     0.031 A 
ATOM     46  C   UNL A   1      46.588  25.564  25.991  1.00  0.00     0.074 A 
ATOM     47  C   UNL A   1      44.196  25.566  26.616  1.00  0.00     0.049 A 
ATOM     48  N   UNL A   1      46.946  26.767  26.364  1.00  0.00    -0.248 NA
ATOM     49  C   UNL A   1      47.690  24.750  25.456  1.00  0.00     0.031 C 
ATOM     50  C   UNL A   1      42.853  25.014  26.796  1.00  0.00     0.029 A 
ATOM     51  N   UNL A   1      44.107  26.835  27.129  1.00  0.00    -0.354 N 
ATOM     52  C   UNL A   1      48.309  26.852  26.114  1.00  0.00     0.074 A 
ATOM     53  C   UNL A   1      48.727  25.560  25.612  1.00  0.00     0.031 C 
ATOM     54  C   UNL A   1      42.064  25.951  27.345  1.00  0.00     0.029 A 
ATOM     55  C   UNL A   1      42.850  27.157  27.579  1.00  0.00     0.049 A 
ATOM     56  H   UNL A   1      44.870  27.456  27.170  1.00  0.00     0.167 HD
ATOM     57  C   UNL A   1      49.130  27.918  26.264  1.00  0.00     0.037 A 
ATOM     58  C   UNL A   1      42.384  28.302  28.114  1.00  0.00     0.037 A 
ATOM     59  C   UNL A   1      48.705  29.206  26.746  1.00  0.00     0.049 A 
ATOM     60  C   UNL A   1      43.313  29.475  28.254  1.00  0.00     0.074 A 
ATOM     61  C   UNL A   1      49.444  30.369  26.876  1.00  0.00     0.029 A 
ATOM     62  N   UNL A   1      47.420  29.501  27.180  1.00  0.00    -0.354 N 
ATOM     63  N   UNL A   1      44.581  29.570  27.934  1.00  0.00    -0.248 NA
ATOM     64  C   UNL A   1      42.742  30.706  28.817  1.00  0.00     0.031 C 
ATOM     65  C   UNL A   1      48.621  31.353  27.433  1.00  0.00     0.029 A 
ATOM     66  C   UNL A   1      47.353  30.820  27.602  1.00  0.00     0.049 A 
ATOM     67  H   UNL A   1      46.667  28.867  27.189  1.00  0.00     0.167 HD
ATOM     68  C   UNL A   1      44.954  30.872  28.233  1.00  0.00     0.074 A 
ATOM     69  C   UNL A   1      43.771  31.538  28.739  1.00  0.00     0.031 C 
ATOM     70  C   UNL A   1      46.167  31.466  28.105  1.00  0.00     0.037 A 
BRANCH  57  71
ATOM     71  C   UNL A   1      50.576  27.738  25.896  1.00  0.00     0.064 A 
ATOM     72  C   UNL A   1      51.543  27.408  26.858  1.00  0.00     0.173 A 
ATOM     73  C   UNL A   1      50.994  27.858  24.562  1.00  0.00     0.173 A 
ATOM     74  F   UNL A   1      51.199  27.293  28.149  1.00  0.00    -0.203 F 
ATOM     75  C   UNL A   1      52.878  27.234  26.502  1.00  0.00     0.198 A 
ATOM     76  C   UNL A   1      52.324  27.652  24.205  1.00  0.00     0.198 A 
ATOM     77  F   UNL A   1      50.110  28.165  23.601  1.00  0.00    -0.203 F 
ATOM     78  F   UNL A   1      53.791  26.967  27.447  1.00  0.00    -0.200 F 
ATOM     79  C   UNL A   1      53.267  27.348  25.177  1.00  0.00     0.200 A 
ATOM     80  F   UNL A   1      52.696  27.751  22.922  1.00  0.00    -0.200 F 
ATOM     81  F   UNL A   1      54.551  27.173  24.835  1.00  0.00    -0.200 F 
ENDBRANCH  57  71
BRANCH  58  82
ATOM     82  C   UNL A   1      40.957  28.404  28.515  1.00  0.00     0.064 A 
ATOM     83  C   UNL A   1      39.997  28.930  27.639  1.00  0.00     0.173 A 
ATOM     84  C   UNL A   1      40.523  27.976  29.778  1.00  0.00     0.173 A 
ATOM     85  F   UNL A   1      40.368  29.369  26.427  1.00  0.00    -0.203 F 
ATOM     86  C   UNL A   1      38.662  29.044  28.018  1.00  0.00     0.198 A 
ATOM     87  C   UNL A   1      39.182  28.064  30.146  1.00  0.00     0.198 A 
ATOM     88  F   UNL A   1      41.400  27.457  30.650  1.00  0.00    -0.203 F 
ATOM     89  F   UNL A   1      37.775  29.593  27.178  1.00  0.00    -0.200 F 
ATOM     90  C   UNL A   1      38.254  28.605  29.269  1.00  0.00     0.200 A 
ATOM     91  F   UNL A   1      38.789  27.625  31.349  1.00  0.00    -0.200 F 
ATOM     92  F   UNL A   1      36.968  28.711  29.631  1.00  0.00    -0.200 F 
ENDBRANCH  58  82
BRANCH  70  93
ATOM     93  C   UNL A   1      46.265  32.911  28.498  1.00  0.00     0.064 A 
ATOM     94  C   UNL A   1      46.640  33.296  29.793  1.00  0.00     0.173 A 
ATOM     95  C   UNL A   1      45.997  33.922  27.563  1.00  0.00     0.173 A 
ATOM     96  F   UNL A   1      46.893  32.368  30.729  1.00  0.00    -0.203 F 
ATOM     97  C   UNL A   1      46.711  34.641  30.147  1.00  0.00     0.198 A 
ATOM     98  C   UNL A   1      46.099  35.265  27.912  1.00  0.00     0.198 A 
ATOM     99  F   UNL A   1      45.641  33.607  26.308  1.00  0.00    -0.203 F 
ATOM    100  F   UNL A   1      47.016  34.986  31.406  1.00  0.00    -0.200 F 
ATOM    101  C   UNL A   1      46.445  35.624  29.205  1.00  0.00     0.200 A 
ATOM    102  F   UNL A   1      45.855  36.214  26.996  1.00  0.00    -0.200 F 
ATOM    103  F   UNL A   1      46.515  36.918  29.548  1.00  0.00    -0.200 F 
ENDBRANCH  70  93
ENDBRANCH  44  45
ENDBRANCH  36  39
ENDBRANCH  34  35
ENDBRANCH  33  34
ENDBRANCH  32  33
ENDBRANCH  31  32
ENDBRANCH  30  31
ENDBRANCH   1  30
TORSDOF 20
ENDMDL
MODEL 2
REMARK VINA RESULT:     -11.2      2.785      3.981
REMARK SMILES N#CCC(=O)N/N=C/c1ccc(OCc2ccc(C(=O)NCCCCCCNC(=O)c3ccc(-c4c5nc(c(-c6c(F)c(F)c(F)c(F)c6F)c6ccc([nH]6)c(-c6c(F)c(F)c(F)c(F)c6F)c6nc(c(-c7c(F)c(F)c(F)c(F)c7F)c7ccc4[nH]7)C=C6)C=C5)cc3)cc2)c(Br)c1
REMARK SMILES IDX 22 1 21 2 19 3 20 4 18 6 15 7 16 8 95 9 17 10 94 11 14 12
REMARK SMILES IDX 13 13 12 14 9 15 10 16 98 17 11 18 96 19 97 20 8 21 7 22
REMARK SMILES IDX 6 23 4 24 5 25 3 27 2 28 1 29 23 30 24 31 25 32 26 33 27 34
REMARK SMILES IDX 28 35 29 36 30 38 31 39 32 40 93 41 33 42 92 43 34 44 35 45
REMARK SMILES IDX 36 46 86 47 37 48 91 49 85 50 87 51 38 52 90 53 84 54 83 55
REMARK SMILES IDX 39 57 71 58 51 59 70 60 52 61 55 62 69 63 88 64 53 65 54 66
REMARK SMILES IDX 68 68 89 69 56 70 40 71 41 72 49 73 42 74 43 75 47 76 50 77
REMARK SMILES IDX 44 78 45 79 48 80 46 81 72 82 73 83 81 84 74 85 75 86 79 87
REMARK SMILES IDX 82 88 76 89 77 90 80 91 78 92 57 93 58 94 66 95 59 96 60 97
REMARK SMILES IDX 64 98 67 99 61 100 62 101 65 102 63 103
REMARK H PARENT 21 5 6 26 28 37 87 56 55 67
REMARK Flexibility Score: inf
ROOT
ATOM      1  C   UNL A   1      40.087  21.717  26.206  1.00  0.00     0.116 C 
ENDROOT
BRANCH   1   2
ATOM      2  N   UNL A   1      39.691  23.094  26.428  1.00  0.00    -0.352 N 
ATOM      3  C   UNL A   1      38.509  23.749  26.210  1.00  0.00     0.251 C 
ATOM      4  O   UNL A   1      38.468  24.960  26.425  1.00  0.00    -0.269 OA
ATOM      5  H   UNL A   1      40.403  23.660  26.803  1.00  0.00     0.163 HD
BRANCH   3   6
ATOM      6  C   UNL A   1      37.265  23.039  25.819  1.00  0.00     0.039 A 
ATOM      7  C   UNL A   1      34.846  21.666  25.360  1.00  0.00    -0.011 A 
ATOM      8  C   UNL A   1      34.929  22.653  26.350  1.00  0.00     0.008 A 
ATOM      9  C   UNL A   1      35.965  21.430  24.549  1.00  0.00     0.008 A 
ATOM     10  C   UNL A   1      36.125  23.334  26.574  1.00  0.00     0.014 A 
ATOM     11  C   UNL A   1      37.164  22.123  24.769  1.00  0.00     0.014 A 
BRANCH   7  12
ATOM     12  C   UNL A   1      33.581  20.845  25.211  1.00  0.00     0.265 C 
BRANCH  12  13
ATOM     13  O   UNL A   1      32.806  21.054  24.025  1.00  0.00    -0.488 OA
BRANCH  13  14
ATOM     14  C   UNL A   1      32.533  22.346  23.675  1.00  0.00     0.134 A 
ATOM     15  C   UNL A   1      32.124  24.924  22.660  1.00  0.00    -0.004 A 
ATOM     16  C   UNL A   1      32.904  24.019  21.945  1.00  0.00     0.013 A 
ATOM     17  C   UNL A   1      31.515  24.538  23.858  1.00  0.00     0.029 A 
ATOM     18  C   UNL A   1      33.096  22.733  22.450  1.00  0.00     0.048 A 
ATOM     19  C   UNL A   1      31.698  23.241  24.357  1.00  0.00     0.060 A 
ATOM     20  Br  UNL A   1      30.674  22.773  25.884  1.00  0.00    -0.047 Br
BRANCH  15  21
ATOM     21  C   UNL A   1      31.946  26.285  22.119  1.00  0.00     0.141 C 
ATOM     22  N   UNL A   1      31.062  27.095  22.609  1.00  0.00    -0.181 NA
BRANCH  22  23
ATOM     23  N   UNL A   1      31.041  28.337  22.060  1.00  0.00    -0.246 N 
ATOM     24  C   UNL A   1      29.926  29.147  22.050  1.00  0.00     0.254 C 
ATOM     25  O   UNL A   1      29.903  30.140  21.317  1.00  0.00    -0.272 OA
ATOM     26  H   UNL A   1      31.868  28.677  21.647  1.00  0.00     0.193 HD
BRANCH  24  27
ATOM     27  C   UNL A   1      28.810  28.877  23.029  1.00  0.00     0.221 C 
BRANCH  27  28
ATOM     28  C   UNL A   1      27.919  30.089  23.245  1.00  0.00     0.072 C 
ATOM     29  N   UNL A   1      27.179  31.094  23.424  1.00  0.00    -0.198 NA
ENDBRANCH  27  28
ENDBRANCH  24  27
ENDBRANCH  22  23
ENDBRANCH  15  21
ENDBRANCH  13  14
ENDBRANCH  12  13
ENDBRANCH   7  12
ENDBRANCH   3   6
ENDBRANCH   1   2
BRANCH   1  30
ATOM     30  C   UNL A   1      41.610  21.638  26.091  1.00  0.00     0.021 C 
BRANCH  30  31
ATOM     31  C   UNL A   1      42.286  21.111  27.365  1.00  0.00     0.002 C 
BRANCH  31  32
ATOM     32  C   UNL A   1      42.211  19.592  27.549  1.00  0.00     0.002 C 
BRANCH  32  33
ATOM     33  C   UNL A   1      42.566  18.775  26.303  1.00  0.00     0.021 C 
BRANCH  33  34
ATOM     34  C   UNL A   1      44.064  18.616  26.061  1.00  0.00     0.116 C 
BRANCH  34  35
ATOM     35  N   UNL A   1      44.383  18.628  24.642  1.00  0.00    -0.352 N 
ATOM     36  C   UNL A   1      44.643  19.689  23.818  1.00  0.00     0.251 C 
ATOM     37  H   UNL A   1      44.417  17.743  24.212  1.00  0.00     0.163 HD
ATOM     38  O   UNL A   1      44.657  19.530  22.596  1.00  0.00    -0.269 OA
BRANCH  36  39
ATOM     39  C   UNL A   1      44.900  21.029  24.383  1.00  0.00     0.039 A 
ATOM     40  C   UNL A   1      44.524  22.152  23.643  1.00  0.00     0.014 A 
ATOM     41  C   UNL A   1      45.546  21.183  25.615  1.00  0.00     0.014 A 
ATOM     42  C   UNL A   1      44.758  23.428  24.156  1.00  0.00     0.010 A 
ATOM     43  C   UNL A   1      45.716  22.455  26.156  1.00  0.00     0.010 A 
ATOM     44  C   UNL A   1      45.334  23.590  25.427  1.00  0.00    -0.014 A 
BRANCH  44  45
ATOM     45  C   UNL A   1      45.532  24.946  25.994  1.00  0.00     0.031 A 
ATOM     46  C   UNL A   1      46.888  25.595  25.977  1.00  0.00     0.074 A 
ATOM     47  C   UNL A   1      44.484  25.584  26.551  1.00  0.00     0.049 A 
ATOM     48  N   UNL A   1      47.242  26.783  26.399  1.00  0.00    -0.248 NA
ATOM     49  C   UNL A   1      47.999  24.796  25.438  1.00  0.00     0.031 C 
ATOM     50  C   UNL A   1      43.136  25.031  26.683  1.00  0.00     0.029 A 
ATOM     51  N   UNL A   1      44.387  26.835  27.106  1.00  0.00    -0.354 N 
ATOM     52  C   UNL A   1      48.610  26.872  26.181  1.00  0.00     0.074 A 
ATOM     53  C   UNL A   1      49.035  25.596  25.644  1.00  0.00     0.031 C 
ATOM     54  C   UNL A   1      42.337  25.951  27.247  1.00  0.00     0.029 A 
ATOM     55  C   UNL A   1      43.122  27.146  27.540  1.00  0.00     0.049 A 
ATOM     56  H   UNL A   1      45.151  27.451  27.184  1.00  0.00     0.167 HD
ATOM     57  C   UNL A   1      49.431  27.929  26.384  1.00  0.00     0.037 A 
ATOM     58  C   UNL A   1      42.649  28.273  28.103  1.00  0.00     0.037 A 
ATOM     59  C   UNL A   1      48.999  29.201  26.901  1.00  0.00     0.049 A 
ATOM     60  C   UNL A   1      43.578  29.438  28.303  1.00  0.00     0.074 A 
ATOM     61  C   UNL A   1      49.739  30.356  27.088  1.00  0.00     0.029 A 
ATOM     62  N   UNL A   1      47.706  29.485  27.319  1.00  0.00    -0.354 N 
ATOM     63  N   UNL A   1      44.852  29.539  28.014  1.00  0.00    -0.248 NA
ATOM     64  C   UNL A   1      42.998  30.651  28.896  1.00  0.00     0.031 C 
ATOM     65  C   UNL A   1      48.907  31.324  27.660  1.00  0.00     0.029 A 
ATOM     66  C   UNL A   1      47.634  30.789  27.784  1.00  0.00     0.049 A 
ATOM     67  H   UNL A   1      46.952  28.854  27.290  1.00  0.00     0.167 HD
ATOM     68  C   UNL A   1      45.222  30.829  28.366  1.00  0.00     0.074 A 
ATOM     69  C   UNL A   1      44.031  31.481  28.869  1.00  0.00     0.031 C 
ATOM     70  C   UNL A   1      46.440  31.422  28.284  1.00  0.00     0.037 A 
BRANCH  57  71
ATOM     71  C   UNL A   1      50.884  27.757  26.042  1.00  0.00     0.064 A 
ATOM     72  C   UNL A   1      51.827  27.377  27.009  1.00  0.00     0.173 A 
ATOM     73  C   UNL A   1      51.332  27.933  24.724  1.00  0.00     0.173 A 
ATOM     74  F   UNL A   1      51.453  27.206  28.286  1.00  0.00    -0.203 F 
ATOM     75  C   UNL A   1      53.169  27.211  26.676  1.00  0.00     0.198 A 
ATOM     76  C   UNL A   1      52.669  27.736  24.388  1.00  0.00     0.198 A 
ATOM     77  F   UNL A   1      50.472  28.290  23.758  1.00  0.00    -0.203 F 
ATOM     78  F   UNL A   1      54.059  26.896  27.628  1.00  0.00    -0.200 F 
ATOM     79  C   UNL A   1      53.588  27.382  25.366  1.00  0.00     0.200 A 
ATOM     80  F   UNL A   1      53.071  27.890  23.120  1.00  0.00    -0.200 F 
ATOM     81  F   UNL A   1      54.878  27.214  25.046  1.00  0.00    -0.200 F 
ENDBRANCH  57  71
BRANCH  58  82
ATOM     82  C   UNL A   1      41.213  28.366  28.478  1.00  0.00     0.064 A 
ATOM     83  C   UNL A   1      40.766  27.931  29.733  1.00  0.00     0.173 A 
ATOM     84  C   UNL A   1      40.261  28.894  27.594  1.00  0.00     0.173 A 
ATOM     85  F   UNL A   1      41.637  27.401  30.606  1.00  0.00    -0.203 F 
ATOM     86  C   UNL A   1      39.420  27.999  30.082  1.00  0.00     0.198 A 
ATOM     87  C   UNL A   1      38.919  28.988  27.954  1.00  0.00     0.198 A 
ATOM     88  F   UNL A   1      40.639  29.332  26.383  1.00  0.00    -0.203 F 
ATOM     89  F   UNL A   1      39.013  27.533  31.270  1.00  0.00    -0.200 F 
ATOM     90  C   UNL A   1      38.498  28.534  29.194  1.00  0.00     0.200 A 
ATOM     91  F   UNL A   1      38.034  29.520  27.100  1.00  0.00    -0.200 F 
ATOM     92  F   UNL A   1      37.203  28.604  29.531  1.00  0.00    -0.200 F 
ENDBRANCH  58  82
BRANCH  70  93
ATOM     93  C   UNL A   1      46.533  32.852  28.728  1.00  0.00     0.064 A 
ATOM     94  C   UNL A   1      46.337  33.915  27.834  1.00  0.00     0.173 A 
ATOM     95  C   UNL A   1      46.803  33.164  30.069  1.00  0.00     0.173 A 
ATOM     96  F   UNL A   1      46.091  33.670  26.537  1.00  0.00    -0.203 F 
ATOM     97  C   UNL A   1      46.443  35.236  28.259  1.00  0.00     0.198 A 
ATOM     98  C   UNL A   1      46.877  34.486  30.497  1.00  0.00     0.198 A 
ATOM     99  F   UNL A   1      46.991  32.184  30.967  1.00  0.00    -0.203 F 
ATOM    100  F   UNL A   1      46.310  36.235  27.375  1.00  0.00    -0.200 F 
ATOM    101  C   UNL A   1      46.708  35.521  29.590  1.00  0.00     0.200 A 
ATOM    102  F   UNL A   1      47.120  34.759  31.787  1.00  0.00    -0.200 F 
ATOM    103  F   UNL A   1      46.809  36.794  29.997  1.00  0.00    -0.200 F 
ENDBRANCH  70  93
ENDBRANCH  44  45
ENDBRANCH  36  39
ENDBRANCH  34  35
ENDBRANCH  33  34
ENDBRANCH  32  33
ENDBRANCH  31  32
ENDBRANCH  30  31
ENDBRANCH   1  30
TORSDOF 20
ENDMDL
MODEL 3
REMARK VINA RESULT:     -11.0      1.649      2.927
REMARK SMILES N#CCC(=O)N/N=C/c1ccc(OCc2ccc(C(=O)NCCCCCCNC(=O)c3ccc(-c4c5nc(c(-c6c(F)c(F)c(F)c(F)c6F)c6ccc([nH]6)c(-c6c(F)c(F)c(F)c(F)c6F)c6nc(c(-c7c(F)c(F)c(F)c(F)c7F)c7ccc4[nH]7)C=C6)C=C5)cc3)cc2)c(Br)c1
REMARK SMILES IDX 22 1 21 2 19 3 20 4 18 6 15 7 16 8 95 9 17 10 94 11 14 12
REMARK SMILES IDX 13 13 12 14 9 15 10 16 98 17 11 18 96 19 97 20 8 21 7 22
REMARK SMILES IDX 6 23 4 24 5 25 3 27 2 28 1 29 23 30 24 31 25 32 26 33 27 34
REMARK SMILES IDX 28 35 29 36 30 38 31 39 32 40 93 41 33 42 92 43 34 44 35 45
REMARK SMILES IDX 36 46 86 47 37 48 91 49 85 50 87 51 38 52 90 53 84 54 83 55
REMARK SMILES IDX 39 57 71 58 51 59 70 60 52 61 55 62 69 63 88 64 53 65 54 66
REMARK SMILES IDX 68 68 89 69 56 70 40 71 41 72 49 73 42 74 43 75 47 76 50 77
REMARK SMILES IDX 44 78 45 79 48 80 46 81 72 82 73 83 81 84 74 85 75 86 79 87
REMARK SMILES IDX 82 88 76 89 77 90 80 91 78 92 57 93 58 94 66 95 59 96 60 97
REMARK SMILES IDX 64 98 67 99 61 100 62 101 65 102 63 103
REMARK H PARENT 21 5 6 26 28 37 87 56 55 67
REMARK Flexibility Score: inf
ROOT
ATOM      1  C   UNL A   1      39.870  21.736  26.115  1.00  0.00     0.116 C 
ENDROOT
BRANCH   1   2
ATOM      2  N   UNL A   1      39.384  23.053  26.473  1.00  0.00    -0.352 N 
ATOM      3  C   UNL A   1      38.205  23.695  26.203  1.00  0.00     0.251 C 
ATOM      4  O   UNL A   1      38.080  24.861  26.575  1.00  0.00    -0.269 OA
ATOM      5  H   UNL A   1      40.018  23.584  27.007  1.00  0.00     0.163 HD
BRANCH   3   6
ATOM      6  C   UNL A   1      37.052  23.008  25.568  1.00  0.00     0.039 A 
ATOM      7  C   UNL A   1      34.754  21.967  24.308  1.00  0.00    -0.011 A 
ATOM      8  C   UNL A   1      35.418  23.080  23.776  1.00  0.00     0.008 A 
ATOM      9  C   UNL A   1      35.300  21.333  25.433  1.00  0.00     0.008 A 
ATOM     10  C   UNL A   1      36.556  23.591  24.397  1.00  0.00     0.014 A 
ATOM     11  C   UNL A   1      36.450  21.842  26.052  1.00  0.00     0.014 A 
BRANCH   7  12
ATOM     12  C   UNL A   1      33.449  21.499  23.699  1.00  0.00     0.265 C 
BRANCH  12  13
ATOM     13  O   UNL A   1      32.249  21.804  24.419  1.00  0.00    -0.488 OA
BRANCH  13  14
ATOM     14  C   UNL A   1      32.053  23.106  24.786  1.00  0.00     0.134 A 
ATOM     15  C   UNL A   1      31.498  25.813  25.238  1.00  0.00    -0.004 A 
ATOM     16  C   UNL A   1      31.245  25.258  23.985  1.00  0.00     0.013 A 
ATOM     17  C   UNL A   1      31.989  25.016  26.276  1.00  0.00     0.029 A 
ATOM     18  C   UNL A   1      31.513  23.906  23.769  1.00  0.00     0.048 A 
ATOM     19  C   UNL A   1      32.245  23.655  26.060  1.00  0.00     0.060 A 
ATOM     20  Br  UNL A   1      32.726  22.636  27.587  1.00  0.00    -0.047 Br
BRANCH  15  21
ATOM     21  C   UNL A   1      31.224  27.249  25.442  1.00  0.00     0.141 C 
ATOM     22  N   UNL A   1      31.792  28.154  24.710  1.00  0.00    -0.181 NA
BRANCH  22  23
ATOM     23  N   UNL A   1      31.409  29.432  24.962  1.00  0.00    -0.246 N 
ATOM     24  C   UNL A   1      31.983  30.221  25.935  1.00  0.00     0.254 C 
ATOM     25  O   UNL A   1      31.422  31.265  26.280  1.00  0.00    -0.272 OA
ATOM     26  H   UNL A   1      30.682  29.815  24.420  1.00  0.00     0.193 HD
BRANCH  24  27
ATOM     27  C   UNL A   1      33.349  29.862  26.464  1.00  0.00     0.221 C 
BRANCH  27  28
ATOM     28  C   UNL A   1      33.877  30.885  27.457  1.00  0.00     0.072 C 
ATOM     29  N   UNL A   1      34.315  31.733  28.281  1.00  0.00    -0.198 NA
ENDBRANCH  27  28
ENDBRANCH  24  27
ENDBRANCH  22  23
ENDBRANCH  15  21
ENDBRANCH  13  14
ENDBRANCH  12  13
ENDBRANCH   7  12
ENDBRANCH   3   6
ENDBRANCH   1   2
BRANCH   1  30
ATOM     30  C   UNL A   1      41.398  21.760  26.039  1.00  0.00     0.021 C 
BRANCH  30  31
ATOM     31  C   UNL A   1      42.075  21.145  27.272  1.00  0.00     0.002 C 
BRANCH  31  32
ATOM     32  C   UNL A   1      41.929  19.624  27.389  1.00  0.00     0.002 C 
BRANCH  32  33
ATOM     33  C   UNL A   1      42.395  18.835  26.162  1.00  0.00     0.021 C 
BRANCH  33  34
ATOM     34  C   UNL A   1      43.905  18.639  26.077  1.00  0.00     0.116 C 
BRANCH  34  35
ATOM     35  N   UNL A   1      44.370  18.634  24.699  1.00  0.00    -0.352 N 
ATOM     36  C   UNL A   1      44.675  19.687  23.880  1.00  0.00     0.251 C 
ATOM     37  H   UNL A   1      44.481  17.742  24.297  1.00  0.00     0.163 HD
ATOM     38  O   UNL A   1      44.822  19.503  22.671  1.00  0.00    -0.269 OA
BRANCH  36  39
ATOM     39  C   UNL A   1      44.823  21.047  24.436  1.00  0.00     0.039 A 
ATOM     40  C   UNL A   1      45.432  21.200  25.683  1.00  0.00     0.014 A 
ATOM     41  C   UNL A   1      44.326  22.164  23.754  1.00  0.00     0.014 A 
ATOM     42  C   UNL A   1      45.581  22.476  26.227  1.00  0.00     0.010 A 
ATOM     43  C   UNL A   1      44.537  23.442  24.267  1.00  0.00     0.010 A 
ATOM     44  C   UNL A   1      45.156  23.609  25.514  1.00  0.00    -0.014 A 
BRANCH  44  45
ATOM     45  C   UNL A   1      45.365  24.968  26.070  1.00  0.00     0.031 A 
ATOM     46  C   UNL A   1      46.724  25.611  26.035  1.00  0.00     0.074 A 
ATOM     47  C   UNL A   1      44.325  25.614  26.632  1.00  0.00     0.049 A 
ATOM     48  N   UNL A   1      47.086  26.801  26.444  1.00  0.00    -0.248 NA
ATOM     49  C   UNL A   1      47.826  24.804  25.489  1.00  0.00     0.031 C 
ATOM     50  C   UNL A   1      42.977  25.068  26.782  1.00  0.00     0.029 A 
ATOM     51  N   UNL A   1      44.240  26.869  27.180  1.00  0.00    -0.354 N 
ATOM     52  C   UNL A   1      48.453  26.883  26.211  1.00  0.00     0.074 A 
ATOM     53  C   UNL A   1      48.867  25.602  25.679  1.00  0.00     0.031 C 
ATOM     54  C   UNL A   1      42.188  25.995  27.348  1.00  0.00     0.029 A 
ATOM     55  C   UNL A   1      42.980  27.189  27.625  1.00  0.00     0.049 A 
ATOM     56  H   UNL A   1      45.007  27.483  27.246  1.00  0.00     0.167 HD
ATOM     57  C   UNL A   1      49.280  27.938  26.399  1.00  0.00     0.037 A 
ATOM     58  C   UNL A   1      42.517  28.321  28.185  1.00  0.00     0.037 A 
ATOM     59  C   UNL A   1      48.859  29.215  26.912  1.00  0.00     0.049 A 
ATOM     60  C   UNL A   1      43.453  29.483  28.368  1.00  0.00     0.074 A 
ATOM     61  C   UNL A   1      49.605  30.368  27.083  1.00  0.00     0.029 A 
ATOM     62  N   UNL A   1      47.571  29.507  27.341  1.00  0.00    -0.354 N 
ATOM     63  N   UNL A   1      44.725  29.578  28.065  1.00  0.00    -0.248 NA
ATOM     64  C   UNL A   1      42.884  30.703  28.958  1.00  0.00     0.031 C 
ATOM     65  C   UNL A   1      48.783  31.343  27.657  1.00  0.00     0.029 A 
ATOM     66  C   UNL A   1      47.509  30.815  27.797  1.00  0.00     0.049 A 
ATOM     67  H   UNL A   1      46.814  28.879  27.324  1.00  0.00     0.167 HD
ATOM     68  C   UNL A   1      45.104  30.868  28.404  1.00  0.00     0.074 A 
ATOM     69  C   UNL A   1      43.920  31.529  28.914  1.00  0.00     0.031 C 
ATOM     70  C   UNL A   1      46.322  31.456  28.305  1.00  0.00     0.037 A 
BRANCH  57  71
ATOM     71  C   UNL A   1      50.728  27.758  26.043  1.00  0.00     0.064 A 
ATOM     72  C   UNL A   1      51.193  27.953  24.733  1.00  0.00     0.173 A 
ATOM     73  C   UNL A   1      51.670  27.425  27.028  1.00  0.00     0.173 A 
ATOM     74  F   UNL A   1      50.333  28.261  23.751  1.00  0.00    -0.203 F 
ATOM     75  C   UNL A   1      52.540  27.793  24.418  1.00  0.00     0.198 A 
ATOM     76  C   UNL A   1      53.021  27.296  26.715  1.00  0.00     0.198 A 
ATOM     77  F   UNL A   1      51.283  27.233  28.297  1.00  0.00    -0.203 F 
ATOM     78  F   UNL A   1      52.951  27.937  23.150  1.00  0.00    -0.200 F 
ATOM     79  C   UNL A   1      53.454  27.473  25.409  1.00  0.00     0.200 A 
ATOM     80  F   UNL A   1      53.905  26.998  27.677  1.00  0.00    -0.200 F 
ATOM     81  F   UNL A   1      54.751  27.326  25.106  1.00  0.00    -0.200 F 
ENDBRANCH  57  71
BRANCH  58  82
ATOM     82  C   UNL A   1      41.086  28.423  28.574  1.00  0.00     0.064 A 
ATOM     83  C   UNL A   1      40.653  28.013  29.843  1.00  0.00     0.173 A 
ATOM     84  C   UNL A   1      40.125  28.934  27.690  1.00  0.00     0.173 A 
ATOM     85  F   UNL A   1      41.533  27.500  30.716  1.00  0.00    -0.203 F 
ATOM     86  C   UNL A   1      39.311  28.089  30.205  1.00  0.00     0.198 A 
ATOM     87  C   UNL A   1      38.786  29.036  28.063  1.00  0.00     0.198 A 
ATOM     88  F   UNL A   1      40.490  29.348  26.467  1.00  0.00    -0.203 F 
ATOM     89  F   UNL A   1      38.917  27.647  31.407  1.00  0.00    -0.200 F 
ATOM     90  C   UNL A   1      38.379  28.607  29.317  1.00  0.00     0.200 A 
ATOM     91  F   UNL A   1      37.893  29.551  27.209  1.00  0.00    -0.200 F 
ATOM     92  F   UNL A   1      37.088  28.684  29.667  1.00  0.00    -0.200 F 
ENDBRANCH  58  82
BRANCH  70  93
ATOM     93  C   UNL A   1      46.426  32.889  28.739  1.00  0.00     0.064 A 
ATOM     94  C   UNL A   1      46.769  33.236  30.054  1.00  0.00     0.173 A 
ATOM     95  C   UNL A   1      46.198  33.927  27.824  1.00  0.00     0.173 A 
ATOM     96  F   UNL A   1      46.982  32.280  30.971  1.00  0.00    -0.203 F 
ATOM     97  C   UNL A   1      46.845  34.570  30.445  1.00  0.00     0.198 A 
ATOM     98  C   UNL A   1      46.307  35.260  28.210  1.00  0.00     0.198 A 
ATOM     99  F   UNL A   1      45.875  33.650  26.551  1.00  0.00    -0.203 F 
ATOM    100  F   UNL A   1      47.117  34.877  31.721  1.00  0.00    -0.200 F 
ATOM    101  C   UNL A   1      46.619  35.580  29.522  1.00  0.00     0.200 A 
ATOM    102  F   UNL A   1      46.101  36.235  27.314  1.00  0.00    -0.200 F 
ATOM    103  F   UNL A   1      46.694  36.864  29.901  1.00  0.00    -0.200 F 
ENDBRANCH  70  93
ENDBRANCH  44  45
ENDBRANCH  36  39
ENDBRANCH  34  35
ENDBRANCH  33  34
ENDBRANCH  32  33
ENDBRANCH  31  32
ENDBRANCH  30  31
ENDBRANCH   1  30
TORSDOF 20
ENDMDL
