MODEL 1
REMARK VINA RESULT:     -11.9      0.000      0.000
REMARK SMILES Cc1ccc(S(=O)(=O)Nc2cc(C(=O)NCCCCCCNC(=O)c3ccc(-c4c5nc(c(-c6c(F)c(F)c(F)c(F)c6F)c6ccc([nH]6)c(-c6c(F)c(F)c(F)c(F)c6F)c6nc(c(-c7c(F)c(F)c(F)c(F)c7F)c7ccc4[nH]7)C=C6)C=C5)cc3)cnc2N2CCCC2)c(C)c1
REMARK SMILES IDX 18 1 17 2 16 3 15 4 13 5 14 6 12 8 10 9 11 10 90 11 89 12
REMARK SMILES IDX 88 13 9 14 6 16 7 17 8 18 5 19 1 20 2 21 3 22 98 23 4 24
REMARK SMILES IDX 96 25 97 26 91 27 92 28 95 29 93 30 94 31 19 32 20 33 21 34
REMARK SMILES IDX 22 35 23 36 24 38 25 39 26 40 87 41 27 42 86 43 28 44 29 45
REMARK SMILES IDX 30 46 80 47 31 48 85 49 79 50 81 51 32 52 84 53 78 54 77 55
REMARK SMILES IDX 33 57 65 58 45 59 64 60 46 61 49 62 63 63 82 64 47 65 48 66
REMARK SMILES IDX 62 68 83 69 50 70 34 71 35 72 43 73 36 74 37 75 41 76 44 77
REMARK SMILES IDX 38 78 39 79 42 80 40 81 66 82 67 83 75 84 68 85 69 86 73 87
REMARK SMILES IDX 76 88 70 89 71 90 74 91 72 92 51 93 52 94 60 95 53 96 54 97
REMARK SMILES IDX 58 98 61 99 55 100 56 101 59 102 57 103
REMARK H PARENT 15 7 9 15 22 37 81 56 49 67
REMARK Flexibility Score: inf
ROOT
ATOM      1  C   UNL A   1      31.474  26.803  26.869  1.00  0.00     0.002 C 
ENDROOT
BRANCH   1   2
ATOM      2  C   UNL A   1      30.301  26.888  25.884  1.00  0.00     0.021 C 
BRANCH   2   3
ATOM      3  C   UNL A   1      29.912  25.525  25.314  1.00  0.00     0.116 C 
BRANCH   3   4
ATOM      4  N   UNL A   1      29.528  24.621  26.383  1.00  0.00    -0.352 N 
ATOM      5  C   UNL A   1      30.084  23.470  26.876  1.00  0.00     0.252 C 
ATOM      6  O   UNL A   1      29.520  22.922  27.823  1.00  0.00    -0.269 OA
ATOM      7  H   UNL A   1      28.702  24.888  26.847  1.00  0.00     0.163 HD
BRANCH   5   8
ATOM      8  C   UNL A   1      31.356  22.897  26.382  1.00  0.00     0.060 A 
ATOM      9  C   UNL A   1      32.948  22.255  24.716  1.00  0.00     0.092 A 
ATOM     10  C   UNL A   1      31.639  22.568  25.062  1.00  0.00     0.046 A 
ATOM     11  C   UNL A   1      33.916  22.038  25.723  1.00  0.00     0.153 A 
ATOM     12  N   UNL A   1      33.621  22.237  27.020  1.00  0.00    -0.236 NA
ATOM     13  C   UNL A   1      32.374  22.698  27.315  1.00  0.00     0.127 A 
BRANCH   9  14
ATOM     14  N   UNL A   1      33.364  22.153  23.359  1.00  0.00    -0.276 N 
ATOM     15  H   UNL A   1      33.390  21.255  22.957  1.00  0.00     0.180 HD
BRANCH  14  16
ATOM     16  S   UNL A   1      33.812  23.443  22.397  1.00  0.00     0.262 S 
ATOM     17  O   UNL A   1      33.437  23.071  21.044  1.00  0.00    -0.201 OA
ATOM     18  O   UNL A   1      35.190  23.703  22.751  1.00  0.00    -0.201 OA
BRANCH  16  19
ATOM     19  C   UNL A   1      32.907  24.956  22.745  1.00  0.00     0.090 A 
ATOM     20  C   UNL A   1      31.693  29.099  22.780  1.00  0.00     0.044 C 
ATOM     21  C   UNL A   1      32.052  27.643  22.817  1.00  0.00    -0.051 A 
ATOM     22  C   UNL A   1      31.403  26.713  22.001  1.00  0.00     0.005 A 
ATOM     23  C   UNL A   1      33.019  27.183  23.714  1.00  0.00     0.008 A 
ATOM     24  C   UNL A   1      31.812  25.372  21.982  1.00  0.00     0.023 A 
ATOM     25  C   UNL A   1      33.446  25.842  23.703  1.00  0.00    -0.030 A 
ATOM     26  C   UNL A   1      34.440  25.440  24.762  1.00  0.00     0.046 C 
ENDBRANCH  16  19
ENDBRANCH  14  16
ENDBRANCH   9  14
BRANCH  11  27
ATOM     27  N   UNL A   1      35.151  21.545  25.391  1.00  0.00    -0.355 N 
ATOM     28  C   UNL A   1      36.434  22.159  25.662  1.00  0.00     0.118 C 
ATOM     29  C   UNL A   1      35.287  20.150  25.002  1.00  0.00     0.118 C 
ATOM     30  C   UNL A   1      37.311  21.437  24.642  1.00  0.00     0.023 C 
ATOM     31  C   UNL A   1      36.784  20.005  24.692  1.00  0.00     0.023 C 
ENDBRANCH  11  27
ENDBRANCH   5   8
ENDBRANCH   3   4
ENDBRANCH   2   3
ENDBRANCH   1   2
BRANCH   1  32
ATOM     32  C   UNL A   1      32.085  28.159  27.248  1.00  0.00     0.002 C 
BRANCH  32  33
ATOM     33  C   UNL A   1      33.614  28.217  27.212  1.00  0.00     0.021 C 
BRANCH  33  34
ATOM     34  C   UNL A   1      34.187  29.341  26.355  1.00  0.00     0.116 C 
BRANCH  34  35
ATOM     35  N   UNL A   1      33.981  30.645  26.965  1.00  0.00    -0.352 N 
ATOM     36  C   UNL A   1      34.657  31.239  28.001  1.00  0.00     0.251 C 
ATOM     37  H   UNL A   1      33.250  31.180  26.580  1.00  0.00     0.163 HD
ATOM     38  O   UNL A   1      34.221  32.262  28.518  1.00  0.00    -0.269 OA
BRANCH  36  39
ATOM     39  C   UNL A   1      35.907  30.636  28.506  1.00  0.00     0.039 A 
ATOM     40  C   UNL A   1      37.113  30.959  27.877  1.00  0.00     0.014 A 
ATOM     41  C   UNL A   1      35.889  29.735  29.575  1.00  0.00     0.014 A 
ATOM     42  C   UNL A   1      38.309  30.416  28.352  1.00  0.00     0.010 A 
ATOM     43  C   UNL A   1      37.086  29.239  30.083  1.00  0.00     0.010 A 
ATOM     44  C   UNL A   1      38.305  29.570  29.472  1.00  0.00    -0.014 A 
BRANCH  44  45
ATOM     45  C   UNL A   1      39.566  29.015  30.017  1.00  0.00     0.031 A 
ATOM     46  C   UNL A   1      40.230  29.667  31.194  1.00  0.00     0.074 A 
ATOM     47  C   UNL A   1      40.151  27.970  29.403  1.00  0.00     0.049 A 
ATOM     48  N   UNL A   1      41.370  29.376  31.770  1.00  0.00    -0.248 NA
ATOM     49  C   UNL A   1      39.535  30.821  31.785  1.00  0.00     0.031 C 
ATOM     50  C   UNL A   1      39.631  27.290  28.217  1.00  0.00     0.029 A 
ATOM     51  N   UNL A   1      41.322  27.312  29.681  1.00  0.00    -0.354 N 
ATOM     52  C   UNL A   1      41.537  30.320  32.773  1.00  0.00     0.074 A 
ATOM     53  C   UNL A   1      40.406  31.219  32.701  1.00  0.00     0.031 C 
ATOM     54  C   UNL A   1      40.475  26.306  27.872  1.00  0.00     0.029 A 
ATOM     55  C   UNL A   1      41.605  26.303  28.796  1.00  0.00     0.049 A 
ATOM     56  H   UNL A   1      41.902  27.540  30.442  1.00  0.00     0.167 HD
ATOM     57  C   UNL A   1      42.536  30.416  33.683  1.00  0.00     0.037 A 
ATOM     58  C   UNL A   1      42.663  25.472  28.734  1.00  0.00     0.037 A 
ATOM     59  C   UNL A   1      43.644  29.502  33.770  1.00  0.00     0.049 A 
ATOM     60  C   UNL A   1      43.745  25.577  29.771  1.00  0.00     0.074 A 
ATOM     61  C   UNL A   1      44.662  29.464  34.706  1.00  0.00     0.029 A 
ATOM     62  N   UNL A   1      43.879  28.465  32.878  1.00  0.00    -0.354 N 
ATOM     63  N   UNL A   1      43.854  26.424  30.766  1.00  0.00    -0.248 NA
ATOM     64  C   UNL A   1      44.843  24.605  29.684  1.00  0.00     0.031 C 
ATOM     65  C   UNL A   1      45.535  28.425  34.360  1.00  0.00     0.029 A 
ATOM     66  C   UNL A   1      45.039  27.792  33.230  1.00  0.00     0.049 A 
ATOM     67  H   UNL A   1      43.307  28.240  32.109  1.00  0.00     0.167 HD
ATOM     68  C   UNL A   1      45.021  26.079  31.433  1.00  0.00     0.074 A 
ATOM     69  C   UNL A   1      45.577  24.936  30.738  1.00  0.00     0.031 C 
ATOM     70  C   UNL A   1      45.580  26.660  32.523  1.00  0.00     0.037 A 
BRANCH  57  71
ATOM     71  C   UNL A   1      42.469  31.556  34.657  1.00  0.00     0.064 A 
ATOM     72  C   UNL A   1      43.100  32.782  34.400  1.00  0.00     0.173 A 
ATOM     73  C   UNL A   1      41.757  31.423  35.859  1.00  0.00     0.173 A 
ATOM     74  F   UNL A   1      43.803  32.955  33.271  1.00  0.00    -0.203 F 
ATOM     75  C   UNL A   1      43.055  33.819  35.328  1.00  0.00     0.198 A 
ATOM     76  C   UNL A   1      41.691  32.473  36.771  1.00  0.00     0.198 A 
ATOM     77  F   UNL A   1      41.130  30.274  36.151  1.00  0.00    -0.203 F 
ATOM     78  F   UNL A   1      43.716  34.961  35.085  1.00  0.00    -0.200 F 
ATOM     79  C   UNL A   1      42.348  33.665  36.510  1.00  0.00     0.200 A 
ATOM     80  F   UNL A   1      40.998  32.327  37.910  1.00  0.00    -0.200 F 
ATOM     81  F   UNL A   1      42.309  34.664  37.403  1.00  0.00    -0.200 F 
ENDBRANCH  57  71
BRANCH  58  82
ATOM     82  C   UNL A   1      42.723  24.450  27.660  1.00  0.00     0.064 A 
ATOM     83  C   UNL A   1      43.326  24.738  26.428  1.00  0.00     0.173 A 
ATOM     84  C   UNL A   1      42.219  23.156  27.857  1.00  0.00     0.173 A 
ATOM     85  F   UNL A   1      43.805  25.968  26.190  1.00  0.00    -0.203 F 
ATOM     86  C   UNL A   1      43.419  23.771  25.430  1.00  0.00     0.198 A 
ATOM     87  C   UNL A   1      42.332  22.183  26.866  1.00  0.00     0.198 A 
ATOM     88  F   UNL A   1      41.641  22.832  29.023  1.00  0.00    -0.203 F 
ATOM     89  F   UNL A   1      43.979  24.079  24.253  1.00  0.00    -0.200 F 
ATOM     90  C   UNL A   1      42.929  22.493  25.653  1.00  0.00     0.200 A 
ATOM     91  F   UNL A   1      41.872  20.945  27.090  1.00  0.00    -0.200 F 
ATOM     92  F   UNL A   1      43.032  21.559  24.698  1.00  0.00    -0.200 F 
ENDBRANCH  58  82
BRANCH  70  93
ATOM     93  C   UNL A   1      46.853  26.058  33.041  1.00  0.00     0.064 A 
ATOM     94  C   UNL A   1      48.107  26.552  32.652  1.00  0.00     0.173 A 
ATOM     95  C   UNL A   1      46.818  25.005  33.966  1.00  0.00     0.173 A 
ATOM     96  F   UNL A   1      48.191  27.548  31.757  1.00  0.00    -0.203 F 
ATOM     97  C   UNL A   1      49.281  26.000  33.158  1.00  0.00     0.198 A 
ATOM     98  C   UNL A   1      47.993  24.470  34.487  1.00  0.00     0.198 A 
ATOM     99  F   UNL A   1      45.643  24.500  34.372  1.00  0.00    -0.203 F 
ATOM    100  F   UNL A   1      50.469  26.460  32.744  1.00  0.00    -0.200 F 
ATOM    101  C   UNL A   1      49.223  24.965  34.079  1.00  0.00     0.200 A 
ATOM    102  F   UNL A   1      47.935  23.477  35.385  1.00  0.00    -0.200 F 
ATOM    103  F   UNL A   1      50.353  24.438  34.569  1.00  0.00    -0.200 F 
ENDBRANCH  70  93
ENDBRANCH  44  45
ENDBRANCH  36  39
ENDBRANCH  34  35
ENDBRANCH  33  34
ENDBRANCH  32  33
ENDBRANCH   1  32
TORSDOF 17
ENDMDL
MODEL 2
REMARK VINA RESULT:     -11.7      3.241      5.454
REMARK SMILES Cc1ccc(S(=O)(=O)Nc2cc(C(=O)NCCCCCCNC(=O)c3ccc(-c4c5nc(c(-c6c(F)c(F)c(F)c(F)c6F)c6ccc([nH]6)c(-c6c(F)c(F)c(F)c(F)c6F)c6nc(c(-c7c(F)c(F)c(F)c(F)c7F)c7ccc4[nH]7)C=C6)C=C5)cc3)cnc2N2CCCC2)c(C)c1
REMARK SMILES IDX 18 1 17 2 16 3 15 4 13 5 14 6 12 8 10 9 11 10 90 11 89 12
REMARK SMILES IDX 88 13 9 14 6 16 7 17 8 18 5 19 1 20 2 21 3 22 98 23 4 24
REMARK SMILES IDX 96 25 97 26 91 27 92 28 95 29 93 30 94 31 19 32 20 33 21 34
REMARK SMILES IDX 22 35 23 36 24 38 25 39 26 40 87 41 27 42 86 43 28 44 29 45
REMARK SMILES IDX 30 46 80 47 31 48 85 49 79 50 81 51 32 52 84 53 78 54 77 55
REMARK SMILES IDX 33 57 65 58 45 59 64 60 46 61 49 62 63 63 82 64 47 65 48 66
REMARK SMILES IDX 62 68 83 69 50 70 34 71 35 72 43 73 36 74 37 75 41 76 44 77
REMARK SMILES IDX 38 78 39 79 42 80 40 81 66 82 67 83 75 84 68 85 69 86 73 87
REMARK SMILES IDX 76 88 70 89 71 90 74 91 72 92 51 93 52 94 60 95 53 96 54 97
REMARK SMILES IDX 58 98 61 99 55 100 56 101 59 102 57 103
REMARK H PARENT 15 7 9 15 22 37 81 56 49 67
REMARK Flexibility Score: inf
ROOT
ATOM      1  C   UNL A   1      34.300  32.429  28.530  1.00  0.00     0.002 C 
ENDROOT
BRANCH   1   2
ATOM      2  C   UNL A   1      33.247  32.197  27.439  1.00  0.00     0.021 C 
BRANCH   2   3
ATOM      3  C   UNL A   1      32.903  30.719  27.259  1.00  0.00     0.116 C 
BRANCH   3   4
ATOM      4  N   UNL A   1      31.897  30.557  26.225  1.00  0.00    -0.352 N 
ATOM      5  C   UNL A   1      31.661  29.574  25.300  1.00  0.00     0.252 C 
ATOM      6  O   UNL A   1      30.697  29.717  24.548  1.00  0.00    -0.269 OA
ATOM      7  H   UNL A   1      31.258  31.303  26.178  1.00  0.00     0.163 HD
BRANCH   5   8
ATOM      8  C   UNL A   1      32.452  28.326  25.209  1.00  0.00     0.060 A 
ATOM      9  C   UNL A   1      33.017  26.068  25.758  1.00  0.00     0.092 A 
ATOM     10  C   UNL A   1      32.387  27.259  26.097  1.00  0.00     0.046 A 
ATOM     11  C   UNL A   1      33.903  26.022  24.657  1.00  0.00     0.153 A 
ATOM     12  N   UNL A   1      34.067  27.090  23.856  1.00  0.00    -0.236 NA
ATOM     13  C   UNL A   1      33.314  28.193  24.121  1.00  0.00     0.127 A 
BRANCH   9  14
ATOM     14  N   UNL A   1      32.793  24.864  26.483  1.00  0.00    -0.276 N 
ATOM     15  H   UNL A   1      33.351  24.700  27.276  1.00  0.00     0.180 HD
BRANCH  14  16
ATOM     16  S   UNL A   1      31.653  23.709  26.088  1.00  0.00     0.262 S 
ATOM     17  O   UNL A   1      30.852  24.295  25.027  1.00  0.00    -0.201 OA
ATOM     18  O   UNL A   1      31.063  23.329  27.353  1.00  0.00    -0.201 OA
BRANCH  16  19
ATOM     19  C   UNL A   1      32.352  22.210  25.386  1.00  0.00     0.090 A 
ATOM     20  C   UNL A   1      32.979  18.067  24.346  1.00  0.00     0.044 C 
ATOM     21  C   UNL A   1      32.828  19.525  24.664  1.00  0.00    -0.051 A 
ATOM     22  C   UNL A   1      32.237  20.410  23.759  1.00  0.00     0.005 A 
ATOM     23  C   UNL A   1      33.326  20.034  25.866  1.00  0.00     0.008 A 
ATOM     24  C   UNL A   1      32.022  21.750  24.108  1.00  0.00     0.023 A 
ATOM     25  C   UNL A   1      33.112  21.376  26.235  1.00  0.00    -0.030 A 
ATOM     26  C   UNL A   1      33.755  21.835  27.518  1.00  0.00     0.046 C 
ENDBRANCH  16  19
ENDBRANCH  14  16
ENDBRANCH   9  14
BRANCH  11  27
ATOM     27  N   UNL A   1      34.666  24.905  24.439  1.00  0.00    -0.355 N 
ATOM     28  C   UNL A   1      35.524  24.236  25.396  1.00  0.00     0.118 C 
ATOM     29  C   UNL A   1      34.418  24.081  23.266  1.00  0.00     0.118 C 
ATOM     30  C   UNL A   1      36.434  23.451  24.457  1.00  0.00     0.023 C 
ATOM     31  C   UNL A   1      35.472  22.971  23.372  1.00  0.00     0.023 C 
ENDBRANCH  11  27
ENDBRANCH   5   8
ENDBRANCH   3   4
ENDBRANCH   2   3
ENDBRANCH   1   2
BRANCH   1  32
ATOM     32  C   UNL A   1      34.460  33.894  28.958  1.00  0.00     0.002 C 
BRANCH  32  33
ATOM     33  C   UNL A   1      33.162  34.705  28.998  1.00  0.00     0.021 C 
BRANCH  33  34
ATOM     34  C   UNL A   1      33.308  36.107  29.582  1.00  0.00     0.116 C 
BRANCH  34  35
ATOM     35  N   UNL A   1      32.511  36.276  30.787  1.00  0.00    -0.352 N 
ATOM     36  C   UNL A   1      32.658  35.691  32.018  1.00  0.00     0.251 C 
ATOM     37  H   UNL A   1      31.755  36.902  30.707  1.00  0.00     0.163 HD
ATOM     38  O   UNL A   1      31.775  35.798  32.863  1.00  0.00    -0.269 OA
BRANCH  36  39
ATOM     39  C   UNL A   1      33.877  34.916  32.325  1.00  0.00     0.039 A 
ATOM     40  C   UNL A   1      35.117  35.557  32.258  1.00  0.00     0.014 A 
ATOM     41  C   UNL A   1      33.802  33.558  32.649  1.00  0.00     0.014 A 
ATOM     42  C   UNL A   1      36.281  34.848  32.563  1.00  0.00     0.010 A 
ATOM     43  C   UNL A   1      34.955  32.868  33.009  1.00  0.00     0.010 A 
ATOM     44  C   UNL A   1      36.205  33.505  32.962  1.00  0.00    -0.014 A 
BRANCH  44  45
ATOM     45  C   UNL A   1      37.423  32.746  33.331  1.00  0.00     0.031 A 
ATOM     46  C   UNL A   1      38.144  33.051  34.611  1.00  0.00     0.074 A 
ATOM     47  C   UNL A   1      37.921  31.834  32.474  1.00  0.00     0.049 A 
ATOM     48  N   UNL A   1      39.261  32.548  35.074  1.00  0.00    -0.248 NA
ATOM     49  C   UNL A   1      37.545  34.081  35.473  1.00  0.00     0.031 C 
ATOM     50  C   UNL A   1      37.340  31.493  31.175  1.00  0.00     0.029 A 
ATOM     51  N   UNL A   1      39.038  31.043  32.561  1.00  0.00    -0.354 N 
ATOM     52  C   UNL A   1      39.508  33.214  36.266  1.00  0.00     0.074 A 
ATOM     53  C   UNL A   1      38.450  34.186  36.434  1.00  0.00     0.031 C 
ATOM     54  C   UNL A   1      38.103  30.558  30.589  1.00  0.00     0.029 A 
ATOM     55  C   UNL A   1      39.236  30.253  31.458  1.00  0.00     0.049 A 
ATOM     56  H   UNL A   1      39.640  31.043  33.340  1.00  0.00     0.167 HD
ATOM     57  C   UNL A   1      40.518  33.019  37.148  1.00  0.00     0.037 A 
ATOM     58  C   UNL A   1      40.225  29.384  31.176  1.00  0.00     0.037 A 
ATOM     59  C   UNL A   1      41.551  32.030  36.990  1.00  0.00     0.049 A 
ATOM     60  C   UNL A   1      41.319  29.162  32.182  1.00  0.00     0.074 A 
ATOM     61  C   UNL A   1      42.570  31.697  37.866  1.00  0.00     0.029 A 
ATOM     62  N   UNL A   1      41.699  31.218  35.875  1.00  0.00    -0.354 N 
ATOM     63  N   UNL A   1      41.501  29.739  33.345  1.00  0.00    -0.248 NA
ATOM     64  C   UNL A   1      42.337  28.159  31.842  1.00  0.00     0.031 C 
ATOM     65  C   UNL A   1      43.357  30.708  37.264  1.00  0.00     0.029 A 
ATOM     66  C   UNL A   1      42.806  30.397  36.030  1.00  0.00     0.049 A 
ATOM     67  H   UNL A   1      41.106  31.223  35.089  1.00  0.00     0.167 HD
ATOM     68  C   UNL A   1      42.642  29.162  33.883  1.00  0.00     0.074 A 
ATOM     69  C   UNL A   1      43.102  28.177  32.926  1.00  0.00     0.031 C 
ATOM     70  C   UNL A   1      43.252  29.426  35.065  1.00  0.00     0.037 A 
BRANCH  57  71
ATOM     71  C   UNL A   1      40.546  33.899  38.363  1.00  0.00     0.064 A 
ATOM     72  C   UNL A   1      39.811  33.586  39.516  1.00  0.00     0.173 A 
ATOM     73  C   UNL A   1      41.323  35.067  38.377  1.00  0.00     0.173 A 
ATOM     74  F   UNL A   1      39.042  32.487  39.549  1.00  0.00    -0.203 F 
ATOM     75  C   UNL A   1      39.822  34.429  40.624  1.00  0.00     0.198 A 
ATOM     76  C   UNL A   1      41.354  35.893  39.498  1.00  0.00     0.198 A 
ATOM     77  F   UNL A   1      42.049  35.410  37.303  1.00  0.00    -0.203 F 
ATOM     78  F   UNL A   1      39.066  34.138  41.693  1.00  0.00    -0.200 F 
ATOM     79  C   UNL A   1      40.596  35.579  40.615  1.00  0.00     0.200 A 
ATOM     80  F   UNL A   1      42.111  37.000  39.492  1.00  0.00    -0.200 F 
ATOM     81  F   UNL A   1      40.603  36.391  41.682  1.00  0.00    -0.200 F 
ENDBRANCH  57  71
BRANCH  58  82
ATOM     82  C   UNL A   1      40.198  28.642  29.892  1.00  0.00     0.064 A 
ATOM     83  C   UNL A   1      40.879  29.129  28.767  1.00  0.00     0.173 A 
ATOM     84  C   UNL A   1      39.530  27.415  29.774  1.00  0.00     0.173 A 
ATOM     85  F   UNL A   1      41.517  30.307  28.830  1.00  0.00    -0.203 F 
ATOM     86  C   UNL A   1      40.888  28.419  27.570  1.00  0.00     0.198 A 
ATOM     87  C   UNL A   1      39.558  26.695  28.581  1.00  0.00     0.198 A 
ATOM     88  F   UNL A   1      38.872  26.906  30.825  1.00  0.00    -0.203 F 
ATOM     89  F   UNL A   1      41.527  28.917  26.504  1.00  0.00    -0.200 F 
ATOM     90  C   UNL A   1      40.234  27.199  27.481  1.00  0.00     0.200 A 
ATOM     91  F   UNL A   1      38.939  25.509  28.502  1.00  0.00    -0.200 F 
ATOM     92  F   UNL A   1      40.256  26.508  26.333  1.00  0.00    -0.200 F 
ENDBRANCH  58  82
BRANCH  70  93
ATOM     93  C   UNL A   1      44.477  28.627  35.395  1.00  0.00     0.064 A 
ATOM     94  C   UNL A   1      45.758  29.064  35.025  1.00  0.00     0.173 A 
ATOM     95  C   UNL A   1      44.373  27.433  36.124  1.00  0.00     0.173 A 
ATOM     96  F   UNL A   1      45.906  30.191  34.313  1.00  0.00    -0.203 F 
ATOM     97  C   UNL A   1      46.889  28.324  35.358  1.00  0.00     0.198 A 
ATOM     98  C   UNL A   1      45.509  26.708  36.476  1.00  0.00     0.198 A 
ATOM     99  F   UNL A   1      43.171  26.975  36.504  1.00  0.00    -0.203 F 
ATOM    100  F   UNL A   1      48.100  28.739  34.961  1.00  0.00    -0.200 F 
ATOM    101  C   UNL A   1      46.765  27.151  36.088  1.00  0.00     0.200 A 
ATOM    102  F   UNL A   1      45.388  25.580  37.189  1.00  0.00    -0.200 F 
ATOM    103  F   UNL A   1      47.855  26.444  36.413  1.00  0.00    -0.200 F 
ENDBRANCH  70  93
ENDBRANCH  44  45
ENDBRANCH  36  39
ENDBRANCH  34  35
ENDBRANCH  33  34
ENDBRANCH  32  33
ENDBRANCH   1  32
TORSDOF 17
ENDMDL
MODEL 3
REMARK VINA RESULT:     -11.5      4.910      9.644
REMARK SMILES Cc1ccc(S(=O)(=O)Nc2cc(C(=O)NCCCCCCNC(=O)c3ccc(-c4c5nc(c(-c6c(F)c(F)c(F)c(F)c6F)c6ccc([nH]6)c(-c6c(F)c(F)c(F)c(F)c6F)c6nc(c(-c7c(F)c(F)c(F)c(F)c7F)c7ccc4[nH]7)C=C6)C=C5)cc3)cnc2N2CCCC2)c(C)c1
REMARK SMILES IDX 18 1 17 2 16 3 15 4 13 5 14 6 12 8 10 9 11 10 90 11 89 12
REMARK SMILES IDX 88 13 9 14 6 16 7 17 8 18 5 19 1 20 2 21 3 22 98 23 4 24
REMARK SMILES IDX 96 25 97 26 91 27 92 28 95 29 93 30 94 31 19 32 20 33 21 34
REMARK SMILES IDX 22 35 23 36 24 38 25 39 26 40 87 41 27 42 86 43 28 44 29 45
REMARK SMILES IDX 30 46 80 47 31 48 85 49 79 50 81 51 32 52 84 53 78 54 77 55
REMARK SMILES IDX 33 57 65 58 45 59 64 60 46 61 49 62 63 63 82 64 47 65 48 66
REMARK SMILES IDX 62 68 83 69 50 70 34 71 35 72 43 73 36 74 37 75 41 76 44 77
REMARK SMILES IDX 38 78 39 79 42 80 40 81 66 82 67 83 75 84 68 85 69 86 73 87
REMARK SMILES IDX 76 88 70 89 71 90 74 91 72 92 51 93 52 94 60 95 53 96 54 97
REMARK SMILES IDX 58 98 61 99 55 100 56 101 59 102 57 103
REMARK H PARENT 15 7 9 15 22 37 81 56 49 67
REMARK Flexibility Score: inf
ROOT
ATOM      1  C   UNL A   1      42.017  21.263  27.328  1.00  0.00     0.002 C 
ENDROOT
BRANCH   1   2
ATOM      2  C   UNL A   1      40.750  22.094  27.568  1.00  0.00     0.021 C 
BRANCH   2   3
ATOM      3  C   UNL A   1      39.664  21.824  26.528  1.00  0.00     0.116 C 
BRANCH   3   4
ATOM      4  N   UNL A   1      38.894  23.029  26.277  1.00  0.00    -0.352 N 
ATOM      5  C   UNL A   1      37.589  23.244  25.919  1.00  0.00     0.252 C 
ATOM      6  O   UNL A   1      37.216  24.411  25.792  1.00  0.00    -0.269 OA
ATOM      7  H   UNL A   1      39.414  23.858  26.385  1.00  0.00     0.163 HD
BRANCH   5   8
ATOM      8  C   UNL A   1      36.596  22.160  25.752  1.00  0.00     0.060 A 
ATOM      9  C   UNL A   1      34.426  21.162  25.883  1.00  0.00     0.092 A 
ATOM     10  C   UNL A   1      35.325  22.131  26.313  1.00  0.00     0.046 A 
ATOM     11  C   UNL A   1      34.871  20.087  25.080  1.00  0.00     0.153 A 
ATOM     12  N   UNL A   1      36.137  20.040  24.627  1.00  0.00    -0.236 NA
ATOM     13  C   UNL A   1      36.951  21.088  24.933  1.00  0.00     0.127 A 
BRANCH   9  14
ATOM     14  N   UNL A   1      33.044  21.216  26.218  1.00  0.00    -0.276 N 
ATOM     15  H   UNL A   1      32.609  20.376  26.489  1.00  0.00     0.180 HD
BRANCH  14  16
ATOM     16  S   UNL A   1      32.106  22.597  26.183  1.00  0.00     0.262 S 
ATOM     17  O   UNL A   1      31.916  22.976  27.573  1.00  0.00    -0.201 OA
ATOM     18  O   UNL A   1      30.984  22.256  25.336  1.00  0.00    -0.201 OA
BRANCH  16  19
ATOM     19  C   UNL A   1      32.913  24.004  25.411  1.00  0.00     0.090 A 
ATOM     20  C   UNL A   1      33.569  27.729  23.329  1.00  0.00     0.044 C 
ATOM     21  C   UNL A   1      33.422  26.427  24.059  1.00  0.00    -0.051 A 
ATOM     22  C   UNL A   1      33.504  26.360  25.451  1.00  0.00     0.005 A 
ATOM     23  C   UNL A   1      33.247  25.239  23.343  1.00  0.00     0.008 A 
ATOM     24  C   UNL A   1      33.275  25.151  26.123  1.00  0.00     0.023 A 
ATOM     25  C   UNL A   1      33.008  24.019  24.002  1.00  0.00    -0.030 A 
ATOM     26  C   UNL A   1      32.907  22.791  23.134  1.00  0.00     0.046 C 
ENDBRANCH  16  19
ENDBRANCH  14  16
ENDBRANCH   9  14
BRANCH  11  27
ATOM     27  N   UNL A   1      34.032  19.036  24.817  1.00  0.00    -0.355 N 
ATOM     28  C   UNL A   1      32.605  19.101  24.576  1.00  0.00     0.118 C 
ATOM     29  C   UNL A   1      34.590  17.750  24.428  1.00  0.00     0.118 C 
ATOM     30  C   UNL A   1      32.206  17.657  24.865  1.00  0.00     0.023 C 
ATOM     31  C   UNL A   1      33.354  16.857  24.252  1.00  0.00     0.023 C 
ENDBRANCH  11  27
ENDBRANCH   5   8
ENDBRANCH   3   4
ENDBRANCH   2   3
ENDBRANCH   1   2
BRANCH   1  32
ATOM     32  C   UNL A   1      41.890  19.785  27.719  1.00  0.00     0.002 C 
BRANCH  32  33
ATOM     33  C   UNL A   1      42.688  18.810  26.848  1.00  0.00     0.021 C 
BRANCH  33  34
ATOM     34  C   UNL A   1      42.615  19.091  25.351  1.00  0.00     0.116 C 
BRANCH  34  35
ATOM     35  N   UNL A   1      43.840  18.705  24.667  1.00  0.00    -0.352 N 
ATOM     36  C   UNL A   1      44.891  19.485  24.258  1.00  0.00     0.251 C 
ATOM     37  H   UNL A   1      43.927  17.745  24.469  1.00  0.00     0.163 HD
ATOM     38  O   UNL A   1      45.754  19.022  23.519  1.00  0.00    -0.269 OA
BRANCH  36  39
ATOM     39  C   UNL A   1      44.980  20.892  24.697  1.00  0.00     0.039 A 
ATOM     40  C   UNL A   1      45.465  21.169  25.978  1.00  0.00     0.014 A 
ATOM     41  C   UNL A   1      44.559  21.932  23.862  1.00  0.00     0.014 A 
ATOM     42  C   UNL A   1      45.575  22.494  26.405  1.00  0.00     0.010 A 
ATOM     43  C   UNL A   1      44.723  23.253  24.267  1.00  0.00     0.010 A 
ATOM     44  C   UNL A   1      45.226  23.546  25.544  1.00  0.00    -0.014 A 
BRANCH  44  45
ATOM     45  C   UNL A   1      45.374  24.959  25.962  1.00  0.00     0.031 A 
ATOM     46  C   UNL A   1      46.715  25.630  25.895  1.00  0.00     0.074 A 
ATOM     47  C   UNL A   1      44.314  25.615  26.472  1.00  0.00     0.049 A 
ATOM     48  N   UNL A   1      47.061  26.832  26.280  1.00  0.00    -0.248 NA
ATOM     49  C   UNL A   1      47.823  24.830  25.350  1.00  0.00     0.031 C 
ATOM     50  C   UNL A   1      42.976  25.050  26.640  1.00  0.00     0.029 A 
ATOM     51  N   UNL A   1      44.205  26.891  26.961  1.00  0.00    -0.354 N 
ATOM     52  C   UNL A   1      48.426  26.925  26.045  1.00  0.00     0.074 A 
ATOM     53  C   UNL A   1      48.853  25.644  25.525  1.00  0.00     0.031 C 
ATOM     54  C   UNL A   1      42.176  25.978  27.189  1.00  0.00     0.029 A 
ATOM     55  C   UNL A   1      42.952  27.191  27.432  1.00  0.00     0.049 A 
ATOM     56  H   UNL A   1      44.953  27.531  26.973  1.00  0.00     0.167 HD
ATOM     57  C   UNL A   1      49.244  27.989  26.230  1.00  0.00     0.037 A 
ATOM     58  C   UNL A   1      42.483  28.317  28.002  1.00  0.00     0.037 A 
ATOM     59  C   UNL A   1      48.809  29.270  26.720  1.00  0.00     0.049 A 
ATOM     60  C   UNL A   1      43.400  29.495  28.170  1.00  0.00     0.074 A 
ATOM     61  C   UNL A   1      49.541  30.434  26.865  1.00  0.00     0.029 A 
ATOM     62  N   UNL A   1      47.519  29.550  27.152  1.00  0.00    -0.354 N 
ATOM     63  N   UNL A   1      44.672  29.600  27.870  1.00  0.00    -0.248 NA
ATOM     64  C   UNL A   1      42.815  30.713  28.745  1.00  0.00     0.031 C 
ATOM     65  C   UNL A   1      48.704  31.411  27.419  1.00  0.00     0.029 A 
ATOM     66  C   UNL A   1      47.441  30.865  27.583  1.00  0.00     0.049 A 
ATOM     67  H   UNL A   1      46.772  28.909  27.152  1.00  0.00     0.167 HD
ATOM     68  C   UNL A   1      45.037  30.896  28.204  1.00  0.00     0.074 A 
ATOM     69  C   UNL A   1      43.847  31.546  28.715  1.00  0.00     0.031 C 
ATOM     70  C   UNL A   1      46.249  31.493  28.095  1.00  0.00     0.037 A 
BRANCH  57  71
ATOM     71  C   UNL A   1      50.695  27.803  25.898  1.00  0.00     0.064 A 
ATOM     72  C   UNL A   1      51.644  27.504  26.887  1.00  0.00     0.173 A 
ATOM     73  C   UNL A   1      51.143  27.918  24.573  1.00  0.00     0.173 A 
ATOM     74  F   UNL A   1      51.269  27.396  28.171  1.00  0.00    -0.203 F 
ATOM     75  C   UNL A   1      52.993  27.366  26.568  1.00  0.00     0.198 A 
ATOM     76  C   UNL A   1      52.487  27.751  24.254  1.00  0.00     0.198 A 
ATOM     77  F   UNL A   1      50.276  28.197  23.588  1.00  0.00    -0.203 F 
ATOM     78  F   UNL A   1      53.889  27.138  27.540  1.00  0.00    -0.200 F 
ATOM     79  C   UNL A   1      53.412  27.487  25.253  1.00  0.00     0.200 A 
ATOM     80  F   UNL A   1      52.892  27.858  22.980  1.00  0.00    -0.200 F 
ATOM     81  F   UNL A   1      54.711  27.356  24.948  1.00  0.00    -0.200 F 
ENDBRANCH  57  71
BRANCH  58  82
ATOM     82  C   UNL A   1      41.062  28.381  28.424  1.00  0.00     0.064 A 
ATOM     83  C   UNL A   1      40.674  27.958  29.703  1.00  0.00     0.173 A 
ATOM     84  C   UNL A   1      40.074  28.904  27.579  1.00  0.00     0.173 A 
ATOM     85  F   UNL A   1      41.583  27.436  30.539  1.00  0.00    -0.203 F 
ATOM     86  C   UNL A   1      39.349  28.051  30.119  1.00  0.00     0.198 A 
ATOM     87  C   UNL A   1      38.752  29.016  28.003  1.00  0.00     0.198 A 
ATOM     88  F   UNL A   1      40.399  29.328  26.349  1.00  0.00    -0.203 F 
ATOM     89  F   UNL A   1      38.999  27.619  31.338  1.00  0.00    -0.200 F 
ATOM     90  C   UNL A   1      38.390  28.587  29.272  1.00  0.00     0.200 A 
ATOM     91  F   UNL A   1      37.831  29.548  27.188  1.00  0.00    -0.200 F 
ATOM     92  F   UNL A   1      37.117  28.690  29.677  1.00  0.00    -0.200 F 
ENDBRANCH  58  82
BRANCH  70  93
ATOM     93  C   UNL A   1      46.347  32.926  28.525  1.00  0.00     0.064 A 
ATOM     94  C   UNL A   1      46.099  33.977  27.630  1.00  0.00     0.173 A 
ATOM     95  C   UNL A   1      46.652  33.251  29.854  1.00  0.00     0.173 A 
ATOM     96  F   UNL A   1      45.819  33.717  26.344  1.00  0.00    -0.203 F 
ATOM     97  C   UNL A   1      46.170  35.304  28.048  1.00  0.00     0.198 A 
ATOM     98  C   UNL A   1      46.699  34.578  30.275  1.00  0.00     0.198 A 
ATOM     99  F   UNL A   1      46.894  32.281  30.749  1.00  0.00    -0.203 F 
ATOM    100  F   UNL A   1      45.968  36.294  27.168  1.00  0.00    -0.200 F 
ATOM    101  C   UNL A   1      46.463  35.603  29.370  1.00  0.00     0.200 A 
ATOM    102  F   UNL A   1      46.973  34.864  31.555  1.00  0.00    -0.200 F 
ATOM    103  F   UNL A   1      46.526  36.879  29.772  1.00  0.00    -0.200 F 
ENDBRANCH  70  93
ENDBRANCH  44  45
ENDBRANCH  36  39
ENDBRANCH  34  35
ENDBRANCH  33  34
ENDBRANCH  32  33
ENDBRANCH   1  32
TORSDOF 17
ENDMDL
