MODEL 1
REMARK VINA RESULT:     -11.2      0.000      0.000
REMARK SMILES CCC(CC)(NC(=O)NC1CCC(C)(C)CC1)C(=O)NCCCCCCNC(=O)c1ccc(-c2c3nc(c(-c4c(F)c(F)c(F)c(F)c4F)c4ccc([nH]4)c(-c4c(F)c(F)c(F)c(F)c4F)c4nc(c(-c5c(F)c(F)c(F)c(F)c5F)c5ccc2[nH]5)C=C4)C=C3)cc1
REMARK SMILES IDX 23 1 22 2 21 3 20 4 18 5 19 6 3 8 2 9 1 10 4 11 5 12 6 13
REMARK SMILES IDX 7 14 8 16 9 17 10 19 11 20 17 21 12 22 16 23 13 24 14 25
REMARK SMILES IDX 15 26 24 27 25 28 26 29 27 30 28 31 29 33 30 34 31 35 92 36
REMARK SMILES IDX 32 37 91 38 33 39 34 40 35 41 85 42 36 43 90 44 84 45 86 46
REMARK SMILES IDX 37 47 89 48 83 49 82 50 38 52 70 53 50 54 69 55 51 56 54 57
REMARK SMILES IDX 68 58 87 59 52 60 53 61 67 63 88 64 55 65 39 66 40 67 48 68
REMARK SMILES IDX 41 69 42 70 46 71 49 72 43 73 44 74 47 75 45 76 71 77 72 78
REMARK SMILES IDX 80 79 73 80 74 81 78 82 81 83 75 84 76 85 79 86 77 87 56 88
REMARK SMILES IDX 57 89 65 90 58 91 59 92 63 93 66 94 60 95 61 96 64 97 62 98
REMARK H PARENT 20 7 6 15 9 18 27 32 86 51 54 62
REMARK Flexibility Score: inf
ROOT
ATOM      1  C   UNL A   1      35.367  31.794  28.041  1.00  0.00     0.002 C 
ENDROOT
BRANCH   1   2
ATOM      2  C   UNL A   1      35.377  30.262  28.040  1.00  0.00     0.021 C 
BRANCH   2   3
ATOM      3  C   UNL A   1      34.478  29.446  27.095  1.00  0.00     0.116 C 
BRANCH   3   4
ATOM      4  N   UNL A   1      33.622  30.104  26.106  1.00  0.00    -0.354 N 
ATOM      5  C   UNL A   1      32.561  29.641  25.353  1.00  0.00     0.245 C 
ATOM      6  O   UNL A   1      31.550  30.346  25.285  1.00  0.00    -0.272 OA
ATOM      7  H   UNL A   1      33.845  31.050  25.948  1.00  0.00     0.163 HD
BRANCH   5   8
ATOM      8  C   UNL A   1      32.524  28.201  24.841  1.00  0.00     0.120 C 
BRANCH   8   9
ATOM      9  C   UNL A   1      32.377  27.015  25.828  1.00  0.00     0.035 C 
ATOM     10  C   UNL A   1      31.027  26.749  26.464  1.00  0.00     0.007 C 
ENDBRANCH   8   9
BRANCH   8  11
ATOM     11  C   UNL A   1      33.920  28.156  24.112  1.00  0.00     0.035 C 
ATOM     12  C   UNL A   1      34.141  28.823  22.770  1.00  0.00     0.007 C 
ENDBRANCH   8  11
BRANCH   8  13
ATOM     13  N   UNL A   1      31.317  28.175  24.017  1.00  0.00    -0.324 N 
ATOM     14  C   UNL A   1      30.970  27.414  22.971  1.00  0.00     0.315 C 
ATOM     15  H   UNL A   1      30.637  28.838  24.278  1.00  0.00     0.166 HD
ATOM     16  O   UNL A   1      30.039  27.869  22.289  1.00  0.00    -0.249 OA
ATOM     17  N   UNL A   1      31.431  26.239  22.548  1.00  0.00    -0.335 N 
ATOM     18  H   UNL A   1      30.892  26.102  21.735  1.00  0.00     0.165 HD
BRANCH  17  19
ATOM     19  C   UNL A   1      32.284  24.980  22.559  1.00  0.00     0.083 C 
ATOM     20  C   UNL A   1      33.783  24.867  22.866  1.00  0.00     0.025 C 
ATOM     21  C   UNL A   1      31.545  23.767  23.157  1.00  0.00     0.025 C 
ATOM     22  C   UNL A   1      34.281  24.134  24.151  1.00  0.00     0.008 C 
ATOM     23  C   UNL A   1      31.842  23.597  24.635  1.00  0.00     0.008 C 
ATOM     24  C   UNL A   1      33.299  23.309  25.018  1.00  0.00    -0.035 C 
ATOM     25  C   UNL A   1      33.545  23.590  26.534  1.00  0.00     0.011 C 
ATOM     26  C   UNL A   1      33.587  21.801  24.882  1.00  0.00     0.011 C 
ENDBRANCH  17  19
ENDBRANCH   8  13
ENDBRANCH   5   8
ENDBRANCH   3   4
ENDBRANCH   2   3
ENDBRANCH   1   2
BRANCH   1  27
ATOM     27  C   UNL A   1      34.468  32.493  29.058  1.00  0.00     0.002 C 
BRANCH  27  28
ATOM     28  C   UNL A   1      33.676  33.687  28.581  1.00  0.00     0.021 C 
BRANCH  28  29
ATOM     29  C   UNL A   1      34.072  34.989  29.241  1.00  0.00     0.116 C 
BRANCH  29  30
ATOM     30  N   UNL A   1      33.030  35.590  30.070  1.00  0.00    -0.352 N 
ATOM     31  C   UNL A   1      32.941  35.597  31.454  1.00  0.00     0.251 C 
ATOM     32  H   UNL A   1      32.304  36.047  29.588  1.00  0.00     0.163 HD
ATOM     33  O   UNL A   1      31.997  36.077  32.036  1.00  0.00    -0.269 OA
BRANCH  31  34
ATOM     34  C   UNL A   1      34.034  34.930  32.198  1.00  0.00     0.039 A 
ATOM     35  C   UNL A   1      33.856  33.617  32.636  1.00  0.00     0.014 A 
ATOM     36  C   UNL A   1      35.282  35.549  32.270  1.00  0.00     0.014 A 
ATOM     37  C   UNL A   1      34.971  32.883  33.049  1.00  0.00     0.010 A 
ATOM     38  C   UNL A   1      36.398  34.777  32.543  1.00  0.00     0.010 A 
ATOM     39  C   UNL A   1      36.256  33.440  32.947  1.00  0.00    -0.014 A 
BRANCH  39  40
ATOM     40  C   UNL A   1      37.478  32.668  33.286  1.00  0.00     0.031 A 
ATOM     41  C   UNL A   1      38.182  32.955  34.583  1.00  0.00     0.074 A 
ATOM     42  C   UNL A   1      38.004  31.799  32.401  1.00  0.00     0.049 A 
ATOM     43  N   UNL A   1      39.331  32.507  35.022  1.00  0.00    -0.248 NA
ATOM     44  C   UNL A   1      37.536  33.925  35.485  1.00  0.00     0.031 C 
ATOM     45  C   UNL A   1      37.458  31.496  31.076  1.00  0.00     0.029 A 
ATOM     46  N   UNL A   1      39.130  31.019  32.478  1.00  0.00    -0.354 N 
ATOM     47  C   UNL A   1      39.553  33.170  36.222  1.00  0.00     0.074 A 
ATOM     48  C   UNL A   1      38.470  34.107  36.402  1.00  0.00     0.031 C 
ATOM     49  C   UNL A   1      38.230  30.573  30.480  1.00  0.00     0.029 A 
ATOM     50  C   UNL A   1      39.346  30.245  31.362  1.00  0.00     0.049 A 
ATOM     51  H   UNL A   1      39.728  31.012  33.261  1.00  0.00     0.167 HD
ATOM     52  C   UNL A   1      40.550  32.983  37.118  1.00  0.00     0.037 A 
ATOM     53  C   UNL A   1      40.334  29.372  31.088  1.00  0.00     0.037 A 
ATOM     54  C   UNL A   1      41.587  32.002  36.961  1.00  0.00     0.049 A 
ATOM     55  C   UNL A   1      41.407  29.143  32.120  1.00  0.00     0.074 A 
ATOM     56  C   UNL A   1      42.595  31.661  37.844  1.00  0.00     0.029 A 
ATOM     57  N   UNL A   1      41.738  31.193  35.844  1.00  0.00    -0.354 N 
ATOM     58  N   UNL A   1      41.564  29.715  33.290  1.00  0.00    -0.248 NA
ATOM     59  C   UNL A   1      42.434  28.142  31.800  1.00  0.00     0.031 C 
ATOM     60  C   UNL A   1      43.379  30.671  37.245  1.00  0.00     0.029 A 
ATOM     61  C   UNL A   1      42.833  30.362  36.008  1.00  0.00     0.049 A 
ATOM     62  H   UNL A   1      41.152  31.206  35.053  1.00  0.00     0.167 HD
ATOM     63  C   UNL A   1      42.689  29.130  33.854  1.00  0.00     0.074 A 
ATOM     64  C   UNL A   1      43.166  28.144  32.906  1.00  0.00     0.031 C 
ATOM     65  C   UNL A   1      43.278  29.385  35.048  1.00  0.00     0.037 A 
BRANCH  52  66
ATOM     66  C   UNL A   1      40.545  33.846  38.346  1.00  0.00     0.064 A 
ATOM     67  C   UNL A   1      41.328  35.009  38.436  1.00  0.00     0.173 A 
ATOM     68  C   UNL A   1      39.749  33.507  39.451  1.00  0.00     0.173 A 
ATOM     69  F   UNL A   1      42.120  35.369  37.414  1.00  0.00    -0.203 F 
ATOM     70  C   UNL A   1      41.349  35.772  39.599  1.00  0.00     0.198 A 
ATOM     71  C   UNL A   1      39.745  34.295  40.600  1.00  0.00     0.198 A 
ATOM     72  F   UNL A   1      38.979  32.410  39.419  1.00  0.00    -0.203 F 
ATOM     73  F   UNL A   1      42.160  36.837  39.684  1.00  0.00    -0.200 F 
ATOM     74  C   UNL A   1      40.553  35.419  40.677  1.00  0.00     0.200 A 
ATOM     75  F   UNL A   1      38.966  33.958  41.638  1.00  0.00    -0.200 F 
ATOM     76  F   UNL A   1      40.575  36.155  41.796  1.00  0.00    -0.200 F 
ENDBRANCH  52  66
BRANCH  53  77
ATOM     77  C   UNL A   1      40.335  28.625  29.803  1.00  0.00     0.064 A 
ATOM     78  C   UNL A   1      39.622  27.425  29.667  1.00  0.00     0.173 A 
ATOM     79  C   UNL A   1      41.041  29.090  28.684  1.00  0.00     0.173 A 
ATOM     80  F   UNL A   1      38.946  26.927  30.715  1.00  0.00    -0.203 F 
ATOM     81  C   UNL A   1      39.630  26.710  28.471  1.00  0.00     0.198 A 
ATOM     82  C   UNL A   1      41.026  28.388  27.479  1.00  0.00     0.198 A 
ATOM     83  F   UNL A   1      41.734  30.235  28.756  1.00  0.00    -0.203 F 
ATOM     84  F   UNL A   1      38.974  25.546  28.385  1.00  0.00    -0.200 F 
ATOM     85  C   UNL A   1      40.327  27.195  27.376  1.00  0.00     0.200 A 
ATOM     86  F   UNL A   1      41.690  28.868  26.418  1.00  0.00    -0.200 F 
ATOM     87  F   UNL A   1      40.331  26.512  26.223  1.00  0.00    -0.200 F 
ENDBRANCH  53  77
BRANCH  65  88
ATOM     88  C   UNL A   1      44.486  28.570  35.407  1.00  0.00     0.064 A 
ATOM     89  C   UNL A   1      45.781  29.004  35.093  1.00  0.00     0.173 A 
ATOM     90  C   UNL A   1      44.345  27.374  36.127  1.00  0.00     0.173 A 
ATOM     91  F   UNL A   1      45.964  30.134  34.395  1.00  0.00    -0.203 F 
ATOM     92  C   UNL A   1      46.894  28.258  35.470  1.00  0.00     0.198 A 
ATOM     93  C   UNL A   1      45.461  26.647  36.528  1.00  0.00     0.198 A 
ATOM     94  F   UNL A   1      43.126  26.923  36.458  1.00  0.00    -0.203 F 
ATOM     95  F   UNL A   1      48.122  28.669  35.125  1.00  0.00    -0.200 F 
ATOM     96  C   UNL A   1      46.734  27.085  36.194  1.00  0.00     0.200 A 
ATOM     97  F   UNL A   1      45.305  25.523  37.240  1.00  0.00    -0.200 F 
ATOM     98  F   UNL A   1      47.806  26.375  36.567  1.00  0.00    -0.200 F 
ENDBRANCH  65  88
ENDBRANCH  39  40
ENDBRANCH  31  34
ENDBRANCH  29  30
ENDBRANCH  28  29
ENDBRANCH  27  28
ENDBRANCH   1  27
TORSDOF 17
ENDMDL
MODEL 2
REMARK VINA RESULT:     -11.1      1.547      7.518
REMARK SMILES CCC(CC)(NC(=O)NC1CCC(C)(C)CC1)C(=O)NCCCCCCNC(=O)c1ccc(-c2c3nc(c(-c4c(F)c(F)c(F)c(F)c4F)c4ccc([nH]4)c(-c4c(F)c(F)c(F)c(F)c4F)c4nc(c(-c5c(F)c(F)c(F)c(F)c5F)c5ccc2[nH]5)C=C4)C=C3)cc1
REMARK SMILES IDX 23 1 22 2 21 3 20 4 18 5 19 6 3 8 2 9 1 10 4 11 5 12 6 13
REMARK SMILES IDX 7 14 8 16 9 17 10 19 11 20 17 21 12 22 16 23 13 24 14 25
REMARK SMILES IDX 15 26 24 27 25 28 26 29 27 30 28 31 29 33 30 34 31 35 92 36
REMARK SMILES IDX 32 37 91 38 33 39 34 40 35 41 85 42 36 43 90 44 84 45 86 46
REMARK SMILES IDX 37 47 89 48 83 49 82 50 38 52 70 53 50 54 69 55 51 56 54 57
REMARK SMILES IDX 68 58 87 59 52 60 53 61 67 63 88 64 55 65 39 66 40 67 48 68
REMARK SMILES IDX 41 69 42 70 46 71 49 72 43 73 44 74 47 75 45 76 71 77 72 78
REMARK SMILES IDX 80 79 73 80 74 81 78 82 81 83 75 84 76 85 79 86 77 87 56 88
REMARK SMILES IDX 57 89 65 90 58 91 59 92 63 93 66 94 60 95 61 96 64 97 62 98
REMARK H PARENT 20 7 6 15 9 18 27 32 86 51 54 62
REMARK Flexibility Score: inf
ROOT
ATOM      1  C   UNL A   1      32.711  28.795  27.550  1.00  0.00     0.002 C 
ENDROOT
BRANCH   1   2
ATOM      2  C   UNL A   1      31.512  27.960  27.089  1.00  0.00     0.021 C 
BRANCH   2   3
ATOM      3  C   UNL A   1      31.691  26.624  26.347  1.00  0.00     0.116 C 
BRANCH   3   4
ATOM      4  N   UNL A   1      30.798  26.239  25.253  1.00  0.00    -0.354 N 
ATOM      5  C   UNL A   1      30.982  26.203  23.884  1.00  0.00     0.245 C 
ATOM      6  O   UNL A   1      30.596  25.201  23.275  1.00  0.00    -0.272 OA
ATOM      7  H   UNL A   1      29.903  25.954  25.546  1.00  0.00     0.163 HD
BRANCH   5   8
ATOM      8  C   UNL A   1      31.862  27.234  23.178  1.00  0.00     0.120 C 
BRANCH   8   9
ATOM      9  C   UNL A   1      33.306  27.509  23.667  1.00  0.00     0.035 C 
ATOM     10  C   UNL A   1      34.015  28.765  23.200  1.00  0.00     0.007 C 
ENDBRANCH   8   9
BRANCH   8  11
ATOM     11  C   UNL A   1      30.954  28.510  23.362  1.00  0.00     0.035 C 
ATOM     12  C   UNL A   1      29.554  28.582  22.789  1.00  0.00     0.007 C 
ENDBRANCH   8  11
BRANCH   8  13
ATOM     13  N   UNL A   1      32.003  26.681  21.833  1.00  0.00    -0.324 N 
ATOM     14  C   UNL A   1      32.801  25.723  21.343  1.00  0.00     0.315 C 
ATOM     15  H   UNL A   1      31.401  27.085  21.166  1.00  0.00     0.166 HD
ATOM     16  O   UNL A   1      32.918  25.731  20.108  1.00  0.00    -0.249 OA
ATOM     17  N   UNL A   1      33.475  24.747  21.947  1.00  0.00    -0.335 N 
ATOM     18  H   UNL A   1      33.935  24.329  21.184  1.00  0.00     0.165 HD
BRANCH  17  19
ATOM     19  C   UNL A   1      33.964  23.885  23.102  1.00  0.00     0.083 C 
ATOM     20  C   UNL A   1      34.097  24.283  24.576  1.00  0.00     0.025 C 
ATOM     21  C   UNL A   1      33.469  22.429  23.006  1.00  0.00     0.025 C 
ATOM     22  C   UNL A   1      33.181  23.639  25.663  1.00  0.00     0.008 C 
ATOM     23  C   UNL A   1      32.195  22.212  23.802  1.00  0.00     0.008 C 
ATOM     24  C   UNL A   1      32.285  22.424  25.318  1.00  0.00    -0.035 C 
ATOM     25  C   UNL A   1      30.865  22.602  25.942  1.00  0.00     0.011 C 
ATOM     26  C   UNL A   1      32.815  21.146  25.995  1.00  0.00     0.011 C 
ENDBRANCH  17  19
ENDBRANCH   8  13
ENDBRANCH   5   8
ENDBRANCH   3   4
ENDBRANCH   2   3
ENDBRANCH   1   2
BRANCH   1  27
ATOM     27  C   UNL A   1      33.128  29.973  26.673  1.00  0.00     0.002 C 
BRANCH  27  28
ATOM     28  C   UNL A   1      32.438  31.296  26.912  1.00  0.00     0.021 C 
BRANCH  28  29
ATOM     29  C   UNL A   1      33.315  32.336  27.572  1.00  0.00     0.116 C 
BRANCH  29  30
ATOM     30  N   UNL A   1      32.714  33.663  27.672  1.00  0.00    -0.352 N 
ATOM     31  C   UNL A   1      33.078  34.702  28.515  1.00  0.00     0.251 C 
ATOM     32  H   UNL A   1      31.959  33.842  27.067  1.00  0.00     0.163 HD
ATOM     33  O   UNL A   1      32.467  35.744  28.555  1.00  0.00    -0.269 OA
BRANCH  31  34
ATOM     34  C   UNL A   1      34.224  34.457  29.421  1.00  0.00     0.039 A 
ATOM     35  C   UNL A   1      33.987  33.921  30.687  1.00  0.00     0.014 A 
ATOM     36  C   UNL A   1      35.521  34.577  28.922  1.00  0.00     0.014 A 
ATOM     37  C   UNL A   1      35.060  33.399  31.414  1.00  0.00     0.010 A 
ATOM     38  C   UNL A   1      36.554  33.934  29.581  1.00  0.00     0.010 A 
ATOM     39  C   UNL A   1      36.340  33.348  30.839  1.00  0.00    -0.014 A 
BRANCH  39  40
ATOM     40  C   UNL A   1      37.491  32.720  31.534  1.00  0.00     0.031 A 
ATOM     41  C   UNL A   1      38.206  31.575  30.870  1.00  0.00     0.074 A 
ATOM     42  C   UNL A   1      37.825  33.101  32.783  1.00  0.00     0.049 A 
ATOM     43  N   UNL A   1      39.141  30.792  31.343  1.00  0.00    -0.248 NA
ATOM     44  C   UNL A   1      37.767  31.225  29.508  1.00  0.00     0.031 C 
ATOM     45  C   UNL A   1      37.155  34.142  33.564  1.00  0.00     0.029 A 
ATOM     46  N   UNL A   1      38.808  32.642  33.623  1.00  0.00    -0.354 N 
ATOM     47  C   UNL A   1      39.366  29.844  30.354  1.00  0.00     0.074 A 
ATOM     48  C   UNL A   1      38.419  30.095  29.295  1.00  0.00     0.031 C 
ATOM     49  C   UNL A   1      37.766  34.265  34.754  1.00  0.00     0.029 A 
ATOM     50  C   UNL A   1      38.847  33.287  34.836  1.00  0.00     0.049 A 
ATOM     51  H   UNL A   1      39.430  31.918  33.379  1.00  0.00     0.167 HD
ATOM     52  C   UNL A   1      40.309  28.874  30.313  1.00  0.00     0.037 A 
ATOM     53  C   UNL A   1      39.664  33.106  35.892  1.00  0.00     0.037 A 
ATOM     54  C   UNL A   1      41.291  28.675  31.343  1.00  0.00     0.049 A 
ATOM     55  C   UNL A   1      40.739  32.055  35.805  1.00  0.00     0.074 A 
ATOM     56  C   UNL A   1      42.349  27.786  31.367  1.00  0.00     0.029 A 
ATOM     57  N   UNL A   1      41.336  29.390  32.531  1.00  0.00    -0.354 N 
ATOM     58  N   UNL A   1      40.998  31.217  34.830  1.00  0.00    -0.248 NA
ATOM     59  C   UNL A   1      41.640  31.930  36.958  1.00  0.00     0.031 C 
ATOM     60  C   UNL A   1      43.014  27.937  32.588  1.00  0.00     0.029 A 
ATOM     61  C   UNL A   1      42.397  28.952  33.304  1.00  0.00     0.049 A 
ATOM     62  H   UNL A   1      40.708  30.104  32.786  1.00  0.00     0.167 HD
ATOM     63  C   UNL A   1      42.103  30.483  35.240  1.00  0.00     0.074 A 
ATOM     64  C   UNL A   1      42.476  30.987  36.546  1.00  0.00     0.031 C 
ATOM     65  C   UNL A   1      42.749  29.479  34.597  1.00  0.00     0.037 A 
BRANCH  52  66
ATOM     66  C   UNL A   1      40.328  27.980  29.107  1.00  0.00     0.064 A 
ATOM     67  C   UNL A   1      41.068  28.306  27.958  1.00  0.00     0.173 A 
ATOM     68  C   UNL A   1      39.595  26.784  29.096  1.00  0.00     0.173 A 
ATOM     69  F   UNL A   1      41.773  29.447  27.911  1.00  0.00    -0.203 F 
ATOM     70  C   UNL A   1      41.037  27.491  26.830  1.00  0.00     0.198 A 
ATOM     71  C   UNL A   1      39.597  25.954  27.977  1.00  0.00     0.198 A 
ATOM     72  F   UNL A   1      38.873  26.423  30.166  1.00  0.00    -0.203 F 
ATOM     73  F   UNL A   1      41.695  27.861  25.722  1.00  0.00    -0.200 F 
ATOM     74  C   UNL A   1      40.308  26.313  26.843  1.00  0.00     0.200 A 
ATOM     75  F   UNL A   1      38.899  24.809  27.995  1.00  0.00    -0.200 F 
ATOM     76  F   UNL A   1      40.279  25.531  25.756  1.00  0.00    -0.200 F 
ENDBRANCH  52  66
BRANCH  53  77
ATOM     77  C   UNL A   1      39.522  33.960  37.100  1.00  0.00     0.064 A 
ATOM     78  C   UNL A   1      38.809  33.509  38.221  1.00  0.00     0.173 A 
ATOM     79  C   UNL A   1      40.093  35.238  37.167  1.00  0.00     0.173 A 
ATOM     80  F   UNL A   1      38.226  32.300  38.200  1.00  0.00    -0.203 F 
ATOM     81  C   UNL A   1      38.657  34.309  39.352  1.00  0.00     0.198 A 
ATOM     82  C   UNL A   1      39.965  36.028  38.310  1.00  0.00     0.198 A 
ATOM     83  F   UNL A   1      40.791  35.718  36.127  1.00  0.00    -0.203 F 
ATOM     84  F   UNL A   1      37.936  33.867  40.390  1.00  0.00    -0.200 F 
ATOM     85  C   UNL A   1      39.240  35.566  39.397  1.00  0.00     0.200 A 
ATOM     86  F   UNL A   1      40.542  37.236  38.354  1.00  0.00    -0.200 F 
ATOM     87  F   UNL A   1      39.100  36.333  40.487  1.00  0.00    -0.200 F 
ENDBRANCH  53  77
BRANCH  65  88
ATOM     88  C   UNL A   1      43.941  28.879  35.283  1.00  0.00     0.064 A 
ATOM     89  C   UNL A   1      43.810  27.803  36.171  1.00  0.00     0.173 A 
ATOM     90  C   UNL A   1      45.232  29.348  34.999  1.00  0.00     0.173 A 
ATOM     91  F   UNL A   1      42.593  27.329  36.483  1.00  0.00    -0.203 F 
ATOM     92  C   UNL A   1      44.929  27.229  36.767  1.00  0.00     0.198 A 
ATOM     93  C   UNL A   1      46.351  28.753  35.574  1.00  0.00     0.198 A 
ATOM     94  F   UNL A   1      45.409  30.371  34.149  1.00  0.00    -0.203 F 
ATOM     95  F   UNL A   1      44.778  26.228  37.644  1.00  0.00    -0.200 F 
ATOM     96  C   UNL A   1      46.198  27.699  36.462  1.00  0.00     0.200 A 
ATOM     97  F   UNL A   1      47.576  29.198  35.267  1.00  0.00    -0.200 F 
ATOM     98  F   UNL A   1      47.275  27.137  37.027  1.00  0.00    -0.200 F 
ENDBRANCH  65  88
ENDBRANCH  39  40
ENDBRANCH  31  34
ENDBRANCH  29  30
ENDBRANCH  28  29
ENDBRANCH  27  28
ENDBRANCH   1  27
TORSDOF 17
ENDMDL
MODEL 3
REMARK VINA RESULT:     -10.8      5.253     11.047
REMARK SMILES CCC(CC)(NC(=O)NC1CCC(C)(C)CC1)C(=O)NCCCCCCNC(=O)c1ccc(-c2c3nc(c(-c4c(F)c(F)c(F)c(F)c4F)c4ccc([nH]4)c(-c4c(F)c(F)c(F)c(F)c4F)c4nc(c(-c5c(F)c(F)c(F)c(F)c5F)c5ccc2[nH]5)C=C4)C=C3)cc1
REMARK SMILES IDX 23 1 22 2 21 3 20 4 18 5 19 6 3 8 2 9 1 10 4 11 5 12 6 13
REMARK SMILES IDX 7 14 8 16 9 17 10 19 11 20 17 21 12 22 16 23 13 24 14 25
REMARK SMILES IDX 15 26 24 27 25 28 26 29 27 30 28 31 29 33 30 34 31 35 92 36
REMARK SMILES IDX 32 37 91 38 33 39 34 40 35 41 85 42 36 43 90 44 84 45 86 46
REMARK SMILES IDX 37 47 89 48 83 49 82 50 38 52 70 53 50 54 69 55 51 56 54 57
REMARK SMILES IDX 68 58 87 59 52 60 53 61 67 63 88 64 55 65 39 66 40 67 48 68
REMARK SMILES IDX 41 69 42 70 46 71 49 72 43 73 44 74 47 75 45 76 71 77 72 78
REMARK SMILES IDX 80 79 73 80 74 81 78 82 81 83 75 84 76 85 79 86 77 87 56 88
REMARK SMILES IDX 57 89 65 90 58 91 59 92 63 93 66 94 60 95 61 96 64 97 62 98
REMARK H PARENT 20 7 6 15 9 18 27 32 86 51 54 62
REMARK Flexibility Score: inf
ROOT
ATOM      1  C   UNL A   1      43.212  23.485  27.828  1.00  0.00     0.002 C 
ENDROOT
BRANCH   1   2
ATOM      2  C   UNL A   1      44.674  23.426  28.278  1.00  0.00     0.021 C 
BRANCH   2   3
ATOM      3  C   UNL A   1      45.826  23.244  27.274  1.00  0.00     0.116 C 
BRANCH   3   4
ATOM      4  N   UNL A   1      45.661  23.588  25.861  1.00  0.00    -0.354 N 
ATOM      5  C   UNL A   1      46.129  24.649  25.110  1.00  0.00     0.245 C 
ATOM      6  O   UNL A   1      46.621  24.403  24.005  1.00  0.00    -0.272 OA
ATOM      7  H   UNL A   1      45.116  22.945  25.352  1.00  0.00     0.163 HD
BRANCH   5   8
ATOM      8  C   UNL A   1      46.281  26.042  25.721  1.00  0.00     0.120 C 
BRANCH   8   9
ATOM      9  C   UNL A   1      47.323  26.307  26.837  1.00  0.00     0.035 C 
ATOM     10  C   UNL A   1      46.837  26.586  28.246  1.00  0.00     0.007 C 
ENDBRANCH   8   9
BRANCH   8  11
ATOM     11  C   UNL A   1      44.814  26.242  26.263  1.00  0.00     0.035 C 
ATOM     12  C   UNL A   1      43.641  26.451  25.328  1.00  0.00     0.007 C 
ENDBRANCH   8  11
BRANCH   8  13
ATOM     13  N   UNL A   1      46.710  26.855  24.584  1.00  0.00    -0.324 N 
ATOM     14  C   UNL A   1      46.683  28.177  24.375  1.00  0.00     0.315 C 
ATOM     15  H   UNL A   1      47.088  26.335  23.838  1.00  0.00     0.166 HD
ATOM     16  O   UNL A   1      46.799  28.513  23.187  1.00  0.00    -0.249 OA
ATOM     17  N   UNL A   1      46.577  29.199  25.222  1.00  0.00    -0.335 N 
ATOM     18  H   UNL A   1      46.571  29.964  24.601  1.00  0.00     0.165 HD
BRANCH  17  19
ATOM     19  C   UNL A   1      46.462  29.902  26.566  1.00  0.00     0.083 C 
ATOM     20  C   UNL A   1      47.117  31.222  26.991  1.00  0.00     0.025 C 
ATOM     21  C   UNL A   1      45.043  29.817  27.160  1.00  0.00     0.025 C 
ATOM     22  C   UNL A   1      46.249  32.489  27.267  1.00  0.00     0.008 C 
ATOM     23  C   UNL A   1      44.211  31.038  26.810  1.00  0.00     0.008 C 
ATOM     24  C   UNL A   1      44.706  32.386  27.345  1.00  0.00    -0.035 C 
ATOM     25  C   UNL A   1      44.043  33.571  26.574  1.00  0.00     0.011 C 
ATOM     26  C   UNL A   1      44.219  32.585  28.794  1.00  0.00     0.011 C 
ENDBRANCH  17  19
ENDBRANCH   8  13
ENDBRANCH   5   8
ENDBRANCH   3   4
ENDBRANCH   2   3
ENDBRANCH   1   2
BRANCH   1  27
ATOM     27  C   UNL A   1      42.435  22.171  27.783  1.00  0.00     0.002 C 
BRANCH  27  28
ATOM     28  C   UNL A   1      41.434  21.994  26.666  1.00  0.00     0.021 C 
BRANCH  28  29
ATOM     29  C   UNL A   1      40.026  21.714  27.142  1.00  0.00     0.116 C 
BRANCH  29  30
ATOM     30  N   UNL A   1      38.976  22.255  26.283  1.00  0.00    -0.352 N 
ATOM     31  C   UNL A   1      38.590  23.580  26.140  1.00  0.00     0.251 C 
ATOM     32  H   UNL A   1      38.482  21.601  25.739  1.00  0.00     0.163 HD
ATOM     33  O   UNL A   1      37.661  23.909  25.440  1.00  0.00    -0.269 OA
BRANCH  31  34
ATOM     34  C   UNL A   1      39.333  24.582  26.938  1.00  0.00     0.039 A 
ATOM     35  C   UNL A   1      40.132  25.518  26.279  1.00  0.00     0.014 A 
ATOM     36  C   UNL A   1      39.066  24.698  28.302  1.00  0.00     0.014 A 
ATOM     37  C   UNL A   1      40.576  26.642  26.979  1.00  0.00     0.010 A 
ATOM     38  C   UNL A   1      39.387  25.878  28.950  1.00  0.00     0.010 A 
ATOM     39  C   UNL A   1      40.156  26.859  28.301  1.00  0.00    -0.014 A 
BRANCH  39  40
ATOM     40  C   UNL A   1      40.525  28.083  29.055  1.00  0.00     0.031 A 
ATOM     41  C   UNL A   1      41.902  28.181  29.653  1.00  0.00     0.074 A 
ATOM     42  C   UNL A   1      39.610  29.044  29.288  1.00  0.00     0.049 A 
ATOM     43  N   UNL A   1      42.396  29.085  30.459  1.00  0.00    -0.248 NA
ATOM     44  C   UNL A   1      42.832  27.079  29.350  1.00  0.00     0.031 C 
ATOM     45  C   UNL A   1      38.219  29.025  28.831  1.00  0.00     0.029 A 
ATOM     46  N   UNL A   1      39.711  30.223  29.983  1.00  0.00    -0.354 N 
ATOM     47  C   UNL A   1      43.669  28.637  30.784  1.00  0.00     0.074 A 
ATOM     48  C   UNL A   1      43.842  27.347  30.159  1.00  0.00     0.031 C 
ATOM     49  C   UNL A   1      37.606  30.152  29.229  1.00  0.00     0.029 A 
ATOM     50  C   UNL A   1      38.549  30.957  30.001  1.00  0.00     0.049 A 
ATOM     51  H   UNL A   1      40.539  30.516  30.427  1.00  0.00     0.167 HD
ATOM     52  C   UNL A   1      44.627  29.265  31.504  1.00  0.00     0.037 A 
ATOM     53  C   UNL A   1      38.280  32.145  30.577  1.00  0.00     0.037 A 
ATOM     54  C   UNL A   1      44.469  30.578  32.065  1.00  0.00     0.049 A 
ATOM     55  C   UNL A   1      39.376  32.850  31.331  1.00  0.00     0.074 A 
ATOM     56  C   UNL A   1      45.400  31.350  32.734  1.00  0.00     0.029 A 
ATOM     57  N   UNL A   1      43.296  31.317  32.009  1.00  0.00    -0.354 N 
ATOM     58  N   UNL A   1      40.605  32.456  31.563  1.00  0.00    -0.248 NA
ATOM     59  C   UNL A   1      39.052  34.167  31.896  1.00  0.00     0.031 C 
ATOM     60  C   UNL A   1      44.780  32.543  33.117  1.00  0.00     0.029 A 
ATOM     61  C   UNL A   1      43.475  32.533  32.646  1.00  0.00     0.049 A 
ATOM     62  H   UNL A   1      42.461  31.021  31.580  1.00  0.00     0.167 HD
ATOM     63  C   UNL A   1      41.208  33.482  32.278  1.00  0.00     0.074 A 
ATOM     64  C   UNL A   1      40.214  34.526  32.426  1.00  0.00     0.031 C 
ATOM     65  C   UNL A   1      42.468  33.556  32.770  1.00  0.00     0.037 A 
BRANCH  52  66
ATOM     66  C   UNL A   1      45.929  28.543  31.699  1.00  0.00     0.064 A 
ATOM     67  C   UNL A   1      47.055  28.822  30.907  1.00  0.00     0.173 A 
ATOM     68  C   UNL A   1      46.054  27.555  32.688  1.00  0.00     0.173 A 
ATOM     69  F   UNL A   1      46.984  29.746  29.936  1.00  0.00    -0.203 F 
ATOM     70  C   UNL A   1      48.240  28.111  31.068  1.00  0.00     0.198 A 
ATOM     71  C   UNL A   1      47.254  26.871  32.870  1.00  0.00     0.198 A 
ATOM     72  F   UNL A   1      45.011  27.250  33.475  1.00  0.00    -0.203 F 
ATOM     73  F   UNL A   1      49.277  28.348  30.252  1.00  0.00    -0.200 F 
ATOM     74  C   UNL A   1      48.341  27.141  32.053  1.00  0.00     0.200 A 
ATOM     75  F   UNL A   1      47.353  25.941  33.830  1.00  0.00    -0.200 F 
ATOM     76  F   UNL A   1      49.482  26.457  32.206  1.00  0.00    -0.200 F 
ENDBRANCH  52  66
BRANCH  53  77
ATOM     77  C   UNL A   1      36.933  32.757  30.430  1.00  0.00     0.064 A 
ATOM     78  C   UNL A   1      36.583  33.458  29.267  1.00  0.00     0.173 A 
ATOM     79  C   UNL A   1      35.967  32.654  31.441  1.00  0.00     0.173 A 
ATOM     80  F   UNL A   1      37.480  33.601  28.278  1.00  0.00    -0.203 F 
ATOM     81  C   UNL A   1      35.329  34.049  29.128  1.00  0.00     0.198 A 
ATOM     82  C   UNL A   1      34.701  33.222  31.290  1.00  0.00     0.198 A 
ATOM     83  F   UNL A   1      36.245  31.990  32.572  1.00  0.00    -0.203 F 
ATOM     84  F   UNL A   1      35.039  34.748  28.023  1.00  0.00    -0.200 F 
ATOM     85  C   UNL A   1      34.387  33.925  30.137  1.00  0.00     0.200 A 
ATOM     86  F   UNL A   1      33.789  33.088  32.262  1.00  0.00    -0.200 F 
ATOM     87  F   UNL A   1      33.178  34.488  30.002  1.00  0.00    -0.200 F 
ENDBRANCH  53  77
BRANCH  65  88
ATOM     88  C   UNL A   1      42.852  34.814  33.492  1.00  0.00     0.064 A 
ATOM     89  C   UNL A   1      43.315  35.942  32.801  1.00  0.00     0.173 A 
ATOM     90  C   UNL A   1      42.696  34.908  34.883  1.00  0.00     0.173 A 
ATOM     91  F   UNL A   1      43.493  35.894  31.471  1.00  0.00    -0.203 F 
ATOM     92  C   UNL A   1      43.628  37.116  33.480  1.00  0.00     0.198 A 
ATOM     93  C   UNL A   1      42.982  36.093  35.554  1.00  0.00     0.198 A 
ATOM     94  F   UNL A   1      42.249  33.858  35.586  1.00  0.00    -0.203 F 
ATOM     95  F   UNL A   1      44.107  38.170  32.806  1.00  0.00    -0.200 F 
ATOM     96  C   UNL A   1      43.453  37.193  34.854  1.00  0.00     0.200 A 
ATOM     97  F   UNL A   1      42.798  36.171  36.879  1.00  0.00    -0.200 F 
ATOM     98  F   UNL A   1      43.742  38.328  35.504  1.00  0.00    -0.200 F 
ENDBRANCH  65  88
ENDBRANCH  39  40
ENDBRANCH  31  34
ENDBRANCH  29  30
ENDBRANCH  28  29
ENDBRANCH  27  28
ENDBRANCH   1  27
TORSDOF 17
ENDMDL
