MODEL 1
REMARK VINA RESULT:     -12.5      0.000      0.000
REMARK SMILES C[C@H]1[C@H](C(=O)NCCCCCCNC(=O)c2ccc(-c3c4nc(c(-c5c(F)c(F)c(F)c(F)c5F)c5ccc([nH]5)c(-c5c(F)c(F)c(F)c(F)c5F)c5nc(c(-c6c(F)c(F)c(F)c(F)c6F)c6ccc3[nH]6)C=C5)C=C4)cc2)CC[N@@H+]1CC(=O)N1CCCC1
REMARK SMILES IDX 9 1 8 2 7 3 6 4 4 5 5 6 3 8 1 9 2 10 81 11 79 12 80 13 82 15
REMARK SMILES IDX 83 16 84 17 85 18 86 19 89 20 87 21 88 22 10 23 11 24 12 25
REMARK SMILES IDX 13 26 14 27 15 29 16 30 17 31 78 32 18 33 77 34 19 35 20 36
REMARK SMILES IDX 21 37 71 38 22 39 76 40 70 41 72 42 23 43 75 44 69 45 68 46
REMARK SMILES IDX 24 48 56 49 36 50 55 51 37 52 40 53 54 54 73 55 38 56 39 57
REMARK SMILES IDX 53 59 74 60 41 61 25 62 26 63 34 64 27 65 28 66 32 67 35 68
REMARK SMILES IDX 29 69 30 70 33 71 31 72 57 73 58 74 66 75 59 76 60 77 64 78
REMARK SMILES IDX 67 79 61 80 62 81 65 82 63 83 42 84 43 85 51 86 44 87 45 88
REMARK SMILES IDX 49 89 52 90 46 91 47 92 50 93 48 94
REMARK H PARENT 6 7 81 14 13 28 72 47 40 58
REMARK Flexibility Score: inf
ROOT
ATOM      1  C   UNL A   1      31.372  30.051  25.127  1.00  0.00     0.002 C 
ENDROOT
BRANCH   1   2
ATOM      2  C   UNL A   1      31.306  28.520  25.050  1.00  0.00     0.021 C 
BRANCH   2   3
ATOM      3  C   UNL A   1      32.135  27.590  25.968  1.00  0.00     0.116 C 
BRANCH   3   4
ATOM      4  N   UNL A   1      31.520  26.331  26.395  1.00  0.00    -0.356 N 
ATOM      5  C   UNL A   1      31.909  25.041  26.602  1.00  0.00     0.229 C 
ATOM      6  O   UNL A   1      31.038  24.347  27.157  1.00  0.00    -0.275 OA
ATOM      7  H   UNL A   1      30.561  26.449  26.584  1.00  0.00     0.163 HD
BRANCH   5   8
ATOM      8  C   UNL A   1      33.201  24.301  26.174  1.00  0.00     0.142 C 
ATOM      9  C   UNL A   1      34.265  22.124  27.213  1.00  0.00     0.076 C 
ATOM     10  C   UNL A   1      33.134  22.789  26.419  1.00  0.00     0.194 C 
ATOM     11  N   UNL A   1      33.172  22.145  25.113  1.00  0.00    -0.324 N 
ATOM     12  C   UNL A   1      33.705  24.463  24.760  1.00  0.00     0.081 C 
ATOM     13  C   UNL A   1      33.464  23.122  24.073  1.00  0.00     0.263 C 
ATOM     14  H   UNL A   1      33.965  21.504  25.092  1.00  0.00     0.348 HD
BRANCH  11  15
ATOM     15  C   UNL A   1      32.105  21.160  24.867  1.00  0.00     0.364 C 
BRANCH  15  16
ATOM     16  C   UNL A   1      32.377  20.268  23.651  1.00  0.00     0.277 C 
ATOM     17  O   UNL A   1      32.023  20.694  22.551  1.00  0.00    -0.268 OA
ATOM     18  N   UNL A   1      32.967  19.024  23.856  1.00  0.00    -0.338 N 
ATOM     19  C   UNL A   1      33.989  18.734  24.842  1.00  0.00     0.119 C 
ATOM     20  C   UNL A   1      32.675  17.797  23.135  1.00  0.00     0.119 C 
ATOM     21  C   UNL A   1      34.687  17.465  24.335  1.00  0.00     0.023 C 
ATOM     22  C   UNL A   1      33.997  17.089  23.030  1.00  0.00     0.023 C 
ENDBRANCH  15  16
ENDBRANCH  11  15
ENDBRANCH   5   8
ENDBRANCH   3   4
ENDBRANCH   2   3
ENDBRANCH   1   2
BRANCH   1  23
ATOM     23  C   UNL A   1      31.600  30.629  26.524  1.00  0.00     0.002 C 
BRANCH  23  24
ATOM     24  C   UNL A   1      31.568  32.160  26.631  1.00  0.00     0.021 C 
BRANCH  24  25
ATOM     25  C   UNL A   1      32.753  32.788  27.367  1.00  0.00     0.116 C 
BRANCH  25  26
ATOM     26  N   UNL A   1      32.530  34.207  27.614  1.00  0.00    -0.352 N 
ATOM     27  C   UNL A   1      33.007  34.963  28.655  1.00  0.00     0.251 C 
ATOM     28  H   UNL A   1      31.972  34.680  26.956  1.00  0.00     0.163 HD
ATOM     29  O   UNL A   1      32.517  36.055  28.936  1.00  0.00    -0.269 OA
BRANCH  27  30
ATOM     30  C   UNL A   1      34.138  34.435  29.436  1.00  0.00     0.039 A 
ATOM     31  C   UNL A   1      33.909  33.799  30.656  1.00  0.00     0.014 A 
ATOM     32  C   UNL A   1      35.429  34.535  28.908  1.00  0.00     0.014 A 
ATOM     33  C   UNL A   1      34.981  33.212  31.328  1.00  0.00     0.010 A 
ATOM     34  C   UNL A   1      36.479  33.882  29.541  1.00  0.00     0.010 A 
ATOM     35  C   UNL A   1      36.268  33.227  30.763  1.00  0.00    -0.014 A 
BRANCH  35  36
ATOM     36  C   UNL A   1      37.415  32.586  31.450  1.00  0.00     0.031 A 
ATOM     37  C   UNL A   1      38.139  31.448  30.783  1.00  0.00     0.074 A 
ATOM     38  C   UNL A   1      37.766  32.989  32.686  1.00  0.00     0.049 A 
ATOM     39  N   UNL A   1      39.137  30.727  31.226  1.00  0.00    -0.248 NA
ATOM     40  C   UNL A   1      37.654  31.046  29.453  1.00  0.00     0.031 C 
ATOM     41  C   UNL A   1      37.100  34.043  33.451  1.00  0.00     0.029 A 
ATOM     42  N   UNL A   1      38.766  32.555  33.519  1.00  0.00    -0.354 N 
ATOM     43  C   UNL A   1      39.390  29.787  30.236  1.00  0.00     0.074 A 
ATOM     44  C   UNL A   1      38.397  29.981  29.203  1.00  0.00     0.031 C 
ATOM     45  C   UNL A   1      37.730  34.198  34.626  1.00  0.00     0.029 A 
ATOM     46  C   UNL A   1      38.817  33.229  34.715  1.00  0.00     0.049 A 
ATOM     47  H   UNL A   1      39.389  31.830  33.281  1.00  0.00     0.167 HD
ATOM     48  C   UNL A   1      40.381  28.867  30.180  1.00  0.00     0.037 A 
ATOM     49  C   UNL A   1      39.650  33.076  35.762  1.00  0.00     0.037 A 
ATOM     50  C   UNL A   1      41.374  28.696  31.207  1.00  0.00     0.049 A 
ATOM     51  C   UNL A   1      40.733  32.034  35.683  1.00  0.00     0.074 A 
ATOM     52  C   UNL A   1      42.455  27.834  31.227  1.00  0.00     0.029 A 
ATOM     53  N   UNL A   1      41.399  29.401  32.402  1.00  0.00    -0.354 N 
ATOM     54  N   UNL A   1      41.016  31.205  34.706  1.00  0.00    -0.248 NA
ATOM     55  C   UNL A   1      41.620  31.911  36.848  1.00  0.00     0.031 C 
ATOM     56  C   UNL A   1      43.100  27.976  32.460  1.00  0.00     0.029 A 
ATOM     57  C   UNL A   1      42.460  28.972  33.182  1.00  0.00     0.049 A 
ATOM     58  H   UNL A   1      40.757  30.102  32.657  1.00  0.00     0.167 HD
ATOM     59  C   UNL A   1      42.126  30.483  35.124  1.00  0.00     0.074 A 
ATOM     60  C   UNL A   1      42.477  30.988  36.436  1.00  0.00     0.031 C 
ATOM     61  C   UNL A   1      42.794  29.492  34.484  1.00  0.00     0.037 A 
BRANCH  48  62
ATOM     62  C   UNL A   1      40.436  27.980  28.968  1.00  0.00     0.064 A 
ATOM     63  C   UNL A   1      39.722  26.772  28.904  1.00  0.00     0.173 A 
ATOM     64  C   UNL A   1      41.196  28.349  27.848  1.00  0.00     0.173 A 
ATOM     65  F   UNL A   1      38.988  26.364  29.951  1.00  0.00    -0.203 F 
ATOM     66  C   UNL A   1      39.798  25.951  27.782  1.00  0.00     0.198 A 
ATOM     67  C   UNL A   1      41.239  27.543  26.713  1.00  0.00     0.198 A 
ATOM     68  F   UNL A   1      41.894  29.494  27.850  1.00  0.00    -0.203 F 
ATOM     69  F   UNL A   1      39.156  24.774  27.771  1.00  0.00    -0.200 F 
ATOM     70  C   UNL A   1      40.550  26.341  26.685  1.00  0.00     0.200 A 
ATOM     71  F   UNL A   1      41.955  27.928  25.647  1.00  0.00    -0.200 F 
ATOM     72  F   UNL A   1      40.617  25.553  25.603  1.00  0.00    -0.200 F 
ENDBRANCH  48  62
BRANCH  49  73
ATOM     73  C   UNL A   1      39.509  33.945  36.961  1.00  0.00     0.064 A 
ATOM     74  C   UNL A   1      40.118  35.206  37.013  1.00  0.00     0.173 A 
ATOM     75  C   UNL A   1      38.768  33.535  38.080  1.00  0.00     0.173 A 
ATOM     76  F   UNL A   1      40.851  35.639  35.976  1.00  0.00    -0.203 F 
ATOM     77  C   UNL A   1      40.015  36.013  38.146  1.00  0.00     0.198 A 
ATOM     78  C   UNL A   1      38.639  34.354  39.200  1.00  0.00     0.198 A 
ATOM     79  F   UNL A   1      38.160  32.341  38.082  1.00  0.00    -0.203 F 
ATOM     80  F   UNL A   1      40.650  37.192  38.187  1.00  0.00    -0.200 F 
ATOM     81  C   UNL A   1      39.270  35.588  39.235  1.00  0.00     0.200 A 
ATOM     82  F   UNL A   1      37.904  33.948  40.244  1.00  0.00    -0.200 F 
ATOM     83  F   UNL A   1      39.166  36.365  40.323  1.00  0.00    -0.200 F 
ENDBRANCH  49  73
BRANCH  61  84
ATOM     84  C   UNL A   1      43.992  28.910  35.178  1.00  0.00     0.064 A 
ATOM     85  C   UNL A   1      45.275  29.453  35.017  1.00  0.00     0.173 A 
ATOM     86  C   UNL A   1      43.844  27.820  36.050  1.00  0.00     0.173 A 
ATOM     87  F   UNL A   1      45.472  30.486  34.183  1.00  0.00    -0.203 F 
ATOM     88  C   UNL A   1      46.371  28.907  35.681  1.00  0.00     0.198 A 
ATOM     89  C   UNL A   1      44.936  27.301  36.740  1.00  0.00     0.198 A 
ATOM     90  F   UNL A   1      42.637  27.269  36.246  1.00  0.00    -0.203 F 
ATOM     91  F   UNL A   1      47.596  29.408  35.469  1.00  0.00    -0.200 F 
ATOM     92  C   UNL A   1      46.199  27.839  36.548  1.00  0.00     0.200 A 
ATOM     93  F   UNL A   1      44.764  26.281  37.592  1.00  0.00    -0.200 F 
ATOM     94  F   UNL A   1      47.254  27.323  37.194  1.00  0.00    -0.200 F 
ENDBRANCH  61  84
ENDBRANCH  35  36
ENDBRANCH  27  30
ENDBRANCH  25  26
ENDBRANCH  24  25
ENDBRANCH  23  24
ENDBRANCH   1  23
TORSDOF 15
ENDMDL
MODEL 2
REMARK VINA RESULT:     -12.4      1.430      3.110
REMARK SMILES C[C@H]1[C@H](C(=O)NCCCCCCNC(=O)c2ccc(-c3c4nc(c(-c5c(F)c(F)c(F)c(F)c5F)c5ccc([nH]5)c(-c5c(F)c(F)c(F)c(F)c5F)c5nc(c(-c6c(F)c(F)c(F)c(F)c6F)c6ccc3[nH]6)C=C5)C=C4)cc2)CC[N@@H+]1CC(=O)N1CCCC1
REMARK SMILES IDX 9 1 8 2 7 3 6 4 4 5 5 6 3 8 1 9 2 10 81 11 79 12 80 13 82 15
REMARK SMILES IDX 83 16 84 17 85 18 86 19 89 20 87 21 88 22 10 23 11 24 12 25
REMARK SMILES IDX 13 26 14 27 15 29 16 30 17 31 78 32 18 33 77 34 19 35 20 36
REMARK SMILES IDX 21 37 71 38 22 39 76 40 70 41 72 42 23 43 75 44 69 45 68 46
REMARK SMILES IDX 24 48 56 49 36 50 55 51 37 52 40 53 54 54 73 55 38 56 39 57
REMARK SMILES IDX 53 59 74 60 41 61 25 62 26 63 34 64 27 65 28 66 32 67 35 68
REMARK SMILES IDX 29 69 30 70 33 71 31 72 57 73 58 74 66 75 59 76 60 77 64 78
REMARK SMILES IDX 67 79 61 80 62 81 65 82 63 83 42 84 43 85 51 86 44 87 45 88
REMARK SMILES IDX 49 89 52 90 46 91 47 92 50 93 48 94
REMARK H PARENT 6 7 81 14 13 28 72 47 40 58
REMARK Flexibility Score: inf
ROOT
ATOM      1  C   UNL A   1      32.731  30.078  26.041  1.00  0.00     0.002 C 
ENDROOT
BRANCH   1   2
ATOM      2  C   UNL A   1      32.782  28.545  26.075  1.00  0.00     0.021 C 
BRANCH   2   3
ATOM      3  C   UNL A   1      32.180  27.703  27.226  1.00  0.00     0.116 C 
BRANCH   3   4
ATOM      4  N   UNL A   1      31.344  26.556  26.865  1.00  0.00    -0.356 N 
ATOM      5  C   UNL A   1      31.525  25.255  26.502  1.00  0.00     0.229 C 
ATOM      6  O   UNL A   1      30.466  24.601  26.469  1.00  0.00    -0.275 OA
ATOM      7  H   UNL A   1      30.388  26.790  26.891  1.00  0.00     0.163 HD
BRANCH   5   8
ATOM      8  C   UNL A   1      32.803  24.509  26.041  1.00  0.00     0.142 C 
ATOM      9  C   UNL A   1      33.006  22.103  24.983  1.00  0.00     0.076 C 
ATOM     10  C   UNL A   1      32.551  23.562  24.862  1.00  0.00     0.194 C 
ATOM     11  N   UNL A   1      33.298  24.089  23.727  1.00  0.00    -0.324 N 
ATOM     12  C   UNL A   1      34.025  25.312  25.665  1.00  0.00     0.081 C 
ATOM     13  C   UNL A   1      34.164  25.179  24.151  1.00  0.00     0.263 C 
ATOM     14  H   UNL A   1      33.938  23.366  23.399  1.00  0.00     0.348 HD
BRANCH  11  15
ATOM     15  C   UNL A   1      32.521  24.254  22.487  1.00  0.00     0.364 C 
BRANCH  15  16
ATOM     16  C   UNL A   1      32.584  25.678  21.922  1.00  0.00     0.277 C 
ATOM     17  O   UNL A   1      33.278  25.854  20.920  1.00  0.00    -0.268 OA
ATOM     18  N   UNL A   1      31.892  26.688  22.584  1.00  0.00    -0.338 N 
ATOM     19  C   UNL A   1      30.605  26.536  23.231  1.00  0.00     0.119 C 
ATOM     20  C   UNL A   1      32.322  28.066  22.753  1.00  0.00     0.119 C 
ATOM     21  C   UNL A   1      30.025  27.955  23.310  1.00  0.00     0.023 C 
ATOM     22  C   UNL A   1      31.057  28.875  22.672  1.00  0.00     0.023 C 
ENDBRANCH  15  16
ENDBRANCH  11  15
ENDBRANCH   5   8
ENDBRANCH   3   4
ENDBRANCH   2   3
ENDBRANCH   1   2
BRANCH   1  23
ATOM     23  C   UNL A   1      31.556  30.712  26.786  1.00  0.00     0.002 C 
BRANCH  23  24
ATOM     24  C   UNL A   1      31.526  32.247  26.812  1.00  0.00     0.021 C 
BRANCH  24  25
ATOM     25  C   UNL A   1      32.791  32.916  27.351  1.00  0.00     0.116 C 
BRANCH  25  26
ATOM     26  N   UNL A   1      32.566  34.330  27.626  1.00  0.00    -0.352 N 
ATOM     27  C   UNL A   1      33.022  35.059  28.694  1.00  0.00     0.251 C 
ATOM     28  H   UNL A   1      32.022  34.819  26.968  1.00  0.00     0.163 HD
ATOM     29  O   UNL A   1      32.528  36.146  28.990  1.00  0.00    -0.269 OA
BRANCH  27  30
ATOM     30  C   UNL A   1      34.136  34.511  29.487  1.00  0.00     0.039 A 
ATOM     31  C   UNL A   1      33.885  33.895  30.712  1.00  0.00     0.014 A 
ATOM     32  C   UNL A   1      35.432  34.571  28.963  1.00  0.00     0.014 A 
ATOM     33  C   UNL A   1      34.938  33.288  31.396  1.00  0.00     0.010 A 
ATOM     34  C   UNL A   1      36.461  33.899  29.607  1.00  0.00     0.010 A 
ATOM     35  C   UNL A   1      36.227  33.263  30.836  1.00  0.00    -0.014 A 
BRANCH  35  36
ATOM     36  C   UNL A   1      37.355  32.599  31.535  1.00  0.00     0.031 A 
ATOM     37  C   UNL A   1      38.064  31.449  30.876  1.00  0.00     0.074 A 
ATOM     38  C   UNL A   1      37.699  32.995  32.775  1.00  0.00     0.049 A 
ATOM     39  N   UNL A   1      39.044  30.709  31.329  1.00  0.00    -0.248 NA
ATOM     40  C   UNL A   1      37.587  31.057  29.540  1.00  0.00     0.031 C 
ATOM     41  C   UNL A   1      37.044  34.061  33.533  1.00  0.00     0.029 A 
ATOM     42  N   UNL A   1      38.682  32.542  33.619  1.00  0.00    -0.354 N 
ATOM     43  C   UNL A   1      39.289  29.765  30.342  1.00  0.00     0.074 A 
ATOM     44  C   UNL A   1      38.313  29.978  29.297  1.00  0.00     0.031 C 
ATOM     45  C   UNL A   1      37.664  34.204  34.716  1.00  0.00     0.029 A 
ATOM     46  C   UNL A   1      38.732  33.214  34.816  1.00  0.00     0.049 A 
ATOM     47  H   UNL A   1      39.293  31.805  33.388  1.00  0.00     0.167 HD
ATOM     48  C   UNL A   1      40.264  28.826  30.295  1.00  0.00     0.037 A 
ATOM     49  C   UNL A   1      39.549  33.044  35.873  1.00  0.00     0.037 A 
ATOM     50  C   UNL A   1      41.241  28.636  31.333  1.00  0.00     0.049 A 
ATOM     51  C   UNL A   1      40.614  31.982  35.805  1.00  0.00     0.074 A 
ATOM     52  C   UNL A   1      42.306  27.754  31.365  1.00  0.00     0.029 A 
ATOM     53  N   UNL A   1      41.266  29.339  32.529  1.00  0.00    -0.354 N 
ATOM     54  N   UNL A   1      40.892  31.148  34.831  1.00  0.00    -0.248 NA
ATOM     55  C   UNL A   1      41.484  31.842  36.979  1.00  0.00     0.031 C 
ATOM     56  C   UNL A   1      42.939  27.882  32.606  1.00  0.00     0.029 A 
ATOM     57  C   UNL A   1      42.310  28.889  33.320  1.00  0.00     0.049 A 
ATOM     58  H   UNL A   1      40.635  30.052  32.778  1.00  0.00     0.167 HD
ATOM     59  C   UNL A   1      41.983  30.406  35.261  1.00  0.00     0.074 A 
ATOM     60  C   UNL A   1      42.329  30.903  36.576  1.00  0.00     0.031 C 
ATOM     61  C   UNL A   1      42.639  29.403  34.627  1.00  0.00     0.037 A 
BRANCH  48  62
ATOM     62  C   UNL A   1      40.315  27.939  29.084  1.00  0.00     0.064 A 
ATOM     63  C   UNL A   1      41.061  28.286  27.944  1.00  0.00     0.173 A 
ATOM     64  C   UNL A   1      39.628  26.716  29.065  1.00  0.00     0.173 A 
ATOM     65  F   UNL A   1      41.728  29.450  27.903  1.00  0.00    -0.203 F 
ATOM     66  C   UNL A   1      41.083  27.463  26.822  1.00  0.00     0.198 A 
ATOM     67  C   UNL A   1      39.683  25.878  27.954  1.00  0.00     0.198 A 
ATOM     68  F   UNL A   1      38.904  26.330  30.127  1.00  0.00    -0.203 F 
ATOM     69  F   UNL A   1      41.752  27.847  25.725  1.00  0.00    -0.200 F 
ATOM     70  C   UNL A   1      40.401  26.256  26.831  1.00  0.00     0.200 A 
ATOM     71  F   UNL A   1      39.035  24.705  27.969  1.00  0.00    -0.200 F 
ATOM     72  F   UNL A   1      40.429  25.462  25.752  1.00  0.00    -0.200 F 
ENDBRANCH  48  62
BRANCH  49  73
ATOM     73  C   UNL A   1      39.411  33.915  37.071  1.00  0.00     0.064 A 
ATOM     74  C   UNL A   1      38.686  33.489  38.192  1.00  0.00     0.173 A 
ATOM     75  C   UNL A   1      39.996  35.189  37.122  1.00  0.00     0.173 A 
ATOM     76  F   UNL A   1      38.092  32.286  38.188  1.00  0.00    -0.203 F 
ATOM     77  C   UNL A   1      38.527  34.313  39.306  1.00  0.00     0.198 A 
ATOM     78  C   UNL A   1      39.864  35.999  38.248  1.00  0.00     0.198 A 
ATOM     79  F   UNL A   1      40.707  35.644  36.080  1.00  0.00    -0.203 F 
ATOM     80  F   UNL A   1      37.784  33.899  40.342  1.00  0.00    -0.200 F 
ATOM     81  C   UNL A   1      39.122  35.564  39.335  1.00  0.00     0.200 A 
ATOM     82  F   UNL A   1      40.456  37.202  38.279  1.00  0.00    -0.200 F 
ATOM     83  F   UNL A   1      38.974  36.355  40.408  1.00  0.00    -0.200 F 
ENDBRANCH  49  73
BRANCH  61  84
ATOM     84  C   UNL A   1      43.818  28.797  35.334  1.00  0.00     0.064 A 
ATOM     85  C   UNL A   1      45.115  29.308  35.178  1.00  0.00     0.173 A 
ATOM     86  C   UNL A   1      43.639  27.718  36.213  1.00  0.00     0.173 A 
ATOM     87  F   UNL A   1      45.343  30.330  34.338  1.00  0.00    -0.203 F 
ATOM     88  C   UNL A   1      46.193  28.742  35.854  1.00  0.00     0.198 A 
ATOM     89  C   UNL A   1      44.712  27.179  36.915  1.00  0.00     0.198 A 
ATOM     90  F   UNL A   1      42.417  27.198  36.405  1.00  0.00    -0.203 F 
ATOM     91  F   UNL A   1      47.431  29.211  35.647  1.00  0.00    -0.200 F 
ATOM     92  C   UNL A   1      45.989  27.685  36.728  1.00  0.00     0.200 A 
ATOM     93  F   UNL A   1      44.511  26.170  37.774  1.00  0.00    -0.200 F 
ATOM     94  F   UNL A   1      47.027  27.149  37.385  1.00  0.00    -0.200 F 
ENDBRANCH  61  84
ENDBRANCH  35  36
ENDBRANCH  27  30
ENDBRANCH  25  26
ENDBRANCH  24  25
ENDBRANCH  23  24
ENDBRANCH   1  23
TORSDOF 15
ENDMDL
MODEL 3
REMARK VINA RESULT:     -12.4      1.594      7.911
REMARK SMILES C[C@H]1[C@H](C(=O)NCCCCCCNC(=O)c2ccc(-c3c4nc(c(-c5c(F)c(F)c(F)c(F)c5F)c5ccc([nH]5)c(-c5c(F)c(F)c(F)c(F)c5F)c5nc(c(-c6c(F)c(F)c(F)c(F)c6F)c6ccc3[nH]6)C=C5)C=C4)cc2)CC[N@@H+]1CC(=O)N1CCCC1
REMARK SMILES IDX 9 1 8 2 7 3 6 4 4 5 5 6 3 8 1 9 2 10 81 11 79 12 80 13 82 15
REMARK SMILES IDX 83 16 84 17 85 18 86 19 89 20 87 21 88 22 10 23 11 24 12 25
REMARK SMILES IDX 13 26 14 27 15 29 16 30 17 31 78 32 18 33 77 34 19 35 20 36
REMARK SMILES IDX 21 37 71 38 22 39 76 40 70 41 72 42 23 43 75 44 69 45 68 46
REMARK SMILES IDX 24 48 56 49 36 50 55 51 37 52 40 53 54 54 73 55 38 56 39 57
REMARK SMILES IDX 53 59 74 60 41 61 25 62 26 63 34 64 27 65 28 66 32 67 35 68
REMARK SMILES IDX 29 69 30 70 33 71 31 72 57 73 58 74 66 75 59 76 60 77 64 78
REMARK SMILES IDX 67 79 61 80 62 81 65 82 63 83 42 84 43 85 51 86 44 87 45 88
REMARK SMILES IDX 49 89 52 90 46 91 47 92 50 93 48 94
REMARK H PARENT 6 7 81 14 13 28 72 47 40 58
REMARK Flexibility Score: inf
ROOT
ATOM      1  C   UNL A   1      32.801  30.184  25.913  1.00  0.00     0.002 C 
ENDROOT
BRANCH   1   2
ATOM      2  C   UNL A   1      32.902  28.668  26.125  1.00  0.00     0.021 C 
BRANCH   2   3
ATOM      3  C   UNL A   1      32.147  27.919  27.250  1.00  0.00     0.116 C 
BRANCH   3   4
ATOM      4  N   UNL A   1      31.255  26.824  26.858  1.00  0.00    -0.356 N 
ATOM      5  C   UNL A   1      31.367  25.510  26.513  1.00  0.00     0.229 C 
ATOM      6  O   UNL A   1      30.271  24.926  26.436  1.00  0.00    -0.275 OA
ATOM      7  H   UNL A   1      30.316  27.120  26.838  1.00  0.00     0.163 HD
BRANCH   5   8
ATOM      8  C   UNL A   1      32.614  24.679  26.117  1.00  0.00     0.142 C 
ATOM      9  C   UNL A   1      32.710  22.234  25.137  1.00  0.00     0.076 C 
ATOM     10  C   UNL A   1      32.345  23.712  24.958  1.00  0.00     0.194 C 
ATOM     11  N   UNL A   1      33.156  24.160  23.834  1.00  0.00    -0.324 N 
ATOM     12  C   UNL A   1      33.891  25.399  25.760  1.00  0.00     0.081 C 
ATOM     13  C   UNL A   1      34.071  25.212  24.256  1.00  0.00     0.263 C 
ATOM     14  H   UNL A   1      33.764  23.393  23.548  1.00  0.00     0.348 HD
BRANCH  11  15
ATOM     15  C   UNL A   1      32.430  24.332  22.565  1.00  0.00     0.364 C 
BRANCH  15  16
ATOM     16  C   UNL A   1      32.530  25.754  22.001  1.00  0.00     0.277 C 
ATOM     17  O   UNL A   1      33.270  25.923  21.031  1.00  0.00    -0.268 OA
ATOM     18  N   UNL A   1      31.817  26.771  22.629  1.00  0.00    -0.338 N 
ATOM     19  C   UNL A   1      30.500  26.630  23.217  1.00  0.00     0.119 C 
ATOM     20  C   UNL A   1      32.248  28.145  22.815  1.00  0.00     0.119 C 
ATOM     21  C   UNL A   1      29.928  28.053  23.268  1.00  0.00     0.023 C 
ATOM     22  C   UNL A   1      30.995  28.964  22.676  1.00  0.00     0.023 C 
ENDBRANCH  15  16
ENDBRANCH  11  15
ENDBRANCH   5   8
ENDBRANCH   3   4
ENDBRANCH   2   3
ENDBRANCH   1   2
BRANCH   1  23
ATOM     23  C   UNL A   1      31.422  30.792  26.166  1.00  0.00     0.002 C 
BRANCH  23  24
ATOM     24  C   UNL A   1      31.400  32.290  26.502  1.00  0.00     0.021 C 
BRANCH  24  25
ATOM     25  C   UNL A   1      32.491  32.760  27.466  1.00  0.00     0.116 C 
BRANCH  25  26
ATOM     26  N   UNL A   1      32.438  34.203  27.664  1.00  0.00    -0.352 N 
ATOM     27  C   UNL A   1      33.086  34.943  28.619  1.00  0.00     0.251 C 
ATOM     28  H   UNL A   1      31.869  34.706  27.038  1.00  0.00     0.163 HD
ATOM     29  O   UNL A   1      32.738  36.090  28.892  1.00  0.00    -0.269 OA
BRANCH  27  30
ATOM     30  C   UNL A   1      34.228  34.330  29.318  1.00  0.00     0.039 A 
ATOM     31  C   UNL A   1      34.022  33.604  30.492  1.00  0.00     0.014 A 
ATOM     32  C   UNL A   1      35.504  34.442  28.756  1.00  0.00     0.014 A 
ATOM     33  C   UNL A   1      35.100  32.942  31.079  1.00  0.00     0.010 A 
ATOM     34  C   UNL A   1      36.556  33.718  29.299  1.00  0.00     0.010 A 
ATOM     35  C   UNL A   1      36.368  32.973  30.473  1.00  0.00    -0.014 A 
BRANCH  35  36
ATOM     36  C   UNL A   1      37.521  32.253  31.068  1.00  0.00     0.031 A 
ATOM     37  C   UNL A   1      38.003  32.630  32.442  1.00  0.00     0.074 A 
ATOM     38  C   UNL A   1      38.161  31.308  30.353  1.00  0.00     0.049 A 
ATOM     39  N   UNL A   1      39.012  32.155  33.125  1.00  0.00    -0.248 NA
ATOM     40  C   UNL A   1      37.269  33.707  33.126  1.00  0.00     0.031 C 
ATOM     41  C   UNL A   1      37.816  30.902  28.991  1.00  0.00     0.029 A 
ATOM     42  N   UNL A   1      39.239  30.522  30.673  1.00  0.00    -0.354 N 
ATOM     43  C   UNL A   1      39.038  32.880  34.309  1.00  0.00     0.074 A 
ATOM     44  C   UNL A   1      37.991  33.873  34.223  1.00  0.00     0.031 C 
ATOM     45  C   UNL A   1      38.645  29.918  28.603  1.00  0.00     0.029 A 
ATOM     46  C   UNL A   1      39.602  29.654  29.673  1.00  0.00     0.049 A 
ATOM     47  H   UNL A   1      39.708  30.575  31.537  1.00  0.00     0.167 HD
ATOM     48  C   UNL A   1      39.842  32.711  35.385  1.00  0.00     0.037 A 
ATOM     49  C   UNL A   1      40.598  28.749  29.628  1.00  0.00     0.037 A 
ATOM     50  C   UNL A   1      40.869  31.707  35.466  1.00  0.00     0.049 A 
ATOM     51  C   UNL A   1      41.490  28.591  30.831  1.00  0.00     0.074 A 
ATOM     52  C   UNL A   1      41.704  31.410  36.528  1.00  0.00     0.029 A 
ATOM     53  N   UNL A   1      41.205  30.840  34.436  1.00  0.00    -0.354 N 
ATOM     54  N   UNL A   1      41.454  29.224  31.979  1.00  0.00    -0.248 NA
ATOM     55  C   UNL A   1      42.557  27.585  30.735  1.00  0.00     0.031 C 
ATOM     56  C   UNL A   1      42.584  30.402  36.120  1.00  0.00     0.029 A 
ATOM     57  C   UNL A   1      42.256  30.027  34.826  1.00  0.00     0.049 A 
ATOM     58  H   UNL A   1      40.761  30.808  33.558  1.00  0.00     0.167 HD
ATOM     59  C   UNL A   1      42.470  28.679  32.751  1.00  0.00     0.074 A 
ATOM     60  C   UNL A   1      43.092  27.646  31.947  1.00  0.00     0.031 C 
ATOM     61  C   UNL A   1      42.856  29.001  34.010  1.00  0.00     0.037 A 
BRANCH  48  62
ATOM     62  C   UNL A   1      39.638  33.631  36.555  1.00  0.00     0.064 A 
ATOM     63  C   UNL A   1      40.262  34.888  36.624  1.00  0.00     0.173 A 
ATOM     64  C   UNL A   1      38.795  33.263  37.614  1.00  0.00     0.173 A 
ATOM     65  F   UNL A   1      41.089  35.287  35.644  1.00  0.00    -0.203 F 
ATOM     66  C   UNL A   1      40.078  35.722  37.723  1.00  0.00     0.198 A 
ATOM     67  C   UNL A   1      38.585  34.116  38.695  1.00  0.00     0.198 A 
ATOM     68  F   UNL A   1      38.169  32.077  37.600  1.00  0.00    -0.203 F 
ATOM     69  F   UNL A   1      40.734  36.890  37.793  1.00  0.00    -0.200 F 
ATOM     70  C   UNL A   1      39.235  35.339  38.754  1.00  0.00     0.200 A 
ATOM     71  F   UNL A   1      37.757  33.750  39.684  1.00  0.00    -0.200 F 
ATOM     72  F   UNL A   1      39.055  36.145  39.809  1.00  0.00    -0.200 F 
ENDBRANCH  48  62
BRANCH  49  73
ATOM     73  C   UNL A   1      40.789  27.906  28.417  1.00  0.00     0.064 A 
ATOM     74  C   UNL A   1      41.593  28.341  27.354  1.00  0.00     0.173 A 
ATOM     75  C   UNL A   1      40.171  26.653  28.292  1.00  0.00     0.173 A 
ATOM     76  F   UNL A   1      42.193  29.540  27.416  1.00  0.00    -0.203 F 
ATOM     77  C   UNL A   1      41.750  27.570  26.204  1.00  0.00     0.198 A 
ATOM     78  C   UNL A   1      40.354  25.868  27.155  1.00  0.00     0.198 A 
ATOM     79  F   UNL A   1      39.396  26.184  29.281  1.00  0.00    -0.203 F 
ATOM     80  F   UNL A   1      42.483  28.035  25.183  1.00  0.00    -0.200 F 
ATOM     81  C   UNL A   1      41.136  26.331  26.108  1.00  0.00     0.200 A 
ATOM     82  F   UNL A   1      39.772  24.663  27.074  1.00  0.00    -0.200 F 
ATOM     83  F   UNL A   1      41.291  25.586  25.005  1.00  0.00    -0.200 F 
ENDBRANCH  49  73
BRANCH  61  84
ATOM     84  C   UNL A   1      43.983  28.209  34.608  1.00  0.00     0.064 A 
ATOM     85  C   UNL A   1      43.759  27.000  35.284  1.00  0.00     0.173 A 
ATOM     86  C   UNL A   1      45.309  28.644  34.465  1.00  0.00     0.173 A 
ATOM     87  F   UNL A   1      42.508  26.546  35.460  1.00  0.00    -0.203 F 
ATOM     88  C   UNL A   1      44.818  26.272  35.819  1.00  0.00     0.198 A 
ATOM     89  C   UNL A   1      46.369  27.895  34.969  1.00  0.00     0.198 A 
ATOM     90  F   UNL A   1      45.580  29.789  33.820  1.00  0.00    -0.203 F 
ATOM     91  F   UNL A   1      44.575  25.149  36.508  1.00  0.00    -0.200 F 
ATOM     92  C   UNL A   1      46.121  26.715  35.653  1.00  0.00     0.200 A 
ATOM     93  F   UNL A   1      47.629  28.316  34.791  1.00  0.00    -0.200 F 
ATOM     94  F   UNL A   1      47.141  26.007  36.160  1.00  0.00    -0.200 F 
ENDBRANCH  61  84
ENDBRANCH  35  36
ENDBRANCH  27  30
ENDBRANCH  25  26
ENDBRANCH  24  25
ENDBRANCH  23  24
ENDBRANCH   1  23
TORSDOF 15
ENDMDL
