MODEL 1
REMARK VINA RESULT:     -12.1      0.000      0.000
REMARK SMILES CC(=O)N/N=C/c1ccc(O[C@H](C)C(=O)NCCCCCCNC(=O)c2ccc(-c3c4nc(c(-c5c(F)c(F)c(F)c(F)c5F)c5ccc([nH]5)c(-c5c(F)c(F)c(F)c(F)c5F)c5nc(c(-c6c(F)c(F)c(F)c(F)c6F)c6ccc3[nH]6)C=C5)C=C4)cc2)cc1
REMARK SMILES IDX 18 1 17 2 16 3 14 4 15 5 12 7 13 8 11 9 10 10 7 11 8 12
REMARK SMILES IDX 90 13 9 14 89 15 6 16 5 17 4 18 1 19 2 20 3 21 19 23 20 24
REMARK SMILES IDX 21 25 22 26 23 27 24 28 25 30 26 31 27 32 88 33 28 34 87 35
REMARK SMILES IDX 29 36 30 37 31 38 81 39 32 40 86 41 80 42 82 43 33 44 85 45
REMARK SMILES IDX 79 46 78 47 34 49 66 50 46 51 65 52 47 53 50 54 64 55 83 56
REMARK SMILES IDX 48 57 49 58 63 60 84 61 51 62 35 63 36 64 44 65 37 66 38 67
REMARK SMILES IDX 42 68 45 69 39 70 40 71 43 72 41 73 67 74 68 75 76 76 69 77
REMARK SMILES IDX 70 78 74 79 77 80 71 81 72 82 75 83 73 84 52 85 53 86 61 87
REMARK SMILES IDX 54 88 55 89 59 90 62 91 56 92 57 93 60 94 58 95
REMARK H PARENT 16 6 4 22 23 29 82 48 50 59
REMARK Flexibility Score: inf
ROOT
ATOM      1  C   UNL A   1      33.284  29.108  26.428  1.00  0.00     0.021 C 
ENDROOT
BRANCH   1   2
ATOM      2  C   UNL A   1      33.429  27.658  25.973  1.00  0.00     0.116 C 
BRANCH   2   3
ATOM      3  N   UNL A   1      32.541  26.765  26.685  1.00  0.00    -0.353 N 
ATOM      4  C   UNL A   1      32.152  25.493  26.373  1.00  0.00     0.260 C 
ATOM      5  O   UNL A   1      31.401  24.913  27.162  1.00  0.00    -0.271 OA
ATOM      6  H   UNL A   1      32.160  27.127  27.518  1.00  0.00     0.163 HD
BRANCH   4   7
ATOM      7  C   UNL A   1      32.568  24.838  25.041  1.00  0.00     0.258 C 
ATOM      8  C   UNL A   1      33.310  23.545  25.364  1.00  0.00     0.064 C 
BRANCH   7   9
ATOM      9  O   UNL A   1      31.475  24.903  24.124  1.00  0.00    -0.481 OA
BRANCH   9  10
ATOM     10  C   UNL A   1      30.776  25.985  23.703  1.00  0.00     0.120 A 
ATOM     11  C   UNL A   1      29.658  28.405  22.794  1.00  0.00    -0.005 A 
ATOM     12  C   UNL A   1      28.883  27.482  23.497  1.00  0.00     0.013 A 
ATOM     13  C   UNL A   1      30.991  28.116  22.515  1.00  0.00     0.013 A 
ATOM     14  C   UNL A   1      29.438  26.273  23.927  1.00  0.00     0.047 A 
ATOM     15  C   UNL A   1      31.540  26.910  22.970  1.00  0.00     0.047 A 
BRANCH  11  16
ATOM     16  C   UNL A   1      28.986  29.636  22.337  1.00  0.00     0.141 C 
ATOM     17  N   UNL A   1      29.418  30.359  21.356  1.00  0.00    -0.181 NA
BRANCH  17  18
ATOM     18  N   UNL A   1      28.667  31.454  21.016  1.00  0.00    -0.247 N 
ATOM     19  C   UNL A   1      29.132  32.860  23.019  1.00  0.00     0.116 C 
ATOM     20  C   UNL A   1      28.433  32.616  21.709  1.00  0.00     0.236 C 
ATOM     21  O   UNL A   1      27.653  33.453  21.249  1.00  0.00    -0.274 OA
ATOM     22  H   UNL A   1      28.228  31.398  20.137  1.00  0.00     0.193 HD
ENDBRANCH  17  18
ENDBRANCH  11  16
ENDBRANCH   9  10
ENDBRANCH   7   9
ENDBRANCH   4   7
ENDBRANCH   2   3
ENDBRANCH   1   2
BRANCH   1  23
ATOM     23  C   UNL A   1      31.838  29.584  26.589  1.00  0.00     0.002 C 
BRANCH  23  24
ATOM     24  C   UNL A   1      31.466  30.826  25.773  1.00  0.00     0.002 C 
BRANCH  24  25
ATOM     25  C   UNL A   1      31.211  32.094  26.591  1.00  0.00     0.021 C 
BRANCH  25  26
ATOM     26  C   UNL A   1      32.448  32.687  27.257  1.00  0.00     0.116 C 
BRANCH  26  27
ATOM     27  N   UNL A   1      32.285  34.097  27.565  1.00  0.00    -0.352 N 
ATOM     28  C   UNL A   1      32.935  34.870  28.495  1.00  0.00     0.251 C 
ATOM     29  H   UNL A   1      31.608  34.568  27.027  1.00  0.00     0.163 HD
ATOM     30  O   UNL A   1      32.530  35.999  28.749  1.00  0.00    -0.269 OA
BRANCH  28  31
ATOM     31  C   UNL A   1      34.115  34.334  29.207  1.00  0.00     0.039 A 
ATOM     32  C   UNL A   1      33.931  33.718  30.446  1.00  0.00     0.014 A 
ATOM     33  C   UNL A   1      35.398  34.454  28.665  1.00  0.00     0.014 A 
ATOM     34  C   UNL A   1      35.026  33.168  31.116  1.00  0.00     0.010 A 
ATOM     35  C   UNL A   1      36.476  33.840  29.297  1.00  0.00     0.010 A 
ATOM     36  C   UNL A   1      36.303  33.194  30.531  1.00  0.00    -0.014 A 
BRANCH  36  37
ATOM     37  C   UNL A   1      37.464  32.546  31.193  1.00  0.00     0.031 A 
ATOM     38  C   UNL A   1      38.160  31.385  30.537  1.00  0.00     0.074 A 
ATOM     39  C   UNL A   1      37.848  32.960  32.417  1.00  0.00     0.049 A 
ATOM     40  N   UNL A   1      39.141  30.644  30.990  1.00  0.00    -0.248 NA
ATOM     41  C   UNL A   1      37.672  30.982  29.208  1.00  0.00     0.031 C 
ATOM     42  C   UNL A   1      37.219  34.039  33.179  1.00  0.00     0.029 A 
ATOM     43  N   UNL A   1      38.849  32.511  33.243  1.00  0.00    -0.354 N 
ATOM     44  C   UNL A   1      39.371  29.682  30.015  1.00  0.00     0.074 A 
ATOM     45  C   UNL A   1      38.400  29.902  28.965  1.00  0.00     0.031 C 
ATOM     46  C   UNL A   1      37.855  34.178  34.354  1.00  0.00     0.029 A 
ATOM     47  C   UNL A   1      38.909  33.172  34.446  1.00  0.00     0.049 A 
ATOM     48  H   UNL A   1      39.466  31.784  32.997  1.00  0.00     0.167 HD
ATOM     49  C   UNL A   1      40.319  28.716  29.991  1.00  0.00     0.037 A 
ATOM     50  C   UNL A   1      39.710  32.977  35.511  1.00  0.00     0.037 A 
ATOM     51  C   UNL A   1      41.306  28.525  31.022  1.00  0.00     0.049 A 
ATOM     52  C   UNL A   1      40.761  31.900  35.450  1.00  0.00     0.074 A 
ATOM     53  C   UNL A   1      42.363  27.631  31.046  1.00  0.00     0.029 A 
ATOM     54  N   UNL A   1      41.356  29.236  32.212  1.00  0.00    -0.354 N 
ATOM     55  N   UNL A   1      41.029  31.058  34.483  1.00  0.00    -0.248 NA
ATOM     56  C   UNL A   1      41.631  31.755  36.627  1.00  0.00     0.031 C 
ATOM     57  C   UNL A   1      43.014  27.757  32.277  1.00  0.00     0.029 A 
ATOM     58  C   UNL A   1      42.404  28.776  32.992  1.00  0.00     0.049 A 
ATOM     59  H   UNL A   1      40.739  29.959  32.465  1.00  0.00     0.167 HD
ATOM     60  C   UNL A   1      42.110  30.304  34.920  1.00  0.00     0.074 A 
ATOM     61  C   UNL A   1      42.464  30.803  36.231  1.00  0.00     0.031 C 
ATOM     62  C   UNL A   1      42.752  29.289  34.292  1.00  0.00     0.037 A 
BRANCH  49  63
ATOM     63  C   UNL A   1      40.344  27.781  28.816  1.00  0.00     0.064 A 
ATOM     64  C   UNL A   1      41.108  28.051  27.671  1.00  0.00     0.173 A 
ATOM     65  C   UNL A   1      39.651  26.562  28.869  1.00  0.00     0.173 A 
ATOM     66  F   UNL A   1      41.782  29.207  27.566  1.00  0.00    -0.203 F 
ATOM     67  C   UNL A   1      41.161  27.146  26.615  1.00  0.00     0.198 A 
ATOM     68  C   UNL A   1      39.731  25.645  27.824  1.00  0.00     0.198 A 
ATOM     69  F   UNL A   1      38.909  26.250  29.943  1.00  0.00    -0.203 F 
ATOM     70  F   UNL A   1      41.865  27.443  25.515  1.00  0.00    -0.200 F 
ATOM     71  C   UNL A   1      40.481  25.940  26.696  1.00  0.00     0.200 A 
ATOM     72  F   UNL A   1      39.086  24.473  27.912  1.00  0.00    -0.200 F 
ATOM     73  F   UNL A   1      40.548  25.062  25.686  1.00  0.00    -0.200 F 
ENDBRANCH  49  63
BRANCH  50  74
ATOM     74  C   UNL A   1      39.554  33.819  36.728  1.00  0.00     0.064 A 
ATOM     75  C   UNL A   1      38.773  33.391  37.810  1.00  0.00     0.173 A 
ATOM     76  C   UNL A   1      40.157  35.082  36.821  1.00  0.00     0.173 A 
ATOM     77  F   UNL A   1      38.159  32.199  37.763  1.00  0.00    -0.203 F 
ATOM     78  C   UNL A   1      38.574  34.205  38.924  1.00  0.00     0.198 A 
ATOM     79  C   UNL A   1      39.987  35.881  37.950  1.00  0.00     0.198 A 
ATOM     80  F   UNL A   1      40.922  35.537  35.818  1.00  0.00    -0.203 F 
ATOM     81  F   UNL A   1      37.773  33.796  39.916  1.00  0.00    -0.200 F 
ATOM     82  C   UNL A   1      39.186  35.448  38.995  1.00  0.00     0.200 A 
ATOM     83  F   UNL A   1      40.595  37.073  38.022  1.00  0.00    -0.200 F 
ATOM     84  F   UNL A   1      38.994  36.232  40.065  1.00  0.00    -0.200 F 
ENDBRANCH  50  74
BRANCH  62  85
ATOM     85  C   UNL A   1      43.929  28.675  34.995  1.00  0.00     0.064 A 
ATOM     86  C   UNL A   1      43.789  27.564  35.838  1.00  0.00     0.173 A 
ATOM     87  C   UNL A   1      45.222  29.183  34.786  1.00  0.00     0.173 A 
ATOM     88  F   UNL A   1      42.575  27.050  36.081  1.00  0.00    -0.203 F 
ATOM     89  C   UNL A   1      44.896  27.002  36.470  1.00  0.00     0.198 A 
ATOM     90  C   UNL A   1      46.329  28.596  35.391  1.00  0.00     0.198 A 
ATOM     91  F   UNL A   1      45.412  30.239  33.981  1.00  0.00    -0.203 F 
ATOM     92  F   UNL A   1      44.732  25.972  37.313  1.00  0.00    -0.200 F 
ATOM     93  C   UNL A   1      46.165  27.512  36.239  1.00  0.00     0.200 A 
ATOM     94  F   UNL A   1      47.556  29.080  35.153  1.00  0.00    -0.200 F 
ATOM     95  F   UNL A   1      47.228  26.963  36.840  1.00  0.00    -0.200 F 
ENDBRANCH  62  85
ENDBRANCH  36  37
ENDBRANCH  28  31
ENDBRANCH  26  27
ENDBRANCH  25  26
ENDBRANCH  24  25
ENDBRANCH  23  24
ENDBRANCH   1  23
TORSDOF 17
ENDMDL
MODEL 2
REMARK VINA RESULT:     -11.8      0.790      7.237
REMARK SMILES CC(=O)N/N=C/c1ccc(O[C@H](C)C(=O)NCCCCCCNC(=O)c2ccc(-c3c4nc(c(-c5c(F)c(F)c(F)c(F)c5F)c5ccc([nH]5)c(-c5c(F)c(F)c(F)c(F)c5F)c5nc(c(-c6c(F)c(F)c(F)c(F)c6F)c6ccc3[nH]6)C=C5)C=C4)cc2)cc1
REMARK SMILES IDX 18 1 17 2 16 3 14 4 15 5 12 7 13 8 11 9 10 10 7 11 8 12
REMARK SMILES IDX 90 13 9 14 89 15 6 16 5 17 4 18 1 19 2 20 3 21 19 23 20 24
REMARK SMILES IDX 21 25 22 26 23 27 24 28 25 30 26 31 27 32 88 33 28 34 87 35
REMARK SMILES IDX 29 36 30 37 31 38 81 39 32 40 86 41 80 42 82 43 33 44 85 45
REMARK SMILES IDX 79 46 78 47 34 49 66 50 46 51 65 52 47 53 50 54 64 55 83 56
REMARK SMILES IDX 48 57 49 58 63 60 84 61 51 62 35 63 36 64 44 65 37 66 38 67
REMARK SMILES IDX 42 68 45 69 39 70 40 71 43 72 41 73 67 74 68 75 76 76 69 77
REMARK SMILES IDX 70 78 74 79 77 80 71 81 72 82 75 83 73 84 52 85 53 86 61 87
REMARK SMILES IDX 54 88 55 89 59 90 62 91 56 92 57 93 60 94 58 95
REMARK H PARENT 16 6 4 22 23 29 82 48 50 59
REMARK Flexibility Score: inf
ROOT
ATOM      1  C   UNL A   1      31.776  28.365  27.315  1.00  0.00     0.021 C 
ENDROOT
BRANCH   1   2
ATOM      2  C   UNL A   1      32.362  27.042  26.829  1.00  0.00     0.116 C 
BRANCH   2   3
ATOM      3  N   UNL A   1      31.480  25.922  27.083  1.00  0.00    -0.353 N 
ATOM      4  C   UNL A   1      31.468  24.678  26.517  1.00  0.00     0.260 C 
ATOM      5  O   UNL A   1      30.628  23.871  26.924  1.00  0.00    -0.271 OA
ATOM      6  H   UNL A   1      30.788  26.079  27.764  1.00  0.00     0.163 HD
BRANCH   4   7
ATOM      7  C   UNL A   1      32.413  24.325  25.351  1.00  0.00     0.258 C 
ATOM      8  C   UNL A   1      32.963  22.924  25.599  1.00  0.00     0.064 C 
BRANCH   7   9
ATOM      9  O   UNL A   1      31.808  24.721  24.119  1.00  0.00    -0.481 OA
BRANCH   9  10
ATOM     10  C   UNL A   1      31.505  25.966  23.676  1.00  0.00     0.120 A 
ATOM     11  C   UNL A   1      30.527  28.420  22.700  1.00  0.00    -0.005 A 
ATOM     12  C   UNL A   1      31.895  28.150  22.705  1.00  0.00     0.013 A 
ATOM     13  C   UNL A   1      29.636  27.477  23.207  1.00  0.00     0.013 A 
ATOM     14  C   UNL A   1      32.377  26.939  23.211  1.00  0.00     0.047 A 
ATOM     15  C   UNL A   1      30.130  26.259  23.692  1.00  0.00     0.047 A 
BRANCH  11  16
ATOM     16  C   UNL A   1      30.105  29.738  22.190  1.00  0.00     0.141 C 
ATOM     17  N   UNL A   1      29.056  29.911  21.453  1.00  0.00    -0.181 NA
BRANCH  17  18
ATOM     18  N   UNL A   1      28.763  31.199  21.087  1.00  0.00    -0.247 N 
ATOM     19  C   UNL A   1      27.681  31.950  23.201  1.00  0.00     0.116 C 
ATOM     20  C   UNL A   1      28.107  32.188  21.778  1.00  0.00     0.236 C 
ATOM     21  O   UNL A   1      27.879  33.267  21.228  1.00  0.00    -0.274 OA
ATOM     22  H   UNL A   1      29.071  31.454  20.188  1.00  0.00     0.193 HD
ENDBRANCH  17  18
ENDBRANCH  11  16
ENDBRANCH   9  10
ENDBRANCH   7   9
ENDBRANCH   4   7
ENDBRANCH   2   3
ENDBRANCH   1   2
BRANCH   1  23
ATOM     23  C   UNL A   1      32.396  29.610  26.679  1.00  0.00     0.002 C 
BRANCH  23  24
ATOM     24  C   UNL A   1      31.428  30.483  25.875  1.00  0.00     0.002 C 
BRANCH  24  25
ATOM     25  C   UNL A   1      31.360  31.951  26.305  1.00  0.00     0.021 C 
BRANCH  25  26
ATOM     26  C   UNL A   1      32.555  32.436  27.119  1.00  0.00     0.116 C 
BRANCH  26  27
ATOM     27  N   UNL A   1      32.444  33.839  27.478  1.00  0.00    -0.352 N 
ATOM     28  C   UNL A   1      33.114  34.552  28.440  1.00  0.00     0.251 C 
ATOM     29  H   UNL A   1      31.790  34.356  26.953  1.00  0.00     0.163 HD
ATOM     30  O   UNL A   1      32.751  35.686  28.733  1.00  0.00    -0.269 OA
BRANCH  28  31
ATOM     31  C   UNL A   1      34.266  33.945  29.141  1.00  0.00     0.039 A 
ATOM     32  C   UNL A   1      34.032  32.911  30.051  1.00  0.00     0.014 A 
ATOM     33  C   UNL A   1      35.567  34.402  28.918  1.00  0.00     0.014 A 
ATOM     34  C   UNL A   1      35.109  32.296  30.692  1.00  0.00     0.010 A 
ATOM     35  C   UNL A   1      36.644  33.740  29.500  1.00  0.00     0.010 A 
ATOM     36  C   UNL A   1      36.427  32.682  30.397  1.00  0.00    -0.014 A 
BRANCH  36  37
ATOM     37  C   UNL A   1      37.587  31.986  31.011  1.00  0.00     0.031 A 
ATOM     38  C   UNL A   1      38.080  32.391  32.373  1.00  0.00     0.074 A 
ATOM     39  C   UNL A   1      38.238  31.035  30.312  1.00  0.00     0.049 A 
ATOM     40  N   UNL A   1      39.118  31.953  33.042  1.00  0.00    -0.248 NA
ATOM     41  C   UNL A   1      37.325  33.447  33.066  1.00  0.00     0.031 C 
ATOM     42  C   UNL A   1      37.890  30.592  28.961  1.00  0.00     0.029 A 
ATOM     43  N   UNL A   1      39.340  30.281  30.633  1.00  0.00    -0.354 N 
ATOM     44  C   UNL A   1      39.150  32.691  34.218  1.00  0.00     0.074 A 
ATOM     45  C   UNL A   1      38.056  33.637  34.154  1.00  0.00     0.031 C 
ATOM     46  C   UNL A   1      38.751  29.637  28.574  1.00  0.00     0.029 A 
ATOM     47  C   UNL A   1      39.737  29.428  29.631  1.00  0.00     0.049 A 
ATOM     48  H   UNL A   1      39.802  30.345  31.500  1.00  0.00     0.167 HD
ATOM     49  C   UNL A   1      40.004  32.578  35.262  1.00  0.00     0.037 A 
ATOM     50  C   UNL A   1      40.786  28.587  29.564  1.00  0.00     0.037 A 
ATOM     51  C   UNL A   1      41.068  31.611  35.335  1.00  0.00     0.049 A 
ATOM     52  C   UNL A   1      41.713  28.476  30.746  1.00  0.00     0.074 A 
ATOM     53  C   UNL A   1      41.930  31.358  36.388  1.00  0.00     0.029 A 
ATOM     54  N   UNL A   1      41.419  30.740  34.313  1.00  0.00    -0.354 N 
ATOM     55  N   UNL A   1      41.676  29.114  31.890  1.00  0.00    -0.248 NA
ATOM     56  C   UNL A   1      42.821  27.517  30.631  1.00  0.00     0.031 C 
ATOM     57  C   UNL A   1      42.842  30.379  35.982  1.00  0.00     0.029 A 
ATOM     58  C   UNL A   1      42.507  29.975  34.700  1.00  0.00     0.049 A 
ATOM     59  H   UNL A   1      40.963  30.677  33.444  1.00  0.00     0.167 HD
ATOM     60  C   UNL A   1      42.735  28.617  32.639  1.00  0.00     0.074 A 
ATOM     61  C   UNL A   1      43.382  27.607  31.829  1.00  0.00     0.031 C 
ATOM     62  C   UNL A   1      43.135  28.965  33.886  1.00  0.00     0.037 A 
BRANCH  49  63
ATOM     63  C   UNL A   1      39.834  33.520  36.419  1.00  0.00     0.064 A 
ATOM     64  C   UNL A   1      40.469  34.769  36.456  1.00  0.00     0.173 A 
ATOM     65  C   UNL A   1      38.965  33.195  37.472  1.00  0.00     0.173 A 
ATOM     66  F   UNL A   1      41.318  35.125  35.480  1.00  0.00    -0.203 F 
ATOM     67  C   UNL A   1      40.256  35.650  37.513  1.00  0.00     0.198 A 
ATOM     68  C   UNL A   1      38.730  34.091  38.512  1.00  0.00     0.198 A 
ATOM     69  F   UNL A   1      38.327  32.014  37.484  1.00  0.00    -0.203 F 
ATOM     70  F   UNL A   1      40.904  36.823  37.546  1.00  0.00    -0.200 F 
ATOM     71  C   UNL A   1      39.380  35.315  38.534  1.00  0.00     0.200 A 
ATOM     72  F   UNL A   1      37.870  33.771  39.489  1.00  0.00    -0.200 F 
ATOM     73  F   UNL A   1      39.162  36.172  39.540  1.00  0.00    -0.200 F 
ENDBRANCH  49  63
BRANCH  50  74
ATOM     74  C   UNL A   1      41.021  27.781  28.335  1.00  0.00     0.064 A 
ATOM     75  C   UNL A   1      40.447  26.511  28.181  1.00  0.00     0.173 A 
ATOM     76  C   UNL A   1      41.848  28.251  27.305  1.00  0.00     0.173 A 
ATOM     77  F   UNL A   1      39.664  26.008  29.146  1.00  0.00    -0.203 F 
ATOM     78  C   UNL A   1      40.717  25.729  27.059  1.00  0.00     0.198 A 
ATOM     79  C   UNL A   1      42.090  27.483  26.167  1.00  0.00     0.198 A 
ATOM     80  F   UNL A   1      42.415  29.462  27.398  1.00  0.00    -0.203 F 
ATOM     81  F   UNL A   1      40.205  24.496  26.966  1.00  0.00    -0.200 F 
ATOM     82  C   UNL A   1      41.534  26.218  26.050  1.00  0.00     0.200 A 
ATOM     83  F   UNL A   1      42.865  27.967  25.188  1.00  0.00    -0.200 F 
ATOM     84  F   UNL A   1      41.795  25.466  24.973  1.00  0.00    -0.200 F 
ENDBRANCH  50  74
BRANCH  62  85
ATOM     85  C   UNL A   1      44.303  28.223  34.471  1.00  0.00     0.064 A 
ATOM     86  C   UNL A   1      44.137  27.020  35.173  1.00  0.00     0.173 A 
ATOM     87  C   UNL A   1      45.610  28.703  34.289  1.00  0.00     0.173 A 
ATOM     88  F   UNL A   1      42.909  26.527  35.386  1.00  0.00    -0.203 F 
ATOM     89  C   UNL A   1      45.235  26.341  35.696  1.00  0.00     0.198 A 
ATOM     90  C   UNL A   1      46.706  28.002  34.782  1.00  0.00     0.198 A 
ATOM     91  F   UNL A   1      45.824  29.844  33.617  1.00  0.00    -0.203 F 
ATOM     92  F   UNL A   1      45.049  25.220  36.409  1.00  0.00    -0.200 F 
ATOM     93  C   UNL A   1      46.518  26.827  35.493  1.00  0.00     0.200 A 
ATOM     94  F   UNL A   1      47.946  28.465  34.570  1.00  0.00    -0.200 F 
ATOM     95  F   UNL A   1      47.572  26.166  35.988  1.00  0.00    -0.200 F 
ENDBRANCH  62  85
ENDBRANCH  36  37
ENDBRANCH  28  31
ENDBRANCH  26  27
ENDBRANCH  25  26
ENDBRANCH  24  25
ENDBRANCH  23  24
ENDBRANCH   1  23
TORSDOF 17
ENDMDL
MODEL 3
REMARK VINA RESULT:     -11.6      5.288      9.304
REMARK SMILES CC(=O)N/N=C/c1ccc(O[C@H](C)C(=O)NCCCCCCNC(=O)c2ccc(-c3c4nc(c(-c5c(F)c(F)c(F)c(F)c5F)c5ccc([nH]5)c(-c5c(F)c(F)c(F)c(F)c5F)c5nc(c(-c6c(F)c(F)c(F)c(F)c6F)c6ccc3[nH]6)C=C5)C=C4)cc2)cc1
REMARK SMILES IDX 18 1 17 2 16 3 14 4 15 5 12 7 13 8 11 9 10 10 7 11 8 12
REMARK SMILES IDX 90 13 9 14 89 15 6 16 5 17 4 18 1 19 2 20 3 21 19 23 20 24
REMARK SMILES IDX 21 25 22 26 23 27 24 28 25 30 26 31 27 32 88 33 28 34 87 35
REMARK SMILES IDX 29 36 30 37 31 38 81 39 32 40 86 41 80 42 82 43 33 44 85 45
REMARK SMILES IDX 79 46 78 47 34 49 66 50 46 51 65 52 47 53 50 54 64 55 83 56
REMARK SMILES IDX 48 57 49 58 63 60 84 61 51 62 35 63 36 64 44 65 37 66 38 67
REMARK SMILES IDX 42 68 45 69 39 70 40 71 43 72 41 73 67 74 68 75 76 76 69 77
REMARK SMILES IDX 70 78 74 79 77 80 71 81 72 82 75 83 73 84 52 85 53 86 61 87
REMARK SMILES IDX 54 88 55 89 59 90 62 91 56 92 57 93 60 94 58 95
REMARK H PARENT 16 6 4 22 23 29 82 48 50 59
REMARK Flexibility Score: inf
ROOT
ATOM      1  C   UNL A   1      34.906  24.513  24.442  1.00  0.00     0.021 C 
ENDROOT
BRANCH   1   2
ATOM      2  C   UNL A   1      33.972  25.656  24.834  1.00  0.00     0.116 C 
BRANCH   2   3
ATOM      3  N   UNL A   1      33.422  26.337  23.681  1.00  0.00    -0.353 N 
ATOM      4  C   UNL A   1      32.119  26.486  23.298  1.00  0.00     0.260 C 
ATOM      5  O   UNL A   1      31.892  27.143  22.279  1.00  0.00    -0.271 OA
ATOM      6  H   UNL A   1      34.084  26.755  23.085  1.00  0.00     0.163 HD
BRANCH   4   7
ATOM      7  C   UNL A   1      30.980  25.784  24.064  1.00  0.00     0.258 C 
ATOM      8  C   UNL A   1      29.801  26.749  24.141  1.00  0.00     0.064 C 
BRANCH   7   9
ATOM      9  O   UNL A   1      30.859  24.438  23.598  1.00  0.00    -0.481 OA
BRANCH   9  10
ATOM     10  C   UNL A   1      31.398  23.305  24.111  1.00  0.00     0.120 A 
ATOM     11  C   UNL A   1      32.482  20.807  24.829  1.00  0.00    -0.005 A 
ATOM     12  C   UNL A   1      31.962  21.663  25.799  1.00  0.00     0.013 A 
ATOM     13  C   UNL A   1      32.490  21.201  23.493  1.00  0.00     0.013 A 
ATOM     14  C   UNL A   1      31.445  22.911  25.440  1.00  0.00     0.047 A 
ATOM     15  C   UNL A   1      31.949  22.447  23.144  1.00  0.00     0.047 A 
BRANCH  11  16
ATOM     16  C   UNL A   1      33.048  19.528  25.296  1.00  0.00     0.141 C 
ATOM     17  N   UNL A   1      32.488  18.382  25.079  1.00  0.00    -0.181 NA
BRANCH  17  18
ATOM     18  N   UNL A   1      33.150  17.273  25.536  1.00  0.00    -0.247 N 
ATOM     19  C   UNL A   1      34.111  16.494  23.374  1.00  0.00     0.116 C 
ATOM     20  C   UNL A   1      33.875  16.329  24.850  1.00  0.00     0.236 C 
ATOM     21  O   UNL A   1      34.332  15.355  25.453  1.00  0.00    -0.274 OA
ATOM     22  H   UNL A   1      33.099  17.132  26.509  1.00  0.00     0.193 HD
ENDBRANCH  17  18
ENDBRANCH  11  16
ENDBRANCH   9  10
ENDBRANCH   7   9
ENDBRANCH   4   7
ENDBRANCH   2   3
ENDBRANCH   1   2
BRANCH   1  23
ATOM     23  C   UNL A   1      35.844  24.045  25.557  1.00  0.00     0.002 C 
BRANCH  23  24
ATOM     24  C   UNL A   1      35.559  22.644  26.106  1.00  0.00     0.002 C 
BRANCH  24  25
ATOM     25  C   UNL A   1      36.277  21.500  25.386  1.00  0.00     0.021 C 
BRANCH  25  26
ATOM     26  C   UNL A   1      37.761  21.738  25.128  1.00  0.00     0.116 C 
BRANCH  26  27
ATOM     27  N   UNL A   1      38.600  20.757  25.795  1.00  0.00    -0.352 N 
ATOM     28  C   UNL A   1      39.767  20.936  26.495  1.00  0.00     0.251 C 
ATOM     29  H   UNL A   1      38.284  19.826  25.736  1.00  0.00     0.163 HD
ATOM     30  O   UNL A   1      40.442  19.967  26.825  1.00  0.00    -0.269 OA
BRANCH  28  31
ATOM     31  C   UNL A   1      40.223  22.300  26.835  1.00  0.00     0.039 A 
ATOM     32  C   UNL A   1      41.275  22.452  27.741  1.00  0.00     0.014 A 
ATOM     33  C   UNL A   1      39.608  23.425  26.279  1.00  0.00     0.014 A 
ATOM     34  C   UNL A   1      41.749  23.730  28.044  1.00  0.00     0.010 A 
ATOM     35  C   UNL A   1      40.129  24.692  26.524  1.00  0.00     0.010 A 
ATOM     36  C   UNL A   1      41.203  24.860  27.412  1.00  0.00    -0.014 A 
BRANCH  36  37
ATOM     37  C   UNL A   1      41.747  26.219  27.664  1.00  0.00     0.031 A 
ATOM     38  C   UNL A   1      43.123  26.587  27.180  1.00  0.00     0.074 A 
ATOM     39  C   UNL A   1      41.027  27.100  28.387  1.00  0.00     0.049 A 
ATOM     40  N   UNL A   1      43.797  27.694  27.365  1.00  0.00    -0.248 NA
ATOM     41  C   UNL A   1      43.851  25.566  26.411  1.00  0.00     0.031 C 
ATOM     42  C   UNL A   1      39.703  26.843  28.956  1.00  0.00     0.029 A 
ATOM     43  N   UNL A   1      41.314  28.383  28.783  1.00  0.00    -0.354 N 
ATOM     44  C   UNL A   1      45.029  27.495  26.755  1.00  0.00     0.074 A 
ATOM     45  C   UNL A   1      45.029  26.146  26.233  1.00  0.00     0.031 C 
ATOM     46  C   UNL A   1      39.288  27.936  29.616  1.00  0.00     0.029 A 
ATOM     47  C   UNL A   1      40.331  28.956  29.553  1.00  0.00     0.049 A 
ATOM     48  H   UNL A   1      42.146  28.849  28.538  1.00  0.00     0.167 HD
ATOM     49  C   UNL A   1      46.057  28.365  26.629  1.00  0.00     0.037 A 
ATOM     50  C   UNL A   1      40.283  30.160  30.155  1.00  0.00     0.037 A 
ATOM     51  C   UNL A   1      46.037  29.719  27.119  1.00  0.00     0.049 A 
ATOM     52  C   UNL A   1      41.439  31.110  29.987  1.00  0.00     0.074 A 
ATOM     53  C   UNL A   1      46.995  30.706  26.961  1.00  0.00     0.029 A 
ATOM     54  N   UNL A   1      45.009  30.276  27.866  1.00  0.00    -0.354 N 
ATOM     55  N   UNL A   1      42.559  30.942  29.328  1.00  0.00    -0.248 NA
ATOM     56  C   UNL A   1      41.318  32.423  30.637  1.00  0.00     0.031 C 
ATOM     57  C   UNL A   1      46.576  31.839  27.666  1.00  0.00     0.029 A 
ATOM     58  C   UNL A   1      45.327  31.580  28.205  1.00  0.00     0.049 A 
ATOM     59  H   UNL A   1      44.179  29.812  28.118  1.00  0.00     0.167 HD
ATOM     60  C   UNL A   1      43.262  32.133  29.460  1.00  0.00     0.074 A 
ATOM     61  C   UNL A   1      42.432  33.023  30.244  1.00  0.00     0.031 C 
ATOM     62  C   UNL A   1      44.486  32.460  28.978  1.00  0.00     0.037 A 
BRANCH  49  63
ATOM     63  C   UNL A   1      47.301  27.892  25.933  1.00  0.00     0.064 A 
ATOM     64  C   UNL A   1      48.405  27.398  26.644  1.00  0.00     0.173 A 
ATOM     65  C   UNL A   1      47.360  27.866  24.531  1.00  0.00     0.173 A 
ATOM     66  F   UNL A   1      48.404  27.409  27.986  1.00  0.00    -0.203 F 
ATOM     67  C   UNL A   1      49.527  26.914  25.978  1.00  0.00     0.198 A 
ATOM     68  C   UNL A   1      48.472  27.353  23.869  1.00  0.00     0.198 A 
ATOM     69  F   UNL A   1      46.331  28.323  23.802  1.00  0.00    -0.203 F 
ATOM     70  F   UNL A   1      50.585  26.483  26.679  1.00  0.00    -0.200 F 
ATOM     71  C   UNL A   1      49.557  26.882  24.592  1.00  0.00     0.200 A 
ATOM     72  F   UNL A   1      48.491  27.309  22.528  1.00  0.00    -0.200 F 
ATOM     73  F   UNL A   1      50.631  26.399  23.954  1.00  0.00    -0.200 F 
ENDBRANCH  49  63
BRANCH  50  74
ATOM     74  C   UNL A   1      39.099  30.539  30.973  1.00  0.00     0.064 A 
ATOM     75  C   UNL A   1      38.007  31.207  30.403  1.00  0.00     0.173 A 
ATOM     76  C   UNL A   1      39.050  30.269  32.349  1.00  0.00     0.173 A 
ATOM     77  F   UNL A   1      38.013  31.505  29.096  1.00  0.00    -0.203 F 
ATOM     78  C   UNL A   1      36.927  31.619  31.181  1.00  0.00     0.198 A 
ATOM     79  C   UNL A   1      37.954  30.651  33.120  1.00  0.00     0.198 A 
ATOM     80  F   UNL A   1      40.065  29.625  32.944  1.00  0.00    -0.203 F 
ATOM     81  F   UNL A   1      35.924  32.309  30.621  1.00  0.00    -0.200 F 
ATOM     82  C   UNL A   1      36.899  31.336  32.539  1.00  0.00     0.200 A 
ATOM     83  F   UNL A   1      37.924  30.359  34.428  1.00  0.00    -0.200 F 
ATOM     84  F   UNL A   1      35.861  31.733  33.287  1.00  0.00    -0.200 F 
ENDBRANCH  50  74
BRANCH  62  85
ATOM     85  C   UNL A   1      44.987  33.850  29.245  1.00  0.00     0.064 A 
ATOM     86  C   UNL A   1      45.826  34.137  30.331  1.00  0.00     0.173 A 
ATOM     87  C   UNL A   1      44.654  34.902  28.376  1.00  0.00     0.173 A 
ATOM     88  F   UNL A   1      46.161  33.171  31.199  1.00  0.00    -0.203 F 
ATOM     89  C   UNL A   1      46.290  35.431  30.554  1.00  0.00     0.198 A 
ATOM     90  C   UNL A   1      45.149  36.186  28.582  1.00  0.00     0.198 A 
ATOM     91  F   UNL A   1      43.862  34.679  27.316  1.00  0.00    -0.203 F 
ATOM     92  F   UNL A   1      47.048  35.693  31.628  1.00  0.00    -0.200 F 
ATOM     93  C   UNL A   1      45.958  36.452  29.675  1.00  0.00     0.200 A 
ATOM     94  F   UNL A   1      44.842  37.166  27.721  1.00  0.00    -0.200 F 
ATOM     95  F   UNL A   1      46.415  37.694  29.886  1.00  0.00    -0.200 F 
ENDBRANCH  62  85
ENDBRANCH  36  37
ENDBRANCH  28  31
ENDBRANCH  26  27
ENDBRANCH  25  26
ENDBRANCH  24  25
ENDBRANCH  23  24
ENDBRANCH   1  23
TORSDOF 17
ENDMDL
