MODEL 1
REMARK VINA RESULT:     -12.1      0.000      0.000
REMARK SMILES C[C@H]1[NH2+]CC[C@H]1C(=O)N1CC(C(=O)NCCCCCCNC(=O)c2ccc(-c3c4nc(c(-c5c(F)c(F)c(F)c(F)c5F)c5ccc([nH]5)c(-c5c(F)c(F)c(F)c(F)c5F)c5nc(c(-c6c(F)c(F)c(F)c(F)c6F)c6ccc3[nH]6)C=C5)C=C4)cc2)C1
REMARK SMILES IDX 18 1 17 2 16 3 15 4 14 5 12 6 13 7 11 9 7 10 8 11 9 12 10 13
REMARK SMILES IDX 87 14 6 15 1 16 2 17 3 18 4 19 5 22 19 23 20 24 21 25 22 26
REMARK SMILES IDX 23 28 24 29 25 30 86 31 26 32 85 33 27 34 28 35 29 36 79 37
REMARK SMILES IDX 30 38 84 39 78 40 80 41 31 42 83 43 77 44 76 45 32 47 64 48
REMARK SMILES IDX 44 49 63 50 45 51 48 52 62 53 81 54 46 55 47 56 61 58 82 59
REMARK SMILES IDX 49 60 33 61 34 62 42 63 35 64 36 65 40 66 43 67 37 68 38 69
REMARK SMILES IDX 41 70 39 71 65 72 66 73 74 74 67 75 68 76 72 77 75 78 69 79
REMARK SMILES IDX 70 80 73 81 71 82 50 83 51 84 59 85 52 86 53 87 57 88 60 89
REMARK SMILES IDX 54 90 55 91 58 92 56 93
REMARK H PARENT 14 8 3 20 3 21 21 27 80 46 48 57
REMARK Flexibility Score: inf
ROOT
ATOM      1  C   UNL A   1      31.540  30.733  26.345  1.00  0.00     0.002 C 
ENDROOT
BRANCH   1   2
ATOM      2  C   UNL A   1      32.563  30.018  27.235  1.00  0.00     0.002 C 
BRANCH   2   3
ATOM      3  C   UNL A   1      32.646  28.499  27.045  1.00  0.00     0.021 C 
BRANCH   3   4
ATOM      4  C   UNL A   1      31.416  27.873  26.390  1.00  0.00     0.116 C 
BRANCH   4   5
ATOM      5  N   UNL A   1      31.146  26.546  26.909  1.00  0.00    -0.356 N 
ATOM      6  C   UNL A   1      31.530  25.304  26.469  1.00  0.00     0.226 C 
ATOM      7  O   UNL A   1      31.116  24.348  27.142  1.00  0.00    -0.275 OA
ATOM      8  H   UNL A   1      30.588  26.535  27.720  1.00  0.00     0.163 HD
BRANCH   6   9
ATOM      9  C   UNL A   1      32.403  25.102  25.227  1.00  0.00     0.117 C 
ATOM     10  C   UNL A   1      34.650  23.361  23.578  1.00  0.00     0.231 C 
ATOM     11  O   UNL A   1      34.576  23.962  22.506  1.00  0.00    -0.274 OA
ATOM     12  N   UNL A   1      33.793  23.629  24.630  1.00  0.00    -0.341 N 
ATOM     13  C   UNL A   1      32.340  23.820  24.415  1.00  0.00     0.134 C 
ATOM     14  C   UNL A   1      33.894  24.894  25.391  1.00  0.00     0.134 C 
BRANCH  10  15
ATOM     15  C   UNL A   1      35.669  22.251  23.800  1.00  0.00     0.142 C 
ATOM     16  C   UNL A   1      37.197  23.680  25.367  1.00  0.00     0.076 C 
ATOM     17  C   UNL A   1      37.073  22.631  24.268  1.00  0.00     0.192 C 
ATOM     18  N   UNL A   1      37.637  21.355  24.747  1.00  0.00    -0.343 N 
ATOM     19  C   UNL A   1      36.539  20.469  25.134  1.00  0.00     0.261 C 
ATOM     20  H   UNL A   1      38.238  21.527  25.552  1.00  0.00     0.346 HD
ATOM     21  H   UNL A   1      38.188  20.921  24.007  1.00  0.00     0.346 HD
ATOM     22  C   UNL A   1      35.242  21.179  24.790  1.00  0.00     0.081 C 
ENDBRANCH  10  15
ENDBRANCH   6   9
ENDBRANCH   4   5
ENDBRANCH   3   4
ENDBRANCH   2   3
ENDBRANCH   1   2
BRANCH   1  23
ATOM     23  C   UNL A   1      31.442  32.245  26.554  1.00  0.00     0.021 C 
BRANCH  23  24
ATOM     24  C   UNL A   1      32.618  32.860  27.305  1.00  0.00     0.116 C 
BRANCH  24  25
ATOM     25  N   UNL A   1      32.389  34.258  27.637  1.00  0.00    -0.352 N 
ATOM     26  C   UNL A   1      32.989  35.029  28.600  1.00  0.00     0.251 C 
ATOM     27  H   UNL A   1      31.708  34.716  27.093  1.00  0.00     0.163 HD
ATOM     28  O   UNL A   1      32.544  36.142  28.871  1.00  0.00    -0.269 OA
BRANCH  26  29
ATOM     29  C   UNL A   1      34.162  34.508  29.332  1.00  0.00     0.039 A 
ATOM     30  C   UNL A   1      33.975  33.926  30.588  1.00  0.00     0.014 A 
ATOM     31  C   UNL A   1      35.442  34.593  28.779  1.00  0.00     0.014 A 
ATOM     32  C   UNL A   1      35.065  33.371  31.262  1.00  0.00     0.010 A 
ATOM     33  C   UNL A   1      36.511  33.971  29.414  1.00  0.00     0.010 A 
ATOM     34  C   UNL A   1      36.336  33.358  30.666  1.00  0.00    -0.014 A 
BRANCH  34  35
ATOM     35  C   UNL A   1      37.500  32.720  31.333  1.00  0.00     0.031 A 
ATOM     36  C   UNL A   1      38.200  31.563  30.675  1.00  0.00     0.074 A 
ATOM     37  C   UNL A   1      37.879  33.132  32.557  1.00  0.00     0.049 A 
ATOM     38  N   UNL A   1      39.168  30.811  31.134  1.00  0.00    -0.248 NA
ATOM     39  C   UNL A   1      37.730  31.184  29.333  1.00  0.00     0.031 C 
ATOM     40  C   UNL A   1      37.256  34.217  33.315  1.00  0.00     0.029 A 
ATOM     41  N   UNL A   1      38.872  32.676  33.388  1.00  0.00    -0.354 N 
ATOM     42  C   UNL A   1      39.409  29.863  30.147  1.00  0.00     0.074 A 
ATOM     43  C   UNL A   1      38.450  30.098  29.091  1.00  0.00     0.031 C 
ATOM     44  C   UNL A   1      37.891  34.355  34.490  1.00  0.00     0.029 A 
ATOM     45  C   UNL A   1      38.935  33.340  34.589  1.00  0.00     0.049 A 
ATOM     46  H   UNL A   1      39.482  31.941  33.146  1.00  0.00     0.167 HD
ATOM     47  C   UNL A   1      40.358  28.898  30.117  1.00  0.00     0.037 A 
ATOM     48  C   UNL A   1      39.733  33.141  35.655  1.00  0.00     0.037 A 
ATOM     49  C   UNL A   1      41.325  28.683  31.162  1.00  0.00     0.049 A 
ATOM     50  C   UNL A   1      40.768  32.047  35.605  1.00  0.00     0.074 A 
ATOM     51  C   UNL A   1      42.363  27.770  31.201  1.00  0.00     0.029 A 
ATOM     52  N   UNL A   1      41.366  29.387  32.358  1.00  0.00    -0.354 N 
ATOM     53  N   UNL A   1      41.029  31.200  34.641  1.00  0.00    -0.248 NA
ATOM     54  C   UNL A   1      41.622  31.888  36.790  1.00  0.00     0.031 C 
ATOM     55  C   UNL A   1      42.995  27.879  32.443  1.00  0.00     0.029 A 
ATOM     56  C   UNL A   1      42.396  28.908  33.151  1.00  0.00     0.049 A 
ATOM     57  H   UNL A   1      40.755  30.118  32.604  1.00  0.00     0.167 HD
ATOM     58  C   UNL A   1      42.098  30.433  35.086  1.00  0.00     0.074 A 
ATOM     59  C   UNL A   1      42.443  30.922  36.403  1.00  0.00     0.031 C 
ATOM     60  C   UNL A   1      42.738  29.416  34.456  1.00  0.00     0.037 A 
BRANCH  47  61
ATOM     61  C   UNL A   1      40.399  27.996  28.916  1.00  0.00     0.064 A 
ATOM     62  C   UNL A   1      41.175  28.303  27.787  1.00  0.00     0.173 A 
ATOM     63  C   UNL A   1      39.682  26.789  28.908  1.00  0.00     0.173 A 
ATOM     64  F   UNL A   1      41.871  29.449  27.736  1.00  0.00    -0.203 F 
ATOM     65  C   UNL A   1      41.205  27.453  26.685  1.00  0.00     0.198 A 
ATOM     66  C   UNL A   1      39.743  25.925  27.819  1.00  0.00     0.198 A 
ATOM     67  F   UNL A   1      38.929  26.443  29.963  1.00  0.00    -0.203 F 
ATOM     68  F   UNL A   1      41.910  27.794  25.597  1.00  0.00    -0.200 F 
ATOM     69  C   UNL A   1      40.498  26.261  26.705  1.00  0.00     0.200 A 
ATOM     70  F   UNL A   1      39.071  24.766  27.847  1.00  0.00    -0.200 F 
ATOM     71  F   UNL A   1      40.536  25.438  25.647  1.00  0.00    -0.200 F 
ENDBRANCH  47  61
BRANCH  48  72
ATOM     72  C   UNL A   1      39.598  34.005  36.859  1.00  0.00     0.064 A 
ATOM     73  C   UNL A   1      40.268  35.233  36.944  1.00  0.00     0.173 A 
ATOM     74  C   UNL A   1      38.803  33.620  37.949  1.00  0.00     0.173 A 
ATOM     75  F   UNL A   1      41.054  35.638  35.936  1.00  0.00    -0.203 F 
ATOM     76  C   UNL A   1      40.171  36.030  38.084  1.00  0.00     0.198 A 
ATOM     77  C   UNL A   1      38.682  34.432  39.074  1.00  0.00     0.198 A 
ATOM     78  F   UNL A   1      38.135  32.458  37.917  1.00  0.00    -0.203 F 
ATOM     79  F   UNL A   1      40.865  37.174  38.160  1.00  0.00    -0.200 F 
ATOM     80  C   UNL A   1      39.373  35.632  39.146  1.00  0.00     0.200 A 
ATOM     81  F   UNL A   1      37.895  34.051  40.090  1.00  0.00    -0.200 F 
ATOM     82  F   UNL A   1      39.277  36.399  40.240  1.00  0.00    -0.200 F 
ENDBRANCH  48  72
BRANCH  60  83
ATOM     83  C   UNL A   1      43.913  28.795  35.158  1.00  0.00     0.064 A 
ATOM     84  C   UNL A   1      43.770  27.686  36.004  1.00  0.00     0.173 A 
ATOM     85  C   UNL A   1      45.209  29.285  34.932  1.00  0.00     0.173 A 
ATOM     86  F   UNL A   1      42.551  27.187  36.263  1.00  0.00    -0.203 F 
ATOM     87  C   UNL A   1      44.877  27.106  36.617  1.00  0.00     0.198 A 
ATOM     88  C   UNL A   1      46.317  28.682  35.519  1.00  0.00     0.198 A 
ATOM     89  F   UNL A   1      45.402  30.340  34.125  1.00  0.00    -0.203 F 
ATOM     90  F   UNL A   1      44.712  26.076  37.458  1.00  0.00    -0.200 F 
ATOM     91  C   UNL A   1      46.150  27.598  36.366  1.00  0.00     0.200 A 
ATOM     92  F   UNL A   1      47.547  29.148  35.262  1.00  0.00    -0.200 F 
ATOM     93  F   UNL A   1      47.216  27.029  36.947  1.00  0.00    -0.200 F 
ENDBRANCH  60  83
ENDBRANCH  34  35
ENDBRANCH  26  29
ENDBRANCH  24  25
ENDBRANCH  23  24
ENDBRANCH   1  23
TORSDOF 14
ENDMDL
MODEL 2
REMARK VINA RESULT:     -12.1      1.963      3.776
REMARK SMILES C[C@H]1[NH2+]CC[C@H]1C(=O)N1CC(C(=O)NCCCCCCNC(=O)c2ccc(-c3c4nc(c(-c5c(F)c(F)c(F)c(F)c5F)c5ccc([nH]5)c(-c5c(F)c(F)c(F)c(F)c5F)c5nc(c(-c6c(F)c(F)c(F)c(F)c6F)c6ccc3[nH]6)C=C5)C=C4)cc2)C1
REMARK SMILES IDX 18 1 17 2 16 3 15 4 14 5 12 6 13 7 11 9 7 10 8 11 9 12 10 13
REMARK SMILES IDX 87 14 6 15 1 16 2 17 3 18 4 19 5 22 19 23 20 24 21 25 22 26
REMARK SMILES IDX 23 28 24 29 25 30 86 31 26 32 85 33 27 34 28 35 29 36 79 37
REMARK SMILES IDX 30 38 84 39 78 40 80 41 31 42 83 43 77 44 76 45 32 47 64 48
REMARK SMILES IDX 44 49 63 50 45 51 48 52 62 53 81 54 46 55 47 56 61 58 82 59
REMARK SMILES IDX 49 60 33 61 34 62 42 63 35 64 36 65 40 66 43 67 37 68 38 69
REMARK SMILES IDX 41 70 39 71 65 72 66 73 74 74 67 75 68 76 72 77 75 78 69 79
REMARK SMILES IDX 70 80 73 81 71 82 50 83 51 84 59 85 52 86 53 87 57 88 60 89
REMARK SMILES IDX 54 90 55 91 58 92 56 93
REMARK H PARENT 14 8 3 20 3 21 21 27 80 46 48 57
REMARK Flexibility Score: inf
ROOT
ATOM      1  C   UNL A   1      31.711  30.770  26.383  1.00  0.00     0.002 C 
ENDROOT
BRANCH   1   2
ATOM      2  C   UNL A   1      33.021  30.159  26.892  1.00  0.00     0.002 C 
BRANCH   2   3
ATOM      3  C   UNL A   1      32.911  28.723  27.418  1.00  0.00     0.021 C 
BRANCH   3   4
ATOM      4  C   UNL A   1      31.516  28.111  27.308  1.00  0.00     0.116 C 
BRANCH   4   5
ATOM      5  N   UNL A   1      31.558  26.663  27.350  1.00  0.00    -0.356 N 
ATOM      6  C   UNL A   1      31.403  25.721  26.363  1.00  0.00     0.226 C 
ATOM      7  O   UNL A   1      31.488  24.541  26.733  1.00  0.00    -0.275 OA
ATOM      8  H   UNL A   1      31.727  26.288  28.245  1.00  0.00     0.163 HD
BRANCH   6   9
ATOM      9  C   UNL A   1      31.137  26.094  24.901  1.00  0.00     0.117 C 
ATOM     10  C   UNL A   1      30.185  28.291  22.650  1.00  0.00     0.231 C 
ATOM     11  O   UNL A   1      30.497  27.650  21.646  1.00  0.00    -0.274 OA
ATOM     12  N   UNL A   1      30.490  27.851  23.925  1.00  0.00    -0.341 N 
ATOM     13  C   UNL A   1      31.820  27.284  24.250  1.00  0.00     0.134 C 
ATOM     14  C   UNL A   1      29.796  26.686  24.516  1.00  0.00     0.134 C 
BRANCH  10  15
ATOM     15  C   UNL A   1      29.473  29.634  22.548  1.00  0.00     0.142 C 
ATOM     16  C   UNL A   1      27.116  28.666  23.134  1.00  0.00     0.076 C 
ATOM     17  C   UNL A   1      27.961  29.644  22.326  1.00  0.00     0.192 C 
ATOM     18  N   UNL A   1      27.570  31.025  22.669  1.00  0.00    -0.343 N 
ATOM     19  C   UNL A   1      28.562  31.583  23.588  1.00  0.00     0.261 C 
ATOM     20  H   UNL A   1      26.654  31.020  23.115  1.00  0.00     0.346 HD
ATOM     21  H   UNL A   1      27.525  31.591  21.822  1.00  0.00     0.346 HD
ATOM     22  C   UNL A   1      29.664  30.550  23.746  1.00  0.00     0.081 C 
ENDBRANCH  10  15
ENDBRANCH   6   9
ENDBRANCH   4   5
ENDBRANCH   3   4
ENDBRANCH   2   3
ENDBRANCH   1   2
BRANCH   1  23
ATOM     23  C   UNL A   1      31.505  32.246  26.728  1.00  0.00     0.021 C 
BRANCH  23  24
ATOM     24  C   UNL A   1      32.739  32.946  27.288  1.00  0.00     0.116 C 
BRANCH  24  25
ATOM     25  N   UNL A   1      32.462  34.318  27.685  1.00  0.00    -0.352 N 
ATOM     26  C   UNL A   1      33.018  35.055  28.700  1.00  0.00     0.251 C 
ATOM     27  H   UNL A   1      31.780  34.783  27.149  1.00  0.00     0.163 HD
ATOM     28  O   UNL A   1      32.535  36.139  29.016  1.00  0.00    -0.269 OA
BRANCH  26  29
ATOM     29  C   UNL A   1      34.189  34.530  29.431  1.00  0.00     0.039 A 
ATOM     30  C   UNL A   1      33.994  33.890  30.657  1.00  0.00     0.014 A 
ATOM     31  C   UNL A   1      35.478  34.669  28.907  1.00  0.00     0.014 A 
ATOM     32  C   UNL A   1      35.084  33.333  31.328  1.00  0.00     0.010 A 
ATOM     33  C   UNL A   1      36.550  34.045  29.536  1.00  0.00     0.010 A 
ATOM     34  C   UNL A   1      36.366  33.375  30.757  1.00  0.00    -0.014 A 
BRANCH  34  35
ATOM     35  C   UNL A   1      37.532  32.736  31.419  1.00  0.00     0.031 A 
ATOM     36  C   UNL A   1      38.237  31.588  30.751  1.00  0.00     0.074 A 
ATOM     37  C   UNL A   1      37.910  33.139  32.646  1.00  0.00     0.049 A 
ATOM     38  N   UNL A   1      39.208  30.835  31.203  1.00  0.00    -0.248 NA
ATOM     39  C   UNL A   1      37.769  31.218  29.406  1.00  0.00     0.031 C 
ATOM     40  C   UNL A   1      37.282  34.215  33.414  1.00  0.00     0.029 A 
ATOM     41  N   UNL A   1      38.904  32.680  33.474  1.00  0.00    -0.354 N 
ATOM     42  C   UNL A   1      39.453  29.897  30.209  1.00  0.00     0.074 A 
ATOM     43  C   UNL A   1      38.493  30.137  29.154  1.00  0.00     0.031 C 
ATOM     44  C   UNL A   1      37.916  34.346  34.590  1.00  0.00     0.029 A 
ATOM     45  C   UNL A   1      38.965  33.334  34.680  1.00  0.00     0.049 A 
ATOM     46  H   UNL A   1      39.517  31.950  33.226  1.00  0.00     0.167 HD
ATOM     47  C   UNL A   1      40.407  28.936  30.170  1.00  0.00     0.037 A 
ATOM     48  C   UNL A   1      39.764  33.129  35.745  1.00  0.00     0.037 A 
ATOM     49  C   UNL A   1      41.374  28.716  31.214  1.00  0.00     0.049 A 
ATOM     50  C   UNL A   1      40.803  32.040  35.686  1.00  0.00     0.074 A 
ATOM     51  C   UNL A   1      42.416  27.807  31.245  1.00  0.00     0.029 A 
ATOM     52  N   UNL A   1      41.412  29.410  32.415  1.00  0.00    -0.354 N 
ATOM     53  N   UNL A   1      41.067  31.202  34.714  1.00  0.00    -0.248 NA
ATOM     54  C   UNL A   1      41.657  31.875  36.869  1.00  0.00     0.031 C 
ATOM     55  C   UNL A   1      43.048  27.908  32.488  1.00  0.00     0.029 A 
ATOM     56  C   UNL A   1      42.444  28.929  33.205  1.00  0.00     0.049 A 
ATOM     57  H   UNL A   1      40.798  30.137  32.668  1.00  0.00     0.167 HD
ATOM     58  C   UNL A   1      42.140  30.436  35.152  1.00  0.00     0.074 A 
ATOM     59  C   UNL A   1      42.482  30.915  36.474  1.00  0.00     0.031 C 
ATOM     60  C   UNL A   1      42.784  29.427  34.515  1.00  0.00     0.037 A 
BRANCH  47  61
ATOM     61  C   UNL A   1      40.451  28.045  28.962  1.00  0.00     0.064 A 
ATOM     62  C   UNL A   1      39.728  26.843  28.902  1.00  0.00     0.173 A 
ATOM     63  C   UNL A   1      41.197  28.416  27.832  1.00  0.00     0.173 A 
ATOM     64  F   UNL A   1      39.008  26.434  29.958  1.00  0.00    -0.203 F 
ATOM     65  C   UNL A   1      39.778  26.033  27.771  1.00  0.00     0.198 A 
ATOM     66  C   UNL A   1      41.215  27.621  26.690  1.00  0.00     0.198 A 
ATOM     67  F   UNL A   1      41.902  29.558  27.832  1.00  0.00    -0.203 F 
ATOM     68  F   UNL A   1      39.122  24.863  27.759  1.00  0.00    -0.200 F 
ATOM     69  C   UNL A   1      40.511  26.426  26.663  1.00  0.00     0.200 A 
ATOM     70  F   UNL A   1      41.913  28.010  25.614  1.00  0.00    -0.200 F 
ATOM     71  F   UNL A   1      40.550  25.649  25.571  1.00  0.00    -0.200 F 
ENDBRANCH  47  61
BRANCH  48  72
ATOM     72  C   UNL A   1      39.624  33.983  36.956  1.00  0.00     0.064 A 
ATOM     73  C   UNL A   1      38.837  33.573  38.040  1.00  0.00     0.173 A 
ATOM     74  C   UNL A   1      40.267  35.226  37.051  1.00  0.00     0.173 A 
ATOM     75  F   UNL A   1      38.186  32.400  37.990  1.00  0.00    -0.203 F 
ATOM     76  C   UNL A   1      38.676  34.384  39.162  1.00  0.00     0.198 A 
ATOM     77  C   UNL A   1      40.131  36.022  38.186  1.00  0.00     0.198 A 
ATOM     78  F   UNL A   1      41.038  35.663  36.045  1.00  0.00    -0.203 F 
ATOM     79  F   UNL A   1      37.874  33.991  40.162  1.00  0.00    -0.200 F 
ATOM     80  C   UNL A   1      39.327  35.606  39.237  1.00  0.00     0.200 A 
ATOM     81  F   UNL A   1      40.777  37.193  38.261  1.00  0.00    -0.200 F 
ATOM     82  F   UNL A   1      39.175  36.385  40.316  1.00  0.00    -0.200 F 
ENDBRANCH  48  72
BRANCH  60  83
ATOM     83  C   UNL A   1      43.961  28.804  35.211  1.00  0.00     0.064 A 
ATOM     84  C   UNL A   1      43.816  27.718  36.085  1.00  0.00     0.173 A 
ATOM     85  C   UNL A   1      45.260  29.270  34.952  1.00  0.00     0.173 A 
ATOM     86  F   UNL A   1      42.595  27.244  36.377  1.00  0.00    -0.203 F 
ATOM     87  C   UNL A   1      44.925  27.137  36.693  1.00  0.00     0.198 A 
ATOM     88  C   UNL A   1      46.369  28.664  35.534  1.00  0.00     0.198 A 
ATOM     89  F   UNL A   1      45.455  30.302  34.116  1.00  0.00    -0.203 F 
ATOM     90  F   UNL A   1      44.759  26.130  37.562  1.00  0.00    -0.200 F 
ATOM     91  C   UNL A   1      46.200  27.602  36.410  1.00  0.00     0.200 A 
ATOM     92  F   UNL A   1      47.601  29.105  35.245  1.00  0.00    -0.200 F 
ATOM     93  F   UNL A   1      47.267  27.032  36.986  1.00  0.00    -0.200 F 
ENDBRANCH  60  83
ENDBRANCH  34  35
ENDBRANCH  26  29
ENDBRANCH  24  25
ENDBRANCH  23  24
ENDBRANCH   1  23
TORSDOF 14
ENDMDL
MODEL 3
REMARK VINA RESULT:     -11.9      0.515      7.497
REMARK SMILES C[C@H]1[NH2+]CC[C@H]1C(=O)N1CC(C(=O)NCCCCCCNC(=O)c2ccc(-c3c4nc(c(-c5c(F)c(F)c(F)c(F)c5F)c5ccc([nH]5)c(-c5c(F)c(F)c(F)c(F)c5F)c5nc(c(-c6c(F)c(F)c(F)c(F)c6F)c6ccc3[nH]6)C=C5)C=C4)cc2)C1
REMARK SMILES IDX 18 1 17 2 16 3 15 4 14 5 12 6 13 7 11 9 7 10 8 11 9 12 10 13
REMARK SMILES IDX 87 14 6 15 1 16 2 17 3 18 4 19 5 22 19 23 20 24 21 25 22 26
REMARK SMILES IDX 23 28 24 29 25 30 86 31 26 32 85 33 27 34 28 35 29 36 79 37
REMARK SMILES IDX 30 38 84 39 78 40 80 41 31 42 83 43 77 44 76 45 32 47 64 48
REMARK SMILES IDX 44 49 63 50 45 51 48 52 62 53 81 54 46 55 47 56 61 58 82 59
REMARK SMILES IDX 49 60 33 61 34 62 42 63 35 64 36 65 40 66 43 67 37 68 38 69
REMARK SMILES IDX 41 70 39 71 65 72 66 73 74 74 67 75 68 76 72 77 75 78 69 79
REMARK SMILES IDX 70 80 73 81 71 82 50 83 51 84 59 85 52 86 53 87 57 88 60 89
REMARK SMILES IDX 54 90 55 91 58 92 56 93
REMARK H PARENT 14 8 3 20 3 21 21 27 80 46 48 57
REMARK Flexibility Score: inf
ROOT
ATOM      1  C   UNL A   1      31.551  30.859  26.177  1.00  0.00     0.002 C 
ENDROOT
BRANCH   1   2
ATOM      2  C   UNL A   1      32.814  30.136  26.658  1.00  0.00     0.002 C 
BRANCH   2   3
ATOM      3  C   UNL A   1      32.644  28.638  26.936  1.00  0.00     0.021 C 
BRANCH   3   4
ATOM      4  C   UNL A   1      31.351  28.034  26.393  1.00  0.00     0.116 C 
BRANCH   4   5
ATOM      5  N   UNL A   1      31.117  26.702  26.916  1.00  0.00    -0.356 N 
ATOM      6  C   UNL A   1      31.554  25.471  26.493  1.00  0.00     0.226 C 
ATOM      7  O   UNL A   1      31.161  24.506  27.165  1.00  0.00    -0.275 OA
ATOM      8  H   UNL A   1      30.543  26.677  27.716  1.00  0.00     0.163 HD
BRANCH   6   9
ATOM      9  C   UNL A   1      32.459  25.292  25.271  1.00  0.00     0.117 C 
ATOM     10  C   UNL A   1      34.681  23.534  23.605  1.00  0.00     0.231 C 
ATOM     11  O   UNL A   1      34.670  24.192  22.564  1.00  0.00    -0.274 OA
ATOM     12  N   UNL A   1      33.801  23.789  24.642  1.00  0.00    -0.341 N 
ATOM     13  C   UNL A   1      32.366  24.058  24.391  1.00  0.00     0.134 C 
ATOM     14  C   UNL A   1      33.933  25.007  25.471  1.00  0.00     0.134 C 
BRANCH  10  15
ATOM     15  C   UNL A   1      35.641  22.368  23.801  1.00  0.00     0.142 C 
ATOM     16  C   UNL A   1      37.246  23.684  25.391  1.00  0.00     0.076 C 
ATOM     17  C   UNL A   1      37.064  22.665  24.272  1.00  0.00     0.192 C 
ATOM     18  N   UNL A   1      37.562  21.351  24.723  1.00  0.00    -0.343 N 
ATOM     19  C   UNL A   1      36.420  20.516  25.096  1.00  0.00     0.261 C 
ATOM     20  H   UNL A   1      38.173  21.475  25.529  1.00  0.00     0.346 HD
ATOM     21  H   UNL A   1      38.087  20.904  23.972  1.00  0.00     0.346 HD
ATOM     22  C   UNL A   1      35.161  21.301  24.771  1.00  0.00     0.081 C 
ENDBRANCH  10  15
ENDBRANCH   6   9
ENDBRANCH   4   5
ENDBRANCH   3   4
ENDBRANCH   2   3
ENDBRANCH   1   2
BRANCH   1  23
ATOM     23  C   UNL A   1      31.388  32.291  26.687  1.00  0.00     0.021 C 
BRANCH  23  24
ATOM     24  C   UNL A   1      32.684  32.961  27.128  1.00  0.00     0.116 C 
BRANCH  24  25
ATOM     25  N   UNL A   1      32.466  34.308  27.631  1.00  0.00    -0.352 N 
ATOM     26  C   UNL A   1      33.048  34.938  28.701  1.00  0.00     0.251 C 
ATOM     27  H   UNL A   1      31.807  34.844  27.132  1.00  0.00     0.163 HD
ATOM     28  O   UNL A   1      32.611  36.015  29.101  1.00  0.00    -0.269 OA
BRANCH  26  29
ATOM     29  C   UNL A   1      34.192  34.307  29.391  1.00  0.00     0.039 A 
ATOM     30  C   UNL A   1      33.948  33.465  30.479  1.00  0.00     0.014 A 
ATOM     31  C   UNL A   1      35.501  34.545  28.964  1.00  0.00     0.014 A 
ATOM     32  C   UNL A   1      35.015  32.811  31.099  1.00  0.00     0.010 A 
ATOM     33  C   UNL A   1      36.552  33.833  29.531  1.00  0.00     0.010 A 
ATOM     34  C   UNL A   1      36.322  32.962  30.609  1.00  0.00    -0.014 A 
BRANCH  34  35
ATOM     35  C   UNL A   1      37.466  32.229  31.210  1.00  0.00     0.031 A 
ATOM     36  C   UNL A   1      37.968  32.613  32.575  1.00  0.00     0.074 A 
ATOM     37  C   UNL A   1      38.095  31.273  30.502  1.00  0.00     0.049 A 
ATOM     38  N   UNL A   1      39.009  32.165  33.231  1.00  0.00    -0.248 NA
ATOM     39  C   UNL A   1      37.217  33.660  33.285  1.00  0.00     0.031 C 
ATOM     40  C   UNL A   1      37.727  30.837  29.155  1.00  0.00     0.029 A 
ATOM     41  N   UNL A   1      39.189  30.502  30.811  1.00  0.00    -0.354 N 
ATOM     42  C   UNL A   1      39.045  32.885  34.418  1.00  0.00     0.074 A 
ATOM     43  C   UNL A   1      37.958  33.838  34.368  1.00  0.00     0.031 C 
ATOM     44  C   UNL A   1      38.567  29.867  28.761  1.00  0.00     0.029 A 
ATOM     45  C   UNL A   1      39.560  29.643  29.806  1.00  0.00     0.049 A 
ATOM     46  H   UNL A   1      39.663  30.561  31.673  1.00  0.00     0.167 HD
ATOM     47  C   UNL A   1      39.895  32.749  35.463  1.00  0.00     0.037 A 
ATOM     48  C   UNL A   1      40.595  28.784  29.731  1.00  0.00     0.037 A 
ATOM     49  C   UNL A   1      40.962  31.783  35.516  1.00  0.00     0.049 A 
ATOM     50  C   UNL A   1      41.539  28.665  30.899  1.00  0.00     0.074 A 
ATOM     51  C   UNL A   1      41.841  31.527  36.552  1.00  0.00     0.029 A 
ATOM     52  N   UNL A   1      41.297  30.919  34.483  1.00  0.00    -0.354 N 
ATOM     53  N   UNL A   1      41.524  29.306  32.041  1.00  0.00    -0.248 NA
ATOM     54  C   UNL A   1      42.638  27.700  30.767  1.00  0.00     0.031 C 
ATOM     55  C   UNL A   1      42.747  30.551  36.126  1.00  0.00     0.029 A 
ATOM     56  C   UNL A   1      42.388  30.147  34.850  1.00  0.00     0.049 A 
ATOM     57  H   UNL A   1      40.829  30.862  33.619  1.00  0.00     0.167 HD
ATOM     58  C   UNL A   1      42.586  28.797  32.778  1.00  0.00     0.074 A 
ATOM     59  C   UNL A   1      43.218  27.788  31.956  1.00  0.00     0.031 C 
ATOM     60  C   UNL A   1      42.998  29.134  34.025  1.00  0.00     0.037 A 
BRANCH  47  61
ATOM     61  C   UNL A   1      39.711  33.668  36.637  1.00  0.00     0.064 A 
ATOM     62  C   UNL A   1      40.318  34.933  36.688  1.00  0.00     0.173 A 
ATOM     63  C   UNL A   1      38.885  33.295  37.709  1.00  0.00     0.173 A 
ATOM     64  F   UNL A   1      41.126  35.336  35.696  1.00  0.00    -0.203 F 
ATOM     65  C   UNL A   1      40.131  35.774  37.782  1.00  0.00     0.198 A 
ATOM     66  C   UNL A   1      38.673  34.153  38.784  1.00  0.00     0.198 A 
ATOM     67  F   UNL A   1      38.276  32.100  37.710  1.00  0.00    -0.203 F 
ATOM     68  F   UNL A   1      40.764  36.954  37.833  1.00  0.00    -0.200 F 
ATOM     69  C   UNL A   1      39.302  35.389  38.824  1.00  0.00     0.200 A 
ATOM     70  F   UNL A   1      37.859  33.785  39.783  1.00  0.00    -0.200 F 
ATOM     71  F   UNL A   1      39.115  36.203  39.872  1.00  0.00    -0.200 F 
ENDBRANCH  47  61
BRANCH  48  72
ATOM     72  C   UNL A   1      40.787  27.955  28.510  1.00  0.00     0.064 A 
ATOM     73  C   UNL A   1      40.219  26.678  28.408  1.00  0.00     0.173 A 
ATOM     74  C   UNL A   1      41.547  28.418  27.425  1.00  0.00     0.173 A 
ATOM     75  F   UNL A   1      39.499  26.183  29.426  1.00  0.00    -0.203 F 
ATOM     76  C   UNL A   1      40.424  25.885  27.281  1.00  0.00     0.198 A 
ATOM     77  C   UNL A   1      41.725  27.637  26.286  1.00  0.00     0.198 A 
ATOM     78  F   UNL A   1      42.107  29.636  27.468  1.00  0.00    -0.203 F 
ATOM     79  F   UNL A   1      39.914  24.646  27.233  1.00  0.00    -0.200 F 
ATOM     80  C   UNL A   1      41.173  26.367  26.218  1.00  0.00     0.200 A 
ATOM     81  F   UNL A   1      42.434  28.114  25.254  1.00  0.00    -0.200 F 
ATOM     82  F   UNL A   1      41.369  25.606  25.133  1.00  0.00    -0.200 F 
ENDBRANCH  48  72
BRANCH  60  83
ATOM     83  C   UNL A   1      44.156  28.372  34.604  1.00  0.00     0.064 A 
ATOM     84  C   UNL A   1      45.477  28.828  34.490  1.00  0.00     0.173 A 
ATOM     85  C   UNL A   1      43.930  27.193  35.334  1.00  0.00     0.173 A 
ATOM     86  F   UNL A   1      45.748  29.942  33.792  1.00  0.00    -0.203 F 
ATOM     87  C   UNL A   1      46.530  28.122  35.064  1.00  0.00     0.198 A 
ATOM     88  C   UNL A   1      44.981  26.509  35.935  1.00  0.00     0.198 A 
ATOM     89  F   UNL A   1      42.684  26.717  35.480  1.00  0.00    -0.203 F 
ATOM     90  F   UNL A   1      47.789  28.552  34.903  1.00  0.00    -0.200 F 
ATOM     91  C   UNL A   1      46.281  26.969  35.794  1.00  0.00     0.200 A 
ATOM     92  F   UNL A   1      44.736  25.404  36.655  1.00  0.00    -0.200 F 
ATOM     93  F   UNL A   1      47.295  26.298  36.357  1.00  0.00    -0.200 F 
ENDBRANCH  60  83
ENDBRANCH  34  35
ENDBRANCH  26  29
ENDBRANCH  24  25
ENDBRANCH  23  24
ENDBRANCH   1  23
TORSDOF 14
ENDMDL
