MODEL 1
REMARK VINA RESULT:     -12.7      0.000      0.000
REMARK SMILES O=C(NCCCCCCNC(=O)[C@@H](Cc1c(F)cccc1Cl)c1ccc(Cl)cc1)c1ccc(-c2c3nc(c(-c4c(F)c(F)c(F)c(F)c4F)c4ccc([nH]4)c(-c4c(F)c(F)c(F)c(F)c4F)c4nc(c(-c5c(F)c(F)c(F)c(F)c5F)c5ccc2[nH]5)C=C4)C=C3)cc1
REMARK SMILES IDX 6 1 5 2 4 3 3 4 1 5 2 6 30 8 31 9 92 10 32 11 91 12 33 13
REMARK SMILES IDX 34 14 35 15 85 16 36 17 90 18 84 19 86 20 37 21 89 22 83 23
REMARK SMILES IDX 82 24 38 26 70 27 50 28 69 29 51 30 54 31 68 32 87 33 52 34
REMARK SMILES IDX 53 35 67 37 88 38 55 39 39 40 40 41 48 42 41 43 42 44 46 45
REMARK SMILES IDX 49 46 43 47 44 48 47 49 45 50 71 51 72 52 80 53 73 54 74 55
REMARK SMILES IDX 78 56 81 57 75 58 76 59 79 60 77 61 56 62 57 63 65 64 58 65
REMARK SMILES IDX 59 66 63 67 66 68 60 69 61 70 64 71 62 72 7 73 8 74 9 75
REMARK SMILES IDX 10 76 11 77 12 79 13 80 14 81 15 82 16 83 21 84 17 85 18 86
REMARK SMILES IDX 20 87 22 88 19 89 23 90 24 91 29 92 25 93 28 94 26 95 27 96
REMARK H PARENT 3 7 86 25 54 36 10 78
REMARK Flexibility Score: inf
ROOT
ATOM      1  C   UNL A   1      31.322  31.026  26.131  1.00  0.00     0.002 C 
ENDROOT
BRANCH   1   2
ATOM      2  C   UNL A   1      31.374  32.525  26.450  1.00  0.00     0.021 C 
BRANCH   2   3
ATOM      3  C   UNL A   1      32.580  32.968  27.274  1.00  0.00     0.116 C 
BRANCH   3   4
ATOM      4  N   UNL A   1      32.474  34.355  27.688  1.00  0.00    -0.352 N 
ATOM      5  O   UNL A   1      32.685  36.132  29.052  1.00  0.00    -0.269 OA
ATOM      6  C   UNL A   1      33.084  35.020  28.721  1.00  0.00     0.251 C 
ATOM      7  H   UNL A   1      31.867  34.906  27.140  1.00  0.00     0.163 HD
BRANCH   6   8
ATOM      8  C   UNL A   1      34.221  34.409  29.444  1.00  0.00     0.039 A 
ATOM      9  C   UNL A   1      34.025  33.694  30.629  1.00  0.00     0.014 A 
ATOM     10  C   UNL A   1      35.497  34.483  28.876  1.00  0.00     0.014 A 
ATOM     11  C   UNL A   1      35.115  33.138  31.294  1.00  0.00     0.010 A 
ATOM     12  C   UNL A   1      36.579  33.867  29.509  1.00  0.00     0.010 A 
ATOM     13  C   UNL A   1      36.400  33.202  30.731  1.00  0.00    -0.014 A 
BRANCH  13  14
ATOM     14  C   UNL A   1      37.528  32.497  31.387  1.00  0.00     0.031 A 
ATOM     15  C   UNL A   1      38.214  31.340  30.721  1.00  0.00     0.074 A 
ATOM     16  C   UNL A   1      37.922  32.902  32.609  1.00  0.00     0.049 A 
ATOM     17  N   UNL A   1      39.208  30.607  31.158  1.00  0.00    -0.248 NA
ATOM     18  C   UNL A   1      37.714  30.946  29.396  1.00  0.00     0.031 C 
ATOM     19  C   UNL A   1      37.308  33.993  33.370  1.00  0.00     0.029 A 
ATOM     20  N   UNL A   1      38.924  32.447  33.429  1.00  0.00    -0.354 N 
ATOM     21  C   UNL A   1      39.444  29.659  30.172  1.00  0.00     0.074 A 
ATOM     22  C   UNL A   1      38.470  29.891  29.125  1.00  0.00     0.031 C 
ATOM     23  C   UNL A   1      37.956  34.135  34.535  1.00  0.00     0.029 A 
ATOM     24  C   UNL A   1      38.997  33.116  34.626  1.00  0.00     0.049 A 
ATOM     25  H   UNL A   1      39.530  31.712  33.182  1.00  0.00     0.167 HD
ATOM     26  C   UNL A   1      40.390  28.689  30.143  1.00  0.00     0.037 A 
ATOM     27  C   UNL A   1      39.799  32.919  35.689  1.00  0.00     0.037 A 
ATOM     28  C   UNL A   1      41.361  28.470  31.186  1.00  0.00     0.049 A 
ATOM     29  C   UNL A   1      40.833  31.832  35.636  1.00  0.00     0.074 A 
ATOM     30  C   UNL A   1      42.400  27.556  31.220  1.00  0.00     0.029 A 
ATOM     31  N   UNL A   1      41.404  29.166  32.385  1.00  0.00    -0.354 N 
ATOM     32  N   UNL A   1      41.089  30.984  34.669  1.00  0.00    -0.248 NA
ATOM     33  C   UNL A   1      41.690  31.674  36.818  1.00  0.00     0.031 C 
ATOM     34  C   UNL A   1      43.040  27.664  32.460  1.00  0.00     0.029 A 
ATOM     35  C   UNL A   1      42.432  28.680  33.179  1.00  0.00     0.049 A 
ATOM     36  H   UNL A   1      40.794  29.897  32.637  1.00  0.00     0.167 HD
ATOM     37  C   UNL A   1      42.142  30.201  35.119  1.00  0.00     0.074 A 
ATOM     38  C   UNL A   1      42.490  30.687  36.438  1.00  0.00     0.031 C 
ATOM     39  C   UNL A   1      42.761  29.169  34.494  1.00  0.00     0.037 A 
BRANCH  26  40
ATOM     40  C   UNL A   1      40.413  27.776  28.951  1.00  0.00     0.064 A 
ATOM     41  C   UNL A   1      41.202  28.054  27.825  1.00  0.00     0.173 A 
ATOM     42  C   UNL A   1      39.666  26.588  28.953  1.00  0.00     0.173 A 
ATOM     43  F   UNL A   1      41.928  29.181  27.769  1.00  0.00    -0.203 F 
ATOM     44  C   UNL A   1      41.218  27.191  26.732  1.00  0.00     0.198 A 
ATOM     45  C   UNL A   1      39.705  25.715  27.869  1.00  0.00     0.198 A 
ATOM     46  F   UNL A   1      38.901  26.271  30.008  1.00  0.00    -0.203 F 
ATOM     47  F   UNL A   1      41.942  27.499  25.647  1.00  0.00    -0.200 F 
ATOM     48  C   UNL A   1      40.475  26.020  26.756  1.00  0.00     0.200 A 
ATOM     49  F   UNL A   1      38.996  24.578  27.900  1.00  0.00    -0.200 F 
ATOM     50  F   UNL A   1      40.494  25.189  25.705  1.00  0.00    -0.200 F 
ENDBRANCH  26  40
BRANCH  27  51
ATOM     51  C   UNL A   1      39.640  33.777  36.889  1.00  0.00     0.064 A 
ATOM     52  C   UNL A   1      40.272  35.024  36.977  1.00  0.00     0.173 A 
ATOM     53  C   UNL A   1      38.820  33.382  37.958  1.00  0.00     0.173 A 
ATOM     54  F   UNL A   1      41.079  35.437  35.987  1.00  0.00    -0.203 F 
ATOM     55  C   UNL A   1      40.096  35.841  38.091  1.00  0.00     0.198 A 
ATOM     56  C   UNL A   1      38.624  34.211  39.058  1.00  0.00     0.198 A 
ATOM     57  F   UNL A   1      38.188  32.200  37.916  1.00  0.00    -0.203 F 
ATOM     58  F   UNL A   1      40.735  37.017  38.164  1.00  0.00    -0.200 F 
ATOM     59  C   UNL A   1      39.265  35.438  39.126  1.00  0.00     0.200 A 
ATOM     60  F   UNL A   1      37.806  33.825  40.048  1.00  0.00    -0.200 F 
ATOM     61  F   UNL A   1      39.085  36.232  40.191  1.00  0.00    -0.200 F 
ENDBRANCH  27  51
BRANCH  39  62
ATOM     62  C   UNL A   1      43.891  28.506  35.227  1.00  0.00     0.064 A 
ATOM     63  C   UNL A   1      45.218  28.932  35.068  1.00  0.00     0.173 A 
ATOM     64  C   UNL A   1      43.638  27.456  36.122  1.00  0.00     0.173 A 
ATOM     65  F   UNL A   1      45.512  29.920  34.210  1.00  0.00    -0.203 F 
ATOM     66  C   UNL A   1      46.254  28.318  35.767  1.00  0.00     0.198 A 
ATOM     67  C   UNL A   1      44.673  26.861  36.838  1.00  0.00     0.198 A 
ATOM     68  F   UNL A   1      42.386  27.013  36.310  1.00  0.00    -0.203 F 
ATOM     69  F   UNL A   1      47.519  28.712  35.569  1.00  0.00    -0.200 F 
ATOM     70  C   UNL A   1      45.980  27.288  36.656  1.00  0.00     0.200 A 
ATOM     71  F   UNL A   1      44.406  25.875  37.705  1.00  0.00    -0.200 F 
ATOM     72  F   UNL A   1      46.977  26.702  37.331  1.00  0.00    -0.200 F 
ENDBRANCH  39  62
ENDBRANCH  13  14
ENDBRANCH   6   8
ENDBRANCH   3   4
ENDBRANCH   2   3
ENDBRANCH   1   2
BRANCH   1  73
ATOM     73  C   UNL A   1      32.578  30.223  26.493  1.00  0.00     0.002 C 
BRANCH  73  74
ATOM     74  C   UNL A   1      32.319  28.963  27.319  1.00  0.00     0.021 C 
BRANCH  74  75
ATOM     75  C   UNL A   1      32.432  27.660  26.529  1.00  0.00     0.116 C 
BRANCH  75  76
ATOM     76  N   UNL A   1      31.307  26.796  26.812  1.00  0.00    -0.356 N 
ATOM     77  C   UNL A   1      30.446  26.158  25.979  1.00  0.00     0.227 C 
ATOM     78  H   UNL A   1      31.137  26.646  27.771  1.00  0.00     0.163 HD
ATOM     79  O   UNL A   1      29.574  25.466  26.520  1.00  0.00    -0.274 OA
BRANCH  77  80
ATOM     80  C   UNL A   1      30.506  26.265  24.448  1.00  0.00     0.113 C 
BRANCH  80  81
ATOM     81  C   UNL A   1      30.432  24.873  23.746  1.00  0.00     0.058 C 
BRANCH  81  82
ATOM     82  C   UNL A   1      31.463  23.758  23.868  1.00  0.00     0.008 A 
ATOM     83  C   UNL A   1      31.303  22.675  24.746  1.00  0.00     0.127 A 
ATOM     84  C   UNL A   1      32.568  23.668  22.992  1.00  0.00     0.047 A 
ATOM     85  F   UNL A   1      30.281  22.624  25.600  1.00  0.00    -0.207 F 
ATOM     86  C   UNL A   1      32.191  21.596  24.802  1.00  0.00     0.039 A 
ATOM     87  C   UNL A   1      33.464  22.583  23.040  1.00  0.00     0.021 A 
ATOM     88  Cl  UNL A   1      32.909  24.866  21.790  1.00  0.00    -0.084 Cl
ATOM     89  C   UNL A   1      33.279  21.547  23.948  1.00  0.00     0.005 A 
ENDBRANCH  81  82
ENDBRANCH  80  81
BRANCH  80  90
ATOM     90  C   UNL A   1      29.841  27.479  23.805  1.00  0.00    -0.035 A 
ATOM     91  C   UNL A   1      28.467  27.439  23.497  1.00  0.00     0.006 A 
ATOM     92  C   UNL A   1      30.556  28.633  23.442  1.00  0.00     0.006 A 
ATOM     93  C   UNL A   1      27.807  28.558  22.981  1.00  0.00     0.021 A 
ATOM     94  C   UNL A   1      29.900  29.750  22.914  1.00  0.00     0.021 A 
ATOM     95  C   UNL A   1      28.525  29.716  22.711  1.00  0.00     0.041 A 
ATOM     96  Cl  UNL A   1      27.709  31.114  22.128  1.00  0.00    -0.084 Cl
ENDBRANCH  80  90
ENDBRANCH  77  80
ENDBRANCH  75  76
ENDBRANCH  74  75
ENDBRANCH  73  74
ENDBRANCH   1  73
TORSDOF 16
ENDMDL
MODEL 2
REMARK VINA RESULT:     -12.7      3.724      7.782
REMARK SMILES O=C(NCCCCCCNC(=O)[C@@H](Cc1c(F)cccc1Cl)c1ccc(Cl)cc1)c1ccc(-c2c3nc(c(-c4c(F)c(F)c(F)c(F)c4F)c4ccc([nH]4)c(-c4c(F)c(F)c(F)c(F)c4F)c4nc(c(-c5c(F)c(F)c(F)c(F)c5F)c5ccc2[nH]5)C=C4)C=C3)cc1
REMARK SMILES IDX 6 1 5 2 4 3 3 4 1 5 2 6 30 8 31 9 92 10 32 11 91 12 33 13
REMARK SMILES IDX 34 14 35 15 85 16 36 17 90 18 84 19 86 20 37 21 89 22 83 23
REMARK SMILES IDX 82 24 38 26 70 27 50 28 69 29 51 30 54 31 68 32 87 33 52 34
REMARK SMILES IDX 53 35 67 37 88 38 55 39 39 40 40 41 48 42 41 43 42 44 46 45
REMARK SMILES IDX 49 46 43 47 44 48 47 49 45 50 71 51 72 52 80 53 73 54 74 55
REMARK SMILES IDX 78 56 81 57 75 58 76 59 79 60 77 61 56 62 57 63 65 64 58 65
REMARK SMILES IDX 59 66 63 67 66 68 60 69 61 70 64 71 62 72 7 73 8 74 9 75
REMARK SMILES IDX 10 76 11 77 12 79 13 80 14 81 15 82 16 83 21 84 17 85 18 86
REMARK SMILES IDX 20 87 22 88 19 89 23 90 24 91 29 92 25 93 28 94 26 95 27 96
REMARK H PARENT 3 7 86 25 54 36 10 78
REMARK Flexibility Score: inf
ROOT
ATOM      1  C   UNL A   1      34.390  23.441  24.465  1.00  0.00     0.002 C 
ENDROOT
BRANCH   1   2
ATOM      2  C   UNL A   1      35.901  23.698  24.469  1.00  0.00     0.021 C 
BRANCH   2   3
ATOM      3  C   UNL A   1      36.549  23.722  25.851  1.00  0.00     0.116 C 
BRANCH   3   4
ATOM      4  N   UNL A   1      37.694  22.834  25.928  1.00  0.00    -0.352 N 
ATOM      5  O   UNL A   1      39.865  22.263  26.082  1.00  0.00    -0.269 OA
ATOM      6  C   UNL A   1      38.987  23.090  26.310  1.00  0.00     0.251 C 
ATOM      7  H   UNL A   1      37.516  21.902  25.664  1.00  0.00     0.163 HD
BRANCH   6   8
ATOM      8  C   UNL A   1      39.336  24.353  26.994  1.00  0.00     0.039 A 
ATOM      9  C   UNL A   1      39.027  24.555  28.342  1.00  0.00     0.014 A 
ATOM     10  C   UNL A   1      40.062  25.320  26.292  1.00  0.00     0.014 A 
ATOM     11  C   UNL A   1      39.358  25.759  28.959  1.00  0.00     0.010 A 
ATOM     12  C   UNL A   1      40.452  26.500  26.931  1.00  0.00     0.010 A 
ATOM     13  C   UNL A   1      40.091  26.735  28.265  1.00  0.00    -0.014 A 
BRANCH  13  14
ATOM     14  C   UNL A   1      40.545  27.958  28.973  1.00  0.00     0.031 A 
ATOM     15  C   UNL A   1      41.952  28.085  29.480  1.00  0.00     0.074 A 
ATOM     16  C   UNL A   1      39.664  28.957  29.172  1.00  0.00     0.049 A 
ATOM     17  N   UNL A   1      42.509  29.078  30.127  1.00  0.00    -0.248 NA
ATOM     18  C   UNL A   1      42.848  26.945  29.241  1.00  0.00     0.031 C 
ATOM     19  C   UNL A   1      38.260  28.932  28.754  1.00  0.00     0.029 A 
ATOM     20  N   UNL A   1      39.810  30.180  29.775  1.00  0.00    -0.354 N 
ATOM     21  C   UNL A   1      43.814  28.680  30.384  1.00  0.00     0.074 A 
ATOM     22  C   UNL A   1      43.958  27.343  29.848  1.00  0.00     0.031 C 
ATOM     23  C   UNL A   1      37.679  30.091  29.096  1.00  0.00     0.029 A 
ATOM     24  C   UNL A   1      38.653  30.919  29.800  1.00  0.00     0.049 A 
ATOM     25  H   UNL A   1      40.662  30.496  30.153  1.00  0.00     0.167 HD
ATOM     26  C   UNL A   1      44.800  29.372  31.005  1.00  0.00     0.037 A 
ATOM     27  C   UNL A   1      38.397  32.122  30.347  1.00  0.00     0.037 A 
ATOM     28  C   UNL A   1      44.651  30.706  31.528  1.00  0.00     0.049 A 
ATOM     29  C   UNL A   1      39.504  32.864  31.038  1.00  0.00     0.074 A 
ATOM     30  C   UNL A   1      45.608  31.516  32.116  1.00  0.00     0.029 A 
ATOM     31  N   UNL A   1      43.464  31.425  31.537  1.00  0.00    -0.354 N 
ATOM     32  N   UNL A   1      40.752  32.504  31.216  1.00  0.00    -0.248 NA
ATOM     33  C   UNL A   1      39.170  34.178  31.602  1.00  0.00     0.031 C 
ATOM     34  C   UNL A   1      44.989  32.702  32.526  1.00  0.00     0.029 A 
ATOM     35  C   UNL A   1      43.657  32.654  32.149  1.00  0.00     0.049 A 
ATOM     36  H   UNL A   1      42.609  31.108  31.165  1.00  0.00     0.167 HD
ATOM     37  C   UNL A   1      41.355  33.549  31.901  1.00  0.00     0.074 A 
ATOM     38  C   UNL A   1      40.341  34.566  32.088  1.00  0.00     0.031 C 
ATOM     39  C   UNL A   1      42.635  33.653  32.336  1.00  0.00     0.037 A 
BRANCH  26  40
ATOM     40  C   UNL A   1      46.128  28.692  31.169  1.00  0.00     0.064 A 
ATOM     41  C   UNL A   1      47.135  28.794  30.197  1.00  0.00     0.173 A 
ATOM     42  C   UNL A   1      46.412  27.960  32.333  1.00  0.00     0.173 A 
ATOM     43  F   UNL A   1      46.911  29.473  29.062  1.00  0.00    -0.203 F 
ATOM     44  C   UNL A   1      48.365  28.163  30.371  1.00  0.00     0.198 A 
ATOM     45  C   UNL A   1      47.652  27.354  32.514  1.00  0.00     0.198 A 
ATOM     46  F   UNL A   1      45.488  27.838  33.297  1.00  0.00    -0.203 F 
ATOM     47  F   UNL A   1      49.294  28.234  29.408  1.00  0.00    -0.200 F 
ATOM     48  C   UNL A   1      48.625  27.449  31.531  1.00  0.00     0.200 A 
ATOM     49  F   UNL A   1      47.906  26.674  33.642  1.00  0.00    -0.200 F 
ATOM     50  F   UNL A   1      49.809  26.845  31.698  1.00  0.00    -0.200 F 
ENDBRANCH  26  40
BRANCH  27  51
ATOM     51  C   UNL A   1      37.026  32.684  30.259  1.00  0.00     0.064 A 
ATOM     52  C   UNL A   1      36.094  32.484  31.284  1.00  0.00     0.173 A 
ATOM     53  C   UNL A   1      36.635  33.467  29.162  1.00  0.00     0.173 A 
ATOM     54  F   UNL A   1      36.417  31.727  32.345  1.00  0.00    -0.203 F 
ATOM     55  C   UNL A   1      34.818  33.039  31.213  1.00  0.00     0.198 A 
ATOM     56  C   UNL A   1      35.370  34.044  29.105  1.00  0.00     0.198 A 
ATOM     57  F   UNL A   1      37.496  33.694  28.159  1.00  0.00    -0.203 F 
ATOM     58  F   UNL A   1      33.934  32.808  32.194  1.00  0.00    -0.200 F 
ATOM     59  C   UNL A   1      34.461  33.826  30.128  1.00  0.00     0.200 A 
ATOM     60  F   UNL A   1      35.035  34.819  28.064  1.00  0.00    -0.200 F 
ATOM     61  F   UNL A   1      33.238  34.373  30.068  1.00  0.00    -0.200 F 
ENDBRANCH  27  51
BRANCH  39  62
ATOM     62  C   UNL A   1      43.014  34.919  33.047  1.00  0.00     0.064 A 
ATOM     63  C   UNL A   1      43.451  36.052  32.344  1.00  0.00     0.173 A 
ATOM     64  C   UNL A   1      42.905  35.011  34.442  1.00  0.00     0.173 A 
ATOM     65  F   UNL A   1      43.589  36.007  31.010  1.00  0.00    -0.203 F 
ATOM     66  C   UNL A   1      43.784  37.225  33.016  1.00  0.00     0.198 A 
ATOM     67  C   UNL A   1      43.214  36.194  35.108  1.00  0.00     0.198 A 
ATOM     68  F   UNL A   1      42.490  33.956  35.159  1.00  0.00    -0.203 F 
ATOM     69  F   UNL A   1      44.240  38.281  32.329  1.00  0.00    -0.200 F 
ATOM     70  C   UNL A   1      43.658  37.297  34.395  1.00  0.00     0.200 A 
ATOM     71  F   UNL A   1      43.081  36.266  36.440  1.00  0.00    -0.200 F 
ATOM     72  F   UNL A   1      43.974  38.429  35.039  1.00  0.00    -0.200 F 
ENDBRANCH  39  62
ENDBRANCH  13  14
ENDBRANCH   6   8
ENDBRANCH   3   4
ENDBRANCH   2   3
ENDBRANCH   1   2
BRANCH   1  73
ATOM     73  C   UNL A   1      33.939  22.107  25.074  1.00  0.00     0.002 C 
BRANCH  73  74
ATOM     74  C   UNL A   1      32.656  22.180  25.903  1.00  0.00     0.021 C 
BRANCH  74  75
ATOM     75  C   UNL A   1      32.623  23.332  26.907  1.00  0.00     0.116 C 
BRANCH  75  76
ATOM     76  N   UNL A   1      31.309  23.934  26.945  1.00  0.00    -0.356 N 
ATOM     77  C   UNL A   1      30.822  25.043  26.331  1.00  0.00     0.227 C 
ATOM     78  H   UNL A   1      30.658  23.461  27.513  1.00  0.00     0.163 HD
ATOM     79  O   UNL A   1      29.634  25.309  26.548  1.00  0.00    -0.274 OA
BRANCH  77  80
ATOM     80  C   UNL A   1      31.662  25.948  25.418  1.00  0.00     0.113 C 
BRANCH  80  81
ATOM     81  C   UNL A   1      31.096  26.025  23.966  1.00  0.00     0.058 C 
BRANCH  81  82
ATOM     82  C   UNL A   1      30.340  27.203  23.366  1.00  0.00     0.008 A 
ATOM     83  C   UNL A   1      28.948  27.344  23.481  1.00  0.00     0.127 A 
ATOM     84  C   UNL A   1      31.013  28.304  22.791  1.00  0.00     0.047 A 
ATOM     85  F   UNL A   1      28.201  26.389  24.035  1.00  0.00    -0.207 F 
ATOM     86  C   UNL A   1      28.250  28.464  23.020  1.00  0.00     0.039 A 
ATOM     87  C   UNL A   1      30.318  29.438  22.329  1.00  0.00     0.021 A 
ATOM     88  Cl  UNL A   1      32.735  28.361  22.616  1.00  0.00    -0.084 Cl
ATOM     89  C   UNL A   1      28.935  29.518  22.438  1.00  0.00     0.005 A 
ENDBRANCH  81  82
ENDBRANCH  80  81
BRANCH  80  90
ATOM     90  C   UNL A   1      32.305  27.178  26.053  1.00  0.00    -0.035 A 
ATOM     91  C   UNL A   1      33.707  27.309  26.055  1.00  0.00     0.006 A 
ATOM     92  C   UNL A   1      31.558  28.176  26.703  1.00  0.00     0.006 A 
ATOM     93  C   UNL A   1      34.328  28.456  26.556  1.00  0.00     0.021 A 
ATOM     94  C   UNL A   1      32.178  29.320  27.217  1.00  0.00     0.021 A 
ATOM     95  C   UNL A   1      33.557  29.466  27.117  1.00  0.00     0.041 A 
ATOM     96  Cl  UNL A   1      34.310  30.904  27.686  1.00  0.00    -0.084 Cl
ENDBRANCH  80  90
ENDBRANCH  77  80
ENDBRANCH  75  76
ENDBRANCH  74  75
ENDBRANCH  73  74
ENDBRANCH   1  73
TORSDOF 16
ENDMDL
MODEL 3
REMARK VINA RESULT:     -12.6      4.263      9.145
REMARK SMILES O=C(NCCCCCCNC(=O)[C@@H](Cc1c(F)cccc1Cl)c1ccc(Cl)cc1)c1ccc(-c2c3nc(c(-c4c(F)c(F)c(F)c(F)c4F)c4ccc([nH]4)c(-c4c(F)c(F)c(F)c(F)c4F)c4nc(c(-c5c(F)c(F)c(F)c(F)c5F)c5ccc2[nH]5)C=C4)C=C3)cc1
REMARK SMILES IDX 6 1 5 2 4 3 3 4 1 5 2 6 30 8 31 9 92 10 32 11 91 12 33 13
REMARK SMILES IDX 34 14 35 15 85 16 36 17 90 18 84 19 86 20 37 21 89 22 83 23
REMARK SMILES IDX 82 24 38 26 70 27 50 28 69 29 51 30 54 31 68 32 87 33 52 34
REMARK SMILES IDX 53 35 67 37 88 38 55 39 39 40 40 41 48 42 41 43 42 44 46 45
REMARK SMILES IDX 49 46 43 47 44 48 47 49 45 50 71 51 72 52 80 53 73 54 74 55
REMARK SMILES IDX 78 56 81 57 75 58 76 59 79 60 77 61 56 62 57 63 65 64 58 65
REMARK SMILES IDX 59 66 63 67 66 68 60 69 61 70 64 71 62 72 7 73 8 74 9 75
REMARK SMILES IDX 10 76 11 77 12 79 13 80 14 81 15 82 16 83 21 84 17 85 18 86
REMARK SMILES IDX 20 87 22 88 19 89 23 90 24 91 29 92 25 93 28 94 26 95 27 96
REMARK H PARENT 3 7 86 25 54 36 10 78
REMARK Flexibility Score: inf
ROOT
ATOM      1  C   UNL A   1      32.471  27.813  25.053  1.00  0.00     0.002 C 
ENDROOT
BRANCH   1   2
ATOM      2  C   UNL A   1      32.539  27.748  26.583  1.00  0.00     0.021 C 
BRANCH   2   3
ATOM      3  C   UNL A   1      33.841  28.261  27.194  1.00  0.00     0.116 C 
BRANCH   3   4
ATOM      4  N   UNL A   1      33.766  29.673  27.522  1.00  0.00    -0.352 N 
ATOM      5  O   UNL A   1      34.325  31.591  28.556  1.00  0.00    -0.269 OA
ATOM      6  C   UNL A   1      34.670  30.481  28.164  1.00  0.00     0.251 C 
ATOM      7  H   UNL A   1      32.935  30.121  27.240  1.00  0.00     0.163 HD
BRANCH   6   8
ATOM      8  C   UNL A   1      36.060  30.029  28.389  1.00  0.00     0.039 A 
ATOM      9  C   UNL A   1      37.031  30.150  27.390  1.00  0.00     0.014 A 
ATOM     10  C   UNL A   1      36.415  29.551  29.654  1.00  0.00     0.014 A 
ATOM     11  C   UNL A   1      38.329  29.706  27.625  1.00  0.00     0.010 A 
ATOM     12  C   UNL A   1      37.735  29.169  29.910  1.00  0.00     0.010 A 
ATOM     13  C   UNL A   1      38.699  29.229  28.894  1.00  0.00    -0.014 A 
BRANCH  13  14
ATOM     14  C   UNL A   1      40.115  28.878  29.165  1.00  0.00     0.031 A 
ATOM     15  C   UNL A   1      41.026  29.829  29.886  1.00  0.00     0.074 A 
ATOM     16  C   UNL A   1      40.582  27.690  28.738  1.00  0.00     0.049 A 
ATOM     17  N   UNL A   1      42.291  29.685  30.196  1.00  0.00    -0.248 NA
ATOM     18  C   UNL A   1      40.448  31.114  30.304  1.00  0.00     0.031 C 
ATOM     19  C   UNL A   1      39.799  26.699  27.997  1.00  0.00     0.029 A 
ATOM     20  N   UNL A   1      41.821  27.113  28.858  1.00  0.00    -0.354 N 
ATOM     21  C   UNL A   1      42.664  30.862  30.831  1.00  0.00     0.074 A 
ATOM     22  C   UNL A   1      41.498  31.722  30.838  1.00  0.00     0.031 C 
ATOM     23  C   UNL A   1      40.568  25.631  27.744  1.00  0.00     0.029 A 
ATOM     24  C   UNL A   1      41.911  25.881  28.260  1.00  0.00     0.049 A 
ATOM     25  H   UNL A   1      42.572  27.543  29.326  1.00  0.00     0.167 HD
ATOM     26  C   UNL A   1      43.866  31.188  31.364  1.00  0.00     0.037 A 
ATOM     27  C   UNL A   1      42.961  25.051  28.122  1.00  0.00     0.037 A 
ATOM     28  C   UNL A   1      45.018  30.323  31.360  1.00  0.00     0.049 A 
ATOM     29  C   UNL A   1      44.285  25.440  28.713  1.00  0.00     0.074 A 
ATOM     30  C   UNL A   1      46.261  30.538  31.931  1.00  0.00     0.029 A 
ATOM     31  N   UNL A   1      45.073  29.081  30.744  1.00  0.00    -0.354 N 
ATOM     32  N   UNL A   1      44.607  26.528  29.370  1.00  0.00    -0.248 NA
ATOM     33  C   UNL A   1      45.391  24.489  28.546  1.00  0.00     0.031 C 
ATOM     34  C   UNL A   1      47.083  29.449  31.616  1.00  0.00     0.029 A 
ATOM     35  C   UNL A   1      46.338  28.532  30.893  1.00  0.00     0.049 A 
ATOM     36  H   UNL A   1      44.324  28.652  30.269  1.00  0.00     0.167 HD
ATOM     37  C   UNL A   1      45.946  26.388  29.705  1.00  0.00     0.074 A 
ATOM     38  C   UNL A   1      46.371  25.101  29.196  1.00  0.00     0.031 C 
ATOM     39  C   UNL A   1      46.749  27.252  30.374  1.00  0.00     0.037 A 
BRANCH  26  40
ATOM     40  C   UNL A   1      44.004  32.549  31.983  1.00  0.00     0.064 A 
ATOM     41  C   UNL A   1      43.726  32.773  33.339  1.00  0.00     0.173 A 
ATOM     42  C   UNL A   1      44.459  33.634  31.218  1.00  0.00     0.173 A 
ATOM     43  F   UNL A   1      43.280  31.772  34.113  1.00  0.00    -0.203 F 
ATOM     44  C   UNL A   1      43.869  34.041  33.900  1.00  0.00     0.198 A 
ATOM     45  C   UNL A   1      44.626  34.893  31.788  1.00  0.00     0.198 A 
ATOM     46  F   UNL A   1      44.747  33.472  29.919  1.00  0.00    -0.203 F 
ATOM     47  F   UNL A   1      43.552  34.243  35.186  1.00  0.00    -0.200 F 
ATOM     48  C   UNL A   1      44.324  35.099  33.126  1.00  0.00     0.200 A 
ATOM     49  F   UNL A   1      45.078  35.911  31.041  1.00  0.00    -0.200 F 
ATOM     50  F   UNL A   1      44.464  36.316  33.666  1.00  0.00    -0.200 F 
ENDBRANCH  26  40
BRANCH  27  51
ATOM     51  C   UNL A   1      42.788  23.773  27.387  1.00  0.00     0.064 A 
ATOM     52  C   UNL A   1      43.170  23.652  26.045  1.00  0.00     0.173 A 
ATOM     53  C   UNL A   1      42.271  22.635  28.026  1.00  0.00     0.173 A 
ATOM     54  F   UNL A   1      43.652  24.718  25.388  1.00  0.00    -0.203 F 
ATOM     55  C   UNL A   1      43.035  22.443  25.366  1.00  0.00     0.198 A 
ATOM     56  C   UNL A   1      42.163  21.421  27.355  1.00  0.00     0.198 A 
ATOM     57  F   UNL A   1      41.899  22.700  29.313  1.00  0.00    -0.203 F 
ATOM     58  F   UNL A   1      43.381  22.361  24.074  1.00  0.00    -0.200 F 
ATOM     59  C   UNL A   1      42.541  21.326  26.025  1.00  0.00     0.200 A 
ATOM     60  F   UNL A   1      41.702  20.340  28.000  1.00  0.00    -0.200 F 
ATOM     61  F   UNL A   1      42.426  20.160  25.375  1.00  0.00    -0.200 F 
ENDBRANCH  27  51
BRANCH  39  62
ATOM     62  C   UNL A   1      48.169  26.825  30.604  1.00  0.00     0.064 A 
ATOM     63  C   UNL A   1      48.521  26.008  31.688  1.00  0.00     0.173 A 
ATOM     64  C   UNL A   1      49.181  27.209  29.712  1.00  0.00     0.173 A 
ATOM     65  F   UNL A   1      47.593  25.630  32.580  1.00  0.00    -0.203 F 
ATOM     66  C   UNL A   1      49.841  25.607  31.881  1.00  0.00     0.198 A 
ATOM     67  C   UNL A   1      50.494  26.784  29.893  1.00  0.00     0.198 A 
ATOM     68  F   UNL A   1      48.894  27.988  28.658  1.00  0.00    -0.203 F 
ATOM     69  F   UNL A   1      50.164  24.862  32.947  1.00  0.00    -0.200 F 
ATOM     70  C   UNL A   1      50.824  25.988  30.980  1.00  0.00     0.200 A 
ATOM     71  F   UNL A   1      51.440  27.145  29.015  1.00  0.00    -0.200 F 
ATOM     72  F   UNL A   1      52.092  25.596  31.163  1.00  0.00    -0.200 F 
ENDBRANCH  39  62
ENDBRANCH  13  14
ENDBRANCH   6   8
ENDBRANCH   3   4
ENDBRANCH   2   3
ENDBRANCH   1   2
BRANCH   1  73
ATOM     73  C   UNL A   1      33.781  28.171  24.341  1.00  0.00     0.002 C 
BRANCH  73  74
ATOM     74  C   UNL A   1      33.818  27.829  22.851  1.00  0.00     0.021 C 
BRANCH  74  75
ATOM     75  C   UNL A   1      32.529  27.204  22.320  1.00  0.00     0.116 C 
BRANCH  75  76
ATOM     76  N   UNL A   1      32.828  26.076  21.465  1.00  0.00    -0.356 N 
ATOM     77  C   UNL A   1      33.056  24.771  21.762  1.00  0.00     0.227 C 
ATOM     78  H   UNL A   1      32.875  26.292  20.505  1.00  0.00     0.163 HD
ATOM     79  O   UNL A   1      33.278  24.023  20.803  1.00  0.00    -0.274 OA
BRANCH  77  80
ATOM     80  C   UNL A   1      33.055  24.212  23.194  1.00  0.00     0.113 C 
BRANCH  80  81
ATOM     81  C   UNL A   1      31.901  23.190  23.437  1.00  0.00     0.058 C 
BRANCH  81  82
ATOM     82  C   UNL A   1      32.073  21.706  23.731  1.00  0.00     0.008 A 
ATOM     83  C   UNL A   1      32.146  20.739  22.715  1.00  0.00     0.127 A 
ATOM     84  C   UNL A   1      32.325  21.230  25.037  1.00  0.00     0.047 A 
ATOM     85  F   UNL A   1      31.960  21.066  21.436  1.00  0.00    -0.207 F 
ATOM     86  C   UNL A   1      32.398  19.387  22.961  1.00  0.00     0.039 A 
ATOM     87  C   UNL A   1      32.584  19.871  25.292  1.00  0.00     0.021 A 
ATOM     88  Cl  UNL A   1      32.346  22.268  26.422  1.00  0.00    -0.084 Cl
ATOM     89  C   UNL A   1      32.617  18.945  24.255  1.00  0.00     0.005 A 
ENDBRANCH  81  82
ENDBRANCH  80  81
BRANCH  80  90
ATOM     90  C   UNL A   1      34.410  24.007  23.865  1.00  0.00    -0.035 A 
ATOM     91  C   UNL A   1      34.683  24.644  25.092  1.00  0.00     0.006 A 
ATOM     92  C   UNL A   1      35.441  23.251  23.281  1.00  0.00     0.006 A 
ATOM     93  C   UNL A   1      35.881  24.419  25.774  1.00  0.00     0.021 A 
ATOM     94  C   UNL A   1      36.646  23.035  23.957  1.00  0.00     0.021 A 
ATOM     95  C   UNL A   1      36.850  23.597  25.212  1.00  0.00     0.041 A 
ATOM     96  Cl  UNL A   1      38.303  23.272  26.072  1.00  0.00    -0.084 Cl
ENDBRANCH  80  90
ENDBRANCH  77  80
ENDBRANCH  75  76
ENDBRANCH  74  75
ENDBRANCH  73  74
ENDBRANCH   1  73
TORSDOF 16
ENDMDL
