MODEL 1
REMARK VINA RESULT:     -12.7      0.000      0.000
REMARK SMILES Cc1ccnc(C(=O)c2[nH]c3ccc(C(C)(C)C)cc3c2CC(=O)NCCCCCCNC(=O)c2ccc(-c3c4nc(c(-c5c(F)c(F)c(F)c(F)c5F)c5ccc([nH]5)c(-c5c(F)c(F)c(F)c(F)c5F)c5nc(c(-c6c(F)c(F)c(F)c(F)c6F)c6ccc3[nH]6)C=C5)C=C4)cc2)c1
REMARK SMILES IDX 28 1 27 2 26 3 25 4 23 5 24 6 22 8 21 9 9 10 10 11 11 12
REMARK SMILES IDX 20 14 12 15 19 16 13 17 14 18 7 19 8 20 6 21 1 22 2 23 3 24
REMARK SMILES IDX 98 25 4 26 5 27 15 28 16 29 17 30 18 31 29 32 30 33 31 34
REMARK SMILES IDX 32 35 33 36 34 38 35 39 36 40 97 41 37 42 96 43 38 44 39 45
REMARK SMILES IDX 40 46 90 47 41 48 95 49 89 50 91 51 42 52 94 53 88 54 87 55
REMARK SMILES IDX 43 57 75 58 55 59 74 60 56 61 59 62 73 63 92 64 57 65 58 66
REMARK SMILES IDX 72 68 93 69 60 70 44 71 45 72 53 73 46 74 47 75 51 76 54 77
REMARK SMILES IDX 48 78 49 79 52 80 50 81 76 82 77 83 85 84 78 85 79 86 83 87
REMARK SMILES IDX 86 88 80 89 81 90 84 91 82 92 61 93 62 94 70 95 63 96 64 97
REMARK SMILES IDX 68 98 71 99 65 100 66 101 69 102 67 103
REMARK H PARENT 25 7 10 13 32 37 91 56 59 67
REMARK Flexibility Score: inf
ROOT
ATOM      1  C   UNL A   1      39.799  21.692  25.991  1.00  0.00     0.002 C 
ENDROOT
BRANCH   1   2
ATOM      2  C   UNL A   1      39.276  22.929  26.734  1.00  0.00     0.021 C 
BRANCH   2   3
ATOM      3  C   UNL A   1      37.962  23.492  26.193  1.00  0.00     0.116 C 
BRANCH   3   4
ATOM      4  N   UNL A   1      37.813  23.286  24.769  1.00  0.00    -0.356 N 
ATOM      5  C   UNL A   1      36.687  23.328  23.998  1.00  0.00     0.224 C 
ATOM      6  O   UNL A   1      36.816  23.231  22.775  1.00  0.00    -0.275 OA
ATOM      7  H   UNL A   1      38.646  23.084  24.284  1.00  0.00     0.163 HD
BRANCH   5   8
ATOM      8  C   UNL A   1      35.328  23.624  24.613  1.00  0.00     0.138 C 
BRANCH   8   9
ATOM      9  C   UNL A   1      34.141  23.253  23.770  1.00  0.00    -0.002 A 
ATOM     10  C   UNL A   1      33.322  24.105  23.035  1.00  0.00     0.093 A 
ATOM     11  N   UNL A   1      32.399  23.324  22.378  1.00  0.00    -0.352 N 
ATOM     12  C   UNL A   1      32.522  22.009  22.749  1.00  0.00     0.046 A 
ATOM     13  H   UNL A   1      31.738  23.663  21.731  1.00  0.00     0.167 HD
ATOM     14  C   UNL A   1      33.597  21.931  23.625  1.00  0.00     0.004 A 
ATOM     15  C   UNL A   1      31.778  20.892  22.369  1.00  0.00     0.027 A 
ATOM     16  C   UNL A   1      33.939  20.663  24.147  1.00  0.00     0.015 A 
ATOM     17  C   UNL A   1      32.147  19.647  22.901  1.00  0.00     0.006 A 
ATOM     18  C   UNL A   1      33.222  19.500  23.790  1.00  0.00    -0.042 A 
BRANCH  10  19
ATOM     19  C   UNL A   1      33.409  25.545  22.855  1.00  0.00     0.227 C 
ATOM     20  O   UNL A   1      33.858  26.022  21.821  1.00  0.00    -0.285 OA
BRANCH  19  21
ATOM     21  C   UNL A   1      32.882  26.440  23.956  1.00  0.00     0.113 A 
ATOM     22  C   UNL A   1      34.028  28.578  26.876  1.00  0.00     0.044 C 
ATOM     23  C   UNL A   1      33.166  27.876  25.871  1.00  0.00    -0.047 A 
ATOM     24  C   UNL A   1      31.778  27.988  25.939  1.00  0.00     0.023 A 
ATOM     25  C   UNL A   1      33.727  27.104  24.846  1.00  0.00     0.036 A 
ATOM     26  C   UNL A   1      31.010  27.311  25.005  1.00  0.00     0.112 A 
ATOM     27  N   UNL A   1      31.529  26.534  24.033  1.00  0.00    -0.253 NA
ENDBRANCH  19  21
ENDBRANCH  10  19
BRANCH  18  28
ATOM     28  C   UNL A   1      33.652  18.135  24.359  1.00  0.00    -0.013 C 
ATOM     29  C   UNL A   1      32.927  17.897  25.702  1.00  0.00     0.016 C 
ATOM     30  C   UNL A   1      33.277  17.007  23.373  1.00  0.00     0.016 C 
ATOM     31  C   UNL A   1      35.169  18.017  24.626  1.00  0.00     0.016 C 
ENDBRANCH  18  28
ENDBRANCH   8   9
ENDBRANCH   5   8
ENDBRANCH   3   4
ENDBRANCH   2   3
ENDBRANCH   1   2
BRANCH   1  32
ATOM     32  C   UNL A   1      40.889  20.890  26.711  1.00  0.00     0.002 C 
BRANCH  32  33
ATOM     33  C   UNL A   1      41.213  19.513  26.118  1.00  0.00     0.021 C 
BRANCH  33  34
ATOM     34  C   UNL A   1      42.540  18.899  26.563  1.00  0.00     0.116 C 
BRANCH  34  35
ATOM     35  N   UNL A   1      43.404  18.568  25.441  1.00  0.00    -0.352 N 
ATOM     36  C   UNL A   1      44.185  19.385  24.665  1.00  0.00     0.251 C 
ATOM     37  H   UNL A   1      43.432  17.613  25.204  1.00  0.00     0.163 HD
ATOM     38  O   UNL A   1      44.742  18.936  23.668  1.00  0.00    -0.269 OA
BRANCH  36  39
ATOM     39  C   UNL A   1      44.356  20.817  25.003  1.00  0.00     0.039 A 
ATOM     40  C   UNL A   1      45.123  21.149  26.126  1.00  0.00     0.014 A 
ATOM     41  C   UNL A   1      43.722  21.825  24.271  1.00  0.00     0.014 A 
ATOM     42  C   UNL A   1      45.296  22.488  26.488  1.00  0.00     0.010 A 
ATOM     43  C   UNL A   1      43.916  23.166  24.616  1.00  0.00     0.010 A 
ATOM     44  C   UNL A   1      44.705  23.506  25.725  1.00  0.00    -0.014 A 
BRANCH  44  45
ATOM     45  C   UNL A   1      44.900  24.933  26.078  1.00  0.00     0.031 A 
ATOM     46  C   UNL A   1      46.245  25.578  25.913  1.00  0.00     0.074 A 
ATOM     47  C   UNL A   1      43.876  25.637  26.594  1.00  0.00     0.049 A 
ATOM     48  N   UNL A   1      46.637  26.774  26.271  1.00  0.00    -0.248 NA
ATOM     49  C   UNL A   1      47.290  24.765  25.272  1.00  0.00     0.031 C 
ATOM     50  C   UNL A   1      42.526  25.125  26.820  1.00  0.00     0.029 A 
ATOM     51  N   UNL A   1      43.820  26.936  27.036  1.00  0.00    -0.354 N 
ATOM     52  C   UNL A   1      47.979  26.849  25.928  1.00  0.00     0.074 A 
ATOM     53  C   UNL A   1      48.336  25.578  25.332  1.00  0.00     0.031 C 
ATOM     54  C   UNL A   1      41.771  26.098  27.357  1.00  0.00     0.029 A 
ATOM     55  C   UNL A   1      42.592  27.293  27.532  1.00  0.00     0.049 A 
ATOM     56  H   UNL A   1      44.588  27.551  27.000  1.00  0.00     0.167 HD
ATOM     57  C   UNL A   1      48.836  27.884  26.099  1.00  0.00     0.037 A 
ATOM     58  C   UNL A   1      42.179  28.453  28.076  1.00  0.00     0.037 A 
ATOM     59  C   UNL A   1      48.485  29.159  26.663  1.00  0.00     0.049 A 
ATOM     60  C   UNL A   1      43.135  29.603  28.200  1.00  0.00     0.074 A 
ATOM     61  C   UNL A   1      49.292  30.263  26.876  1.00  0.00     0.029 A 
ATOM     62  N   UNL A   1      47.214  29.502  27.094  1.00  0.00    -0.354 N 
ATOM     63  N   UNL A   1      44.404  29.656  27.885  1.00  0.00    -0.248 NA
ATOM     64  C   UNL A   1      42.598  30.855  28.755  1.00  0.00     0.031 C 
ATOM     65  C   UNL A   1      48.507  31.278  27.439  1.00  0.00     0.029 A 
ATOM     66  C   UNL A   1      47.211  30.805  27.562  1.00  0.00     0.049 A 
ATOM     67  H   UNL A   1      46.428  28.908  27.070  1.00  0.00     0.167 HD
ATOM     68  C   UNL A   1      44.819  30.944  28.194  1.00  0.00     0.074 A 
ATOM     69  C   UNL A   1      43.664  31.646  28.713  1.00  0.00     0.031 C 
ATOM     70  C   UNL A   1      46.050  31.490  28.065  1.00  0.00     0.037 A 
BRANCH  57  71
ATOM     71  C   UNL A   1      50.256  27.671  25.676  1.00  0.00     0.064 A 
ATOM     72  C   UNL A   1      50.644  27.808  24.337  1.00  0.00     0.173 A 
ATOM     73  C   UNL A   1      51.240  27.362  26.625  1.00  0.00     0.173 A 
ATOM     74  F   UNL A   1      49.732  28.089  23.394  1.00  0.00    -0.203 F 
ATOM     75  C   UNL A   1      51.973  27.632  23.960  1.00  0.00     0.198 A 
ATOM     76  C   UNL A   1      52.569  27.199  26.246  1.00  0.00     0.198 A 
ATOM     77  F   UNL A   1      50.911  27.221  27.918  1.00  0.00    -0.203 F 
ATOM     78  F   UNL A   1      52.324  27.745  22.672  1.00  0.00    -0.200 F 
ATOM     79  C   UNL A   1      52.934  27.332  24.915  1.00  0.00     0.200 A 
ATOM     80  F   UNL A   1      53.496  26.911  27.170  1.00  0.00    -0.200 F 
ATOM     81  F   UNL A   1      54.213  27.165  24.551  1.00  0.00    -0.200 F 
ENDBRANCH  57  71
BRANCH  58  82
ATOM     82  C   UNL A   1      40.777  28.582  28.538  1.00  0.00     0.064 A 
ATOM     83  C   UNL A   1      40.429  28.274  29.859  1.00  0.00     0.173 A 
ATOM     84  C   UNL A   1      39.767  29.024  27.675  1.00  0.00     0.173 A 
ATOM     85  F   UNL A   1      41.363  27.828  30.711  1.00  0.00    -0.203 F 
ATOM     86  C   UNL A   1      39.114  28.397  30.300  1.00  0.00     0.198 A 
ATOM     87  C   UNL A   1      38.455  29.159  28.120  1.00  0.00     0.198 A 
ATOM     88  F   UNL A   1      40.059  29.328  26.402  1.00  0.00    -0.203 F 
ATOM     89  F   UNL A   1      38.799  28.074  31.561  1.00  0.00    -0.200 F 
ATOM     90  C   UNL A   1      38.128  28.843  29.430  1.00  0.00     0.200 A 
ATOM     91  F   UNL A   1      37.505  29.592  27.279  1.00  0.00    -0.200 F 
ATOM     92  F   UNL A   1      36.863  28.961  29.855  1.00  0.00    -0.200 F 
ENDBRANCH  58  82
BRANCH  70  93
ATOM     93  C   UNL A   1      46.207  32.920  28.474  1.00  0.00     0.064 A 
ATOM     94  C   UNL A   1      46.572  33.263  29.783  1.00  0.00     0.173 A 
ATOM     95  C   UNL A   1      46.024  33.952  27.542  1.00  0.00     0.173 A 
ATOM     96  F   UNL A   1      46.741  32.307  30.708  1.00  0.00    -0.203 F 
ATOM     97  C   UNL A   1      46.742  34.595  30.148  1.00  0.00     0.198 A 
ATOM     98  C   UNL A   1      46.204  35.282  27.909  1.00  0.00     0.198 A 
ATOM     99  F   UNL A   1      45.671  33.668  26.280  1.00  0.00    -0.203 F 
ATOM    100  F   UNL A   1      47.071  34.905  31.410  1.00  0.00    -0.200 F 
ATOM    101  C   UNL A   1      46.561  35.603  29.211  1.00  0.00     0.200 A 
ATOM    102  F   UNL A   1      46.028  36.255  27.005  1.00  0.00    -0.200 F 
ATOM    103  F   UNL A   1      46.724  36.885  29.566  1.00  0.00    -0.200 F 
ENDBRANCH  70  93
ENDBRANCH  44  45
ENDBRANCH  36  39
ENDBRANCH  34  35
ENDBRANCH  33  34
ENDBRANCH  32  33
ENDBRANCH   1  32
TORSDOF 17
ENDMDL
MODEL 2
REMARK VINA RESULT:     -12.7      6.455     11.889
REMARK SMILES Cc1ccnc(C(=O)c2[nH]c3ccc(C(C)(C)C)cc3c2CC(=O)NCCCCCCNC(=O)c2ccc(-c3c4nc(c(-c5c(F)c(F)c(F)c(F)c5F)c5ccc([nH]5)c(-c5c(F)c(F)c(F)c(F)c5F)c5nc(c(-c6c(F)c(F)c(F)c(F)c6F)c6ccc3[nH]6)C=C5)C=C4)cc2)c1
REMARK SMILES IDX 28 1 27 2 26 3 25 4 23 5 24 6 22 8 21 9 9 10 10 11 11 12
REMARK SMILES IDX 20 14 12 15 19 16 13 17 14 18 7 19 8 20 6 21 1 22 2 23 3 24
REMARK SMILES IDX 98 25 4 26 5 27 15 28 16 29 17 30 18 31 29 32 30 33 31 34
REMARK SMILES IDX 32 35 33 36 34 38 35 39 36 40 97 41 37 42 96 43 38 44 39 45
REMARK SMILES IDX 40 46 90 47 41 48 95 49 89 50 91 51 42 52 94 53 88 54 87 55
REMARK SMILES IDX 43 57 75 58 55 59 74 60 56 61 59 62 73 63 92 64 57 65 58 66
REMARK SMILES IDX 72 68 93 69 60 70 44 71 45 72 53 73 46 74 47 75 51 76 54 77
REMARK SMILES IDX 48 78 49 79 52 80 50 81 76 82 77 83 85 84 78 85 79 86 83 87
REMARK SMILES IDX 86 88 80 89 81 90 84 91 82 92 61 93 62 94 70 95 63 96 64 97
REMARK SMILES IDX 68 98 71 99 65 100 66 101 69 102 67 103
REMARK H PARENT 25 7 10 13 32 37 91 56 59 67
REMARK Flexibility Score: inf
ROOT
ATOM      1  C   UNL A   1      34.446  32.288  28.645  1.00  0.00     0.002 C 
ENDROOT
BRANCH   1   2
ATOM      2  C   UNL A   1      33.414  31.698  27.674  1.00  0.00     0.021 C 
BRANCH   2   3
ATOM      3  C   UNL A   1      33.685  30.255  27.249  1.00  0.00     0.116 C 
BRANCH   3   4
ATOM      4  N   UNL A   1      32.565  29.378  27.514  1.00  0.00    -0.356 N 
ATOM      5  C   UNL A   1      32.395  28.063  27.188  1.00  0.00     0.224 C 
ATOM      6  O   UNL A   1      31.396  27.482  27.619  1.00  0.00    -0.275 OA
ATOM      7  H   UNL A   1      31.814  29.790  27.999  1.00  0.00     0.163 HD
BRANCH   5   8
ATOM      8  C   UNL A   1      33.471  27.300  26.433  1.00  0.00     0.138 C 
BRANCH   8   9
ATOM      9  C   UNL A   1      33.018  26.615  25.174  1.00  0.00    -0.002 A 
ATOM     10  C   UNL A   1      32.321  27.173  24.107  1.00  0.00     0.093 A 
ATOM     11  N   UNL A   1      32.169  26.191  23.155  1.00  0.00    -0.352 N 
ATOM     12  C   UNL A   1      32.648  24.990  23.614  1.00  0.00     0.046 A 
ATOM     13  H   UNL A   1      31.771  26.331  22.265  1.00  0.00     0.167 HD
ATOM     14  C   UNL A   1      33.178  25.218  24.878  1.00  0.00     0.004 A 
ATOM     15  C   UNL A   1      32.661  23.734  23.008  1.00  0.00     0.027 A 
ATOM     16  C   UNL A   1      33.749  24.125  25.567  1.00  0.00     0.015 A 
ATOM     17  C   UNL A   1      33.241  22.670  23.716  1.00  0.00     0.006 A 
ATOM     18  C   UNL A   1      33.794  22.834  24.995  1.00  0.00    -0.042 A 
BRANCH  10  19
ATOM     19  C   UNL A   1      31.880  28.543  23.905  1.00  0.00     0.227 C 
ATOM     20  O   UNL A   1      32.681  29.470  23.933  1.00  0.00    -0.285 OA
BRANCH  19  21
ATOM     21  C   UNL A   1      30.418  28.793  23.606  1.00  0.00     0.113 A 
ATOM     22  C   UNL A   1      27.853  31.580  23.347  1.00  0.00     0.044 C 
ATOM     23  C   UNL A   1      28.498  30.227  23.347  1.00  0.00    -0.047 A 
ATOM     24  C   UNL A   1      27.733  29.087  23.104  1.00  0.00     0.023 A 
ATOM     25  C   UNL A   1      29.871  30.077  23.582  1.00  0.00     0.036 A 
ATOM     26  C   UNL A   1      28.357  27.851  23.129  1.00  0.00     0.112 A 
ATOM     27  N   UNL A   1      29.670  27.680  23.388  1.00  0.00    -0.253 NA
ENDBRANCH  19  21
ENDBRANCH  10  19
BRANCH  18  28
ATOM     28  C   UNL A   1      34.456  21.679  25.769  1.00  0.00    -0.013 C 
ATOM     29  C   UNL A   1      34.078  20.339  25.100  1.00  0.00     0.016 C 
ATOM     30  C   UNL A   1      35.992  21.839  25.752  1.00  0.00     0.016 C 
ATOM     31  C   UNL A   1      34.026  21.592  27.251  1.00  0.00     0.016 C 
ENDBRANCH  18  28
ENDBRANCH   8   9
ENDBRANCH   5   8
ENDBRANCH   3   4
ENDBRANCH   2   3
ENDBRANCH   1   2
BRANCH   1  32
ATOM     32  C   UNL A   1      34.534  33.818  28.681  1.00  0.00     0.002 C 
BRANCH  32  33
ATOM     33  C   UNL A   1      33.199  34.566  28.775  1.00  0.00     0.021 C 
BRANCH  33  34
ATOM     34  C   UNL A   1      33.292  36.031  29.204  1.00  0.00     0.116 C 
BRANCH  34  35
ATOM     35  N   UNL A   1      32.474  36.322  30.370  1.00  0.00    -0.352 N 
ATOM     36  C   UNL A   1      32.613  35.899  31.668  1.00  0.00     0.251 C 
ATOM     37  H   UNL A   1      31.704  36.913  30.203  1.00  0.00     0.163 HD
ATOM     38  O   UNL A   1      31.735  36.142  32.489  1.00  0.00    -0.269 OA
BRANCH  36  39
ATOM     39  C   UNL A   1      33.807  35.132  32.092  1.00  0.00     0.039 A 
ATOM     40  C   UNL A   1      33.631  33.813  32.528  1.00  0.00     0.014 A 
ATOM     41  C   UNL A   1      35.078  35.713  32.127  1.00  0.00     0.014 A 
ATOM     42  C   UNL A   1      34.730  33.061  32.952  1.00  0.00     0.010 A 
ATOM     43  C   UNL A   1      36.182  34.953  32.525  1.00  0.00     0.010 A 
ATOM     44  C   UNL A   1      36.015  33.622  32.938  1.00  0.00    -0.014 A 
BRANCH  44  45
ATOM     45  C   UNL A   1      37.197  32.830  33.357  1.00  0.00     0.031 A 
ATOM     46  C   UNL A   1      37.859  33.098  34.677  1.00  0.00     0.074 A 
ATOM     47  C   UNL A   1      37.705  31.901  32.527  1.00  0.00     0.049 A 
ATOM     48  N   UNL A   1      38.964  32.592  35.165  1.00  0.00    -0.248 NA
ATOM     49  C   UNL A   1      37.200  34.073  35.558  1.00  0.00     0.031 C 
ATOM     50  C   UNL A   1      37.166  31.556  31.212  1.00  0.00     0.029 A 
ATOM     51  N   UNL A   1      38.802  31.087  32.664  1.00  0.00    -0.354 N 
ATOM     52  C   UNL A   1      39.148  33.206  36.395  1.00  0.00     0.074 A 
ATOM     53  C   UNL A   1      38.043  34.123  36.581  1.00  0.00     0.031 C 
ATOM     54  C   UNL A   1      37.931  30.599  30.662  1.00  0.00     0.029 A 
ATOM     55  C   UNL A   1      39.025  30.281  31.576  1.00  0.00     0.049 A 
ATOM     56  H   UNL A   1      39.373  31.082  33.465  1.00  0.00     0.167 HD
ATOM     57  C   UNL A   1      40.152  33.024  37.285  1.00  0.00     0.037 A 
ATOM     58  C   UNL A   1      40.008  29.392  31.340  1.00  0.00     0.037 A 
ATOM     59  C   UNL A   1      41.239  32.097  37.122  1.00  0.00     0.049 A 
ATOM     60  C   UNL A   1      41.076  29.169  32.370  1.00  0.00     0.074 A 
ATOM     61  C   UNL A   1      42.302  31.849  37.975  1.00  0.00     0.029 A 
ATOM     62  N   UNL A   1      41.393  31.252  36.035  1.00  0.00    -0.354 N 
ATOM     63  N   UNL A   1      41.247  29.766  33.522  1.00  0.00    -0.248 NA
ATOM     64  C   UNL A   1      42.088  28.145  32.066  1.00  0.00     0.031 C 
ATOM     65  C   UNL A   1      43.102  30.854  37.400  1.00  0.00     0.029 A 
ATOM     66  C   UNL A   1      42.527  30.476  36.198  1.00  0.00     0.049 A 
ATOM     67  H   UNL A   1      40.786  31.210  35.261  1.00  0.00     0.167 HD
ATOM     68  C   UNL A   1      42.377  29.190  34.085  1.00  0.00     0.074 A 
ATOM     69  C   UNL A   1      42.847  28.186  33.154  1.00  0.00     0.031 C 
ATOM     70  C   UNL A   1      42.974  29.475  35.266  1.00  0.00     0.037 A 
BRANCH  57  71
ATOM     71  C   UNL A   1      40.127  33.865  38.523  1.00  0.00     0.064 A 
ATOM     72  C   UNL A   1      39.415  33.463  39.660  1.00  0.00     0.173 A 
ATOM     73  C   UNL A   1      40.851  35.064  38.581  1.00  0.00     0.173 A 
ATOM     74  F   UNL A   1      38.698  32.330  39.643  1.00  0.00    -0.203 F 
ATOM     75  C   UNL A   1      39.419  34.241  40.815  1.00  0.00     0.198 A 
ATOM     76  C   UNL A   1      40.863  35.833  39.741  1.00  0.00     0.198 A 
ATOM     77  F   UNL A   1      41.545  35.486  37.515  1.00  0.00    -0.203 F 
ATOM     78  F   UNL A   1      38.714  33.853  41.886  1.00  0.00    -0.200 F 
ATOM     79  C   UNL A   1      40.147  35.423  40.856  1.00  0.00     0.200 A 
ATOM     80  F   UNL A   1      41.567  36.973  39.779  1.00  0.00    -0.200 F 
ATOM     81  F   UNL A   1      40.152  36.170  41.968  1.00  0.00    -0.200 F 
ENDBRANCH  57  71
BRANCH  58  82
ATOM     82  C   UNL A   1      40.018  28.637  30.066  1.00  0.00     0.064 A 
ATOM     83  C   UNL A   1      40.634  29.168  28.925  1.00  0.00     0.173 A 
ATOM     84  C   UNL A   1      39.422  27.374  29.968  1.00  0.00     0.173 A 
ATOM     85  F   UNL A   1      41.197  30.384  28.973  1.00  0.00    -0.203 F 
ATOM     86  C   UNL A   1      40.649  28.461  27.726  1.00  0.00     0.198 A 
ATOM     87  C   UNL A   1      39.448  26.662  28.771  1.00  0.00     0.198 A 
ATOM     88  F   UNL A   1      38.820  26.832  31.036  1.00  0.00    -0.203 F 
ATOM     89  F   UNL A   1      41.224  28.998  26.641  1.00  0.00    -0.200 F 
ATOM     90  C   UNL A   1      40.059  27.207  27.651  1.00  0.00     0.200 A 
ATOM     91  F   UNL A   1      38.881  25.450  28.702  1.00  0.00    -0.200 F 
ATOM     92  F   UNL A   1      40.074  26.527  26.496  1.00  0.00    -0.200 F 
ENDBRANCH  58  82
BRANCH  70  93
ATOM     93  C   UNL A   1      44.188  28.679  35.626  1.00  0.00     0.064 A 
ATOM     94  C   UNL A   1      44.084  27.498  36.373  1.00  0.00     0.173 A 
ATOM     95  C   UNL A   1      45.458  29.082  35.191  1.00  0.00     0.173 A 
ATOM     96  F   UNL A   1      42.889  27.086  36.821  1.00  0.00    -0.203 F 
ATOM     97  C   UNL A   1      45.216  26.749  36.680  1.00  0.00     0.198 A 
ATOM     98  C   UNL A   1      46.586  28.324  35.492  1.00  0.00     0.198 A 
ATOM     99  F   UNL A   1      45.602  30.208  34.477  1.00  0.00    -0.203 F 
ATOM    100  F   UNL A   1      45.099  25.633  37.414  1.00  0.00    -0.200 F 
ATOM    101  C   UNL A   1      46.464  27.160  36.237  1.00  0.00     0.200 A 
ATOM    102  F   UNL A   1      47.793  28.723  35.066  1.00  0.00    -0.200 F 
ATOM    103  F   UNL A   1      47.553  26.438  36.536  1.00  0.00    -0.200 F 
ENDBRANCH  70  93
ENDBRANCH  44  45
ENDBRANCH  36  39
ENDBRANCH  34  35
ENDBRANCH  33  34
ENDBRANCH  32  33
ENDBRANCH   1  32
TORSDOF 17
ENDMDL
MODEL 3
REMARK VINA RESULT:     -12.6      1.059      4.085
REMARK SMILES Cc1ccnc(C(=O)c2[nH]c3ccc(C(C)(C)C)cc3c2CC(=O)NCCCCCCNC(=O)c2ccc(-c3c4nc(c(-c5c(F)c(F)c(F)c(F)c5F)c5ccc([nH]5)c(-c5c(F)c(F)c(F)c(F)c5F)c5nc(c(-c6c(F)c(F)c(F)c(F)c6F)c6ccc3[nH]6)C=C5)C=C4)cc2)c1
REMARK SMILES IDX 28 1 27 2 26 3 25 4 23 5 24 6 22 8 21 9 9 10 10 11 11 12
REMARK SMILES IDX 20 14 12 15 19 16 13 17 14 18 7 19 8 20 6 21 1 22 2 23 3 24
REMARK SMILES IDX 98 25 4 26 5 27 15 28 16 29 17 30 18 31 29 32 30 33 31 34
REMARK SMILES IDX 32 35 33 36 34 38 35 39 36 40 97 41 37 42 96 43 38 44 39 45
REMARK SMILES IDX 40 46 90 47 41 48 95 49 89 50 91 51 42 52 94 53 88 54 87 55
REMARK SMILES IDX 43 57 75 58 55 59 74 60 56 61 59 62 73 63 92 64 57 65 58 66
REMARK SMILES IDX 72 68 93 69 60 70 44 71 45 72 53 73 46 74 47 75 51 76 54 77
REMARK SMILES IDX 48 78 49 79 52 80 50 81 76 82 77 83 85 84 78 85 79 86 83 87
REMARK SMILES IDX 86 88 80 89 81 90 84 91 82 92 61 93 62 94 70 95 63 96 64 97
REMARK SMILES IDX 68 98 71 99 65 100 66 101 69 102 67 103
REMARK H PARENT 25 7 10 13 32 37 91 56 59 67
REMARK Flexibility Score: inf
ROOT
ATOM      1  C   UNL A   1      41.164  21.814  26.113  1.00  0.00     0.002 C 
ENDROOT
BRANCH   1   2
ATOM      2  C   UNL A   1      39.958  22.750  26.270  1.00  0.00     0.021 C 
BRANCH   2   3
ATOM      3  C   UNL A   1      38.597  22.069  26.125  1.00  0.00     0.116 C 
BRANCH   3   4
ATOM      4  N   UNL A   1      37.977  22.335  24.844  1.00  0.00    -0.356 N 
ATOM      5  C   UNL A   1      36.928  23.155  24.540  1.00  0.00     0.224 C 
ATOM      6  O   UNL A   1      36.640  23.313  23.351  1.00  0.00    -0.275 OA
ATOM      7  H   UNL A   1      38.368  21.853  24.080  1.00  0.00     0.163 HD
BRANCH   5   8
ATOM      8  C   UNL A   1      36.224  23.957  25.622  1.00  0.00     0.138 C 
BRANCH   8   9
ATOM      9  C   UNL A   1      34.736  23.764  25.707  1.00  0.00    -0.002 A 
ATOM     10  C   UNL A   1      34.030  22.567  25.644  1.00  0.00     0.093 A 
ATOM     11  N   UNL A   1      32.698  22.863  25.821  1.00  0.00    -0.352 N 
ATOM     12  C   UNL A   1      32.507  24.220  25.888  1.00  0.00     0.046 A 
ATOM     13  H   UNL A   1      31.979  22.193  25.889  1.00  0.00     0.167 HD
ATOM     14  C   UNL A   1      33.760  24.813  25.812  1.00  0.00     0.004 A 
ATOM     15  C   UNL A   1      31.331  24.959  26.020  1.00  0.00     0.027 A 
ATOM     16  C   UNL A   1      33.833  26.223  25.870  1.00  0.00     0.015 A 
ATOM     17  C   UNL A   1      31.439  26.357  26.080  1.00  0.00     0.006 A 
ATOM     18  C   UNL A   1      32.674  27.017  26.010  1.00  0.00    -0.042 A 
BRANCH  10  19
ATOM     19  C   UNL A   1      34.526  21.206  25.515  1.00  0.00     0.227 C 
ATOM     20  O   UNL A   1      35.504  20.832  26.150  1.00  0.00    -0.285 OA
BRANCH  19  21
ATOM     21  C   UNL A   1      33.772  20.247  24.619  1.00  0.00     0.113 A 
ATOM     22  C   UNL A   1      33.580  16.580  23.655  1.00  0.00     0.044 C 
ATOM     23  C   UNL A   1      33.321  18.055  23.725  1.00  0.00    -0.047 A 
ATOM     24  C   UNL A   1      32.363  18.637  22.896  1.00  0.00     0.023 A 
ATOM     25  C   UNL A   1      34.023  18.874  24.617  1.00  0.00     0.036 A 
ATOM     26  C   UNL A   1      32.161  20.005  22.973  1.00  0.00     0.112 A 
ATOM     27  N   UNL A   1      32.851  20.818  23.799  1.00  0.00    -0.253 NA
ENDBRANCH  19  21
ENDBRANCH  10  19
BRANCH  18  28
ATOM     28  C   UNL A   1      32.805  28.549  26.102  1.00  0.00    -0.013 C 
ATOM     29  C   UNL A   1      34.285  28.916  26.350  1.00  0.00     0.016 C 
ATOM     30  C   UNL A   1      32.334  29.203  24.785  1.00  0.00     0.016 C 
ATOM     31  C   UNL A   1      31.976  29.181  27.243  1.00  0.00     0.016 C 
ENDBRANCH  18  28
ENDBRANCH   8   9
ENDBRANCH   5   8
ENDBRANCH   3   4
ENDBRANCH   2   3
ENDBRANCH   1   2
BRANCH   1  32
ATOM     32  C   UNL A   1      41.021  20.424  26.741  1.00  0.00     0.002 C 
BRANCH  32  33
ATOM     33  C   UNL A   1      41.569  19.253  25.917  1.00  0.00     0.021 C 
BRANCH  33  34
ATOM     34  C   UNL A   1      42.975  18.783  26.293  1.00  0.00     0.116 C 
BRANCH  34  35
ATOM     35  N   UNL A   1      43.798  18.501  25.129  1.00  0.00    -0.352 N 
ATOM     36  C   UNL A   1      44.532  19.355  24.346  1.00  0.00     0.251 C 
ATOM     37  H   UNL A   1      43.833  17.554  24.862  1.00  0.00     0.163 HD
ATOM     38  O   UNL A   1      45.056  18.945  23.315  1.00  0.00    -0.269 OA
BRANCH  36  39
ATOM     39  C   UNL A   1      44.692  20.780  24.719  1.00  0.00     0.039 A 
ATOM     40  C   UNL A   1      45.238  21.082  25.972  1.00  0.00     0.014 A 
ATOM     41  C   UNL A   1      44.253  21.811  23.884  1.00  0.00     0.014 A 
ATOM     42  C   UNL A   1      45.390  22.413  26.369  1.00  0.00     0.010 A 
ATOM     43  C   UNL A   1      44.430  23.143  24.268  1.00  0.00     0.010 A 
ATOM     44  C   UNL A   1      45.002  23.453  25.512  1.00  0.00    -0.014 A 
BRANCH  44  45
ATOM     45  C   UNL A   1      45.182  24.871  25.904  1.00  0.00     0.031 A 
ATOM     46  C   UNL A   1      46.518  25.536  25.754  1.00  0.00     0.074 A 
ATOM     47  C   UNL A   1      44.152  25.550  26.443  1.00  0.00     0.049 A 
ATOM     48  N   UNL A   1      46.898  26.726  26.145  1.00  0.00    -0.248 NA
ATOM     49  C   UNL A   1      47.570  24.754  25.088  1.00  0.00     0.031 C 
ATOM     50  C   UNL A   1      42.807  25.015  26.658  1.00  0.00     0.029 A 
ATOM     51  N   UNL A   1      44.082  26.834  26.922  1.00  0.00    -0.354 N 
ATOM     52  C   UNL A   1      48.238  26.826  25.801  1.00  0.00     0.074 A 
ATOM     53  C   UNL A   1      48.608  25.577  25.168  1.00  0.00     0.031 C 
ATOM     54  C   UNL A   1      42.044  25.964  27.224  1.00  0.00     0.029 A 
ATOM     55  C   UNL A   1      42.852  27.163  27.431  1.00  0.00     0.049 A 
ATOM     56  H   UNL A   1      44.843  27.459  26.902  1.00  0.00     0.167 HD
ATOM     57  C   UNL A   1      49.084  27.865  25.999  1.00  0.00     0.037 A 
ATOM     58  C   UNL A   1      42.427  28.303  28.009  1.00  0.00     0.037 A 
ATOM     59  C   UNL A   1      48.721  29.119  26.600  1.00  0.00     0.049 A 
ATOM     60  C   UNL A   1      43.370  29.459  28.163  1.00  0.00     0.074 A 
ATOM     61  C   UNL A   1      49.515  30.227  26.842  1.00  0.00     0.029 A 
ATOM     62  N   UNL A   1      47.447  29.436  27.044  1.00  0.00    -0.354 N 
ATOM     63  N   UNL A   1      44.638  29.536  27.846  1.00  0.00    -0.248 NA
ATOM     64  C   UNL A   1      42.821  30.689  28.755  1.00  0.00     0.031 C 
ATOM     65  C   UNL A   1      48.721  31.215  27.436  1.00  0.00     0.029 A 
ATOM     66  C   UNL A   1      47.431  30.725  27.549  1.00  0.00     0.049 A 
ATOM     67  H   UNL A   1      46.668  28.834  27.005  1.00  0.00     0.167 HD
ATOM     68  C   UNL A   1      45.039  30.819  28.190  1.00  0.00     0.074 A 
ATOM     69  C   UNL A   1      43.878  31.493  28.732  1.00  0.00     0.031 C 
ATOM     70  C   UNL A   1      46.264  31.383  28.074  1.00  0.00     0.037 A 
BRANCH  57  71
ATOM     71  C   UNL A   1      50.505  27.680  25.566  1.00  0.00     0.064 A 
ATOM     72  C   UNL A   1      51.502  27.316  26.481  1.00  0.00     0.173 A 
ATOM     73  C   UNL A   1      50.862  27.833  24.219  1.00  0.00     0.173 A 
ATOM     74  F   UNL A   1      51.206  27.173  27.781  1.00  0.00    -0.203 F 
ATOM     75  C   UNL A   1      52.815  27.123  26.062  1.00  0.00     0.198 A 
ATOM     76  C   UNL A   1      52.173  27.627  23.802  1.00  0.00     0.198 A 
ATOM     77  F   UNL A   1      49.939  28.182  23.311  1.00  0.00    -0.203 F 
ATOM     78  F   UNL A   1      53.761  26.797  26.953  1.00  0.00    -0.200 F 
ATOM     79  C   UNL A   1      53.149  27.274  24.722  1.00  0.00     0.200 A 
ATOM     80  F   UNL A   1      52.494  27.772  22.509  1.00  0.00    -0.200 F 
ATOM     81  F   UNL A   1      54.414  27.085  24.321  1.00  0.00    -0.200 F 
ENDBRANCH  57  71
BRANCH  58  82
ATOM     82  C   UNL A   1      41.025  28.403  28.479  1.00  0.00     0.064 A 
ATOM     83  C   UNL A   1      40.024  28.906  27.638  1.00  0.00     0.173 A 
ATOM     84  C   UNL A   1      40.661  27.991  29.766  1.00  0.00     0.173 A 
ATOM     85  F   UNL A   1      40.336  29.330  26.405  1.00  0.00    -0.203 F 
ATOM     86  C   UNL A   1      38.705  28.999  28.073  1.00  0.00     0.198 A 
ATOM     87  C   UNL A   1      39.339  28.073  30.196  1.00  0.00     0.198 A 
ATOM     88  F   UNL A   1      41.590  27.506  30.602  1.00  0.00    -0.203 F 
ATOM     89  F   UNL A   1      37.767  29.505  27.260  1.00  0.00    -0.200 F 
ATOM     90  C   UNL A   1      38.363  28.579  29.351  1.00  0.00     0.200 A 
ATOM     91  F   UNL A   1      39.011  27.664  31.429  1.00  0.00    -0.200 F 
ATOM     92  F   UNL A   1      37.093  28.668  29.768  1.00  0.00    -0.200 F 
ENDBRANCH  58  82
BRANCH  70  93
ATOM     93  C   UNL A   1      46.406  32.802  28.523  1.00  0.00     0.064 A 
ATOM     94  C   UNL A   1      46.761  33.112  29.843  1.00  0.00     0.173 A 
ATOM     95  C   UNL A   1      46.218  33.857  27.619  1.00  0.00     0.173 A 
ATOM     96  F   UNL A   1      46.935  32.132  30.742  1.00  0.00    -0.203 F 
ATOM     97  C   UNL A   1      46.917  34.435  30.245  1.00  0.00     0.198 A 
ATOM     98  C   UNL A   1      46.385  35.178  28.024  1.00  0.00     0.198 A 
ATOM     99  F   UNL A   1      45.874  33.605  26.348  1.00  0.00    -0.203 F 
ATOM    100  F   UNL A   1      47.237  34.713  31.517  1.00  0.00    -0.200 F 
ATOM    101  C   UNL A   1      46.732  35.466  29.336  1.00  0.00     0.200 A 
ATOM    102  F   UNL A   1      46.204  36.175  27.145  1.00  0.00    -0.200 F 
ATOM    103  F   UNL A   1      46.882  36.739  29.726  1.00  0.00    -0.200 F 
ENDBRANCH  70  93
ENDBRANCH  44  45
ENDBRANCH  36  39
ENDBRANCH  34  35
ENDBRANCH  33  34
ENDBRANCH  32  33
ENDBRANCH   1  32
TORSDOF 17
ENDMDL
