MODEL 1
REMARK VINA RESULT:     -12.4      0.000      0.000
REMARK SMILES N#C/C(=C/c1cccc(OCC(=O)NCCCCCCNC(=O)c2ccc(-c3c4nc(c(-c5c(F)c(F)c(F)c(F)c5F)c5ccc([nH]5)c(-c5c(F)c(F)c(F)c(F)c5F)c5nc(c(-c6c(F)c(F)c(F)c(F)c6F)c6ccc3[nH]6)C=C5)C=C4)cc2)c1)c1nc2ccccc2[nH]1
REMARK SMILES IDX 16 1 15 2 14 3 12 4 13 5 11 7 10 8 9 9 5 10 6 11 87 12 7 13
REMARK SMILES IDX 8 14 4 15 3 16 2 17 1 18 88 19 89 20 96 21 90 22 95 23 91 25
REMARK SMILES IDX 94 26 92 27 93 28 17 29 18 30 19 31 20 32 21 33 22 34 23 36
REMARK SMILES IDX 24 37 25 38 86 39 26 40 85 41 27 42 28 43 29 44 79 45 30 46
REMARK SMILES IDX 84 47 78 48 80 49 31 50 83 51 77 52 76 53 32 55 64 56 44 57
REMARK SMILES IDX 63 58 45 59 48 60 62 61 81 62 46 63 47 64 61 66 82 67 49 68
REMARK SMILES IDX 33 69 34 70 42 71 35 72 36 73 40 74 43 75 37 76 38 77 41 78
REMARK SMILES IDX 39 79 65 80 66 81 74 82 67 83 68 84 72 85 75 86 69 87 70 88
REMARK SMILES IDX 73 89 71 90 50 91 51 92 59 93 52 94 53 95 57 96 60 97 54 98
REMARK SMILES IDX 55 99 58 100 56 101
REMARK H PARENT 14 6 96 24 21 35 80 54 48 65
REMARK Flexibility Score: inf
ROOT
ATOM      1  C   UNL A   1      33.390  28.710  25.508  1.00  0.00     0.021 C 
ENDROOT
BRANCH   1   2
ATOM      2  C   UNL A   1      33.341  29.248  24.077  1.00  0.00     0.116 C 
BRANCH   2   3
ATOM      3  N   UNL A   1      32.096  28.981  23.382  1.00  0.00    -0.353 N 
ATOM      4  C   UNL A   1      31.788  27.904  22.597  1.00  0.00     0.257 C 
ATOM      5  O   UNL A   1      30.617  27.700  22.265  1.00  0.00    -0.271 OA
ATOM      6  H   UNL A   1      31.388  29.657  23.488  1.00  0.00     0.163 HD
BRANCH   4   7
ATOM      7  C   UNL A   1      32.895  26.935  22.172  1.00  0.00     0.329 C 
BRANCH   7   8
ATOM      8  O   UNL A   1      32.684  25.564  22.473  1.00  0.00    -0.484 OA
BRANCH   8   9
ATOM      9  C   UNL A   1      33.159  25.087  23.664  1.00  0.00     0.120 A 
ATOM     10  C   UNL A   1      34.802  24.134  25.185  1.00  0.00    -0.021 A 
ATOM     11  C   UNL A   1      33.886  24.238  26.236  1.00  0.00     0.008 A 
ATOM     12  C   UNL A   1      34.422  24.536  23.895  1.00  0.00     0.054 A 
ATOM     13  C   UNL A   1      32.615  24.763  26.006  1.00  0.00     0.004 A 
ATOM     14  C   UNL A   1      32.257  25.189  24.726  1.00  0.00     0.046 A 
BRANCH  10  15
ATOM     15  C   UNL A   1      36.140  23.580  25.448  1.00  0.00     0.031 C 
ATOM     16  C   UNL A   1      36.472  22.274  25.452  1.00  0.00     0.095 C 
BRANCH  16  17
ATOM     17  C   UNL A   1      37.901  21.848  25.751  1.00  0.00     0.103 C 
ATOM     18  N   UNL A   1      39.085  21.496  25.999  1.00  0.00    -0.192 NA
ENDBRANCH  16  17
BRANCH  16  19
ATOM     19  C   UNL A   1      35.551  21.240  25.125  1.00  0.00     0.149 A 
ATOM     20  N   UNL A   1      34.257  21.283  24.870  1.00  0.00    -0.228 NA
ATOM     21  N   UNL A   1      36.024  19.952  25.000  1.00  0.00    -0.337 N 
ATOM     22  C   UNL A   1      33.888  19.990  24.591  1.00  0.00     0.089 A 
ATOM     23  C   UNL A   1      34.974  19.131  24.680  1.00  0.00     0.066 A 
ATOM     24  H   UNL A   1      36.959  19.669  25.121  1.00  0.00     0.168 HD
ATOM     25  C   UNL A   1      32.633  19.462  24.259  1.00  0.00     0.030 A 
ATOM     26  C   UNL A   1      34.884  17.750  24.493  1.00  0.00     0.028 A 
ATOM     27  C   UNL A   1      32.507  18.077  24.086  1.00  0.00     0.002 A 
ATOM     28  C   UNL A   1      33.614  17.236  24.209  1.00  0.00     0.002 A 
ENDBRANCH  16  19
ENDBRANCH  10  15
ENDBRANCH   8   9
ENDBRANCH   7   8
ENDBRANCH   4   7
ENDBRANCH   2   3
ENDBRANCH   1   2
BRANCH   1  29
ATOM     29  C   UNL A   1      33.192  29.739  26.624  1.00  0.00     0.002 C 
BRANCH  29  30
ATOM     30  C   UNL A   1      31.776  30.290  26.817  1.00  0.00     0.002 C 
BRANCH  30  31
ATOM     31  C   UNL A   1      31.640  31.804  26.677  1.00  0.00     0.021 C 
BRANCH  31  32
ATOM     32  C   UNL A   1      32.797  32.608  27.259  1.00  0.00     0.116 C 
BRANCH  32  33
ATOM     33  N   UNL A   1      32.453  33.988  27.582  1.00  0.00    -0.352 N 
ATOM     34  C   UNL A   1      33.026  34.805  28.529  1.00  0.00     0.251 C 
ATOM     35  H   UNL A   1      31.722  34.384  27.057  1.00  0.00     0.163 HD
ATOM     36  O   UNL A   1      32.586  35.928  28.752  1.00  0.00    -0.269 OA
BRANCH  34  37
ATOM     37  C   UNL A   1      34.160  34.284  29.317  1.00  0.00     0.039 A 
ATOM     38  C   UNL A   1      33.903  33.485  30.433  1.00  0.00     0.014 A 
ATOM     39  C   UNL A   1      35.471  34.510  28.889  1.00  0.00     0.014 A 
ATOM     40  C   UNL A   1      34.961  32.836  31.069  1.00  0.00     0.010 A 
ATOM     41  C   UNL A   1      36.512  33.801  29.473  1.00  0.00     0.010 A 
ATOM     42  C   UNL A   1      36.267  32.951  30.564  1.00  0.00    -0.014 A 
BRANCH  42  43
ATOM     43  C   UNL A   1      37.397  32.191  31.155  1.00  0.00     0.031 A 
ATOM     44  C   UNL A   1      37.889  32.537  32.530  1.00  0.00     0.074 A 
ATOM     45  C   UNL A   1      38.033  31.259  30.419  1.00  0.00     0.049 A 
ATOM     46  N   UNL A   1      38.921  32.068  33.184  1.00  0.00    -0.248 NA
ATOM     47  C   UNL A   1      37.142  33.577  33.255  1.00  0.00     0.031 C 
ATOM     48  C   UNL A   1      37.690  30.882  29.047  1.00  0.00     0.029 A 
ATOM     49  N   UNL A   1      39.113  30.468  30.719  1.00  0.00    -0.354 N 
ATOM     50  C   UNL A   1      38.961  32.773  34.379  1.00  0.00     0.074 A 
ATOM     51  C   UNL A   1      37.885  33.739  34.339  1.00  0.00     0.031 C 
ATOM     52  C   UNL A   1      38.527  29.916  28.632  1.00  0.00     0.029 A 
ATOM     53  C   UNL A   1      39.485  29.629  29.696  1.00  0.00     0.049 A 
ATOM     54  H   UNL A   1      39.579  30.498  31.586  1.00  0.00     0.167 HD
ATOM     55  C   UNL A   1      39.801  32.610  35.427  1.00  0.00     0.037 A 
ATOM     56  C   UNL A   1      40.486  28.732  29.626  1.00  0.00     0.037 A 
ATOM     57  C   UNL A   1      40.842  31.618  35.480  1.00  0.00     0.049 A 
ATOM     58  C   UNL A   1      41.385  28.544  30.819  1.00  0.00     0.074 A 
ATOM     59  C   UNL A   1      41.703  31.323  36.522  1.00  0.00     0.029 A 
ATOM     60  N   UNL A   1      41.156  30.753  34.443  1.00  0.00    -0.354 N 
ATOM     61  N   UNL A   1      41.369  29.169  31.972  1.00  0.00    -0.248 NA
ATOM     62  C   UNL A   1      42.434  27.522  30.705  1.00  0.00     0.031 C 
ATOM     63  C   UNL A   1      42.559  30.299  36.104  1.00  0.00     0.029 A 
ATOM     64  C   UNL A   1      42.205  29.930  34.816  1.00  0.00     0.049 A 
ATOM     65  H   UNL A   1      40.700  30.727  33.571  1.00  0.00     0.167 HD
ATOM     66  C   UNL A   1      42.384  28.598  32.728  1.00  0.00     0.074 A 
ATOM     67  C   UNL A   1      42.987  27.568  31.909  1.00  0.00     0.031 C 
ATOM     68  C   UNL A   1      42.781  28.902  33.989  1.00  0.00     0.037 A 
BRANCH  55  69
ATOM     69  C   UNL A   1      39.616  33.517  36.608  1.00  0.00     0.064 A 
ATOM     70  C   UNL A   1      38.790  33.162  37.685  1.00  0.00     0.173 A 
ATOM     71  C   UNL A   1      40.286  34.748  36.673  1.00  0.00     0.173 A 
ATOM     72  F   UNL A   1      38.117  32.002  37.663  1.00  0.00    -0.203 F 
ATOM     73  C   UNL A   1      38.616  34.019  38.768  1.00  0.00     0.198 A 
ATOM     74  C   UNL A   1      40.133  35.589  37.773  1.00  0.00     0.198 A 
ATOM     75  F   UNL A   1      41.092  35.135  35.673  1.00  0.00    -0.203 F 
ATOM     76  F   UNL A   1      37.778  33.680  39.759  1.00  0.00    -0.200 F 
ATOM     77  C   UNL A   1      39.291  35.228  38.814  1.00  0.00     0.200 A 
ATOM     78  F   UNL A   1      40.796  36.754  37.822  1.00  0.00    -0.200 F 
ATOM     79  F   UNL A   1      39.125  36.050  39.859  1.00  0.00    -0.200 F 
ENDBRANCH  55  69
BRANCH  56  80
ATOM     80  C   UNL A   1      40.669  27.913  28.401  1.00  0.00     0.064 A 
ATOM     81  C   UNL A   1      40.041  26.666  28.270  1.00  0.00     0.173 A 
ATOM     82  C   UNL A   1      41.473  28.352  27.338  1.00  0.00     0.173 A 
ATOM     83  F   UNL A   1      39.278  26.194  29.269  1.00  0.00    -0.203 F 
ATOM     84  C   UNL A   1      40.227  25.879  27.136  1.00  0.00     0.198 A 
ATOM     85  C   UNL A   1      41.637  27.576  26.192  1.00  0.00     0.198 A 
ATOM     86  F   UNL A   1      42.090  29.540  27.410  1.00  0.00    -0.203 F 
ATOM     87  F   UNL A   1      39.650  24.672  27.058  1.00  0.00    -0.200 F 
ATOM     88  C   UNL A   1      41.020  26.337  26.095  1.00  0.00     0.200 A 
ATOM     89  F   UNL A   1      42.395  28.026  25.184  1.00  0.00    -0.200 F 
ATOM     90  F   UNL A   1      41.198  25.581  25.003  1.00  0.00    -0.200 F 
ENDBRANCH  56  80
BRANCH  68  91
ATOM     91  C   UNL A   1      43.898  28.088  34.570  1.00  0.00     0.064 A 
ATOM     92  C   UNL A   1      43.653  26.889  35.257  1.00  0.00     0.173 A 
ATOM     93  C   UNL A   1      45.232  28.488  34.397  1.00  0.00     0.173 A 
ATOM     94  F   UNL A   1      42.394  26.475  35.461  1.00  0.00    -0.203 F 
ATOM     95  C   UNL A   1      44.703  26.132  35.767  1.00  0.00     0.198 A 
ATOM     96  C   UNL A   1      46.280  27.713  34.884  1.00  0.00     0.198 A 
ATOM     97  F   UNL A   1      45.517  29.623  33.741  1.00  0.00    -0.203 F 
ATOM     98  F   UNL A   1      44.445  25.010  36.454  1.00  0.00    -0.200 F 
ATOM     99  C   UNL A   1      46.015  26.539  35.573  1.00  0.00     0.200 A 
ATOM    100  F   UNL A   1      47.547  28.102  34.685  1.00  0.00    -0.200 F 
ATOM    101  F   UNL A   1      47.025  25.803  36.056  1.00  0.00    -0.200 F 
ENDBRANCH  68  91
ENDBRANCH  42  43
ENDBRANCH  34  37
ENDBRANCH  32  33
ENDBRANCH  31  32
ENDBRANCH  30  31
ENDBRANCH  29  30
ENDBRANCH   1  29
TORSDOF 18
ENDMDL
MODEL 2
REMARK VINA RESULT:     -12.2      3.592      5.116
REMARK SMILES N#C/C(=C/c1cccc(OCC(=O)NCCCCCCNC(=O)c2ccc(-c3c4nc(c(-c5c(F)c(F)c(F)c(F)c5F)c5ccc([nH]5)c(-c5c(F)c(F)c(F)c(F)c5F)c5nc(c(-c6c(F)c(F)c(F)c(F)c6F)c6ccc3[nH]6)C=C5)C=C4)cc2)c1)c1nc2ccccc2[nH]1
REMARK SMILES IDX 16 1 15 2 14 3 12 4 13 5 11 7 10 8 9 9 5 10 6 11 87 12 7 13
REMARK SMILES IDX 8 14 4 15 3 16 2 17 1 18 88 19 89 20 96 21 90 22 95 23 91 25
REMARK SMILES IDX 94 26 92 27 93 28 17 29 18 30 19 31 20 32 21 33 22 34 23 36
REMARK SMILES IDX 24 37 25 38 86 39 26 40 85 41 27 42 28 43 29 44 79 45 30 46
REMARK SMILES IDX 84 47 78 48 80 49 31 50 83 51 77 52 76 53 32 55 64 56 44 57
REMARK SMILES IDX 63 58 45 59 48 60 62 61 81 62 46 63 47 64 61 66 82 67 49 68
REMARK SMILES IDX 33 69 34 70 42 71 35 72 36 73 40 74 43 75 37 76 38 77 41 78
REMARK SMILES IDX 39 79 65 80 66 81 74 82 67 83 68 84 72 85 75 86 69 87 70 88
REMARK SMILES IDX 73 89 71 90 50 91 51 92 59 93 52 94 53 95 57 96 60 97 54 98
REMARK SMILES IDX 55 99 58 100 56 101
REMARK H PARENT 14 6 96 24 21 35 80 54 48 65
REMARK Flexibility Score: inf
ROOT
ATOM      1  C   UNL A   1      33.932  28.322  23.874  1.00  0.00     0.021 C 
ENDROOT
BRANCH   1   2
ATOM      2  C   UNL A   1      33.616  28.410  22.381  1.00  0.00     0.116 C 
BRANCH   2   3
ATOM      3  N   UNL A   1      32.222  28.682  22.081  1.00  0.00    -0.353 N 
ATOM      4  C   UNL A   1      31.185  27.791  22.039  1.00  0.00     0.257 C 
ATOM      5  O   UNL A   1      30.022  28.203  22.001  1.00  0.00    -0.271 OA
ATOM      6  H   UNL A   1      31.997  29.619  21.884  1.00  0.00     0.163 HD
BRANCH   4   7
ATOM      7  C   UNL A   1      31.474  26.288  22.084  1.00  0.00     0.329 C 
BRANCH   7   8
ATOM      8  O   UNL A   1      30.747  25.533  23.040  1.00  0.00    -0.484 OA
BRANCH   8   9
ATOM      9  C   UNL A   1      31.403  25.117  24.166  1.00  0.00     0.120 A 
ATOM     10  C   UNL A   1      33.329  24.535  25.535  1.00  0.00    -0.021 A 
ATOM     11  C   UNL A   1      32.483  24.315  26.626  1.00  0.00     0.008 A 
ATOM     12  C   UNL A   1      32.778  24.911  24.299  1.00  0.00     0.054 A 
ATOM     13  C   UNL A   1      31.107  24.493  26.492  1.00  0.00     0.004 A 
ATOM     14  C   UNL A   1      30.572  24.897  25.268  1.00  0.00     0.046 A 
BRANCH  10  15
ATOM     15  C   UNL A   1      34.780  24.344  25.696  1.00  0.00     0.031 C 
ATOM     16  C   UNL A   1      35.450  23.186  25.539  1.00  0.00     0.095 C 
BRANCH  16  17
ATOM     17  C   UNL A   1      36.955  23.139  25.750  1.00  0.00     0.103 C 
ATOM     18  N   UNL A   1      38.203  23.100  25.925  1.00  0.00    -0.192 NA
ENDBRANCH  16  17
BRANCH  16  19
ATOM     19  C   UNL A   1      34.824  21.981  25.118  1.00  0.00     0.149 A 
ATOM     20  N   UNL A   1      33.624  21.757  24.618  1.00  0.00    -0.228 NA
ATOM     21  N   UNL A   1      35.545  20.808  25.181  1.00  0.00    -0.337 N 
ATOM     22  C   UNL A   1      33.567  20.409  24.368  1.00  0.00     0.089 A 
ATOM     23  C   UNL A   1      34.754  19.785  24.726  1.00  0.00     0.066 A 
ATOM     24  H   UNL A   1      36.472  20.720  25.499  1.00  0.00     0.168 HD
ATOM     25  C   UNL A   1      32.526  19.632  23.841  1.00  0.00     0.030 A 
ATOM     26  C   UNL A   1      34.963  18.408  24.626  1.00  0.00     0.028 A 
ATOM     27  C   UNL A   1      32.699  18.244  23.749  1.00  0.00     0.002 A 
ATOM     28  C   UNL A   1      33.896  17.643  24.143  1.00  0.00     0.002 A 
ENDBRANCH  16  19
ENDBRANCH  10  15
ENDBRANCH   8   9
ENDBRANCH   7   8
ENDBRANCH   4   7
ENDBRANCH   2   3
ENDBRANCH   1   2
BRANCH   1  29
ATOM     29  C   UNL A   1      33.025  29.130  24.806  1.00  0.00     0.002 C 
BRANCH  29  30
ATOM     30  C   UNL A   1      32.058  28.339  25.690  1.00  0.00     0.002 C 
BRANCH  30  31
ATOM     31  C   UNL A   1      32.476  28.199  27.152  1.00  0.00     0.021 C 
BRANCH  31  32
ATOM     32  C   UNL A   1      33.870  28.726  27.474  1.00  0.00     0.116 C 
BRANCH  32  33
ATOM     33  N   UNL A   1      33.880  30.085  28.001  1.00  0.00    -0.352 N 
ATOM     34  C   UNL A   1      34.926  30.759  28.590  1.00  0.00     0.251 C 
ATOM     35  H   UNL A   1      33.035  30.584  27.926  1.00  0.00     0.163 HD
ATOM     36  O   UNL A   1      34.776  31.881  29.062  1.00  0.00    -0.269 OA
BRANCH  34  37
ATOM     37  C   UNL A   1      36.233  30.081  28.689  1.00  0.00     0.039 A 
ATOM     38  C   UNL A   1      37.133  30.178  27.626  1.00  0.00     0.014 A 
ATOM     39  C   UNL A   1      36.597  29.436  29.874  1.00  0.00     0.014 A 
ATOM     40  C   UNL A   1      38.435  29.703  27.784  1.00  0.00     0.010 A 
ATOM     41  C   UNL A   1      37.915  29.037  30.058  1.00  0.00     0.010 A 
ATOM     42  C   UNL A   1      38.849  29.174  29.019  1.00  0.00    -0.014 A 
BRANCH  42  43
ATOM     43  C   UNL A   1      40.254  28.757  29.251  1.00  0.00     0.031 A 
ATOM     44  C   UNL A   1      41.204  29.692  29.942  1.00  0.00     0.074 A 
ATOM     45  C   UNL A   1      40.693  27.581  28.760  1.00  0.00     0.049 A 
ATOM     46  N   UNL A   1      42.489  29.564  30.150  1.00  0.00    -0.248 NA
ATOM     47  C   UNL A   1      40.640  30.960  30.433  1.00  0.00     0.031 C 
ATOM     48  C   UNL A   1      39.882  26.618  28.014  1.00  0.00     0.029 A 
ATOM     49  N   UNL A   1      41.937  27.004  28.804  1.00  0.00    -0.354 N 
ATOM     50  C   UNL A   1      42.889  30.740  30.769  1.00  0.00     0.074 A 
ATOM     51  C   UNL A   1      41.724  31.594  30.853  1.00  0.00     0.031 C 
ATOM     52  C   UNL A   1      40.642  25.559  27.690  1.00  0.00     0.029 A 
ATOM     53  C   UNL A   1      42.000  25.782  28.177  1.00  0.00     0.049 A 
ATOM     54  H   UNL A   1      42.711  27.424  29.242  1.00  0.00     0.167 HD
ATOM     55  C   UNL A   1      44.111  31.068  31.249  1.00  0.00     0.037 A 
ATOM     56  C   UNL A   1      43.038  24.941  28.015  1.00  0.00     0.037 A 
ATOM     57  C   UNL A   1      45.256  30.199  31.202  1.00  0.00     0.049 A 
ATOM     58  C   UNL A   1      44.379  25.313  28.590  1.00  0.00     0.074 A 
ATOM     59  C   UNL A   1      46.522  30.407  31.721  1.00  0.00     0.029 A 
ATOM     60  N   UNL A   1      45.269  28.948  30.603  1.00  0.00    -0.354 N 
ATOM     61  N   UNL A   1      44.729  26.399  29.235  1.00  0.00    -0.248 NA
ATOM     62  C   UNL A   1      45.466  24.339  28.421  1.00  0.00     0.031 C 
ATOM     63  C   UNL A   1      47.309  29.294  31.409  1.00  0.00     0.029 A 
ATOM     64  C   UNL A   1      46.523  28.376  30.731  1.00  0.00     0.049 A 
ATOM     65  H   UNL A   1      44.499  28.529  30.154  1.00  0.00     0.167 HD
ATOM     66  C   UNL A   1      46.064  26.229  29.573  1.00  0.00     0.074 A 
ATOM     67  C   UNL A   1      46.459  24.929  29.073  1.00  0.00     0.031 C 
ATOM     68  C   UNL A   1      46.890  27.075  30.236  1.00  0.00     0.037 A 
BRANCH  55  69
ATOM     69  C   UNL A   1      44.265  32.421  31.880  1.00  0.00     0.064 A 
ATOM     70  C   UNL A   1      44.030  32.624  33.248  1.00  0.00     0.173 A 
ATOM     71  C   UNL A   1      44.668  33.524  31.113  1.00  0.00     0.173 A 
ATOM     72  F   UNL A   1      43.629  31.604  34.021  1.00  0.00    -0.203 F 
ATOM     73  C   UNL A   1      44.163  33.886  33.819  1.00  0.00     0.198 A 
ATOM     74  C   UNL A   1      44.829  34.780  31.694  1.00  0.00     0.198 A 
ATOM     75  F   UNL A   1      44.910  33.386  29.801  1.00  0.00    -0.203 F 
ATOM     76  F   UNL A   1      43.880  34.065  35.118  1.00  0.00    -0.200 F 
ATOM     77  C   UNL A   1      44.568  34.962  33.044  1.00  0.00     0.200 A 
ATOM     78  F   UNL A   1      45.232  35.817  30.946  1.00  0.00    -0.200 F 
ATOM     79  F   UNL A   1      44.697  36.176  33.596  1.00  0.00    -0.200 F 
ENDBRANCH  55  69
BRANCH  56  80
ATOM     80  C   UNL A   1      42.845  23.646  27.313  1.00  0.00     0.064 A 
ATOM     81  C   UNL A   1      42.270  22.550  27.974  1.00  0.00     0.173 A 
ATOM     82  C   UNL A   1      43.231  23.471  25.976  1.00  0.00     0.173 A 
ATOM     83  F   UNL A   1      41.903  22.663  29.260  1.00  0.00    -0.203 F 
ATOM     84  C   UNL A   1      42.108  21.325  27.332  1.00  0.00     0.198 A 
ATOM     85  C   UNL A   1      43.044  22.252  25.327  1.00  0.00     0.198 A 
ATOM     86  F   UNL A   1      43.779  24.489  25.297  1.00  0.00    -0.203 F 
ATOM     87  F   UNL A   1      41.596  20.282  28.001  1.00  0.00    -0.200 F 
ATOM     88  C   UNL A   1      42.490  21.178  26.007  1.00  0.00     0.200 A 
ATOM     89  F   UNL A   1      43.403  22.117  24.043  1.00  0.00    -0.200 F 
ATOM     90  F   UNL A   1      42.333  19.999  25.389  1.00  0.00    -0.200 F 
ENDBRANCH  56  80
BRANCH  68  91
ATOM     91  C   UNL A   1      48.291  26.606  30.491  1.00  0.00     0.064 A 
ATOM     92  C   UNL A   1      49.342  26.923  29.618  1.00  0.00     0.173 A 
ATOM     93  C   UNL A   1      48.594  25.870  31.647  1.00  0.00     0.173 A 
ATOM     94  F   UNL A   1      49.099  27.611  28.493  1.00  0.00    -0.203 F 
ATOM     95  C   UNL A   1      50.642  26.504  29.883  1.00  0.00     0.198 A 
ATOM     96  C   UNL A   1      49.900  25.476  31.922  1.00  0.00     0.198 A 
ATOM     97  F   UNL A   1      47.623  25.546  32.515  1.00  0.00    -0.203 F 
ATOM     98  F   UNL A   1      51.625  26.784  29.016  1.00  0.00    -0.200 F 
ATOM     99  C   UNL A   1      50.921  25.788  31.038  1.00  0.00     0.200 A 
ATOM    100  F   UNL A   1      50.169  24.794  33.045  1.00  0.00    -0.200 F 
ATOM    101  F   UNL A   1      52.175  25.393  31.297  1.00  0.00    -0.200 F 
ENDBRANCH  68  91
ENDBRANCH  42  43
ENDBRANCH  34  37
ENDBRANCH  32  33
ENDBRANCH  31  32
ENDBRANCH  30  31
ENDBRANCH  29  30
ENDBRANCH   1  29
TORSDOF 18
ENDMDL
MODEL 3
REMARK VINA RESULT:     -11.8      1.068      7.192
REMARK SMILES N#C/C(=C/c1cccc(OCC(=O)NCCCCCCNC(=O)c2ccc(-c3c4nc(c(-c5c(F)c(F)c(F)c(F)c5F)c5ccc([nH]5)c(-c5c(F)c(F)c(F)c(F)c5F)c5nc(c(-c6c(F)c(F)c(F)c(F)c6F)c6ccc3[nH]6)C=C5)C=C4)cc2)c1)c1nc2ccccc2[nH]1
REMARK SMILES IDX 16 1 15 2 14 3 12 4 13 5 11 7 10 8 9 9 5 10 6 11 87 12 7 13
REMARK SMILES IDX 8 14 4 15 3 16 2 17 1 18 88 19 89 20 96 21 90 22 95 23 91 25
REMARK SMILES IDX 94 26 92 27 93 28 17 29 18 30 19 31 20 32 21 33 22 34 23 36
REMARK SMILES IDX 24 37 25 38 86 39 26 40 85 41 27 42 28 43 29 44 79 45 30 46
REMARK SMILES IDX 84 47 78 48 80 49 31 50 83 51 77 52 76 53 32 55 64 56 44 57
REMARK SMILES IDX 63 58 45 59 48 60 62 61 81 62 46 63 47 64 61 66 82 67 49 68
REMARK SMILES IDX 33 69 34 70 42 71 35 72 36 73 40 74 43 75 37 76 38 77 41 78
REMARK SMILES IDX 39 79 65 80 66 81 74 82 67 83 68 84 72 85 75 86 69 87 70 88
REMARK SMILES IDX 73 89 71 90 50 91 51 92 59 93 52 94 53 95 57 96 60 97 54 98
REMARK SMILES IDX 55 99 58 100 56 101
REMARK H PARENT 14 6 96 24 21 35 80 54 48 65
REMARK Flexibility Score: inf
ROOT
ATOM      1  C   UNL A   1      32.078  28.836  24.113  1.00  0.00     0.021 C 
ENDROOT
BRANCH   1   2
ATOM      2  C   UNL A   1      31.445  27.463  23.883  1.00  0.00     0.116 C 
BRANCH   2   3
ATOM      3  N   UNL A   1      30.457  27.088  24.878  1.00  0.00    -0.353 N 
ATOM      4  C   UNL A   1      30.439  25.967  25.661  1.00  0.00     0.257 C 
ATOM      5  O   UNL A   1      29.665  25.899  26.620  1.00  0.00    -0.271 OA
ATOM      6  H   UNL A   1      29.709  27.716  25.002  1.00  0.00     0.163 HD
BRANCH   4   7
ATOM      7  C   UNL A   1      31.412  24.822  25.367  1.00  0.00     0.329 C 
BRANCH   7   8
ATOM      8  O   UNL A   1      32.745  24.992  25.824  1.00  0.00    -0.484 OA
BRANCH   8   9
ATOM      9  C   UNL A   1      33.757  24.472  25.065  1.00  0.00     0.120 A 
ATOM     10  C   UNL A   1      35.917  23.433  24.645  1.00  0.00    -0.021 A 
ATOM     11  C   UNL A   1      35.631  23.399  23.277  1.00  0.00     0.008 A 
ATOM     12  C   UNL A   1      34.985  23.996  25.531  1.00  0.00     0.054 A 
ATOM     13  C   UNL A   1      34.418  23.897  22.803  1.00  0.00     0.004 A 
ATOM     14  C   UNL A   1      33.485  24.426  23.696  1.00  0.00     0.046 A 
BRANCH  10  15
ATOM     15  C   UNL A   1      37.202  22.901  25.126  1.00  0.00     0.031 C 
ATOM     16  C   UNL A   1      37.478  21.608  25.387  1.00  0.00     0.095 C 
BRANCH  16  17
ATOM     17  C   UNL A   1      38.855  21.207  25.891  1.00  0.00     0.103 C 
ATOM     18  N   UNL A   1      39.997  20.874  26.310  1.00  0.00    -0.192 NA
ENDBRANCH  16  17
BRANCH  16  19
ATOM     19  C   UNL A   1      36.549  20.557  25.156  1.00  0.00     0.149 A 
ATOM     20  N   UNL A   1      36.726  19.324  24.719  1.00  0.00    -0.228 NA
ATOM     21  N   UNL A   1      35.220  20.777  25.448  1.00  0.00    -0.337 N 
ATOM     22  C   UNL A   1      35.481  18.745  24.716  1.00  0.00     0.089 A 
ATOM     23  C   UNL A   1      34.515  19.639  25.156  1.00  0.00     0.066 A 
ATOM     24  H   UNL A   1      34.841  21.612  25.808  1.00  0.00     0.168 HD
ATOM     25  C   UNL A   1      35.088  17.454  24.341  1.00  0.00     0.030 A 
ATOM     26  C   UNL A   1      33.152  19.337  25.211  1.00  0.00     0.028 A 
ATOM     27  C   UNL A   1      33.726  17.128  24.366  1.00  0.00     0.002 A 
ATOM     28  C   UNL A   1      32.774  18.058  24.787  1.00  0.00     0.002 A 
ENDBRANCH  16  19
ENDBRANCH  10  15
ENDBRANCH   8   9
ENDBRANCH   7   8
ENDBRANCH   4   7
ENDBRANCH   2   3
ENDBRANCH   1   2
BRANCH   1  29
ATOM     29  C   UNL A   1      31.416  29.716  25.176  1.00  0.00     0.002 C 
BRANCH  29  30
ATOM     30  C   UNL A   1      32.332  30.325  26.242  1.00  0.00     0.002 C 
BRANCH  30  31
ATOM     31  C   UNL A   1      31.832  31.626  26.866  1.00  0.00     0.021 C 
BRANCH  31  32
ATOM     32  C   UNL A   1      32.925  32.539  27.409  1.00  0.00     0.116 C 
BRANCH  32  33
ATOM     33  N   UNL A   1      32.495  33.915  27.619  1.00  0.00    -0.352 N 
ATOM     34  C   UNL A   1      33.007  34.839  28.502  1.00  0.00     0.251 C 
ATOM     35  H   UNL A   1      31.746  34.223  27.061  1.00  0.00     0.163 HD
ATOM     36  O   UNL A   1      32.497  35.947  28.632  1.00  0.00    -0.269 OA
BRANCH  34  37
ATOM     37  C   UNL A   1      34.162  34.452  29.334  1.00  0.00     0.039 A 
ATOM     38  C   UNL A   1      33.939  33.794  30.545  1.00  0.00     0.014 A 
ATOM     39  C   UNL A   1      35.462  34.659  28.865  1.00  0.00     0.014 A 
ATOM     40  C   UNL A   1      35.021  33.259  31.245  1.00  0.00     0.010 A 
ATOM     41  C   UNL A   1      36.529  34.058  29.521  1.00  0.00     0.010 A 
ATOM     42  C   UNL A   1      36.319  33.346  30.712  1.00  0.00    -0.014 A 
BRANCH  42  43
ATOM     43  C   UNL A   1      37.475  32.699  31.380  1.00  0.00     0.031 A 
ATOM     44  C   UNL A   1      38.186  31.562  30.703  1.00  0.00     0.074 A 
ATOM     45  C   UNL A   1      37.822  33.071  32.627  1.00  0.00     0.049 A 
ATOM     46  N   UNL A   1      39.146  30.798  31.156  1.00  0.00    -0.248 NA
ATOM     47  C   UNL A   1      37.730  31.215  29.348  1.00  0.00     0.031 C 
ATOM     48  C   UNL A   1      37.164  34.116  33.414  1.00  0.00     0.029 A 
ATOM     49  N   UNL A   1      38.807  32.601  33.459  1.00  0.00    -0.354 N 
ATOM     50  C   UNL A   1      39.389  29.867  30.155  1.00  0.00     0.074 A 
ATOM     51  C   UNL A   1      38.440  30.126  29.094  1.00  0.00     0.031 C 
ATOM     52  C   UNL A   1      37.779  34.225  34.604  1.00  0.00     0.029 A 
ATOM     53  C   UNL A   1      38.851  33.237  34.677  1.00  0.00     0.049 A 
ATOM     54  H   UNL A   1      39.424  31.878  33.208  1.00  0.00     0.167 HD
ATOM     55  C   UNL A   1      40.337  28.902  30.112  1.00  0.00     0.037 A 
ATOM     56  C   UNL A   1      39.665  33.041  35.731  1.00  0.00     0.037 A 
ATOM     57  C   UNL A   1      41.307  28.677  31.150  1.00  0.00     0.049 A 
ATOM     58  C   UNL A   1      40.734  31.985  35.645  1.00  0.00     0.074 A 
ATOM     59  C   UNL A   1      42.353  27.772  31.175  1.00  0.00     0.029 A 
ATOM     60  N   UNL A   1      41.351  29.374  32.348  1.00  0.00    -0.354 N 
ATOM     61  N   UNL A   1      41.000  31.156  34.664  1.00  0.00    -0.248 NA
ATOM     62  C   UNL A   1      41.622  31.843  36.807  1.00  0.00     0.031 C 
ATOM     63  C   UNL A   1      43.012  27.900  32.402  1.00  0.00     0.029 A 
ATOM     64  C   UNL A   1      42.401  28.913  33.124  1.00  0.00     0.049 A 
ATOM     65  H   UNL A   1      40.729  30.092  32.608  1.00  0.00     0.167 HD
ATOM     66  C   UNL A   1      42.098  30.416  35.077  1.00  0.00     0.074 A 
ATOM     67  C   UNL A   1      42.459  30.902  36.393  1.00  0.00     0.031 C 
ATOM     68  C   UNL A   1      42.749  29.421  34.426  1.00  0.00     0.037 A 
BRANCH  55  69
ATOM     69  C   UNL A   1      40.377  28.027  28.894  1.00  0.00     0.064 A 
ATOM     70  C   UNL A   1      39.669  26.817  28.835  1.00  0.00     0.173 A 
ATOM     71  C   UNL A   1      41.115  28.411  27.764  1.00  0.00     0.173 A 
ATOM     72  F   UNL A   1      38.959  26.400  29.894  1.00  0.00    -0.203 F 
ATOM     73  C   UNL A   1      39.725  26.008  27.704  1.00  0.00     0.198 A 
ATOM     74  C   UNL A   1      41.145  27.612  26.624  1.00  0.00     0.198 A 
ATOM     75  F   UNL A   1      41.807  29.560  27.765  1.00  0.00    -0.203 F 
ATOM     76  F   UNL A   1      39.085  24.830  27.693  1.00  0.00    -0.200 F 
ATOM     77  C   UNL A   1      40.457  26.408  26.597  1.00  0.00     0.200 A 
ATOM     78  F   UNL A   1      41.844  28.007  25.549  1.00  0.00    -0.200 F 
ATOM     79  F   UNL A   1      40.508  25.629  25.508  1.00  0.00    -0.200 F 
ENDBRANCH  55  69
BRANCH  56  80
ATOM     80  C   UNL A   1      39.530  33.888  36.944  1.00  0.00     0.064 A 
ATOM     81  C   UNL A   1      38.797  33.440  38.053  1.00  0.00     0.173 A 
ATOM     82  C   UNL A   1      40.122  35.157  37.023  1.00  0.00     0.173 A 
ATOM     83  F   UNL A   1      38.196  32.242  38.018  1.00  0.00    -0.203 F 
ATOM     84  C   UNL A   1      38.643  34.237  39.185  1.00  0.00     0.198 A 
ATOM     85  C   UNL A   1      39.989  35.943  38.167  1.00  0.00     0.198 A 
ATOM     86  F   UNL A   1      40.838  35.629  35.993  1.00  0.00    -0.203 F 
ATOM     87  F   UNL A   1      37.901  33.803  40.213  1.00  0.00    -0.200 F 
ATOM     88  C   UNL A   1      39.244  35.486  39.243  1.00  0.00     0.200 A 
ATOM     89  F   UNL A   1      40.580  37.144  38.224  1.00  0.00    -0.200 F 
ATOM     90  F   UNL A   1      39.097  36.252  40.333  1.00  0.00    -0.200 F 
ENDBRANCH  56  80
BRANCH  68  91
ATOM     91  C   UNL A   1      43.938  28.816  35.111  1.00  0.00     0.064 A 
ATOM     92  C   UNL A   1      45.220  29.369  34.983  1.00  0.00     0.173 A 
ATOM     93  C   UNL A   1      43.783  27.697  35.944  1.00  0.00     0.173 A 
ATOM     94  F   UNL A   1      45.420  30.429  34.187  1.00  0.00    -0.203 F 
ATOM     95  C   UNL A   1      46.308  28.812  35.648  1.00  0.00     0.198 A 
ATOM     96  C   UNL A   1      44.868  27.159  36.629  1.00  0.00     0.198 A 
ATOM     97  F   UNL A   1      42.574  27.135  36.103  1.00  0.00    -0.203 F 
ATOM     98  F   UNL A   1      47.532  29.332  35.481  1.00  0.00    -0.200 F 
ATOM     99  C   UNL A   1      46.130  27.713  36.476  1.00  0.00     0.200 A 
ATOM    100  F   UNL A   1      44.692  26.104  37.438  1.00  0.00    -0.200 F 
ATOM    101  F   UNL A   1      47.177  27.183  37.123  1.00  0.00    -0.200 F 
ENDBRANCH  68  91
ENDBRANCH  42  43
ENDBRANCH  34  37
ENDBRANCH  32  33
ENDBRANCH  31  32
ENDBRANCH  30  31
ENDBRANCH  29  30
ENDBRANCH   1  29
TORSDOF 18
ENDMDL
