MODEL 1
REMARK VINA RESULT:     -12.0      0.000      0.000
REMARK SMILES CC[C@](C)([NH3+])C(=O)Nc1ccc(C(F)(F)F)cc1C(=O)NCCCCCCNC(=O)c1ccc(-c2c3nc(c(-c4c(F)c(F)c(F)c(F)c4F)c4ccc([nH]4)c(-c4c(F)c(F)c(F)c(F)c4F)c4nc(c(-c5c(F)c(F)c(F)c(F)c5F)c5ccc2[nH]5)C=C4)C=C3)cc1
REMARK SMILES IDX 24 1 23 2 22 3 21 4 19 5 20 6 18 8 9 9 10 10 11 11 17 12
REMARK SMILES IDX 12 13 8 14 6 15 7 16 3 18 4 19 2 20 1 21 5 22 13 26 14 27
REMARK SMILES IDX 15 28 16 29 25 30 26 31 27 32 28 33 29 34 30 36 31 37 32 38
REMARK SMILES IDX 93 39 33 40 92 41 34 42 35 43 36 44 86 45 37 46 91 47 85 48
REMARK SMILES IDX 87 49 38 50 90 51 84 52 83 53 39 55 71 56 51 57 70 58 52 59
REMARK SMILES IDX 55 60 69 61 88 62 53 63 54 64 68 66 89 67 56 68 40 69 41 70
REMARK SMILES IDX 49 71 42 72 43 73 47 74 50 75 44 76 45 77 48 78 46 79 72 80
REMARK SMILES IDX 73 81 81 82 74 83 75 84 79 85 82 86 76 87 77 88 80 89 78 90
REMARK SMILES IDX 57 91 58 92 66 93 59 94 60 95 64 96 67 97 61 98 62 99 65 100
REMARK SMILES IDX 63 101
REMARK H PARENT 21 7 8 17 5 23 5 24 5 25 28 35 87 54 55 65
REMARK Flexibility Score: inf
ROOT
ATOM      1  C   UNL A   1      37.015  21.822  24.452  1.00  0.00     0.002 C 
ENDROOT
BRANCH   1   2
ATOM      2  C   UNL A   1      37.060  22.961  25.482  1.00  0.00     0.021 C 
BRANCH   2   3
ATOM      3  C   UNL A   1      36.092  24.110  25.223  1.00  0.00     0.116 C 
BRANCH   3   4
ATOM      4  N   UNL A   1      34.916  24.125  26.055  1.00  0.00    -0.352 N 
ATOM      5  C   UNL A   1      33.754  23.388  25.987  1.00  0.00     0.253 C 
ATOM      6  O   UNL A   1      32.918  23.614  26.870  1.00  0.00    -0.269 OA
ATOM      7  H   UNL A   1      34.947  24.771  26.798  1.00  0.00     0.163 HD
BRANCH   5   8
ATOM      8  C   UNL A   1      33.388  22.418  24.885  1.00  0.00     0.063 A 
ATOM      9  C   UNL A   1      33.174  22.662  23.518  1.00  0.00     0.054 A 
ATOM     10  C   UNL A   1      32.506  21.694  22.743  1.00  0.00     0.027 A 
ATOM     11  C   UNL A   1      32.325  20.396  23.212  1.00  0.00     0.015 A 
ATOM     12  C   UNL A   1      33.246  21.076  25.324  1.00  0.00     0.029 A 
ATOM     13  C   UNL A   1      32.796  20.048  24.476  1.00  0.00     0.056 A 
BRANCH   9  14
ATOM     14  N   UNL A   1      33.598  23.757  22.752  1.00  0.00    -0.320 N 
ATOM     15  C   UNL A   1      32.993  24.917  22.353  1.00  0.00     0.285 C 
ATOM     16  O   UNL A   1      33.676  25.608  21.580  1.00  0.00    -0.267 OA
ATOM     17  H   UNL A   1      34.526  23.672  22.433  1.00  0.00     0.170 HD
BRANCH  15  18
ATOM     18  C   UNL A   1      31.660  25.490  22.935  1.00  0.00     0.171 C 
ATOM     19  C   UNL A   1      31.191  26.641  22.029  1.00  0.00     0.090 C 
BRANCH  18  20
ATOM     20  C   UNL A   1      31.913  25.922  24.398  1.00  0.00     0.075 C 
ATOM     21  C   UNL A   1      33.097  26.859  24.603  1.00  0.00     0.011 C 
ENDBRANCH  18  20
BRANCH  18  22
ATOM     22  N   UNL A   1      30.568  24.509  22.950  1.00  0.00    -0.345 N 
ATOM     23  H   UNL A   1      29.682  24.984  22.781  1.00  0.00     0.345 HD
ATOM     24  H   UNL A   1      30.539  24.047  23.859  1.00  0.00     0.345 HD
ATOM     25  H   UNL A   1      30.725  23.815  22.220  1.00  0.00     0.345 HD
ENDBRANCH  18  22
ENDBRANCH  15  18
ENDBRANCH   9  14
BRANCH  13  26
ATOM     26  C   UNL A   1      32.837  18.597  24.889  1.00  0.00     0.416 C 
ATOM     27  F   UNL A   1      34.048  18.018  24.678  1.00  0.00    -0.166 F 
ATOM     28  F   UNL A   1      32.578  18.444  26.221  1.00  0.00    -0.166 F 
ATOM     29  F   UNL A   1      31.921  17.821  24.249  1.00  0.00    -0.166 F 
ENDBRANCH  13  26
ENDBRANCH   5   8
ENDBRANCH   3   4
ENDBRANCH   2   3
ENDBRANCH   1   2
BRANCH   1  30
ATOM     30  C   UNL A   1      36.832  20.395  24.990  1.00  0.00     0.002 C 
BRANCH  30  31
ATOM     31  C   UNL A   1      38.060  19.482  24.981  1.00  0.00     0.021 C 
BRANCH  31  32
ATOM     32  C   UNL A   1      39.264  19.984  25.766  1.00  0.00     0.116 C 
BRANCH  32  33
ATOM     33  N   UNL A   1      40.325  18.999  25.878  1.00  0.00    -0.352 N 
ATOM     34  C   UNL A   1      41.666  19.169  26.115  1.00  0.00     0.251 C 
ATOM     35  H   UNL A   1      40.037  18.064  25.768  1.00  0.00     0.163 HD
ATOM     36  O   UNL A   1      42.425  18.209  26.056  1.00  0.00    -0.269 OA
BRANCH  34  37
ATOM     37  C   UNL A   1      42.207  20.513  26.416  1.00  0.00     0.039 A 
ATOM     38  C   UNL A   1      42.645  21.306  25.353  1.00  0.00     0.014 A 
ATOM     39  C   UNL A   1      42.300  20.988  27.727  1.00  0.00     0.014 A 
ATOM     40  C   UNL A   1      43.127  22.593  25.599  1.00  0.00     0.010 A 
ATOM     41  C   UNL A   1      42.702  22.301  27.963  1.00  0.00     0.010 A 
ATOM     42  C   UNL A   1      43.126  23.114  26.903  1.00  0.00    -0.014 A 
BRANCH  42  43
ATOM     43  C   UNL A   1      43.568  24.506  27.165  1.00  0.00     0.031 A 
ATOM     44  C   UNL A   1      42.598  25.526  27.694  1.00  0.00     0.074 A 
ATOM     45  C   UNL A   1      44.837  24.862  26.884  1.00  0.00     0.049 A 
ATOM     46  N   UNL A   1      42.792  26.794  27.961  1.00  0.00    -0.248 NA
ATOM     47  C   UNL A   1      41.219  25.070  27.932  1.00  0.00     0.031 C 
ATOM     48  C   UNL A   1      45.855  23.975  26.317  1.00  0.00     0.029 A 
ATOM     49  N   UNL A   1      45.488  26.060  27.033  1.00  0.00    -0.354 N 
ATOM     50  C   UNL A   1      41.563  27.283  28.387  1.00  0.00     0.074 A 
ATOM     51  C   UNL A   1      40.617  26.195  28.286  1.00  0.00     0.031 C 
ATOM     52  C   UNL A   1      47.009  24.651  26.196  1.00  0.00     0.029 A 
ATOM     53  C   UNL A   1      46.803  26.026  26.637  1.00  0.00     0.049 A 
ATOM     54  H   UNL A   1      45.053  26.868  27.390  1.00  0.00     0.167 HD
ATOM     55  C   UNL A   1      41.261  28.520  28.847  1.00  0.00     0.037 A 
ATOM     56  C   UNL A   1      47.735  26.998  26.625  1.00  0.00     0.037 A 
ATOM     57  C   UNL A   1      42.214  29.593  28.962  1.00  0.00     0.049 A 
ATOM     58  C   UNL A   1      47.368  28.367  27.132  1.00  0.00     0.074 A 
ATOM     59  C   UNL A   1      42.023  30.867  29.469  1.00  0.00     0.029 A 
ATOM     60  N   UNL A   1      43.540  29.520  28.558  1.00  0.00    -0.354 N 
ATOM     61  N   UNL A   1      46.223  28.797  27.605  1.00  0.00    -0.248 NA
ATOM     62  C   UNL A   1      48.427  29.384  27.110  1.00  0.00     0.031 C 
ATOM     63  C   UNL A   1      43.215  31.582  29.318  1.00  0.00     0.029 A 
ATOM     64  C   UNL A   1      44.170  30.735  28.778  1.00  0.00     0.049 A 
ATOM     65  H   UNL A   1      43.970  28.723  28.173  1.00  0.00     0.167 HD
ATOM     66  C   UNL A   1      46.431  30.122  27.964  1.00  0.00     0.074 A 
ATOM     67  C   UNL A   1      47.819  30.417  27.675  1.00  0.00     0.031 C 
ATOM     68  C   UNL A   1      45.553  31.013  28.487  1.00  0.00     0.037 A 
BRANCH  55  69
ATOM     69  C   UNL A   1      39.841  28.784  29.261  1.00  0.00     0.064 A 
ATOM     70  C   UNL A   1      38.884  29.266  28.353  1.00  0.00     0.173 A 
ATOM     71  C   UNL A   1      39.418  28.508  30.570  1.00  0.00     0.173 A 
ATOM     72  F   UNL A   1      39.236  29.556  27.092  1.00  0.00    -0.203 F 
ATOM     73  C   UNL A   1      37.568  29.489  28.749  1.00  0.00     0.198 A 
ATOM     74  C   UNL A   1      38.093  28.700  30.953  1.00  0.00     0.198 A 
ATOM     75  F   UNL A   1      40.288  28.040  31.477  1.00  0.00    -0.203 F 
ATOM     76  F   UNL A   1      36.685  29.997  27.878  1.00  0.00    -0.200 F 
ATOM     77  C   UNL A   1      37.171  29.197  30.045  1.00  0.00     0.200 A 
ATOM     78  F   UNL A   1      37.708  28.402  32.202  1.00  0.00    -0.200 F 
ATOM     79  F   UNL A   1      35.900  29.400  30.421  1.00  0.00    -0.200 F 
ENDBRANCH  55  69
BRANCH  56  80
ATOM     80  C   UNL A   1      49.109  26.708  26.135  1.00  0.00     0.064 A 
ATOM     81  C   UNL A   1      49.482  26.995  24.814  1.00  0.00     0.173 A 
ATOM     82  C   UNL A   1      50.073  26.120  26.969  1.00  0.00     0.173 A 
ATOM     83  F   UNL A   1      48.592  27.539  23.971  1.00  0.00    -0.203 F 
ATOM     84  C   UNL A   1      50.754  26.682  24.339  1.00  0.00     0.198 A 
ATOM     85  C   UNL A   1      51.355  25.839  26.503  1.00  0.00     0.198 A 
ATOM     86  F   UNL A   1      49.771  25.829  28.243  1.00  0.00    -0.203 F 
ATOM     87  F   UNL A   1      51.063  26.916  23.056  1.00  0.00    -0.200 F 
ATOM     88  C   UNL A   1      51.691  26.109  25.185  1.00  0.00     0.200 A 
ATOM     89  F   UNL A   1      52.262  25.300  27.328  1.00  0.00    -0.200 F 
ATOM     90  F   UNL A   1      52.914  25.808  24.727  1.00  0.00    -0.200 F 
ENDBRANCH  56  80
BRANCH  68  91
ATOM     91  C   UNL A   1      46.078  32.383  28.812  1.00  0.00     0.064 A 
ATOM     92  C   UNL A   1      46.027  33.435  27.884  1.00  0.00     0.173 A 
ATOM     93  C   UNL A   1      46.613  32.654  30.080  1.00  0.00     0.173 A 
ATOM     94  F   UNL A   1      45.537  33.225  26.653  1.00  0.00    -0.203 F 
ATOM     95  C   UNL A   1      46.527  34.694  28.201  1.00  0.00     0.198 A 
ATOM     96  C   UNL A   1      47.077  33.924  30.407  1.00  0.00     0.198 A 
ATOM     97  F   UNL A   1      46.677  31.688  31.009  1.00  0.00    -0.203 F 
ATOM     98  F   UNL A   1      46.523  35.666  27.279  1.00  0.00    -0.200 F 
ATOM     99  C   UNL A   1      47.044  34.941  29.464  1.00  0.00     0.200 A 
ATOM    100  F   UNL A   1      47.560  34.166  31.633  1.00  0.00    -0.200 F 
ATOM    101  F   UNL A   1      47.519  36.156  29.770  1.00  0.00    -0.200 F 
ENDBRANCH  68  91
ENDBRANCH  42  43
ENDBRANCH  34  37
ENDBRANCH  32  33
ENDBRANCH  31  32
ENDBRANCH  30  31
ENDBRANCH   1  30
TORSDOF 18
ENDMDL
MODEL 2
REMARK VINA RESULT:     -11.9      5.823     11.161
REMARK SMILES CC[C@](C)([NH3+])C(=O)Nc1ccc(C(F)(F)F)cc1C(=O)NCCCCCCNC(=O)c1ccc(-c2c3nc(c(-c4c(F)c(F)c(F)c(F)c4F)c4ccc([nH]4)c(-c4c(F)c(F)c(F)c(F)c4F)c4nc(c(-c5c(F)c(F)c(F)c(F)c5F)c5ccc2[nH]5)C=C4)C=C3)cc1
REMARK SMILES IDX 24 1 23 2 22 3 21 4 19 5 20 6 18 8 9 9 10 10 11 11 17 12
REMARK SMILES IDX 12 13 8 14 6 15 7 16 3 18 4 19 2 20 1 21 5 22 13 26 14 27
REMARK SMILES IDX 15 28 16 29 25 30 26 31 27 32 28 33 29 34 30 36 31 37 32 38
REMARK SMILES IDX 93 39 33 40 92 41 34 42 35 43 36 44 86 45 37 46 91 47 85 48
REMARK SMILES IDX 87 49 38 50 90 51 84 52 83 53 39 55 71 56 51 57 70 58 52 59
REMARK SMILES IDX 55 60 69 61 88 62 53 63 54 64 68 66 89 67 56 68 40 69 41 70
REMARK SMILES IDX 49 71 42 72 43 73 47 74 50 75 44 76 45 77 48 78 46 79 72 80
REMARK SMILES IDX 73 81 81 82 74 83 75 84 79 85 82 86 76 87 77 88 80 89 78 90
REMARK SMILES IDX 57 91 58 92 66 93 59 94 60 95 64 96 67 97 61 98 62 99 65 100
REMARK SMILES IDX 63 101
REMARK H PARENT 21 7 8 17 5 23 5 24 5 25 28 35 87 54 55 65
REMARK Flexibility Score: inf
ROOT
ATOM      1  C   UNL A   1      32.619  30.112  26.476  1.00  0.00     0.002 C 
ENDROOT
BRANCH   1   2
ATOM      2  C   UNL A   1      32.347  29.078  27.580  1.00  0.00     0.021 C 
BRANCH   2   3
ATOM      3  C   UNL A   1      32.663  27.634  27.210  1.00  0.00     0.116 C 
BRANCH   3   4
ATOM      4  N   UNL A   1      31.517  26.788  26.992  1.00  0.00    -0.352 N 
ATOM      5  C   UNL A   1      30.731  26.606  25.875  1.00  0.00     0.253 C 
ATOM      6  O   UNL A   1      29.815  25.783  25.987  1.00  0.00    -0.269 OA
ATOM      7  H   UNL A   1      31.251  26.249  27.771  1.00  0.00     0.163 HD
BRANCH   5   8
ATOM      8  C   UNL A   1      30.835  27.390  24.585  1.00  0.00     0.063 A 
ATOM      9  C   UNL A   1      31.941  27.563  23.735  1.00  0.00     0.054 A 
ATOM     10  C   UNL A   1      31.922  28.605  22.787  1.00  0.00     0.027 A 
ATOM     11  C   UNL A   1      30.739  29.263  22.465  1.00  0.00     0.015 A 
ATOM     12  C   UNL A   1      29.629  28.032  24.203  1.00  0.00     0.029 A 
ATOM     13  C   UNL A   1      29.554  28.902  23.101  1.00  0.00     0.056 A 
BRANCH   9  14
ATOM     14  N   UNL A   1      33.100  26.779  23.643  1.00  0.00    -0.320 N 
ATOM     15  C   UNL A   1      33.364  25.552  23.100  1.00  0.00     0.285 C 
ATOM     16  O   UNL A   1      34.517  25.139  23.311  1.00  0.00    -0.267 OA
ATOM     17  H   UNL A   1      33.888  27.200  24.058  1.00  0.00     0.170 HD
BRANCH  15  18
ATOM     18  C   UNL A   1      32.429  24.775  22.116  1.00  0.00     0.171 C 
ATOM     19  C   UNL A   1      32.228  25.635  20.858  1.00  0.00     0.090 C 
BRANCH  18  20
ATOM     20  C   UNL A   1      31.112  24.447  22.855  1.00  0.00     0.075 C 
ATOM     21  C   UNL A   1      31.196  23.300  23.855  1.00  0.00     0.011 C 
ENDBRANCH  18  20
BRANCH  18  22
ATOM     22  N   UNL A   1      33.003  23.505  21.658  1.00  0.00    -0.345 N 
ATOM     23  H   UNL A   1      33.921  23.674  21.248  1.00  0.00     0.345 HD
ATOM     24  H   UNL A   1      32.390  23.087  20.957  1.00  0.00     0.345 HD
ATOM     25  H   UNL A   1      33.097  22.868  22.449  1.00  0.00     0.345 HD
ENDBRANCH  18  22
ENDBRANCH  15  18
ENDBRANCH   9  14
BRANCH  13  26
ATOM     26  C   UNL A   1      28.235  29.423  22.583  1.00  0.00     0.416 C 
ATOM     27  F   UNL A   1      27.775  30.494  23.281  1.00  0.00    -0.166 F 
ATOM     28  F   UNL A   1      28.331  29.838  21.286  1.00  0.00    -0.166 F 
ATOM     29  F   UNL A   1      27.239  28.496  22.596  1.00  0.00    -0.166 F 
ENDBRANCH  13  26
ENDBRANCH   5   8
ENDBRANCH   3   4
ENDBRANCH   2   3
ENDBRANCH   1   2
BRANCH   1  30
ATOM     30  C   UNL A   1      31.419  30.916  25.954  1.00  0.00     0.002 C 
BRANCH  30  31
ATOM     31  C   UNL A   1      31.267  32.352  26.459  1.00  0.00     0.021 C 
BRANCH  31  32
ATOM     32  C   UNL A   1      32.458  32.914  27.225  1.00  0.00     0.116 C 
BRANCH  32  33
ATOM     33  N   UNL A   1      32.276  34.295  27.633  1.00  0.00    -0.352 N 
ATOM     34  C   UNL A   1      32.944  35.032  28.578  1.00  0.00     0.251 C 
ATOM     35  H   UNL A   1      31.561  34.778  27.158  1.00  0.00     0.163 HD
ATOM     36  O   UNL A   1      32.559  36.160  28.861  1.00  0.00    -0.269 OA
BRANCH  34  37
ATOM     37  C   UNL A   1      34.116  34.461  29.279  1.00  0.00     0.039 A 
ATOM     38  C   UNL A   1      33.913  33.841  30.514  1.00  0.00     0.014 A 
ATOM     39  C   UNL A   1      35.403  34.545  28.742  1.00  0.00     0.014 A 
ATOM     40  C   UNL A   1      34.991  33.260  31.185  1.00  0.00     0.010 A 
ATOM     41  C   UNL A   1      36.461  33.893  29.370  1.00  0.00     0.010 A 
ATOM     42  C   UNL A   1      36.268  33.250  30.601  1.00  0.00    -0.014 A 
BRANCH  42  43
ATOM     43  C   UNL A   1      37.405  32.572  31.272  1.00  0.00     0.031 A 
ATOM     44  C   UNL A   1      38.117  31.433  30.596  1.00  0.00     0.074 A 
ATOM     45  C   UNL A   1      37.767  32.956  32.512  1.00  0.00     0.049 A 
ATOM     46  N   UNL A   1      39.113  30.703  31.033  1.00  0.00    -0.248 NA
ATOM     47  C   UNL A   1      37.632  31.043  29.263  1.00  0.00     0.031 C 
ATOM     48  C   UNL A   1      37.117  34.013  33.290  1.00  0.00     0.029 A 
ATOM     49  N   UNL A   1      38.766  32.504  33.336  1.00  0.00    -0.354 N 
ATOM     50  C   UNL A   1      39.364  29.769  30.036  1.00  0.00     0.074 A 
ATOM     51  C   UNL A   1      38.380  29.982  28.999  1.00  0.00     0.031 C 
ATOM     52  C   UNL A   1      37.753  34.149  34.465  1.00  0.00     0.029 A 
ATOM     53  C   UNL A   1      38.827  33.165  34.540  1.00  0.00     0.049 A 
ATOM     54  H   UNL A   1      39.381  31.777  33.088  1.00  0.00     0.167 HD
ATOM     55  C   UNL A   1      40.345  28.836  29.981  1.00  0.00     0.037 A 
ATOM     56  C   UNL A   1      39.654  32.989  35.588  1.00  0.00     0.037 A 
ATOM     57  C   UNL A   1      41.333  28.642  31.010  1.00  0.00     0.049 A 
ATOM     58  C   UNL A   1      40.728  31.938  35.503  1.00  0.00     0.074 A 
ATOM     59  C   UNL A   1      42.403  27.764  31.024  1.00  0.00     0.029 A 
ATOM     60  N   UNL A   1      41.369  29.334  32.212  1.00  0.00    -0.354 N 
ATOM     61  N   UNL A   1      41.005  31.112  34.523  1.00  0.00    -0.248 NA
ATOM     62  C   UNL A   1      41.611  31.800  36.669  1.00  0.00     0.031 C 
ATOM     63  C   UNL A   1      43.050  27.883  32.258  1.00  0.00     0.029 A 
ATOM     64  C   UNL A   1      42.425  28.882  32.987  1.00  0.00     0.049 A 
ATOM     65  H   UNL A   1      40.738  30.042  32.475  1.00  0.00     0.167 HD
ATOM     66  C   UNL A   1      42.108  30.380  34.939  1.00  0.00     0.074 A 
ATOM     67  C   UNL A   1      42.463  30.875  36.252  1.00  0.00     0.031 C 
ATOM     68  C   UNL A   1      42.767  29.387  34.293  1.00  0.00     0.037 A 
BRANCH  55  69
ATOM     69  C   UNL A   1      40.399  27.952  28.767  1.00  0.00     0.064 A 
ATOM     70  C   UNL A   1      41.143  28.304  27.629  1.00  0.00     0.173 A 
ATOM     71  C   UNL A   1      39.737  26.715  28.757  1.00  0.00     0.173 A 
ATOM     72  F   UNL A   1      41.787  29.480  27.582  1.00  0.00    -0.203 F 
ATOM     73  C   UNL A   1      41.197  27.466  26.519  1.00  0.00     0.198 A 
ATOM     74  C   UNL A   1      39.821  25.864  27.658  1.00  0.00     0.198 A 
ATOM     75  F   UNL A   1      39.017  26.324  29.819  1.00  0.00    -0.203 F 
ATOM     76  F   UNL A   1      41.872  27.847  25.426  1.00  0.00    -0.200 F 
ATOM     77  C   UNL A   1      40.545  26.243  26.537  1.00  0.00     0.200 A 
ATOM     78  F   UNL A   1      39.203  24.675  27.683  1.00  0.00    -0.200 F 
ATOM     79  F   UNL A   1      40.608  25.431  25.472  1.00  0.00    -0.200 F 
ENDBRANCH  55  69
BRANCH  56  80
ATOM     80  C   UNL A   1      39.513  33.840  36.799  1.00  0.00     0.064 A 
ATOM     81  C   UNL A   1      38.765  33.407  37.905  1.00  0.00     0.173 A 
ATOM     82  C   UNL A   1      40.104  35.110  36.873  1.00  0.00     0.173 A 
ATOM     83  F   UNL A   1      38.164  32.209  37.877  1.00  0.00    -0.203 F 
ATOM     84  C   UNL A   1      38.593  34.221  39.022  1.00  0.00     0.198 A 
ATOM     85  C   UNL A   1      39.959  35.909  38.005  1.00  0.00     0.198 A 
ATOM     86  F   UNL A   1      40.834  35.572  35.847  1.00  0.00    -0.203 F 
ATOM     87  F   UNL A   1      37.826  33.804  40.040  1.00  0.00    -0.200 F 
ATOM     88  C   UNL A   1      39.194  35.469  39.074  1.00  0.00     0.200 A 
ATOM     89  F   UNL A   1      40.555  37.108  38.056  1.00  0.00    -0.200 F 
ATOM     90  F   UNL A   1      39.027  36.251  40.149  1.00  0.00    -0.200 F 
ENDBRANCH  56  80
BRANCH  68  91
ATOM     91  C   UNL A   1      43.963  28.795  34.984  1.00  0.00     0.064 A 
ATOM     92  C   UNL A   1      43.846  27.715  35.872  1.00  0.00     0.173 A 
ATOM     93  C   UNL A   1      45.249  29.297  34.730  1.00  0.00     0.173 A 
ATOM     94  F   UNL A   1      42.638  27.206  36.159  1.00  0.00    -0.203 F 
ATOM     95  C   UNL A   1      44.964  27.187  36.509  1.00  0.00     0.198 A 
ATOM     96  C   UNL A   1      46.369  28.742  35.340  1.00  0.00     0.198 A 
ATOM     97  F   UNL A   1      45.421  30.322  33.882  1.00  0.00    -0.203 F 
ATOM     98  F   UNL A   1      44.820  26.197  37.400  1.00  0.00    -0.200 F 
ATOM     99  C   UNL A   1      46.226  27.694  36.237  1.00  0.00     0.200 A 
ATOM    100  F   UNL A   1      47.589  29.222  35.062  1.00  0.00    -0.200 F 
ATOM    101  F   UNL A   1      47.303  27.180  36.847  1.00  0.00    -0.200 F 
ENDBRANCH  68  91
ENDBRANCH  42  43
ENDBRANCH  34  37
ENDBRANCH  32  33
ENDBRANCH  31  32
ENDBRANCH  30  31
ENDBRANCH   1  30
TORSDOF 18
ENDMDL
MODEL 3
REMARK VINA RESULT:     -11.8      0.702      7.211
REMARK SMILES CC[C@](C)([NH3+])C(=O)Nc1ccc(C(F)(F)F)cc1C(=O)NCCCCCCNC(=O)c1ccc(-c2c3nc(c(-c4c(F)c(F)c(F)c(F)c4F)c4ccc([nH]4)c(-c4c(F)c(F)c(F)c(F)c4F)c4nc(c(-c5c(F)c(F)c(F)c(F)c5F)c5ccc2[nH]5)C=C4)C=C3)cc1
REMARK SMILES IDX 24 1 23 2 22 3 21 4 19 5 20 6 18 8 9 9 10 10 11 11 17 12
REMARK SMILES IDX 12 13 8 14 6 15 7 16 3 18 4 19 2 20 1 21 5 22 13 26 14 27
REMARK SMILES IDX 15 28 16 29 25 30 26 31 27 32 28 33 29 34 30 36 31 37 32 38
REMARK SMILES IDX 93 39 33 40 92 41 34 42 35 43 36 44 86 45 37 46 91 47 85 48
REMARK SMILES IDX 87 49 38 50 90 51 84 52 83 53 39 55 71 56 51 57 70 58 52 59
REMARK SMILES IDX 55 60 69 61 88 62 53 63 54 64 68 66 89 67 56 68 40 69 41 70
REMARK SMILES IDX 49 71 42 72 43 73 47 74 50 75 44 76 45 77 48 78 46 79 72 80
REMARK SMILES IDX 73 81 81 82 74 83 75 84 79 85 82 86 76 87 77 88 80 89 78 90
REMARK SMILES IDX 57 91 58 92 66 93 59 94 60 95 64 96 67 97 61 98 62 99 65 100
REMARK SMILES IDX 63 101
REMARK H PARENT 21 7 8 17 5 23 5 24 5 25 28 35 87 54 55 65
REMARK Flexibility Score: inf
ROOT
ATOM      1  C   UNL A   1      36.795  21.814  24.351  1.00  0.00     0.002 C 
ENDROOT
BRANCH   1   2
ATOM      2  C   UNL A   1      36.870  23.018  25.302  1.00  0.00     0.021 C 
BRANCH   2   3
ATOM      3  C   UNL A   1      35.936  24.173  24.964  1.00  0.00     0.116 C 
BRANCH   3   4
ATOM      4  N   UNL A   1      34.725  24.236  25.744  1.00  0.00    -0.352 N 
ATOM      5  C   UNL A   1      33.558  23.511  25.655  1.00  0.00     0.253 C 
ATOM      6  O   UNL A   1      32.688  23.783  26.491  1.00  0.00    -0.269 OA
ATOM      7  H   UNL A   1      34.734  24.910  26.461  1.00  0.00     0.163 HD
BRANCH   5   8
ATOM      8  C   UNL A   1      33.225  22.503  24.576  1.00  0.00     0.063 A 
ATOM      9  C   UNL A   1      32.977  22.710  23.209  1.00  0.00     0.054 A 
ATOM     10  C   UNL A   1      32.348  21.694  22.463  1.00  0.00     0.027 A 
ATOM     11  C   UNL A   1      32.243  20.398  22.958  1.00  0.00     0.015 A 
ATOM     12  C   UNL A   1      33.160  21.164  25.041  1.00  0.00     0.029 A 
ATOM     13  C   UNL A   1      32.751  20.098  24.220  1.00  0.00     0.056 A 
BRANCH   9  14
ATOM     14  N   UNL A   1      33.331  23.811  22.416  1.00  0.00    -0.320 N 
ATOM     15  C   UNL A   1      32.749  25.026  22.179  1.00  0.00     0.285 C 
ATOM     16  O   UNL A   1      33.326  25.708  21.316  1.00  0.00    -0.267 OA
ATOM     17  H   UNL A   1      34.176  23.682  21.926  1.00  0.00     0.170 HD
BRANCH  15  18
ATOM     18  C   UNL A   1      31.590  25.656  23.020  1.00  0.00     0.171 C 
ATOM     19  C   UNL A   1      30.490  24.596  23.198  1.00  0.00     0.090 C 
BRANCH  18  20
ATOM     20  C   UNL A   1      31.104  26.933  22.297  1.00  0.00     0.075 C 
ATOM     21  C   UNL A   1      31.398  28.241  23.021  1.00  0.00     0.011 C 
ENDBRANCH  18  20
BRANCH  18  22
ATOM     22  N   UNL A   1      32.006  26.048  24.371  1.00  0.00    -0.345 N 
ATOM     23  H   UNL A   1      31.190  26.084  24.981  1.00  0.00     0.345 HD
ATOM     24  H   UNL A   1      32.447  26.968  24.338  1.00  0.00     0.345 HD
ATOM     25  H   UNL A   1      32.671  25.365  24.734  1.00  0.00     0.345 HD
ENDBRANCH  18  22
ENDBRANCH  15  18
ENDBRANCH   9  14
BRANCH  13  26
ATOM     26  C   UNL A   1      32.874  18.659  24.658  1.00  0.00     0.416 C 
ATOM     27  F   UNL A   1      32.378  18.439  25.903  1.00  0.00    -0.166 F 
ATOM     28  F   UNL A   1      32.187  17.819  23.829  1.00  0.00    -0.166 F 
ATOM     29  F   UNL A   1      34.153  18.198  24.665  1.00  0.00    -0.166 F 
ENDBRANCH  13  26
ENDBRANCH   5   8
ENDBRANCH   3   4
ENDBRANCH   2   3
ENDBRANCH   1   2
BRANCH   1  30
ATOM     30  C   UNL A   1      36.681  20.420  24.987  1.00  0.00     0.002 C 
BRANCH  30  31
ATOM     31  C   UNL A   1      37.935  19.544  24.976  1.00  0.00     0.021 C 
BRANCH  31  32
ATOM     32  C   UNL A   1      39.128  20.084  25.755  1.00  0.00     0.116 C 
BRANCH  32  33
ATOM     33  N   UNL A   1      40.227  19.140  25.847  1.00  0.00    -0.352 N 
ATOM     34  C   UNL A   1      41.558  19.356  26.098  1.00  0.00     0.251 C 
ATOM     35  H   UNL A   1      39.977  18.197  25.707  1.00  0.00     0.163 HD
ATOM     36  O   UNL A   1      42.355  18.429  26.017  1.00  0.00    -0.269 OA
BRANCH  34  37
ATOM     37  C   UNL A   1      42.043  20.711  26.441  1.00  0.00     0.039 A 
ATOM     38  C   UNL A   1      42.294  21.609  25.402  1.00  0.00     0.014 A 
ATOM     39  C   UNL A   1      42.265  21.095  27.766  1.00  0.00     0.014 A 
ATOM     40  C   UNL A   1      42.717  22.907  25.693  1.00  0.00     0.010 A 
ATOM     41  C   UNL A   1      42.606  22.414  28.059  1.00  0.00     0.010 A 
ATOM     42  C   UNL A   1      42.842  23.331  27.026  1.00  0.00    -0.014 A 
BRANCH  42  43
ATOM     43  C   UNL A   1      43.221  24.730  27.346  1.00  0.00     0.031 A 
ATOM     44  C   UNL A   1      44.626  25.210  27.110  1.00  0.00     0.074 A 
ATOM     45  C   UNL A   1      42.306  25.556  27.891  1.00  0.00     0.049 A 
ATOM     46  N   UNL A   1      45.151  26.386  27.349  1.00  0.00    -0.248 NA
ATOM     47  C   UNL A   1      45.578  24.234  26.554  1.00  0.00     0.031 C 
ATOM     48  C   UNL A   1      40.927  25.189  28.216  1.00  0.00     0.029 A 
ATOM     49  N   UNL A   1      42.397  26.871  28.271  1.00  0.00    -0.354 N 
ATOM     50  C   UNL A   1      46.487  26.286  26.983  1.00  0.00     0.074 A 
ATOM     51  C   UNL A   1      46.710  24.921  26.564  1.00  0.00     0.031 C 
ATOM     52  C   UNL A   1      40.292  26.261  28.716  1.00  0.00     0.029 A 
ATOM     53  C   UNL A   1      41.228  27.378  28.785  1.00  0.00     0.049 A 
ATOM     54  H   UNL A   1      43.222  27.402  28.182  1.00  0.00     0.167 HD
ATOM     55  C   UNL A   1      47.435  27.254  26.974  1.00  0.00     0.037 A 
ATOM     56  C   UNL A   1      40.947  28.604  29.265  1.00  0.00     0.037 A 
ATOM     57  C   UNL A   1      47.201  28.616  27.376  1.00  0.00     0.049 A 
ATOM     58  C   UNL A   1      42.022  29.657  29.252  1.00  0.00     0.074 A 
ATOM     59  C   UNL A   1      48.077  29.687  27.348  1.00  0.00     0.029 A 
ATOM     60  N   UNL A   1      46.002  29.096  27.885  1.00  0.00    -0.354 N 
ATOM     61  N   UNL A   1      43.261  29.572  28.831  1.00  0.00    -0.248 NA
ATOM     62  C   UNL A   1      41.657  30.981  29.773  1.00  0.00     0.031 C 
ATOM     63  C   UNL A   1      47.429  30.798  27.896  1.00  0.00     0.029 A 
ATOM     64  C   UNL A   1      46.126  30.439  28.203  1.00  0.00     0.049 A 
ATOM     65  H   UNL A   1      45.184  28.561  28.002  1.00  0.00     0.167 HD
ATOM     66  C   UNL A   1      43.813  30.834  29.008  1.00  0.00     0.074 A 
ATOM     67  C   UNL A   1      42.766  31.671  29.554  1.00  0.00     0.031 C 
ATOM     68  C   UNL A   1      45.072  31.260  28.743  1.00  0.00     0.037 A 
BRANCH  55  69
ATOM     69  C   UNL A   1      48.814  26.876  26.513  1.00  0.00     0.064 A 
ATOM     70  C   UNL A   1      49.763  26.328  27.391  1.00  0.00     0.173 A 
ATOM     71  C   UNL A   1      49.179  27.021  25.166  1.00  0.00     0.173 A 
ATOM     72  F   UNL A   1      49.470  26.177  28.692  1.00  0.00    -0.203 F 
ATOM     73  C   UNL A   1      51.031  25.967  26.945  1.00  0.00     0.198 A 
ATOM     74  C   UNL A   1      50.437  26.627  24.716  1.00  0.00     0.198 A 
ATOM     75  F   UNL A   1      48.311  27.533  24.281  1.00  0.00    -0.203 F 
ATOM     76  F   UNL A   1      51.936  25.493  27.813  1.00  0.00    -0.200 F 
ATOM     77  C   UNL A   1      51.365  26.108  25.607  1.00  0.00     0.200 A 
ATOM     78  F   UNL A   1      50.752  26.749  23.419  1.00  0.00    -0.200 F 
ATOM     79  F   UNL A   1      52.582  25.749  25.175  1.00  0.00    -0.200 F 
ENDBRANCH  55  69
BRANCH  56  80
ATOM     80  C   UNL A   1      39.586  28.909  29.781  1.00  0.00     0.064 A 
ATOM     81  C   UNL A   1      38.606  29.471  28.949  1.00  0.00     0.173 A 
ATOM     82  C   UNL A   1      39.239  28.664  31.118  1.00  0.00     0.173 A 
ATOM     83  F   UNL A   1      38.893  29.742  27.667  1.00  0.00    -0.203 F 
ATOM     84  C   UNL A   1      37.345  29.800  29.441  1.00  0.00     0.198 A 
ATOM     85  C   UNL A   1      37.967  28.961  31.600  1.00  0.00     0.198 A 
ATOM     86  F   UNL A   1      40.136  28.123  31.956  1.00  0.00    -0.203 F 
ATOM     87  F   UNL A   1      36.448  30.388  28.637  1.00  0.00    -0.200 F 
ATOM     88  C   UNL A   1      37.024  29.541  30.764  1.00  0.00     0.200 A 
ATOM     89  F   UNL A   1      37.657  28.695  32.875  1.00  0.00    -0.200 F 
ATOM     90  F   UNL A   1      35.811  29.857  31.236  1.00  0.00    -0.200 F 
ENDBRANCH  56  80
BRANCH  68  91
ATOM     91  C   UNL A   1      45.376  32.708  29.007  1.00  0.00     0.064 A 
ATOM     92  C   UNL A   1      45.119  33.705  28.053  1.00  0.00     0.173 A 
ATOM     93  C   UNL A   1      45.906  33.107  30.244  1.00  0.00     0.173 A 
ATOM     94  F   UNL A   1      44.625  33.375  26.850  1.00  0.00    -0.203 F 
ATOM     95  C   UNL A   1      45.416  35.039  28.313  1.00  0.00     0.198 A 
ATOM     96  C   UNL A   1      46.166  34.447  30.514  1.00  0.00     0.198 A 
ATOM     97  F   UNL A   1      46.162  32.198  31.196  1.00  0.00    -0.203 F 
ATOM     98  F   UNL A   1      45.218  35.964  27.364  1.00  0.00    -0.200 F 
ATOM     99  C   UNL A   1      45.931  35.411  29.546  1.00  0.00     0.200 A 
ATOM    100  F   UNL A   1      46.648  34.806  31.712  1.00  0.00    -0.200 F 
ATOM    101  F   UNL A   1      46.211  36.697  29.796  1.00  0.00    -0.200 F 
ENDBRANCH  68  91
ENDBRANCH  42  43
ENDBRANCH  34  37
ENDBRANCH  32  33
ENDBRANCH  31  32
ENDBRANCH  30  31
ENDBRANCH   1  30
TORSDOF 18
ENDMDL
