MODEL 1
REMARK VINA RESULT:     -14.1      0.000      0.000
REMARK SMILES Cc1cccc(OC2(C(=O)NCCCCCCNC(=O)c3ccc(-c4c5nc(c(-c6c(F)c(F)c(F)c(F)c6F)c6ccc([nH]6)c(-c6c(F)c(F)c(F)c(F)c6F)c6nc(c(-c7c(F)c(F)c(F)c(F)c7F)c7ccc4[nH]7)C=C6)C=C5)cc3)CCN(C(=O)c3cnc[nH]c3=O)CC2)c1
REMARK SMILES IDX 14 1 13 2 12 3 11 4 9 5 10 6 8 8 84 9 97 10 85 11 96 12
REMARK SMILES IDX 86 13 87 14 88 15 7 16 6 17 1 18 2 19 3 20 98 21 4 22 5 23
REMARK SMILES IDX 89 24 90 25 94 26 91 27 93 28 95 29 92 30 15 32 16 33 17 34
REMARK SMILES IDX 18 35 19 36 20 38 21 39 22 40 83 41 23 42 82 43 24 44 25 45
REMARK SMILES IDX 26 46 76 47 27 48 81 49 75 50 77 51 28 52 80 53 74 54 73 55
REMARK SMILES IDX 29 57 61 58 41 59 60 60 42 61 45 62 59 63 78 64 43 65 44 66
REMARK SMILES IDX 58 68 79 69 46 70 30 71 31 72 39 73 32 74 33 75 37 76 40 77
REMARK SMILES IDX 34 78 35 79 38 80 36 81 62 82 63 83 71 84 64 85 65 86 69 87
REMARK SMILES IDX 72 88 66 89 67 90 70 91 68 92 47 93 48 94 56 95 49 96 50 97
REMARK SMILES IDX 54 98 57 99 51 100 52 101 55 102 53 103
REMARK H PARENT 11 7 93 31 18 37 77 56 45 67
REMARK Flexibility Score: inf
ROOT
ATOM      1  C   UNL A   1      39.251  23.224  26.532  1.00  0.00     0.002 C 
ENDROOT
BRANCH   1   2
ATOM      2  C   UNL A   1      38.068  22.597  25.792  1.00  0.00     0.021 C 
BRANCH   2   3
ATOM      3  C   UNL A   1      36.762  23.406  25.750  1.00  0.00     0.116 C 
BRANCH   3   4
ATOM      4  N   UNL A   1      35.846  23.097  26.834  1.00  0.00    -0.353 N 
ATOM      5  C   UNL A   1      34.492  22.927  26.907  1.00  0.00     0.264 C 
ATOM      6  O   UNL A   1      34.094  22.486  27.993  1.00  0.00    -0.270 OA
ATOM      7  H   UNL A   1      36.297  22.986  27.703  1.00  0.00     0.163 HD
BRANCH   5   8
ATOM      8  C   UNL A   1      33.493  23.202  25.728  1.00  0.00     0.190 C 
ATOM      9  C   UNL A   1      32.029  23.055  26.162  1.00  0.00     0.080 C 
ATOM     10  C   UNL A   1      33.743  24.642  25.197  1.00  0.00     0.080 C 
ATOM     11  C   UNL A   1      31.012  23.567  25.160  1.00  0.00     0.124 C 
ATOM     12  C   UNL A   1      32.686  25.029  24.151  1.00  0.00     0.124 C 
ATOM     13  N   UNL A   1      31.370  24.912  24.767  1.00  0.00    -0.338 N 
ATOM     14  C   UNL A   1      30.693  25.988  25.309  1.00  0.00     0.261 C 
ATOM     15  O   UNL A   1      30.134  25.958  26.403  1.00  0.00    -0.269 OA
BRANCH   8  16
ATOM     16  O   UNL A   1      33.958  22.393  24.626  1.00  0.00    -0.477 OA
BRANCH  16  17
ATOM     17  C   UNL A   1      33.644  21.148  24.208  1.00  0.00     0.121 A 
ATOM     18  C   UNL A   1      33.786  17.439  25.030  1.00  0.00     0.044 C 
ATOM     19  C   UNL A   1      33.439  18.724  24.336  1.00  0.00    -0.047 A 
ATOM     20  C   UNL A   1      32.502  18.736  23.301  1.00  0.00     0.003 A 
ATOM     21  C   UNL A   1      34.027  19.930  24.751  1.00  0.00     0.049 A 
ATOM     22  C   UNL A   1      32.153  19.941  22.700  1.00  0.00     0.004 A 
ATOM     23  C   UNL A   1      32.713  21.136  23.162  1.00  0.00     0.046 A 
ENDBRANCH  16  17
ENDBRANCH   8  16
BRANCH  14  24
ATOM     24  C   UNL A   1      30.636  27.189  24.458  1.00  0.00     0.123 A 
ATOM     25  C   UNL A   1      29.938  27.186  23.316  1.00  0.00     0.132 A 
ATOM     26  C   UNL A   1      31.372  28.420  24.800  1.00  0.00     0.263 A 
ATOM     27  N   UNL A   1      29.820  28.258  22.460  1.00  0.00    -0.246 NA
ATOM     28  N   UNL A   1      31.223  29.448  23.913  1.00  0.00    -0.312 N 
ATOM     29  O   UNL A   1      32.082  28.533  25.794  1.00  0.00    -0.269 OA
ATOM     30  C   UNL A   1      30.461  29.328  22.789  1.00  0.00     0.199 A 
ATOM     31  H   UNL A   1      31.681  30.301  24.090  1.00  0.00     0.171 HD
ENDBRANCH  14  24
ENDBRANCH   5   8
ENDBRANCH   3   4
ENDBRANCH   2   3
ENDBRANCH   1   2
BRANCH   1  32
ATOM     32  C   UNL A   1      40.329  22.267  27.052  1.00  0.00     0.002 C 
BRANCH  32  33
ATOM     33  C   UNL A   1      41.447  21.921  26.072  1.00  0.00     0.021 C 
BRANCH  33  34
ATOM     34  C   UNL A   1      42.317  20.749  26.496  1.00  0.00     0.116 C 
BRANCH  34  35
ATOM     35  N   UNL A   1      43.124  20.222  25.407  1.00  0.00    -0.352 N 
ATOM     36  C   UNL A   1      44.093  20.821  24.625  1.00  0.00     0.251 C 
ATOM     37  H   UNL A   1      42.949  19.277  25.189  1.00  0.00     0.163 HD
ATOM     38  O   UNL A   1      44.528  20.227  23.652  1.00  0.00    -0.269 OA
BRANCH  36  39
ATOM     39  C   UNL A   1      44.733  22.090  25.062  1.00  0.00     0.039 A 
ATOM     40  C   UNL A   1      45.284  22.111  26.354  1.00  0.00     0.014 A 
ATOM     41  C   UNL A   1      44.590  23.274  24.354  1.00  0.00     0.014 A 
ATOM     42  C   UNL A   1      45.430  23.321  27.022  1.00  0.00     0.010 A 
ATOM     43  C   UNL A   1      44.619  24.462  25.043  1.00  0.00     0.010 A 
ATOM     44  C   UNL A   1      44.970  24.473  26.398  1.00  0.00    -0.014 A 
BRANCH  44  45
ATOM     45  C   UNL A   1      44.743  25.742  27.066  1.00  0.00     0.031 A 
ATOM     46  C   UNL A   1      43.400  26.346  27.036  1.00  0.00     0.074 A 
ATOM     47  C   UNL A   1      45.701  26.199  27.903  1.00  0.00     0.049 A 
ATOM     48  N   UNL A   1      43.121  27.526  27.464  1.00  0.00    -0.248 NA
ATOM     49  C   UNL A   1      42.247  25.655  26.474  1.00  0.00     0.031 C 
ATOM     50  C   UNL A   1      45.547  27.153  28.997  1.00  0.00     0.029 A 
ATOM     51  N   UNL A   1      47.090  26.015  27.795  1.00  0.00    -0.354 N 
ATOM     52  C   UNL A   1      41.751  27.647  27.511  1.00  0.00     0.074 A 
ATOM     53  C   UNL A   1      41.256  26.485  26.814  1.00  0.00     0.031 C 
ATOM     54  C   UNL A   1      46.742  27.698  29.269  1.00  0.00     0.029 A 
ATOM     55  C   UNL A   1      47.653  27.237  28.237  1.00  0.00     0.049 A 
ATOM     56  H   UNL A   1      47.567  25.213  27.481  1.00  0.00     0.167 HD
ATOM     57  C   UNL A   1      41.217  28.658  28.259  1.00  0.00     0.037 A 
ATOM     58  C   UNL A   1      48.318  28.062  27.375  1.00  0.00     0.037 A 
ATOM     59  C   UNL A   1      42.274  29.552  28.736  1.00  0.00     0.049 A 
ATOM     60  C   UNL A   1      47.729  29.450  27.285  1.00  0.00     0.074 A 
ATOM     61  C   UNL A   1      42.937  29.677  29.947  1.00  0.00     0.029 A 
ATOM     62  N   UNL A   1      43.018  30.273  27.806  1.00  0.00    -0.354 N 
ATOM     63  N   UNL A   1      46.484  29.735  27.553  1.00  0.00    -0.248 NA
ATOM     64  C   UNL A   1      48.500  30.625  26.896  1.00  0.00     0.031 C 
ATOM     65  C   UNL A   1      44.105  30.454  29.732  1.00  0.00     0.029 A 
ATOM     66  C   UNL A   1      44.141  30.816  28.397  1.00  0.00     0.049 A 
ATOM     67  H   UNL A   1      42.777  30.379  26.858  1.00  0.00     0.167 HD
ATOM     68  C   UNL A   1      46.278  31.086  27.403  1.00  0.00     0.074 A 
ATOM     69  C   UNL A   1      47.575  31.596  26.999  1.00  0.00     0.031 C 
ATOM     70  C   UNL A   1      45.055  31.653  27.633  1.00  0.00     0.037 A 
BRANCH  57  71
ATOM     71  C   UNL A   1      39.796  28.695  28.788  1.00  0.00     0.064 A 
ATOM     72  C   UNL A   1      38.751  29.234  28.001  1.00  0.00     0.173 A 
ATOM     73  C   UNL A   1      39.395  28.285  30.074  1.00  0.00     0.173 A 
ATOM     74  F   UNL A   1      38.940  29.574  26.719  1.00  0.00    -0.203 F 
ATOM     75  C   UNL A   1      37.461  29.448  28.499  1.00  0.00     0.198 A 
ATOM     76  C   UNL A   1      38.119  28.541  30.588  1.00  0.00     0.198 A 
ATOM     77  F   UNL A   1      40.193  27.561  30.861  1.00  0.00    -0.203 F 
ATOM     78  F   UNL A   1      36.520  29.975  27.701  1.00  0.00    -0.200 F 
ATOM     79  C   UNL A   1      37.153  29.134  29.805  1.00  0.00     0.200 A 
ATOM     80  F   UNL A   1      37.833  28.198  31.853  1.00  0.00    -0.200 F 
ATOM     81  F   UNL A   1      35.929  29.370  30.294  1.00  0.00    -0.200 F 
ENDBRANCH  57  71
BRANCH  58  82
ATOM     82  C   UNL A   1      48.966  27.326  26.256  1.00  0.00     0.064 A 
ATOM     83  C   UNL A   1      48.304  27.296  25.012  1.00  0.00     0.173 A 
ATOM     84  C   UNL A   1      50.337  27.042  26.265  1.00  0.00     0.173 A 
ATOM     85  F   UNL A   1      46.988  27.560  24.949  1.00  0.00    -0.203 F 
ATOM     86  C   UNL A   1      49.006  27.130  23.821  1.00  0.00     0.198 A 
ATOM     87  C   UNL A   1      51.034  26.856  25.069  1.00  0.00     0.198 A 
ATOM     88  F   UNL A   1      51.027  27.066  27.414  1.00  0.00    -0.203 F 
ATOM     89  F   UNL A   1      48.365  27.235  22.646  1.00  0.00    -0.200 F 
ATOM     90  C   UNL A   1      50.377  26.941  23.848  1.00  0.00     0.200 A 
ATOM     91  F   UNL A   1      52.365  26.698  25.091  1.00  0.00    -0.200 F 
ATOM     92  F   UNL A   1      51.071  26.883  22.704  1.00  0.00    -0.200 F 
ENDBRANCH  58  82
BRANCH  70  93
ATOM     93  C   UNL A   1      44.594  33.054  27.265  1.00  0.00     0.064 A 
ATOM     94  C   UNL A   1      43.979  33.404  26.052  1.00  0.00     0.173 A 
ATOM     95  C   UNL A   1      44.635  34.097  28.232  1.00  0.00     0.173 A 
ATOM     96  F   UNL A   1      43.758  32.502  25.090  1.00  0.00    -0.203 F 
ATOM     97  C   UNL A   1      43.499  34.696  25.805  1.00  0.00     0.198 A 
ATOM     98  C   UNL A   1      44.096  35.363  28.005  1.00  0.00     0.198 A 
ATOM     99  F   UNL A   1      45.169  33.917  29.448  1.00  0.00    -0.203 F 
ATOM    100  F   UNL A   1      42.959  34.982  24.611  1.00  0.00    -0.200 F 
ATOM    101  C   UNL A   1      43.542  35.669  26.784  1.00  0.00     0.200 A 
ATOM    102  F   UNL A   1      44.098  36.272  28.990  1.00  0.00    -0.200 F 
ATOM    103  F   UNL A   1      43.030  36.886  26.558  1.00  0.00    -0.200 F 
ENDBRANCH  70  93
ENDBRANCH  44  45
ENDBRANCH  36  39
ENDBRANCH  34  35
ENDBRANCH  33  34
ENDBRANCH  32  33
ENDBRANCH   1  32
TORSDOF 16
ENDMDL
MODEL 2
REMARK VINA RESULT:     -14.0      5.149     11.203
REMARK SMILES Cc1cccc(OC2(C(=O)NCCCCCCNC(=O)c3ccc(-c4c5nc(c(-c6c(F)c(F)c(F)c(F)c6F)c6ccc([nH]6)c(-c6c(F)c(F)c(F)c(F)c6F)c6nc(c(-c7c(F)c(F)c(F)c(F)c7F)c7ccc4[nH]7)C=C6)C=C5)cc3)CCN(C(=O)c3cnc[nH]c3=O)CC2)c1
REMARK SMILES IDX 14 1 13 2 12 3 11 4 9 5 10 6 8 8 84 9 97 10 85 11 96 12
REMARK SMILES IDX 86 13 87 14 88 15 7 16 6 17 1 18 2 19 3 20 98 21 4 22 5 23
REMARK SMILES IDX 89 24 90 25 94 26 91 27 93 28 95 29 92 30 15 32 16 33 17 34
REMARK SMILES IDX 18 35 19 36 20 38 21 39 22 40 83 41 23 42 82 43 24 44 25 45
REMARK SMILES IDX 26 46 76 47 27 48 81 49 75 50 77 51 28 52 80 53 74 54 73 55
REMARK SMILES IDX 29 57 61 58 41 59 60 60 42 61 45 62 59 63 78 64 43 65 44 66
REMARK SMILES IDX 58 68 79 69 46 70 30 71 31 72 39 73 32 74 33 75 37 76 40 77
REMARK SMILES IDX 34 78 35 79 38 80 36 81 62 82 63 83 71 84 64 85 65 86 69 87
REMARK SMILES IDX 72 88 66 89 67 90 70 91 68 92 47 93 48 94 56 95 49 96 50 97
REMARK SMILES IDX 54 98 57 99 51 100 52 101 55 102 53 103
REMARK H PARENT 11 7 93 31 18 37 77 56 45 67
REMARK Flexibility Score: inf
ROOT
ATOM      1  C   UNL A   1      35.104  30.679  27.686  1.00  0.00     0.002 C 
ENDROOT
BRANCH   1   2
ATOM      2  C   UNL A   1      33.675  30.335  27.261  1.00  0.00     0.021 C 
BRANCH   2   3
ATOM      3  C   UNL A   1      33.466  28.995  26.536  1.00  0.00     0.116 C 
BRANCH   3   4
ATOM      4  N   UNL A   1      34.078  28.938  25.220  1.00  0.00    -0.353 N 
ATOM      5  C   UNL A   1      33.839  28.195  24.098  1.00  0.00     0.264 C 
ATOM      6  O   UNL A   1      34.466  28.569  23.099  1.00  0.00    -0.270 OA
ATOM      7  H   UNL A   1      34.826  29.571  25.113  1.00  0.00     0.163 HD
BRANCH   5   8
ATOM      8  C   UNL A   1      32.827  26.998  24.020  1.00  0.00     0.190 C 
ATOM      9  C   UNL A   1      32.752  26.392  22.612  1.00  0.00     0.080 C 
ATOM     10  C   UNL A   1      33.271  25.910  25.039  1.00  0.00     0.080 C 
ATOM     11  C   UNL A   1      32.010  25.072  22.525  1.00  0.00     0.124 C 
ATOM     12  C   UNL A   1      32.414  24.643  24.894  1.00  0.00     0.124 C 
ATOM     13  N   UNL A   1      32.536  24.166  23.522  1.00  0.00    -0.338 N 
ATOM     14  C   UNL A   1      33.416  23.168  23.145  1.00  0.00     0.261 C 
ATOM     15  O   UNL A   1      34.141  23.239  22.156  1.00  0.00    -0.269 OA
BRANCH   8  16
ATOM     16  O   UNL A   1      31.603  27.481  24.616  1.00  0.00    -0.477 OA
BRANCH  16  17
ATOM     17  C   UNL A   1      30.499  28.060  24.096  1.00  0.00     0.121 A 
ATOM     18  C   UNL A   1      29.150  30.986  22.078  1.00  0.00     0.044 C 
ATOM     19  C   UNL A   1      29.207  29.678  22.812  1.00  0.00    -0.047 A 
ATOM     20  C   UNL A   1      28.119  28.804  22.782  1.00  0.00     0.003 A 
ATOM     21  C   UNL A   1      30.373  29.308  23.504  1.00  0.00     0.049 A 
ATOM     22  C   UNL A   1      28.204  27.574  23.425  1.00  0.00     0.004 A 
ATOM     23  C   UNL A   1      29.391  27.205  24.065  1.00  0.00     0.046 A 
ENDBRANCH  16  17
ENDBRANCH   8  16
BRANCH  14  24
ATOM     24  C   UNL A   1      33.402  21.963  23.994  1.00  0.00     0.123 A 
ATOM     25  C   UNL A   1      32.337  21.152  24.012  1.00  0.00     0.132 A 
ATOM     26  C   UNL A   1      34.529  21.625  24.883  1.00  0.00     0.263 A 
ATOM     27  N   UNL A   1      32.232  20.004  24.764  1.00  0.00    -0.246 NA
ATOM     28  N   UNL A   1      34.367  20.479  25.609  1.00  0.00    -0.312 N 
ATOM     29  O   UNL A   1      35.539  22.311  24.989  1.00  0.00    -0.269 OA
ATOM     30  C   UNL A   1      33.237  19.721  25.522  1.00  0.00     0.199 A 
ATOM     31  H   UNL A   1      35.089  20.192  26.213  1.00  0.00     0.171 HD
ENDBRANCH  14  24
ENDBRANCH   5   8
ENDBRANCH   3   4
ENDBRANCH   2   3
ENDBRANCH   1   2
BRANCH   1  32
ATOM     32  C   UNL A   1      35.373  32.131  28.094  1.00  0.00     0.002 C 
BRANCH  32  33
ATOM     33  C   UNL A   1      34.501  32.685  29.218  1.00  0.00     0.021 C 
BRANCH  33  34
ATOM     34  C   UNL A   1      34.471  34.203  29.305  1.00  0.00     0.116 C 
BRANCH  34  35
ATOM     35  N   UNL A   1      33.562  34.692  30.328  1.00  0.00    -0.352 N 
ATOM     36  C   UNL A   1      33.581  34.546  31.702  1.00  0.00     0.251 C 
ATOM     37  H   UNL A   1      32.804  35.217  29.982  1.00  0.00     0.163 HD
ATOM     38  O   UNL A   1      32.616  34.908  32.354  1.00  0.00    -0.269 OA
BRANCH  36  39
ATOM     39  C   UNL A   1      34.825  34.124  32.396  1.00  0.00     0.039 A 
ATOM     40  C   UNL A   1      35.960  34.930  32.208  1.00  0.00     0.014 A 
ATOM     41  C   UNL A   1      34.954  32.880  32.998  1.00  0.00     0.014 A 
ATOM     42  C   UNL A   1      37.229  34.383  32.370  1.00  0.00     0.010 A 
ATOM     43  C   UNL A   1      36.197  32.297  33.047  1.00  0.00     0.010 A 
ATOM     44  C   UNL A   1      37.326  33.029  32.662  1.00  0.00    -0.014 A 
BRANCH  44  45
ATOM     45  C   UNL A   1      38.539  32.241  32.540  1.00  0.00     0.031 A 
ATOM     46  C   UNL A   1      38.513  30.990  31.762  1.00  0.00     0.074 A 
ATOM     47  C   UNL A   1      39.705  32.806  32.924  1.00  0.00     0.049 A 
ATOM     48  N   UNL A   1      39.481  30.145  31.709  1.00  0.00    -0.248 NA
ATOM     49  C   UNL A   1      37.347  30.573  30.994  1.00  0.00     0.031 C 
ATOM     50  C   UNL A   1      41.053  32.440  32.503  1.00  0.00     0.029 A 
ATOM     51  N   UNL A   1      39.904  33.738  33.957  1.00  0.00    -0.354 N 
ATOM     52  C   UNL A   1      39.204  29.247  30.703  1.00  0.00     0.074 A 
ATOM     53  C   UNL A   1      37.832  29.512  30.343  1.00  0.00     0.031 C 
ATOM     54  C   UNL A   1      41.929  32.879  33.420  1.00  0.00     0.029 A 
ATOM     55  C   UNL A   1      41.145  33.378  34.536  1.00  0.00     0.049 A 
ATOM     56  H   UNL A   1      39.310  34.478  34.221  1.00  0.00     0.167 HD
ATOM     57  C   UNL A   1      40.227  28.484  30.219  1.00  0.00     0.037 A 
ATOM     58  C   UNL A   1      41.216  32.883  35.807  1.00  0.00     0.037 A 
ATOM     59  C   UNL A   1      41.430  28.668  31.033  1.00  0.00     0.049 A 
ATOM     60  C   UNL A   1      41.847  31.513  35.891  1.00  0.00     0.074 A 
ATOM     61  C   UNL A   1      42.580  29.425  30.870  1.00  0.00     0.029 A 
ATOM     62  N   UNL A   1      41.410  28.269  32.366  1.00  0.00    -0.354 N 
ATOM     63  N   UNL A   1      41.869  30.656  34.908  1.00  0.00    -0.248 NA
ATOM     64  C   UNL A   1      42.512  31.008  37.087  1.00  0.00     0.031 C 
ATOM     65  C   UNL A   1      43.236  29.506  32.126  1.00  0.00     0.029 A 
ATOM     66  C   UNL A   1      42.496  28.782  33.045  1.00  0.00     0.049 A 
ATOM     67  H   UNL A   1      40.715  27.700  32.769  1.00  0.00     0.167 HD
ATOM     68  C   UNL A   1      42.540  29.522  35.299  1.00  0.00     0.074 A 
ATOM     69  C   UNL A   1      42.929  29.800  36.669  1.00  0.00     0.031 C 
ATOM     70  C   UNL A   1      42.716  28.465  34.449  1.00  0.00     0.037 A 
BRANCH  57  71
ATOM     71  C   UNL A   1      40.236  27.790  28.869  1.00  0.00     0.064 A 
ATOM     72  C   UNL A   1      39.651  26.511  28.716  1.00  0.00     0.173 A 
ATOM     73  C   UNL A   1      40.853  28.284  27.704  1.00  0.00     0.173 A 
ATOM     74  F   UNL A   1      38.935  25.944  29.695  1.00  0.00    -0.203 F 
ATOM     75  C   UNL A   1      39.777  25.756  27.545  1.00  0.00     0.198 A 
ATOM     76  C   UNL A   1      41.020  27.512  26.549  1.00  0.00     0.198 A 
ATOM     77  F   UNL A   1      41.258  29.552  27.607  1.00  0.00    -0.203 F 
ATOM     78  F   UNL A   1      39.209  24.544  27.472  1.00  0.00    -0.200 F 
ATOM     79  C   UNL A   1      40.493  26.242  26.472  1.00  0.00     0.200 A 
ATOM     80  F   UNL A   1      41.693  28.019  25.506  1.00  0.00    -0.200 F 
ATOM     81  F   UNL A   1      40.645  25.507  25.363  1.00  0.00    -0.200 F 
ENDBRANCH  57  71
BRANCH  58  82
ATOM     82  C   UNL A   1      40.124  33.385  36.683  1.00  0.00     0.064 A 
ATOM     83  C   UNL A   1      39.032  32.531  36.935  1.00  0.00     0.173 A 
ATOM     84  C   UNL A   1      40.330  34.449  37.570  1.00  0.00     0.173 A 
ATOM     85  F   UNL A   1      38.790  31.496  36.113  1.00  0.00    -0.203 F 
ATOM     86  C   UNL A   1      38.268  32.651  38.093  1.00  0.00     0.198 A 
ATOM     87  C   UNL A   1      39.549  34.578  38.721  1.00  0.00     0.198 A 
ATOM     88  F   UNL A   1      41.358  35.290  37.394  1.00  0.00    -0.203 F 
ATOM     89  F   UNL A   1      37.318  31.745  38.366  1.00  0.00    -0.200 F 
ATOM     90  C   UNL A   1      38.548  33.657  39.002  1.00  0.00     0.200 A 
ATOM     91  F   UNL A   1      39.833  35.536  39.615  1.00  0.00    -0.200 F 
ATOM     92  F   UNL A   1      37.885  33.717  40.165  1.00  0.00    -0.200 F 
ENDBRANCH  58  82
BRANCH  70  93
ATOM     93  C   UNL A   1      43.188  27.062  34.794  1.00  0.00     0.064 A 
ATOM     94  C   UNL A   1      44.521  26.706  35.056  1.00  0.00     0.173 A 
ATOM     95  C   UNL A   1      42.241  26.023  35.020  1.00  0.00     0.173 A 
ATOM     96  F   UNL A   1      45.511  27.603  35.006  1.00  0.00    -0.203 F 
ATOM     97  C   UNL A   1      44.883  25.412  35.453  1.00  0.00     0.198 A 
ATOM     98  C   UNL A   1      42.600  24.757  35.478  1.00  0.00     0.198 A 
ATOM     99  F   UNL A   1      40.927  26.210  34.836  1.00  0.00    -0.203 F 
ATOM    100  F   UNL A   1      46.177  25.120  35.648  1.00  0.00    -0.200 F 
ATOM    101  C   UNL A   1      43.924  24.444  35.680  1.00  0.00     0.200 A 
ATOM    102  F   UNL A   1      41.647  23.853  35.747  1.00  0.00    -0.200 F 
ATOM    103  F   UNL A   1      44.274  23.227  36.113  1.00  0.00    -0.200 F 
ENDBRANCH  70  93
ENDBRANCH  44  45
ENDBRANCH  36  39
ENDBRANCH  34  35
ENDBRANCH  33  34
ENDBRANCH  32  33
ENDBRANCH   1  32
TORSDOF 16
ENDMDL
MODEL 3
REMARK VINA RESULT:     -13.5      5.265     10.576
REMARK SMILES Cc1cccc(OC2(C(=O)NCCCCCCNC(=O)c3ccc(-c4c5nc(c(-c6c(F)c(F)c(F)c(F)c6F)c6ccc([nH]6)c(-c6c(F)c(F)c(F)c(F)c6F)c6nc(c(-c7c(F)c(F)c(F)c(F)c7F)c7ccc4[nH]7)C=C6)C=C5)cc3)CCN(C(=O)c3cnc[nH]c3=O)CC2)c1
REMARK SMILES IDX 14 1 13 2 12 3 11 4 9 5 10 6 8 8 84 9 97 10 85 11 96 12
REMARK SMILES IDX 86 13 87 14 88 15 7 16 6 17 1 18 2 19 3 20 98 21 4 22 5 23
REMARK SMILES IDX 89 24 90 25 94 26 91 27 93 28 95 29 92 30 15 32 16 33 17 34
REMARK SMILES IDX 18 35 19 36 20 38 21 39 22 40 83 41 23 42 82 43 24 44 25 45
REMARK SMILES IDX 26 46 76 47 27 48 81 49 75 50 77 51 28 52 80 53 74 54 73 55
REMARK SMILES IDX 29 57 61 58 41 59 60 60 42 61 45 62 59 63 78 64 43 65 44 66
REMARK SMILES IDX 58 68 79 69 46 70 30 71 31 72 39 73 32 74 33 75 37 76 40 77
REMARK SMILES IDX 34 78 35 79 38 80 36 81 62 82 63 83 71 84 64 85 65 86 69 87
REMARK SMILES IDX 72 88 66 89 67 90 70 91 68 92 47 93 48 94 56 95 49 96 50 97
REMARK SMILES IDX 54 98 57 99 51 100 52 101 55 102 53 103
REMARK H PARENT 11 7 93 31 18 37 77 56 45 67
REMARK Flexibility Score: inf
ROOT
ATOM      1  C   UNL A   1      35.359  30.574  28.207  1.00  0.00     0.002 C 
ENDROOT
BRANCH   1   2
ATOM      2  C   UNL A   1      34.644  29.432  27.482  1.00  0.00     0.021 C 
BRANCH   2   3
ATOM      3  C   UNL A   1      33.154  29.634  27.160  1.00  0.00     0.116 C 
BRANCH   3   4
ATOM      4  N   UNL A   1      32.333  28.466  27.424  1.00  0.00    -0.353 N 
ATOM      5  C   UNL A   1      31.653  27.589  26.626  1.00  0.00     0.264 C 
ATOM      6  O   UNL A   1      31.212  26.598  27.223  1.00  0.00    -0.270 OA
ATOM      7  H   UNL A   1      32.248  28.261  28.384  1.00  0.00     0.163 HD
BRANCH   5   8
ATOM      8  C   UNL A   1      31.467  27.752  25.076  1.00  0.00     0.190 C 
ATOM      9  C   UNL A   1      30.300  26.913  24.540  1.00  0.00     0.080 C 
ATOM     10  C   UNL A   1      31.221  29.256  24.766  1.00  0.00     0.080 C 
ATOM     11  C   UNL A   1      29.891  27.227  23.114  1.00  0.00     0.124 C 
ATOM     12  C   UNL A   1      30.869  29.458  23.283  1.00  0.00     0.124 C 
ATOM     13  N   UNL A   1      29.691  28.654  22.982  1.00  0.00    -0.338 N 
ATOM     14  C   UNL A   1      28.409  29.169  22.975  1.00  0.00     0.261 C 
ATOM     15  O   UNL A   1      27.451  28.615  23.509  1.00  0.00    -0.269 OA
BRANCH   8  16
ATOM     16  O   UNL A   1      32.775  27.540  24.502  1.00  0.00    -0.477 OA
BRANCH  16  17
ATOM     17  C   UNL A   1      33.529  26.434  24.327  1.00  0.00     0.121 A 
ATOM     18  C   UNL A   1      35.523  23.696  26.055  1.00  0.00     0.044 C 
ATOM     19  C   UNL A   1      34.827  24.477  24.979  1.00  0.00    -0.047 A 
ATOM     20  C   UNL A   1      34.691  23.944  23.696  1.00  0.00     0.003 A 
ATOM     21  C   UNL A   1      34.275  25.736  25.266  1.00  0.00     0.049 A 
ATOM     22  C   UNL A   1      34.001  24.658  22.721  1.00  0.00     0.004 A 
ATOM     23  C   UNL A   1      33.416  25.886  23.043  1.00  0.00     0.046 A 
ENDBRANCH  16  17
ENDBRANCH   8  16
BRANCH  14  24
ATOM     24  C   UNL A   1      28.240  30.430  22.231  1.00  0.00     0.123 A 
ATOM     25  C   UNL A   1      27.956  30.419  20.923  1.00  0.00     0.132 A 
ATOM     26  C   UNL A   1      28.419  31.743  22.877  1.00  0.00     0.263 A 
ATOM     27  N   UNL A   1      27.774  31.540  20.146  1.00  0.00    -0.246 NA
ATOM     28  N   UNL A   1      28.233  32.820  22.056  1.00  0.00    -0.312 N 
ATOM     29  O   UNL A   1      28.725  31.884  24.055  1.00  0.00    -0.269 OA
ATOM     30  C   UNL A   1      27.921  32.678  20.737  1.00  0.00     0.199 A 
ATOM     31  H   UNL A   1      28.328  33.725  22.430  1.00  0.00     0.171 HD
ENDBRANCH  14  24
ENDBRANCH   5   8
ENDBRANCH   3   4
ENDBRANCH   2   3
ENDBRANCH   1   2
BRANCH   1  32
ATOM     32  C   UNL A   1      34.784  31.981  28.019  1.00  0.00     0.002 C 
BRANCH  32  33
ATOM     33  C   UNL A   1      35.095  32.986  29.125  1.00  0.00     0.021 C 
BRANCH  33  34
ATOM     34  C   UNL A   1      34.302  32.783  30.406  1.00  0.00     0.116 C 
BRANCH  34  35
ATOM     35  N   UNL A   1      33.908  34.035  31.031  1.00  0.00    -0.352 N 
ATOM     36  C   UNL A   1      34.458  34.732  32.089  1.00  0.00     0.251 C 
ATOM     37  H   UNL A   1      33.114  34.458  30.631  1.00  0.00     0.163 HD
ATOM     38  O   UNL A   1      33.858  35.688  32.551  1.00  0.00    -0.269 OA
BRANCH  36  39
ATOM     39  C   UNL A   1      35.844  34.441  32.542  1.00  0.00     0.039 A 
ATOM     40  C   UNL A   1      36.889  34.964  31.764  1.00  0.00     0.014 A 
ATOM     41  C   UNL A   1      36.119  33.503  33.528  1.00  0.00     0.014 A 
ATOM     42  C   UNL A   1      38.139  34.356  31.790  1.00  0.00     0.010 A 
ATOM     43  C   UNL A   1      37.313  32.824  33.476  1.00  0.00     0.010 A 
ATOM     44  C   UNL A   1      38.293  33.207  32.555  1.00  0.00    -0.014 A 
BRANCH  44  45
ATOM     45  C   UNL A   1      39.404  32.280  32.440  1.00  0.00     0.031 A 
ATOM     46  C   UNL A   1      39.234  31.042  31.658  1.00  0.00     0.074 A 
ATOM     47  C   UNL A   1      40.626  32.699  32.836  1.00  0.00     0.049 A 
ATOM     48  N   UNL A   1      40.094  30.087  31.610  1.00  0.00    -0.248 NA
ATOM     49  C   UNL A   1      38.034  30.770  30.879  1.00  0.00     0.031 C 
ATOM     50  C   UNL A   1      41.924  32.175  32.424  1.00  0.00     0.029 A 
ATOM     51  N   UNL A   1      40.927  33.598  33.873  1.00  0.00    -0.354 N 
ATOM     52  C   UNL A   1      39.720  29.230  30.600  1.00  0.00     0.074 A 
ATOM     53  C   UNL A   1      38.393  29.660  30.229  1.00  0.00     0.031 C 
ATOM     54  C   UNL A   1      42.838  32.503  33.351  1.00  0.00     0.029 A 
ATOM     55  C   UNL A   1      42.111  33.091  34.461  1.00  0.00     0.049 A 
ATOM     56  H   UNL A   1      40.424  34.404  34.134  1.00  0.00     0.167 HD
ATOM     57  C   UNL A   1      40.648  28.351  30.121  1.00  0.00     0.037 A 
ATOM     58  C   UNL A   1      42.111  32.588  35.731  1.00  0.00     0.037 A 
ATOM     59  C   UNL A   1      41.857  28.387  30.946  1.00  0.00     0.049 A 
ATOM     60  C   UNL A   1      42.572  31.152  35.816  1.00  0.00     0.074 A 
ATOM     61  C   UNL A   1      43.091  29.001  30.795  1.00  0.00     0.029 A 
ATOM     62  N   UNL A   1      41.778  27.991  32.278  1.00  0.00    -0.354 N 
ATOM     63  N   UNL A   1      42.499  30.300  34.830  1.00  0.00    -0.248 NA
ATOM     64  C   UNL A   1      43.161  30.568  37.016  1.00  0.00     0.031 C 
ATOM     65  C   UNL A   1      43.741  29.000  32.057  1.00  0.00     0.029 A 
ATOM     66  C   UNL A   1      42.912  28.369  32.968  1.00  0.00     0.049 A 
ATOM     67  H   UNL A   1      41.016  27.509  32.673  1.00  0.00     0.167 HD
ATOM     68  C   UNL A   1      43.026  29.094  35.224  1.00  0.00     0.074 A 
ATOM     69  C   UNL A   1      43.433  29.320  36.598  1.00  0.00     0.031 C 
ATOM     70  C   UNL A   1      43.080  28.024  34.372  1.00  0.00     0.037 A 
BRANCH  57  71
ATOM     71  C   UNL A   1      40.584  27.664  28.770  1.00  0.00     0.064 A 
ATOM     72  C   UNL A   1      39.836  26.476  28.603  1.00  0.00     0.173 A 
ATOM     73  C   UNL A   1      41.281  28.072  27.616  1.00  0.00     0.173 A 
ATOM     74  F   UNL A   1      39.035  26.008  29.570  1.00  0.00    -0.203 F 
ATOM     75  C   UNL A   1      39.878  25.711  27.432  1.00  0.00     0.198 A 
ATOM     76  C   UNL A   1      41.361  27.286  26.461  1.00  0.00     0.198 A 
ATOM     77  F   UNL A   1      41.854  29.275  27.529  1.00  0.00    -0.203 F 
ATOM     78  F   UNL A   1      39.153  24.587  27.346  1.00  0.00    -0.200 F 
ATOM     79  C   UNL A   1      40.669  26.098  26.372  1.00  0.00     0.200 A 
ATOM     80  F   UNL A   1      42.113  27.699  25.430  1.00  0.00    -0.200 F 
ATOM     81  F   UNL A   1      40.739  25.351  25.263  1.00  0.00    -0.200 F 
ENDBRANCH  57  71
BRANCH  58  82
ATOM     82  C   UNL A   1      41.079  33.216  36.600  1.00  0.00     0.064 A 
ATOM     83  C   UNL A   1      39.846  32.550  36.751  1.00  0.00     0.173 A 
ATOM     84  C   UNL A   1      41.421  34.170  37.566  1.00  0.00     0.173 A 
ATOM     85  F   UNL A   1      39.472  31.627  35.850  1.00  0.00    -0.203 F 
ATOM     86  C   UNL A   1      39.060  32.728  37.886  1.00  0.00     0.198 A 
ATOM     87  C   UNL A   1      40.619  34.360  38.694  1.00  0.00     0.198 A 
ATOM     88  F   UNL A   1      42.585  34.829  37.487  1.00  0.00    -0.203 F 
ATOM     89  F   UNL A   1      37.956  31.985  38.059  1.00  0.00    -0.200 F 
ATOM     90  C   UNL A   1      39.463  33.611  38.873  1.00  0.00     0.200 A 
ATOM     91  F   UNL A   1      41.019  35.196  39.663  1.00  0.00    -0.200 F 
ATOM     92  F   UNL A   1      38.765  33.712  40.012  1.00  0.00    -0.200 F 
ENDBRANCH  58  82
BRANCH  70  93
ATOM     93  C   UNL A   1      43.377  26.574  34.716  1.00  0.00     0.064 A 
ATOM     94  C   UNL A   1      42.405  25.599  34.991  1.00  0.00     0.173 A 
ATOM     95  C   UNL A   1      44.708  26.077  34.632  1.00  0.00     0.173 A 
ATOM     96  F   UNL A   1      41.099  25.887  34.984  1.00  0.00    -0.203 F 
ATOM     97  C   UNL A   1      42.737  24.257  35.218  1.00  0.00     0.198 A 
ATOM     98  C   UNL A   1      45.026  24.729  34.794  1.00  0.00     0.198 A 
ATOM     99  F   UNL A   1      45.748  26.877  34.355  1.00  0.00    -0.203 F 
ATOM    100  F   UNL A   1      41.768  23.380  35.518  1.00  0.00    -0.200 F 
ATOM    101  C   UNL A   1      44.042  23.820  35.103  1.00  0.00     0.200 A 
ATOM    102  F   UNL A   1      46.291  24.319  34.620  1.00  0.00    -0.200 F 
ATOM    103  F   UNL A   1      44.344  22.525  35.267  1.00  0.00    -0.200 F 
ENDBRANCH  70  93
ENDBRANCH  44  45
ENDBRANCH  36  39
ENDBRANCH  34  35
ENDBRANCH  33  34
ENDBRANCH  32  33
ENDBRANCH   1  32
TORSDOF 16
ENDMDL
