MODEL 1
REMARK VINA RESULT:     -10.3      0.000      0.000
REMARK SMILES COC[C@@H](C)CC(=O)N1CC(CC(=O)NCCCCCCNC(=O)c2ccc(-c3c4nc(c(-c5c(F)c(F)c(F)c(F)c5F)c5ccc([nH]5)c(-c5c(F)c(F)c(F)c(F)c5F)c5nc(c(-c6c(F)c(F)c(F)c(F)c6F)c6ccc3[nH]6)C=C5)C=C4)cc2)C1
REMARK SMILES IDX 17 1 16 2 15 3 13 4 14 5 12 7 11 8 7 9 8 10 9 11 10 12 88 13
REMARK SMILES IDX 6 14 4 15 5 16 3 17 2 18 1 19 18 20 19 21 20 22 21 23 22 24
REMARK SMILES IDX 23 25 24 27 25 28 26 29 87 30 27 31 86 32 28 33 29 34 30 35
REMARK SMILES IDX 80 36 31 37 85 38 79 39 81 40 32 41 84 42 78 43 77 44 33 46
REMARK SMILES IDX 65 47 45 48 64 49 46 50 49 51 63 52 82 53 47 54 48 55 62 57
REMARK SMILES IDX 83 58 50 59 34 60 35 61 43 62 36 63 37 64 41 65 44 66 38 67
REMARK SMILES IDX 39 68 42 69 40 70 66 71 67 72 75 73 68 74 69 75 73 76 76 77
REMARK SMILES IDX 70 78 71 79 74 80 72 81 51 82 52 83 60 84 53 85 54 86 58 87
REMARK SMILES IDX 61 88 55 89 56 90 59 91 57 92
REMARK H PARENT 15 6 22 26 81 45 49 56
REMARK Flexibility Score: inf
ROOT
ATOM      1  C   UNL A   1      35.489  32.788  28.164  1.00  0.00     0.021 C 
ENDROOT
BRANCH   1   2
ATOM      2  C   UNL A   1      34.461  31.764  28.661  1.00  0.00     0.116 C 
BRANCH   2   3
ATOM      3  N   UNL A   1      34.828  30.413  28.275  1.00  0.00    -0.356 N 
ATOM      4  C   UNL A   1      34.357  29.600  27.289  1.00  0.00     0.220 C 
ATOM      5  O   UNL A   1      34.787  28.446  27.236  1.00  0.00    -0.275 OA
ATOM      6  H   UNL A   1      35.542  30.014  28.824  1.00  0.00     0.163 HD
BRANCH   4   7
ATOM      7  C   UNL A   1      33.312  30.078  26.294  1.00  0.00     0.107 C 
BRANCH   7   8
ATOM      8  C   UNL A   1      32.918  29.002  25.289  1.00  0.00     0.037 C 
ATOM      9  C   UNL A   1      30.830  28.000  22.941  1.00  0.00     0.222 C 
ATOM     10  O   UNL A   1      31.450  27.191  22.257  1.00  0.00    -0.275 OA
ATOM     11  N   UNL A   1      31.437  28.879  23.811  1.00  0.00    -0.342 N 
ATOM     12  C   UNL A   1      32.829  29.337  23.794  1.00  0.00     0.125 C 
ATOM     13  C   UNL A   1      31.424  28.720  25.255  1.00  0.00     0.125 C 
BRANCH   9  14
ATOM     14  C   UNL A   1      29.327  28.213  22.777  1.00  0.00     0.106 C 
BRANCH  14  15
ATOM     15  C   UNL A   1      28.788  29.655  22.841  1.00  0.00     0.021 C 
ATOM     16  C   UNL A   1      27.266  29.613  23.033  1.00  0.00     0.010 C 
BRANCH  15  17
ATOM     17  C   UNL A   1      29.154  30.454  21.584  1.00  0.00     0.163 C 
BRANCH  17  18
ATOM     18  O   UNL A   1      28.029  30.984  20.895  1.00  0.00    -0.384 OA
ATOM     19  C   UNL A   1      28.020  32.399  20.861  1.00  0.00     0.194 C 
ENDBRANCH  17  18
ENDBRANCH  15  17
ENDBRANCH  14  15
ENDBRANCH   9  14
ENDBRANCH   7   8
ENDBRANCH   4   7
ENDBRANCH   2   3
ENDBRANCH   1   2
BRANCH   1  20
ATOM     20  C   UNL A   1      35.064  34.257  28.269  1.00  0.00     0.002 C 
BRANCH  20  21
ATOM     21  C   UNL A   1      33.700  34.511  28.923  1.00  0.00     0.002 C 
BRANCH  21  22
ATOM     22  C   UNL A   1      33.144  35.934  28.794  1.00  0.00     0.021 C 
BRANCH  22  23
ATOM     23  C   UNL A   1      33.274  36.813  30.039  1.00  0.00     0.116 C 
BRANCH  23  24
ATOM     24  N   UNL A   1      32.306  36.502  31.076  1.00  0.00    -0.352 N 
ATOM     25  C   UNL A   1      32.409  35.639  32.146  1.00  0.00     0.251 C 
ATOM     26  H   UNL A   1      31.447  36.978  31.004  1.00  0.00     0.163 HD
ATOM     27  O   UNL A   1      31.447  35.448  32.879  1.00  0.00    -0.269 OA
BRANCH  25  28
ATOM     28  C   UNL A   1      33.672  34.906  32.402  1.00  0.00     0.039 A 
ATOM     29  C   UNL A   1      34.886  35.587  32.320  1.00  0.00     0.014 A 
ATOM     30  C   UNL A   1      33.672  33.541  32.685  1.00  0.00     0.014 A 
ATOM     31  C   UNL A   1      36.087  34.914  32.584  1.00  0.00     0.010 A 
ATOM     32  C   UNL A   1      34.859  32.894  33.047  1.00  0.00     0.010 A 
ATOM     33  C   UNL A   1      36.090  33.567  32.989  1.00  0.00    -0.014 A 
BRANCH  33  34
ATOM     34  C   UNL A   1      37.374  32.867  33.308  1.00  0.00     0.031 A 
ATOM     35  C   UNL A   1      38.114  33.153  34.593  1.00  0.00     0.074 A 
ATOM     36  C   UNL A   1      37.892  31.968  32.444  1.00  0.00     0.049 A 
ATOM     37  N   UNL A   1      39.226  32.624  35.047  1.00  0.00    -0.248 NA
ATOM     38  C   UNL A   1      37.544  34.182  35.475  1.00  0.00     0.031 C 
ATOM     39  C   UNL A   1      37.322  31.618  31.143  1.00  0.00     0.029 A 
ATOM     40  N   UNL A   1      39.015  31.176  32.533  1.00  0.00    -0.354 N 
ATOM     41  C   UNL A   1      39.486  33.259  36.256  1.00  0.00     0.074 A 
ATOM     42  C   UNL A   1      38.456  34.261  36.431  1.00  0.00     0.031 C 
ATOM     43  C   UNL A   1      38.067  30.655  30.578  1.00  0.00     0.029 A 
ATOM     44  C   UNL A   1      39.194  30.344  31.454  1.00  0.00     0.049 A 
ATOM     45  H   UNL A   1      39.632  31.204  33.300  1.00  0.00     0.167 HD
ATOM     46  C   UNL A   1      40.468  33.014  37.158  1.00  0.00     0.037 A 
ATOM     47  C   UNL A   1      40.152  29.430  31.195  1.00  0.00     0.037 A 
ATOM     48  C   UNL A   1      41.486  32.006  37.006  1.00  0.00     0.049 A 
ATOM     49  C   UNL A   1      41.243  29.187  32.204  1.00  0.00     0.074 A 
ATOM     50  C   UNL A   1      42.494  31.658  37.889  1.00  0.00     0.029 A 
ATOM     51  N   UNL A   1      41.630  31.187  35.897  1.00  0.00    -0.354 N 
ATOM     52  N   UNL A   1      41.432  29.749  33.374  1.00  0.00    -0.248 NA
ATOM     53  C   UNL A   1      42.250  28.172  31.861  1.00  0.00     0.031 C 
ATOM     54  C   UNL A   1      43.281  30.669  37.290  1.00  0.00     0.029 A 
ATOM     55  C   UNL A   1      42.723  30.350  36.064  1.00  0.00     0.049 A 
ATOM     56  H   UNL A   1      41.042  31.198  35.106  1.00  0.00     0.167 HD
ATOM     57  C   UNL A   1      42.547  29.126  33.921  1.00  0.00     0.074 A 
ATOM     58  C   UNL A   1      42.988  28.138  32.961  1.00  0.00     0.031 C 
ATOM     59  C   UNL A   1      43.148  29.353  35.116  1.00  0.00     0.037 A 
BRANCH  46  60
ATOM     60  C   UNL A   1      40.490  33.855  38.406  1.00  0.00     0.064 A 
ATOM     61  C   UNL A   1      41.276  35.016  38.499  1.00  0.00     0.173 A 
ATOM     62  C   UNL A   1      39.688  33.521  39.507  1.00  0.00     0.173 A 
ATOM     63  F   UNL A   1      42.068  35.379  37.479  1.00  0.00    -0.203 F 
ATOM     64  C   UNL A   1      41.286  35.786  39.659  1.00  0.00     0.198 A 
ATOM     65  C   UNL A   1      39.672  34.314  40.651  1.00  0.00     0.198 A 
ATOM     66  F   UNL A   1      38.908  32.431  39.469  1.00  0.00    -0.203 F 
ATOM     67  F   UNL A   1      42.090  36.855  39.745  1.00  0.00    -0.200 F 
ATOM     68  C   UNL A   1      40.478  35.438  40.731  1.00  0.00     0.200 A 
ATOM     69  F   UNL A   1      38.876  33.987  41.680  1.00  0.00    -0.200 F 
ATOM     70  F   UNL A   1      40.483  36.185  41.845  1.00  0.00    -0.200 F 
ENDBRANCH  46  60
BRANCH  47  71
ATOM     71  C   UNL A   1      40.113  28.646  29.929  1.00  0.00     0.064 A 
ATOM     72  C   UNL A   1      39.466  27.403  29.866  1.00  0.00     0.173 A 
ATOM     73  C   UNL A   1      40.746  29.108  28.766  1.00  0.00     0.173 A 
ATOM     74  F   UNL A   1      38.865  26.904  30.956  1.00  0.00    -0.203 F 
ATOM     75  C   UNL A   1      39.479  26.642  28.698  1.00  0.00     0.198 A 
ATOM     76  C   UNL A   1      40.729  28.361  27.590  1.00  0.00     0.198 A 
ATOM     77  F   UNL A   1      41.377  30.292  28.770  1.00  0.00    -0.203 F 
ATOM     78  F   UNL A   1      38.903  25.431  28.684  1.00  0.00    -0.200 F 
ATOM     79  C   UNL A   1      40.105  27.124  27.559  1.00  0.00     0.200 A 
ATOM     80  F   UNL A   1      41.323  28.839  26.488  1.00  0.00    -0.200 F 
ATOM     81  F   UNL A   1      40.116  26.392  26.437  1.00  0.00    -0.200 F 
ENDBRANCH  47  71
BRANCH  59  82
ATOM     82  C   UNL A   1      44.309  28.474  35.490  1.00  0.00     0.064 A 
ATOM     83  C   UNL A   1      45.635  28.816  35.184  1.00  0.00     0.173 A 
ATOM     84  C   UNL A   1      44.090  27.278  36.195  1.00  0.00     0.173 A 
ATOM     85  F   UNL A   1      45.902  29.940  34.501  1.00  0.00    -0.203 F 
ATOM     86  C   UNL A   1      46.692  27.979  35.536  1.00  0.00     0.198 A 
ATOM     87  C   UNL A   1      45.152  26.463  36.577  1.00  0.00     0.198 A 
ATOM     88  F   UNL A   1      42.844  26.905  36.523  1.00  0.00    -0.203 F 
ATOM     89  F   UNL A   1      47.944  28.298  35.178  1.00  0.00    -0.200 F 
ATOM     90  C   UNL A   1      46.451  26.808  36.238  1.00  0.00     0.200 A 
ATOM     91  F   UNL A   1      44.917  25.341  37.271  1.00  0.00    -0.200 F 
ATOM     92  F   UNL A   1      47.470  26.007  36.579  1.00  0.00    -0.200 F 
ENDBRANCH  59  82
ENDBRANCH  33  34
ENDBRANCH  25  28
ENDBRANCH  23  24
ENDBRANCH  22  23
ENDBRANCH  21  22
ENDBRANCH  20  21
ENDBRANCH   1  20
TORSDOF 18
ENDMDL
MODEL 2
REMARK VINA RESULT:     -10.3      0.848      7.311
REMARK SMILES COC[C@@H](C)CC(=O)N1CC(CC(=O)NCCCCCCNC(=O)c2ccc(-c3c4nc(c(-c5c(F)c(F)c(F)c(F)c5F)c5ccc([nH]5)c(-c5c(F)c(F)c(F)c(F)c5F)c5nc(c(-c6c(F)c(F)c(F)c(F)c6F)c6ccc3[nH]6)C=C5)C=C4)cc2)C1
REMARK SMILES IDX 17 1 16 2 15 3 13 4 14 5 12 7 11 8 7 9 8 10 9 11 10 12 88 13
REMARK SMILES IDX 6 14 4 15 5 16 3 17 2 18 1 19 18 20 19 21 20 22 21 23 22 24
REMARK SMILES IDX 23 25 24 27 25 28 26 29 87 30 27 31 86 32 28 33 29 34 30 35
REMARK SMILES IDX 80 36 31 37 85 38 79 39 81 40 32 41 84 42 78 43 77 44 33 46
REMARK SMILES IDX 65 47 45 48 64 49 46 50 49 51 63 52 82 53 47 54 48 55 62 57
REMARK SMILES IDX 83 58 50 59 34 60 35 61 43 62 36 63 37 64 41 65 44 66 38 67
REMARK SMILES IDX 39 68 42 69 40 70 66 71 67 72 75 73 68 74 69 75 73 76 76 77
REMARK SMILES IDX 70 78 71 79 74 80 72 81 51 82 52 83 60 84 53 85 54 86 58 87
REMARK SMILES IDX 61 88 55 89 56 90 59 91 57 92
REMARK H PARENT 15 6 22 26 81 45 49 56
REMARK Flexibility Score: inf
ROOT
ATOM      1  C   UNL A   1      34.695  31.939  28.213  1.00  0.00     0.021 C 
ENDROOT
BRANCH   1   2
ATOM      2  C   UNL A   1      35.298  30.547  27.988  1.00  0.00     0.116 C 
BRANCH   2   3
ATOM      3  N   UNL A   1      34.291  29.506  28.108  1.00  0.00    -0.356 N 
ATOM      4  C   UNL A   1      33.372  29.039  27.218  1.00  0.00     0.220 C 
ATOM      5  O   UNL A   1      32.562  28.198  27.612  1.00  0.00    -0.275 OA
ATOM      6  H   UNL A   1      34.269  29.062  28.986  1.00  0.00     0.163 HD
BRANCH   4   7
ATOM      7  C   UNL A   1      33.314  29.551  25.789  1.00  0.00     0.107 C 
BRANCH   7   8
ATOM      8  C   UNL A   1      32.237  28.864  24.957  1.00  0.00     0.037 C 
ATOM      9  C   UNL A   1      30.224  28.975  22.348  1.00  0.00     0.222 C 
ATOM     10  O   UNL A   1      29.965  27.808  22.068  1.00  0.00    -0.275 OA
ATOM     11  N   UNL A   1      31.274  29.344  23.159  1.00  0.00    -0.342 N 
ATOM     12  C   UNL A   1      32.479  28.570  23.470  1.00  0.00     0.125 C 
ATOM     13  C   UNL A   1      31.112  29.794  24.531  1.00  0.00     0.125 C 
BRANCH   9  14
ATOM     14  C   UNL A   1      29.490  30.145  21.695  1.00  0.00     0.106 C 
BRANCH  14  15
ATOM     15  C   UNL A   1      28.526  30.972  22.565  1.00  0.00     0.021 C 
ATOM     16  C   UNL A   1      27.501  30.030  23.212  1.00  0.00     0.010 C 
BRANCH  15  17
ATOM     17  C   UNL A   1      27.819  32.062  21.750  1.00  0.00     0.163 C 
BRANCH  17  18
ATOM     18  O   UNL A   1      28.298  33.375  22.013  1.00  0.00    -0.384 OA
ATOM     19  C   UNL A   1      29.083  33.450  23.188  1.00  0.00     0.194 C 
ENDBRANCH  17  18
ENDBRANCH  15  17
ENDBRANCH  14  15
ENDBRANCH   9  14
ENDBRANCH   7   8
ENDBRANCH   4   7
ENDBRANCH   2   3
ENDBRANCH   1   2
BRANCH   1  20
ATOM     20  C   UNL A   1      35.667  33.114  28.055  1.00  0.00     0.002 C 
BRANCH  20  21
ATOM     21  C   UNL A   1      35.280  34.402  28.791  1.00  0.00     0.002 C 
BRANCH  21  22
ATOM     22  C   UNL A   1      33.782  34.728  28.839  1.00  0.00     0.021 C 
BRANCH  22  23
ATOM     23  C   UNL A   1      33.427  36.161  29.240  1.00  0.00     0.116 C 
BRANCH  23  24
ATOM     24  N   UNL A   1      32.507  36.241  30.361  1.00  0.00    -0.352 N 
ATOM     25  C   UNL A   1      32.615  35.705  31.627  1.00  0.00     0.251 C 
ATOM     26  H   UNL A   1      31.684  36.755  30.193  1.00  0.00     0.163 HD
ATOM     27  O   UNL A   1      31.691  35.815  32.423  1.00  0.00    -0.269 OA
BRANCH  25  28
ATOM     28  C   UNL A   1      33.832  34.960  32.028  1.00  0.00     0.039 A 
ATOM     29  C   UNL A   1      35.028  35.655  32.214  1.00  0.00     0.014 A 
ATOM     30  C   UNL A   1      33.815  33.576  32.184  1.00  0.00     0.014 A 
ATOM     31  C   UNL A   1      36.181  34.969  32.617  1.00  0.00     0.010 A 
ATOM     32  C   UNL A   1      34.938  32.906  32.684  1.00  0.00     0.010 A 
ATOM     33  C   UNL A   1      36.146  33.590  32.896  1.00  0.00    -0.014 A 
BRANCH  33  34
ATOM     34  C   UNL A   1      37.373  32.873  33.364  1.00  0.00     0.031 A 
ATOM     35  C   UNL A   1      38.050  31.844  32.491  1.00  0.00     0.074 A 
ATOM     36  C   UNL A   1      37.893  33.137  34.583  1.00  0.00     0.049 A 
ATOM     37  N   UNL A   1      39.135  31.142  32.722  1.00  0.00    -0.248 NA
ATOM     38  C   UNL A   1      37.416  31.546  31.198  1.00  0.00     0.031 C 
ATOM     39  C   UNL A   1      37.329  34.068  35.560  1.00  0.00     0.029 A 
ATOM     40  N   UNL A   1      39.020  32.650  35.206  1.00  0.00    -0.354 N 
ATOM     41  C   UNL A   1      39.304  30.323  31.611  1.00  0.00     0.074 A 
ATOM     42  C   UNL A   1      38.174  30.562  30.740  1.00  0.00     0.031 C 
ATOM     43  C   UNL A   1      38.131  34.120  36.635  1.00  0.00     0.029 A 
ATOM     44  C   UNL A   1      39.247  33.196  36.447  1.00  0.00     0.049 A 
ATOM     45  H   UNL A   1      39.608  31.973  34.800  1.00  0.00     0.167 HD
ATOM     46  C   UNL A   1      40.320  29.473  31.320  1.00  0.00     0.037 A 
ATOM     47  C   UNL A   1      40.239  32.984  37.335  1.00  0.00     0.037 A 
ATOM     48  C   UNL A   1      41.461  29.242  32.169  1.00  0.00     0.049 A 
ATOM     49  C   UNL A   1      41.348  32.022  36.998  1.00  0.00     0.074 A 
ATOM     50  C   UNL A   1      42.559  28.432  31.935  1.00  0.00     0.029 A 
ATOM     51  N   UNL A   1      41.649  29.815  33.417  1.00  0.00    -0.354 N 
ATOM     52  N   UNL A   1      41.527  31.309  35.912  1.00  0.00    -0.248 NA
ATOM     53  C   UNL A   1      42.402  31.844  38.008  1.00  0.00     0.031 C 
ATOM     54  C   UNL A   1      43.384  28.472  33.065  1.00  0.00     0.029 A 
ATOM     55  C   UNL A   1      42.836  29.361  33.973  1.00  0.00     0.049 A 
ATOM     56  H   UNL A   1      41.032  30.453  33.845  1.00  0.00     0.167 HD
ATOM     57  C   UNL A   1      42.731  30.637  36.091  1.00  0.00     0.074 A 
ATOM     58  C   UNL A   1      43.244  31.032  37.384  1.00  0.00     0.031 C 
ATOM     59  C   UNL A   1      43.354  29.772  35.253  1.00  0.00     0.037 A 
BRANCH  46  60
ATOM     60  C   UNL A   1      40.247  28.724  30.018  1.00  0.00     0.064 A 
ATOM     61  C   UNL A   1      40.845  29.219  28.847  1.00  0.00     0.173 A 
ATOM     62  C   UNL A   1      39.606  27.478  29.945  1.00  0.00     0.173 A 
ATOM     63  F   UNL A   1      41.466  30.409  28.857  1.00  0.00    -0.203 F 
ATOM     64  C   UNL A   1      40.771  28.514  27.649  1.00  0.00     0.198 A 
ATOM     65  C   UNL A   1      39.566  26.758  28.754  1.00  0.00     0.198 A 
ATOM     66  F   UNL A   1      39.028  26.951  31.035  1.00  0.00    -0.203 F 
ATOM     67  F   UNL A   1      41.299  29.036  26.533  1.00  0.00    -0.200 F 
ATOM     68  C   UNL A   1      40.138  27.281  27.605  1.00  0.00     0.200 A 
ATOM     69  F   UNL A   1      38.969  25.558  28.718  1.00  0.00    -0.200 F 
ATOM     70  F   UNL A   1      40.074  26.599  26.452  1.00  0.00    -0.200 F 
ENDBRANCH  46  60
BRANCH  47  71
ATOM     71  C   UNL A   1      40.252  33.719  38.631  1.00  0.00     0.064 A 
ATOM     72  C   UNL A   1      39.506  33.264  39.728  1.00  0.00     0.173 A 
ATOM     73  C   UNL A   1      40.986  34.903  38.789  1.00  0.00     0.173 A 
ATOM     74  F   UNL A   1      38.769  32.149  39.622  1.00  0.00    -0.203 F 
ATOM     75  C   UNL A   1      39.472  33.982  40.923  1.00  0.00     0.198 A 
ATOM     76  C   UNL A   1      40.977  35.601  39.995  1.00  0.00     0.198 A 
ATOM     77  F   UNL A   1      41.719  35.380  37.773  1.00  0.00    -0.203 F 
ATOM     78  F   UNL A   1      38.703  33.555  41.936  1.00  0.00    -0.200 F 
ATOM     79  C   UNL A   1      40.212  35.146  41.058  1.00  0.00     0.200 A 
ATOM     80  F   UNL A   1      41.706  36.718  40.125  1.00  0.00    -0.200 F 
ATOM     81  F   UNL A   1      40.179  35.835  42.207  1.00  0.00    -0.200 F 
ENDBRANCH  47  71
BRANCH  59  82
ATOM     82  C   UNL A   1      44.697  29.241  35.673  1.00  0.00     0.064 A 
ATOM     83  C   UNL A   1      45.895  29.896  35.348  1.00  0.00     0.173 A 
ATOM     84  C   UNL A   1      44.783  28.067  36.439  1.00  0.00     0.173 A 
ATOM     85  F   UNL A   1      45.873  31.015  34.607  1.00  0.00    -0.203 F 
ATOM     86  C   UNL A   1      47.126  29.378  35.743  1.00  0.00     0.198 A 
ATOM     87  C   UNL A   1      46.014  27.572  36.863  1.00  0.00     0.198 A 
ATOM     88  F   UNL A   1      43.670  27.403  36.787  1.00  0.00    -0.203 F 
ATOM     89  F   UNL A   1      48.259  29.989  35.368  1.00  0.00    -0.200 F 
ATOM     90  C   UNL A   1      47.184  28.221  36.505  1.00  0.00     0.200 A 
ATOM     91  F   UNL A   1      46.065  26.464  37.615  1.00  0.00    -0.200 F 
ATOM     92  F   UNL A   1      48.370  27.727  36.888  1.00  0.00    -0.200 F 
ENDBRANCH  59  82
ENDBRANCH  33  34
ENDBRANCH  25  28
ENDBRANCH  23  24
ENDBRANCH  22  23
ENDBRANCH  21  22
ENDBRANCH  20  21
ENDBRANCH   1  20
TORSDOF 18
ENDMDL
MODEL 3
REMARK VINA RESULT:     -10.3      6.986     12.379
REMARK SMILES COC[C@@H](C)CC(=O)N1CC(CC(=O)NCCCCCCNC(=O)c2ccc(-c3c4nc(c(-c5c(F)c(F)c(F)c(F)c5F)c5ccc([nH]5)c(-c5c(F)c(F)c(F)c(F)c5F)c5nc(c(-c6c(F)c(F)c(F)c(F)c6F)c6ccc3[nH]6)C=C5)C=C4)cc2)C1
REMARK SMILES IDX 17 1 16 2 15 3 13 4 14 5 12 7 11 8 7 9 8 10 9 11 10 12 88 13
REMARK SMILES IDX 6 14 4 15 5 16 3 17 2 18 1 19 18 20 19 21 20 22 21 23 22 24
REMARK SMILES IDX 23 25 24 27 25 28 26 29 87 30 27 31 86 32 28 33 29 34 30 35
REMARK SMILES IDX 80 36 31 37 85 38 79 39 81 40 32 41 84 42 78 43 77 44 33 46
REMARK SMILES IDX 65 47 45 48 64 49 46 50 49 51 63 52 82 53 47 54 48 55 62 57
REMARK SMILES IDX 83 58 50 59 34 60 35 61 43 62 36 63 37 64 41 65 44 66 38 67
REMARK SMILES IDX 39 68 42 69 40 70 66 71 67 72 75 73 68 74 69 75 73 76 76 77
REMARK SMILES IDX 70 78 71 79 74 80 72 81 51 82 52 83 60 84 53 85 54 86 58 87
REMARK SMILES IDX 61 88 55 89 56 90 59 91 57 92
REMARK H PARENT 15 6 22 26 81 45 49 56
REMARK Flexibility Score: inf
ROOT
ATOM      1  C   UNL A   1      37.708  22.884  25.486  1.00  0.00     0.021 C 
ENDROOT
BRANCH   1   2
ATOM      2  C   UNL A   1      36.599  23.750  26.096  1.00  0.00     0.116 C 
BRANCH   2   3
ATOM      3  N   UNL A   1      35.669  22.951  26.876  1.00  0.00    -0.356 N 
ATOM      4  C   UNL A   1      34.308  22.918  26.894  1.00  0.00     0.220 C 
ATOM      5  O   UNL A   1      33.758  22.199  27.731  1.00  0.00    -0.275 OA
ATOM      6  H   UNL A   1      36.100  22.323  27.501  1.00  0.00     0.163 HD
BRANCH   4   7
ATOM      7  C   UNL A   1      33.478  23.758  25.938  1.00  0.00     0.107 C 
BRANCH   7   8
ATOM      8  C   UNL A   1      33.190  23.046  24.622  1.00  0.00     0.037 C 
ATOM      9  C   UNL A   1      32.189  20.304  23.087  1.00  0.00     0.222 C 
ATOM     10  O   UNL A   1      31.779  20.660  21.986  1.00  0.00    -0.275 OA
ATOM     11  N   UNL A   1      32.387  21.172  24.139  1.00  0.00    -0.342 N 
ATOM     12  C   UNL A   1      31.787  22.494  24.332  1.00  0.00     0.125 C 
ATOM     13  C   UNL A   1      33.699  21.614  24.581  1.00  0.00     0.125 C 
BRANCH   9  14
ATOM     14  C   UNL A   1      32.375  18.831  23.442  1.00  0.00     0.106 C 
BRANCH  14  15
ATOM     15  C   UNL A   1      33.209  18.486  24.690  1.00  0.00     0.021 C 
ATOM     16  C   UNL A   1      34.605  18.024  24.248  1.00  0.00     0.010 C 
BRANCH  15  17
ATOM     17  C   UNL A   1      32.530  17.410  25.547  1.00  0.00     0.163 C 
BRANCH  17  18
ATOM     18  O   UNL A   1      33.172  16.143  25.491  1.00  0.00    -0.384 OA
ATOM     19  C   UNL A   1      32.292  15.066  25.754  1.00  0.00     0.194 C 
ENDBRANCH  17  18
ENDBRANCH  15  17
ENDBRANCH  14  15
ENDBRANCH   9  14
ENDBRANCH   7   8
ENDBRANCH   4   7
ENDBRANCH   2   3
ENDBRANCH   1   2
BRANCH   1  20
ATOM     20  C   UNL A   1      37.245  21.842  24.461  1.00  0.00     0.002 C 
BRANCH  20  21
ATOM     21  C   UNL A   1      37.075  20.414  24.995  1.00  0.00     0.002 C 
BRANCH  21  22
ATOM     22  C   UNL A   1      38.325  19.526  24.957  1.00  0.00     0.021 C 
BRANCH  22  23
ATOM     23  C   UNL A   1      39.296  19.696  26.127  1.00  0.00     0.116 C 
BRANCH  23  24
ATOM     24  N   UNL A   1      40.518  18.924  25.986  1.00  0.00    -0.352 N 
ATOM     25  C   UNL A   1      41.832  19.337  26.060  1.00  0.00     0.251 C 
ATOM     26  H   UNL A   1      40.390  17.964  25.813  1.00  0.00     0.163 HD
ATOM     27  O   UNL A   1      42.739  18.546  25.835  1.00  0.00    -0.269 OA
BRANCH  25  28
ATOM     28  C   UNL A   1      42.161  20.747  26.376  1.00  0.00     0.039 A 
ATOM     29  C   UNL A   1      42.375  21.118  27.704  1.00  0.00     0.014 A 
ATOM     30  C   UNL A   1      42.223  21.718  25.377  1.00  0.00     0.014 A 
ATOM     31  C   UNL A   1      42.712  22.442  28.016  1.00  0.00     0.010 A 
ATOM     32  C   UNL A   1      42.658  23.015  25.677  1.00  0.00     0.010 A 
ATOM     33  C   UNL A   1      42.896  23.403  27.005  1.00  0.00    -0.014 A 
BRANCH  33  34
ATOM     34  C   UNL A   1      43.295  24.804  27.345  1.00  0.00     0.031 A 
ATOM     35  C   UNL A   1      44.696  25.299  27.073  1.00  0.00     0.074 A 
ATOM     36  C   UNL A   1      42.403  25.649  27.905  1.00  0.00     0.049 A 
ATOM     37  N   UNL A   1      45.212  26.488  27.279  1.00  0.00    -0.248 NA
ATOM     38  C   UNL A   1      45.649  24.328  26.517  1.00  0.00     0.031 C 
ATOM     39  C   UNL A   1      41.028  25.309  28.271  1.00  0.00     0.029 A 
ATOM     40  N   UNL A   1      42.517  26.975  28.259  1.00  0.00    -0.354 N 
ATOM     41  C   UNL A   1      46.542  26.401  26.885  1.00  0.00     0.074 A 
ATOM     42  C   UNL A   1      46.773  25.026  26.496  1.00  0.00     0.031 C 
ATOM     43  C   UNL A   1      40.415  26.401  28.753  1.00  0.00     0.029 A 
ATOM     44  C   UNL A   1      41.361  27.514  28.771  1.00  0.00     0.049 A 
ATOM     45  H   UNL A   1      43.350  27.489  28.154  1.00  0.00     0.167 HD
ATOM     46  C   UNL A   1      47.482  27.377  26.819  1.00  0.00     0.037 A 
ATOM     47  C   UNL A   1      41.086  28.761  29.204  1.00  0.00     0.037 A 
ATOM     48  C   UNL A   1      47.259  28.752  27.184  1.00  0.00     0.049 A 
ATOM     49  C   UNL A   1      42.151  29.825  29.138  1.00  0.00     0.074 A 
ATOM     50  C   UNL A   1      48.139  29.818  27.107  1.00  0.00     0.029 A 
ATOM     51  N   UNL A   1      46.073  29.253  27.698  1.00  0.00    -0.354 N 
ATOM     52  N   UNL A   1      43.382  29.740  28.697  1.00  0.00    -0.248 NA
ATOM     53  C   UNL A   1      41.781  31.164  29.619  1.00  0.00     0.031 C 
ATOM     54  C   UNL A   1      47.505  30.951  27.628  1.00  0.00     0.029 A 
ATOM     55  C   UNL A   1      46.207  30.608  27.964  1.00  0.00     0.049 A 
ATOM     56  H   UNL A   1      45.256  28.725  27.852  1.00  0.00     0.167 HD
ATOM     57  C   UNL A   1      43.916  31.019  28.806  1.00  0.00     0.074 A 
ATOM     58  C   UNL A   1      42.874  31.863  29.347  1.00  0.00     0.031 C 
ATOM     59  C   UNL A   1      45.160  31.452  28.483  1.00  0.00     0.037 A 
BRANCH  46  60
ATOM     60  C   UNL A   1      48.850  26.991  26.327  1.00  0.00     0.064 A 
ATOM     61  C   UNL A   1      49.193  27.063  24.967  1.00  0.00     0.173 A 
ATOM     62  C   UNL A   1      49.844  26.581  27.229  1.00  0.00     0.173 A 
ATOM     63  F   UNL A   1      48.280  27.441  24.060  1.00  0.00    -0.203 F 
ATOM     64  C   UNL A   1      50.464  26.704  24.526  1.00  0.00     0.198 A 
ATOM     65  C   UNL A   1      51.125  26.259  26.789  1.00  0.00     0.198 A 
ATOM     66  F   UNL A   1      49.577  26.506  28.541  1.00  0.00    -0.203 F 
ATOM     67  F   UNL A   1      50.747  26.724  23.217  1.00  0.00    -0.200 F 
ATOM     68  C   UNL A   1      51.431  26.309  25.439  1.00  0.00     0.200 A 
ATOM     69  F   UNL A   1      52.064  25.895  27.674  1.00  0.00    -0.200 F 
ATOM     70  F   UNL A   1      52.657  25.971  25.014  1.00  0.00    -0.200 F 
ENDBRANCH  46  60
BRANCH  47  71
ATOM     71  C   UNL A   1      39.728  29.091  29.721  1.00  0.00     0.064 A 
ATOM     72  C   UNL A   1      39.413  28.939  31.079  1.00  0.00     0.173 A 
ATOM     73  C   UNL A   1      38.712  29.536  28.863  1.00  0.00     0.173 A 
ATOM     74  F   UNL A   1      40.343  28.494  31.937  1.00  0.00    -0.203 F 
ATOM     75  C   UNL A   1      38.127  29.192  31.553  1.00  0.00     0.198 A 
ATOM     76  C   UNL A   1      37.436  29.821  29.345  1.00  0.00     0.198 A 
ATOM     77  F   UNL A   1      38.960  29.702  27.556  1.00  0.00    -0.203 F 
ATOM     78  F   UNL A   1      37.838  28.982  32.846  1.00  0.00    -0.200 F 
ATOM     79  C   UNL A   1      37.141  29.639  30.688  1.00  0.00     0.200 A 
ATOM     80  F   UNL A   1      36.490  30.267  28.507  1.00  0.00    -0.200 F 
ATOM     81  F   UNL A   1      35.905  29.883  31.144  1.00  0.00    -0.200 F 
ENDBRANCH  47  71
BRANCH  59  82
ATOM     82  C   UNL A   1      45.450  32.919  28.639  1.00  0.00     0.064 A 
ATOM     83  C   UNL A   1      46.016  33.449  29.808  1.00  0.00     0.173 A 
ATOM     84  C   UNL A   1      45.180  33.806  27.584  1.00  0.00     0.173 A 
ATOM     85  F   UNL A   1      46.283  32.649  30.852  1.00  0.00    -0.203 F 
ATOM     86  C   UNL A   1      46.267  34.814  29.929  1.00  0.00     0.198 A 
ATOM     87  C   UNL A   1      45.467  35.165  27.694  1.00  0.00     0.198 A 
ATOM     88  F   UNL A   1      44.648  33.353  26.438  1.00  0.00    -0.203 F 
ATOM     89  F   UNL A   1      46.751  35.306  31.078  1.00  0.00    -0.200 F 
ATOM     90  C   UNL A   1      45.999  35.669  28.870  1.00  0.00     0.200 A 
ATOM     91  F   UNL A   1      45.223  35.985  26.663  1.00  0.00    -0.200 F 
ATOM     92  F   UNL A   1      46.246  36.982  28.987  1.00  0.00    -0.200 F 
ENDBRANCH  59  82
ENDBRANCH  33  34
ENDBRANCH  25  28
ENDBRANCH  23  24
ENDBRANCH  22  23
ENDBRANCH  21  22
ENDBRANCH  20  21
ENDBRANCH   1  20
TORSDOF 18
ENDMDL
