MODEL 1
REMARK VINA RESULT:     -13.7      0.000      0.000
REMARK SMILES O=C(Cc1c(C(=O)c2cc3c(cn2)CCCC3)[nH]c2cc(Cl)ccc12)NCCCCCCNC(=O)c1ccc(-c2c3nc(c(-c4c(F)c(F)c(F)c(F)c4F)c4ccc([nH]4)c(-c4c(F)c(F)c(F)c(F)c4F)c4nc(c(-c5c(F)c(F)c(F)c(F)c5F)c5ccc2[nH]5)C=C4)C=C3)cc1
REMARK SMILES IDX 29 1 28 2 27 3 26 4 1 5 2 6 3 8 4 9 5 10 25 11 18 12 19 13
REMARK SMILES IDX 24 14 20 16 23 17 21 18 22 19 6 20 7 21 8 22 9 23 13 24
REMARK SMILES IDX 10 25 12 26 11 27 17 28 14 29 16 30 15 31 30 32 31 33 32 34
REMARK SMILES IDX 33 35 34 36 35 38 36 39 37 40 98 41 38 42 97 43 39 44 40 45
REMARK SMILES IDX 41 46 91 47 42 48 96 49 90 50 92 51 43 52 95 53 89 54 88 55
REMARK SMILES IDX 44 57 76 58 56 59 75 60 57 61 60 62 74 63 93 64 58 65 59 66
REMARK SMILES IDX 73 68 94 69 61 70 45 71 46 72 54 73 47 74 48 75 52 76 55 77
REMARK SMILES IDX 49 78 50 79 53 80 51 81 77 82 78 83 86 84 79 85 80 86 84 87
REMARK SMILES IDX 87 88 81 89 82 90 85 91 83 92 62 93 63 94 71 95 64 96 65 97
REMARK SMILES IDX 69 98 72 99 66 100 67 101 70 102 68 103
REMARK H PARENT 26 7 18 15 33 37 92 56 60 67
REMARK Flexibility Score: inf
ROOT
ATOM      1  C   UNL A   1      31.530  29.244  25.886  1.00  0.00     0.002 C 
ENDROOT
BRANCH   1   2
ATOM      2  C   UNL A   1      31.466  28.449  27.199  1.00  0.00     0.021 C 
BRANCH   2   3
ATOM      3  C   UNL A   1      31.211  26.953  27.033  1.00  0.00     0.116 C 
BRANCH   3   4
ATOM      4  N   UNL A   1      32.355  26.264  26.481  1.00  0.00    -0.356 N 
ATOM      5  O   UNL A   1      31.648  24.187  27.134  1.00  0.00    -0.275 OA
ATOM      6  C   UNL A   1      32.451  24.888  26.523  1.00  0.00     0.224 C 
ATOM      7  H   UNL A   1      33.080  26.787  26.067  1.00  0.00     0.163 HD
BRANCH   6   8
ATOM      8  C   UNL A   1      33.598  24.325  25.690  1.00  0.00     0.138 C 
BRANCH   8   9
ATOM      9  C   UNL A   1      33.075  23.703  24.426  1.00  0.00    -0.002 A 
ATOM     10  C   UNL A   1      32.730  24.354  23.242  1.00  0.00     0.093 A 
ATOM     11  C   UNL A   1      32.827  22.301  24.231  1.00  0.00     0.004 A 
ATOM     12  N   UNL A   1      32.485  23.362  22.312  1.00  0.00    -0.351 N 
ATOM     13  C   UNL A   1      32.480  22.122  22.896  1.00  0.00     0.048 A 
ATOM     14  C   UNL A   1      32.885  21.163  25.063  1.00  0.00     0.012 A 
ATOM     15  H   UNL A   1      32.334  23.526  21.352  1.00  0.00     0.167 HD
ATOM     16  C   UNL A   1      32.214  20.862  22.341  1.00  0.00     0.047 A 
ATOM     17  C   UNL A   1      32.616  19.896  24.535  1.00  0.00     0.021 A 
ATOM     18  C   UNL A   1      32.291  19.754  23.191  1.00  0.00     0.043 A 
ATOM     19  Cl  UNL A   1      31.974  18.184  22.558  1.00  0.00    -0.084 Cl
BRANCH  10  20
ATOM     20  C   UNL A   1      32.670  25.789  22.966  1.00  0.00     0.227 C 
ATOM     21  O   UNL A   1      33.656  26.479  22.720  1.00  0.00    -0.285 OA
BRANCH  20  22
ATOM     22  C   UNL A   1      31.355  26.480  23.071  1.00  0.00     0.113 A 
ATOM     23  C   UNL A   1      31.179  27.730  22.485  1.00  0.00     0.036 A 
ATOM     24  N   UNL A   1      30.385  25.822  23.748  1.00  0.00    -0.252 NA
ATOM     25  C   UNL A   1      29.931  28.349  22.595  1.00  0.00    -0.041 A 
ATOM     26  C   UNL A   1      29.184  26.432  23.826  1.00  0.00     0.115 A 
ATOM     27  C   UNL A   1      28.907  27.687  23.289  1.00  0.00    -0.026 A 
ATOM     28  C   UNL A   1      29.728  29.728  22.020  1.00  0.00     0.036 C 
ATOM     29  C   UNL A   1      27.519  28.256  23.395  1.00  0.00     0.037 C 
ATOM     30  C   UNL A   1      28.254  30.098  21.857  1.00  0.00     0.005 C 
ATOM     31  C   UNL A   1      27.471  29.758  23.121  1.00  0.00     0.005 C 
ENDBRANCH  20  22
ENDBRANCH  10  20
ENDBRANCH   8   9
ENDBRANCH   6   8
ENDBRANCH   3   4
ENDBRANCH   2   3
ENDBRANCH   1   2
BRANCH   1  32
ATOM     32  C   UNL A   1      32.396  30.507  25.914  1.00  0.00     0.002 C 
BRANCH  32  33
ATOM     33  C   UNL A   1      31.882  31.645  26.794  1.00  0.00     0.021 C 
BRANCH  33  34
ATOM     34  C   UNL A   1      32.955  32.558  27.375  1.00  0.00     0.116 C 
BRANCH  34  35
ATOM     35  N   UNL A   1      32.485  33.902  27.673  1.00  0.00    -0.352 N 
ATOM     36  C   UNL A   1      32.994  34.802  28.585  1.00  0.00     0.251 C 
ATOM     37  H   UNL A   1      31.704  34.208  27.157  1.00  0.00     0.163 HD
ATOM     38  O   UNL A   1      32.436  35.871  28.791  1.00  0.00    -0.269 OA
BRANCH  36  39
ATOM     39  C   UNL A   1      34.203  34.435  29.355  1.00  0.00     0.039 A 
ATOM     40  C   UNL A   1      35.475  34.632  28.814  1.00  0.00     0.014 A 
ATOM     41  C   UNL A   1      34.056  33.816  30.600  1.00  0.00     0.014 A 
ATOM     42  C   UNL A   1      36.578  34.047  29.426  1.00  0.00     0.010 A 
ATOM     43  C   UNL A   1      35.178  33.299  31.254  1.00  0.00     0.010 A 
ATOM     44  C   UNL A   1      36.440  33.356  30.641  1.00  0.00    -0.014 A 
BRANCH  44  45
ATOM     45  C   UNL A   1      37.622  32.666  31.222  1.00  0.00     0.031 A 
ATOM     46  C   UNL A   1      38.093  32.994  32.615  1.00  0.00     0.074 A 
ATOM     47  C   UNL A   1      38.222  31.682  30.526  1.00  0.00     0.049 A 
ATOM     48  N   UNL A   1      39.075  32.464  33.302  1.00  0.00    -0.248 NA
ATOM     49  C   UNL A   1      37.371  34.056  33.334  1.00  0.00     0.031 C 
ATOM     50  C   UNL A   1      37.847  31.259  29.176  1.00  0.00     0.029 A 
ATOM     51  N   UNL A   1      39.250  30.838  30.867  1.00  0.00    -0.354 N 
ATOM     52  C   UNL A   1      39.098  33.134  34.517  1.00  0.00     0.074 A 
ATOM     53  C   UNL A   1      38.052  34.133  34.468  1.00  0.00     0.031 C 
ATOM     54  C   UNL A   1      38.591  30.200  28.827  1.00  0.00     0.029 A 
ATOM     55  C   UNL A   1      39.532  29.902  29.903  1.00  0.00     0.049 A 
ATOM     56  H   UNL A   1      39.735  30.898  31.721  1.00  0.00     0.167 HD
ATOM     57  C   UNL A   1      39.906  32.925  35.585  1.00  0.00     0.037 A 
ATOM     58  C   UNL A   1      40.451  28.919  29.883  1.00  0.00     0.037 A 
ATOM     59  C   UNL A   1      40.925  31.910  35.649  1.00  0.00     0.049 A 
ATOM     60  C   UNL A   1      41.363  28.738  31.064  1.00  0.00     0.074 A 
ATOM     61  C   UNL A   1      41.772  31.605  36.699  1.00  0.00     0.029 A 
ATOM     62  N   UNL A   1      41.229  31.031  34.621  1.00  0.00    -0.354 N 
ATOM     63  N   UNL A   1      41.371  29.379  32.206  1.00  0.00    -0.248 NA
ATOM     64  C   UNL A   1      42.404  27.708  30.943  1.00  0.00     0.031 C 
ATOM     65  C   UNL A   1      42.615  30.565  36.295  1.00  0.00     0.029 A 
ATOM     66  C   UNL A   1      42.267  30.198  35.006  1.00  0.00     0.049 A 
ATOM     67  H   UNL A   1      40.774  31.002  33.748  1.00  0.00     0.167 HD
ATOM     68  C   UNL A   1      42.410  28.830  32.943  1.00  0.00     0.074 A 
ATOM     69  C   UNL A   1      42.996  27.786  32.128  1.00  0.00     0.031 C 
ATOM     70  C   UNL A   1      42.844  29.168  34.180  1.00  0.00     0.037 A 
BRANCH  57  71
ATOM     71  C   UNL A   1      39.728  33.811  36.783  1.00  0.00     0.064 A 
ATOM     72  C   UNL A   1      40.325  35.078  36.852  1.00  0.00     0.173 A 
ATOM     73  C   UNL A   1      38.892  33.419  37.839  1.00  0.00     0.173 A 
ATOM     74  F   UNL A   1      41.141  35.494  35.871  1.00  0.00    -0.203 F 
ATOM     75  C   UNL A   1      40.101  35.916  37.941  1.00  0.00     0.198 A 
ATOM     76  C   UNL A   1      38.653  34.269  38.916  1.00  0.00     0.198 A 
ATOM     77  F   UNL A   1      38.292  32.220  37.817  1.00  0.00    -0.203 F 
ATOM     78  F   UNL A   1      40.704  37.112  38.000  1.00  0.00    -0.200 F 
ATOM     79  C   UNL A   1      39.259  35.514  38.968  1.00  0.00     0.200 A 
ATOM     80  F   UNL A   1      37.829  33.885  39.901  1.00  0.00    -0.200 F 
ATOM     81  F   UNL A   1      39.034  36.328  40.009  1.00  0.00    -0.200 F 
ENDBRANCH  57  71
BRANCH  58  82
ATOM     82  C   UNL A   1      40.544  28.027  28.701  1.00  0.00     0.064 A 
ATOM     83  C   UNL A   1      39.848  26.811  28.661  1.00  0.00     0.173 A 
ATOM     84  C   UNL A   1      41.306  28.382  27.577  1.00  0.00     0.173 A 
ATOM     85  F   UNL A   1      39.124  26.420  29.720  1.00  0.00    -0.203 F 
ATOM     86  C   UNL A   1      39.914  25.982  27.543  1.00  0.00     0.198 A 
ATOM     87  C   UNL A   1      41.349  27.566  26.451  1.00  0.00     0.198 A 
ATOM     88  F   UNL A   1      41.988  29.537  27.568  1.00  0.00    -0.203 F 
ATOM     89  F   UNL A   1      39.262  24.812  27.541  1.00  0.00    -0.200 F 
ATOM     90  C   UNL A   1      40.656  26.365  26.435  1.00  0.00     0.200 A 
ATOM     91  F   UNL A   1      42.055  27.946  25.377  1.00  0.00    -0.200 F 
ATOM     92  F   UNL A   1      40.706  25.574  25.354  1.00  0.00    -0.200 F 
ENDBRANCH  58  82
BRANCH  70  93
ATOM     93  C   UNL A   1      44.013  28.409  34.733  1.00  0.00     0.064 A 
ATOM     94  C   UNL A   1      45.323  28.882  34.580  1.00  0.00     0.173 A 
ATOM     95  C   UNL A   1      43.816  27.238  35.480  1.00  0.00     0.173 A 
ATOM     96  F   UNL A   1      45.561  29.991  33.862  1.00  0.00    -0.203 F 
ATOM     97  C   UNL A   1      46.398  28.203  35.146  1.00  0.00     0.198 A 
ATOM     98  C   UNL A   1      44.891  26.574  36.064  1.00  0.00     0.198 A 
ATOM     99  F   UNL A   1      42.579  26.749  35.659  1.00  0.00    -0.203 F 
ATOM    100  F   UNL A   1      47.646  28.656  34.962  1.00  0.00    -0.200 F 
ATOM    101  C   UNL A   1      46.181  27.055  35.894  1.00  0.00     0.200 A 
ATOM    102  F   UNL A   1      44.679  25.472  36.795  1.00  0.00    -0.200 F 
ATOM    103  F   UNL A   1      47.216  26.410  36.449  1.00  0.00    -0.200 F 
ENDBRANCH  70  93
ENDBRANCH  44  45
ENDBRANCH  36  39
ENDBRANCH  34  35
ENDBRANCH  33  34
ENDBRANCH  32  33
ENDBRANCH   1  32
TORSDOF 16
ENDMDL
MODEL 2
REMARK VINA RESULT:     -13.7      5.441     11.015
REMARK SMILES O=C(Cc1c(C(=O)c2cc3c(cn2)CCCC3)[nH]c2cc(Cl)ccc12)NCCCCCCNC(=O)c1ccc(-c2c3nc(c(-c4c(F)c(F)c(F)c(F)c4F)c4ccc([nH]4)c(-c4c(F)c(F)c(F)c(F)c4F)c4nc(c(-c5c(F)c(F)c(F)c(F)c5F)c5ccc2[nH]5)C=C4)C=C3)cc1
REMARK SMILES IDX 29 1 28 2 27 3 26 4 1 5 2 6 3 8 4 9 5 10 25 11 18 12 19 13
REMARK SMILES IDX 24 14 20 16 23 17 21 18 22 19 6 20 7 21 8 22 9 23 13 24
REMARK SMILES IDX 10 25 12 26 11 27 17 28 14 29 16 30 15 31 30 32 31 33 32 34
REMARK SMILES IDX 33 35 34 36 35 38 36 39 37 40 98 41 38 42 97 43 39 44 40 45
REMARK SMILES IDX 41 46 91 47 42 48 96 49 90 50 92 51 43 52 95 53 89 54 88 55
REMARK SMILES IDX 44 57 76 58 56 59 75 60 57 61 60 62 74 63 93 64 58 65 59 66
REMARK SMILES IDX 73 68 94 69 61 70 45 71 46 72 54 73 47 74 48 75 52 76 55 77
REMARK SMILES IDX 49 78 50 79 53 80 51 81 77 82 78 83 86 84 79 85 80 86 84 87
REMARK SMILES IDX 87 88 81 89 82 90 85 91 83 92 62 93 63 94 71 95 64 96 65 97
REMARK SMILES IDX 69 98 72 99 66 100 67 101 70 102 68 103
REMARK H PARENT 26 7 18 15 33 37 92 56 60 67
REMARK Flexibility Score: inf
ROOT
ATOM      1  C   UNL A   1      35.872  21.205  24.684  1.00  0.00     0.002 C 
ENDROOT
BRANCH   1   2
ATOM      2  C   UNL A   1      35.111  22.482  24.298  1.00  0.00     0.021 C 
BRANCH   2   3
ATOM      3  C   UNL A   1      35.847  23.785  24.601  1.00  0.00     0.116 C 
BRANCH   3   4
ATOM      4  N   UNL A   1      35.021  24.718  25.334  1.00  0.00    -0.356 N 
ATOM      5  O   UNL A   1      34.100  25.654  23.458  1.00  0.00    -0.275 OA
ATOM      6  C   UNL A   1      34.141  25.559  24.682  1.00  0.00     0.224 C 
ATOM      7  H   UNL A   1      35.087  24.754  26.315  1.00  0.00     0.163 HD
BRANCH   6   8
ATOM      8  C   UNL A   1      33.189  26.298  25.618  1.00  0.00     0.138 C 
BRANCH   8   9
ATOM      9  C   UNL A   1      31.772  26.172  25.133  1.00  0.00    -0.002 A 
ATOM     10  C   UNL A   1      30.885  25.123  25.371  1.00  0.00     0.093 A 
ATOM     11  C   UNL A   1      31.086  27.134  24.313  1.00  0.00     0.004 A 
ATOM     12  N   UNL A   1      29.658  25.536  24.890  1.00  0.00    -0.351 N 
ATOM     13  C   UNL A   1      29.766  26.716  24.198  1.00  0.00     0.048 A 
ATOM     14  C   UNL A   1      31.465  28.334  23.675  1.00  0.00     0.012 A 
ATOM     15  H   UNL A   1      28.814  25.047  25.026  1.00  0.00     0.167 HD
ATOM     16  C   UNL A   1      28.793  27.447  23.501  1.00  0.00     0.047 A 
ATOM     17  C   UNL A   1      30.515  29.077  22.965  1.00  0.00     0.021 A 
ATOM     18  C   UNL A   1      29.198  28.637  22.888  1.00  0.00     0.043 A 
ATOM     19  Cl  UNL A   1      28.043  29.573  22.019  1.00  0.00    -0.084 Cl
BRANCH  10  20
ATOM     20  C   UNL A   1      31.133  23.843  26.033  1.00  0.00     0.227 C 
ATOM     21  O   UNL A   1      31.126  23.692  27.252  1.00  0.00    -0.285 OA
BRANCH  20  22
ATOM     22  C   UNL A   1      31.500  22.667  25.196  1.00  0.00     0.113 A 
ATOM     23  C   UNL A   1      31.849  21.464  25.803  1.00  0.00     0.036 A 
ATOM     24  N   UNL A   1      31.465  22.852  23.855  1.00  0.00    -0.252 NA
ATOM     25  C   UNL A   1      32.182  20.378  24.990  1.00  0.00    -0.041 A 
ATOM     26  C   UNL A   1      31.774  21.784  23.091  1.00  0.00     0.115 A 
ATOM     27  C   UNL A   1      32.150  20.542  23.597  1.00  0.00    -0.026 A 
ATOM     28  C   UNL A   1      32.619  19.079  25.620  1.00  0.00     0.036 C 
ATOM     29  C   UNL A   1      32.430  19.404  22.654  1.00  0.00     0.037 C 
ATOM     30  C   UNL A   1      32.558  17.895  24.656  1.00  0.00     0.005 C 
ATOM     31  C   UNL A   1      33.193  18.258  23.317  1.00  0.00     0.005 C 
ENDBRANCH  20  22
ENDBRANCH  10  20
ENDBRANCH   8   9
ENDBRANCH   6   8
ENDBRANCH   3   4
ENDBRANCH   2   3
ENDBRANCH   1   2
BRANCH   1  32
ATOM     32  C   UNL A   1      37.397  21.325  24.725  1.00  0.00     0.002 C 
BRANCH  32  33
ATOM     33  C   UNL A   1      38.157  20.037  25.036  1.00  0.00     0.021 C 
BRANCH  33  34
ATOM     34  C   UNL A   1      39.422  20.209  25.868  1.00  0.00     0.116 C 
BRANCH  34  35
ATOM     35  N   UNL A   1      40.324  19.069  25.808  1.00  0.00    -0.352 N 
ATOM     36  C   UNL A   1      41.689  19.049  26.005  1.00  0.00     0.251 C 
ATOM     37  H   UNL A   1      39.908  18.201  25.602  1.00  0.00     0.163 HD
ATOM     38  O   UNL A   1      42.333  18.024  25.834  1.00  0.00    -0.269 OA
BRANCH  36  39
ATOM     39  C   UNL A   1      42.377  20.306  26.378  1.00  0.00     0.039 A 
ATOM     40  C   UNL A   1      42.295  20.799  27.681  1.00  0.00     0.014 A 
ATOM     41  C   UNL A   1      43.046  21.034  25.390  1.00  0.00     0.014 A 
ATOM     42  C   UNL A   1      42.716  22.095  27.951  1.00  0.00     0.010 A 
ATOM     43  C   UNL A   1      43.543  22.308  25.685  1.00  0.00     0.010 A 
ATOM     44  C   UNL A   1      43.325  22.873  26.952  1.00  0.00    -0.014 A 
BRANCH  44  45
ATOM     45  C   UNL A   1      43.682  24.286  27.247  1.00  0.00     0.031 A 
ATOM     46  C   UNL A   1      45.064  24.806  26.949  1.00  0.00     0.074 A 
ATOM     47  C   UNL A   1      42.735  25.125  27.707  1.00  0.00     0.049 A 
ATOM     48  N   UNL A   1      45.541  26.018  27.098  1.00  0.00    -0.248 NA
ATOM     49  C   UNL A   1      46.041  23.844  26.416  1.00  0.00     0.031 C 
ATOM     50  C   UNL A   1      41.356  24.746  28.017  1.00  0.00     0.029 A 
ATOM     51  N   UNL A   1      42.776  26.473  27.963  1.00  0.00    -0.354 N 
ATOM     52  C   UNL A   1      46.868  25.959  26.695  1.00  0.00     0.074 A 
ATOM     53  C   UNL A   1      47.135  24.587  26.322  1.00  0.00     0.031 C 
ATOM     54  C   UNL A   1      40.667  25.843  28.363  1.00  0.00     0.029 A 
ATOM     55  C   UNL A   1      41.566  26.993  28.354  1.00  0.00     0.049 A 
ATOM     56  H   UNL A   1      43.593  27.014  27.873  1.00  0.00     0.167 HD
ATOM     57  C   UNL A   1      47.777  26.961  26.625  1.00  0.00     0.037 A 
ATOM     58  C   UNL A   1      41.221  28.254  28.676  1.00  0.00     0.037 A 
ATOM     59  C   UNL A   1      47.504  28.333  26.963  1.00  0.00     0.049 A 
ATOM     60  C   UNL A   1      42.261  29.337  28.631  1.00  0.00     0.074 A 
ATOM     61  C   UNL A   1      48.354  29.423  26.895  1.00  0.00     0.029 A 
ATOM     62  N   UNL A   1      46.285  28.805  27.427  1.00  0.00    -0.354 N 
ATOM     63  N   UNL A   1      43.511  29.266  28.247  1.00  0.00    -0.248 NA
ATOM     64  C   UNL A   1      41.845  30.673  29.082  1.00  0.00     0.031 C 
ATOM     65  C   UNL A   1      47.662  30.549  27.354  1.00  0.00     0.029 A 
ATOM     66  C   UNL A   1      46.369  30.166  27.670  1.00  0.00     0.049 A 
ATOM     67  H   UNL A   1      45.480  28.254  27.562  1.00  0.00     0.167 HD
ATOM     68  C   UNL A   1      44.031  30.542  28.403  1.00  0.00     0.074 A 
ATOM     69  C   UNL A   1      42.954  31.376  28.895  1.00  0.00     0.031 C 
ATOM     70  C   UNL A   1      45.290  30.981  28.167  1.00  0.00     0.037 A 
BRANCH  57  71
ATOM     71  C   UNL A   1      49.164  26.619  26.164  1.00  0.00     0.064 A 
ATOM     72  C   UNL A   1      49.558  26.801  24.831  1.00  0.00     0.173 A 
ATOM     73  C   UNL A   1      50.128  26.177  27.082  1.00  0.00     0.173 A 
ATOM     74  F   UNL A   1      48.670  27.212  23.914  1.00  0.00    -0.203 F 
ATOM     75  C   UNL A   1      50.866  26.539  24.431  1.00  0.00     0.198 A 
ATOM     76  C   UNL A   1      51.441  25.939  26.682  1.00  0.00     0.198 A 
ATOM     77  F   UNL A   1      49.803  25.995  28.370  1.00  0.00    -0.203 F 
ATOM     78  F   UNL A   1      51.215  26.693  23.145  1.00  0.00    -0.200 F 
ATOM     79  C   UNL A   1      51.808  26.117  25.357  1.00  0.00     0.200 A 
ATOM     80  F   UNL A   1      52.352  25.543  27.581  1.00  0.00    -0.200 F 
ATOM     81  F   UNL A   1      53.070  25.880  24.972  1.00  0.00    -0.200 F 
ENDBRANCH  57  71
BRANCH  58  82
ATOM     82  C   UNL A   1      39.820  28.553  29.063  1.00  0.00     0.064 A 
ATOM     83  C   UNL A   1      39.371  28.323  30.369  1.00  0.00     0.173 A 
ATOM     84  C   UNL A   1      38.911  29.101  28.145  1.00  0.00     0.173 A 
ATOM     85  F   UNL A   1      40.197  27.781  31.276  1.00  0.00    -0.203 F 
ATOM     86  C   UNL A   1      38.063  28.625  30.743  1.00  0.00     0.198 A 
ATOM     87  C   UNL A   1      37.613  29.428  28.526  1.00  0.00     0.198 A 
ATOM     88  F   UNL A   1      39.296  29.341  26.882  1.00  0.00    -0.203 F 
ATOM     89  F   UNL A   1      37.649  28.370  31.991  1.00  0.00    -0.200 F 
ATOM     90  C   UNL A   1      37.188  29.187  29.824  1.00  0.00     0.200 A 
ATOM     91  F   UNL A   1      36.776  29.983  27.639  1.00  0.00    -0.200 F 
ATOM     92  F   UNL A   1      35.935  29.491  30.188  1.00  0.00    -0.200 F 
ENDBRANCH  58  82
BRANCH  70  93
ATOM     93  C   UNL A   1      45.581  32.425  28.443  1.00  0.00     0.064 A 
ATOM     94  C   UNL A   1      46.067  32.843  29.689  1.00  0.00     0.173 A 
ATOM     95  C   UNL A   1      45.438  33.389  27.433  1.00  0.00     0.173 A 
ATOM     96  F   UNL A   1      46.208  31.959  30.690  1.00  0.00    -0.203 F 
ATOM     97  C   UNL A   1      46.390  34.177  29.919  1.00  0.00     0.198 A 
ATOM     98  C   UNL A   1      45.784  34.717  27.659  1.00  0.00     0.198 A 
ATOM     99  F   UNL A   1      44.982  33.036  26.221  1.00  0.00    -0.203 F 
ATOM    100  F   UNL A   1      46.826  34.561  31.127  1.00  0.00    -0.200 F 
ATOM    101  C   UNL A   1      46.256  35.112  28.902  1.00  0.00     0.200 A 
ATOM    102  F   UNL A   1      45.665  35.617  26.673  1.00  0.00    -0.200 F 
ATOM    103  F   UNL A   1      46.580  36.393  29.122  1.00  0.00    -0.200 F 
ENDBRANCH  70  93
ENDBRANCH  44  45
ENDBRANCH  36  39
ENDBRANCH  34  35
ENDBRANCH  33  34
ENDBRANCH  32  33
ENDBRANCH   1  32
TORSDOF 16
ENDMDL
MODEL 3
REMARK VINA RESULT:     -13.5      5.445     10.118
REMARK SMILES O=C(Cc1c(C(=O)c2cc3c(cn2)CCCC3)[nH]c2cc(Cl)ccc12)NCCCCCCNC(=O)c1ccc(-c2c3nc(c(-c4c(F)c(F)c(F)c(F)c4F)c4ccc([nH]4)c(-c4c(F)c(F)c(F)c(F)c4F)c4nc(c(-c5c(F)c(F)c(F)c(F)c5F)c5ccc2[nH]5)C=C4)C=C3)cc1
REMARK SMILES IDX 29 1 28 2 27 3 26 4 1 5 2 6 3 8 4 9 5 10 25 11 18 12 19 13
REMARK SMILES IDX 24 14 20 16 23 17 21 18 22 19 6 20 7 21 8 22 9 23 13 24
REMARK SMILES IDX 10 25 12 26 11 27 17 28 14 29 16 30 15 31 30 32 31 33 32 34
REMARK SMILES IDX 33 35 34 36 35 38 36 39 37 40 98 41 38 42 97 43 39 44 40 45
REMARK SMILES IDX 41 46 91 47 42 48 96 49 90 50 92 51 43 52 95 53 89 54 88 55
REMARK SMILES IDX 44 57 76 58 56 59 75 60 57 61 60 62 74 63 93 64 58 65 59 66
REMARK SMILES IDX 73 68 94 69 61 70 45 71 46 72 54 73 47 74 48 75 52 76 55 77
REMARK SMILES IDX 49 78 50 79 53 80 51 81 77 82 78 83 86 84 79 85 80 86 84 87
REMARK SMILES IDX 87 88 81 89 82 90 85 91 83 92 62 93 63 94 71 95 64 96 65 97
REMARK SMILES IDX 69 98 72 99 66 100 67 101 70 102 68 103
REMARK H PARENT 26 7 18 15 33 37 92 56 60 67
REMARK Flexibility Score: inf
ROOT
ATOM      1  C   UNL A   1      35.905  21.077  25.033  1.00  0.00     0.002 C 
ENDROOT
BRANCH   1   2
ATOM      2  C   UNL A   1      35.379  22.356  25.703  1.00  0.00     0.021 C 
BRANCH   2   3
ATOM      3  C   UNL A   1      35.307  23.577  24.790  1.00  0.00     0.116 C 
BRANCH   3   4
ATOM      4  N   UNL A   1      34.589  24.672  25.403  1.00  0.00    -0.356 N 
ATOM      5  O   UNL A   1      34.100  25.702  23.417  1.00  0.00    -0.275 OA
ATOM      6  C   UNL A   1      33.972  25.641  24.637  1.00  0.00     0.224 C 
ATOM      7  H   UNL A   1      34.540  24.728  26.385  1.00  0.00     0.163 HD
BRANCH   6   8
ATOM      8  C   UNL A   1      33.070  26.576  25.438  1.00  0.00     0.138 C 
BRANCH   8   9
ATOM      9  C   UNL A   1      31.645  26.453  24.977  1.00  0.00    -0.002 A 
ATOM     10  C   UNL A   1      30.747  25.425  25.264  1.00  0.00     0.093 A 
ATOM     11  C   UNL A   1      30.960  27.395  24.134  1.00  0.00     0.004 A 
ATOM     12  N   UNL A   1      29.519  25.838  24.786  1.00  0.00    -0.351 N 
ATOM     13  C   UNL A   1      29.632  26.991  24.052  1.00  0.00     0.048 A 
ATOM     14  C   UNL A   1      31.345  28.567  23.449  1.00  0.00     0.012 A 
ATOM     15  H   UNL A   1      28.671  25.365  24.951  1.00  0.00     0.167 HD
ATOM     16  C   UNL A   1      28.659  27.711  23.344  1.00  0.00     0.047 A 
ATOM     17  C   UNL A   1      30.394  29.298  22.728  1.00  0.00     0.021 A 
ATOM     18  C   UNL A   1      29.072  28.873  22.685  1.00  0.00     0.043 A 
ATOM     19  Cl  UNL A   1      27.916  29.795  21.800  1.00  0.00    -0.084 Cl
BRANCH  10  20
ATOM     20  C   UNL A   1      30.988  24.165  25.967  1.00  0.00     0.227 C 
ATOM     21  O   UNL A   1      30.925  24.041  27.187  1.00  0.00    -0.285 OA
BRANCH  20  22
ATOM     22  C   UNL A   1      31.418  22.979  25.175  1.00  0.00     0.113 A 
ATOM     23  C   UNL A   1      31.781  21.804  25.827  1.00  0.00     0.036 A 
ATOM     24  N   UNL A   1      31.422  23.126  23.829  1.00  0.00    -0.252 NA
ATOM     25  C   UNL A   1      32.173  20.706  25.056  1.00  0.00    -0.041 A 
ATOM     26  C   UNL A   1      31.788  22.048  23.106  1.00  0.00     0.115 A 
ATOM     27  C   UNL A   1      32.184  20.832  23.658  1.00  0.00    -0.026 A 
ATOM     28  C   UNL A   1      32.626  19.439  25.736  1.00  0.00     0.036 C 
ATOM     29  C   UNL A   1      32.529  19.678  22.758  1.00  0.00     0.037 C 
ATOM     30  C   UNL A   1      32.633  18.228  24.804  1.00  0.00     0.005 C 
ATOM     31  C   UNL A   1      33.302  18.573  23.477  1.00  0.00     0.005 C 
ENDBRANCH  20  22
ENDBRANCH  10  20
ENDBRANCH   8   9
ENDBRANCH   6   8
ENDBRANCH   3   4
ENDBRANCH   2   3
ENDBRANCH   1   2
BRANCH   1  32
ATOM     32  C   UNL A   1      37.379  21.101  24.620  1.00  0.00     0.002 C 
BRANCH  32  33
ATOM     33  C   UNL A   1      38.196  19.868  25.004  1.00  0.00     0.021 C 
BRANCH  33  34
ATOM     34  C   UNL A   1      39.484  20.150  25.768  1.00  0.00     0.116 C 
BRANCH  34  35
ATOM     35  N   UNL A   1      40.371  19.001  25.868  1.00  0.00    -0.352 N 
ATOM     36  C   UNL A   1      41.725  18.988  26.129  1.00  0.00     0.251 C 
ATOM     37  H   UNL A   1      39.951  18.121  25.734  1.00  0.00     0.163 HD
ATOM     38  O   UNL A   1      42.361  17.943  26.095  1.00  0.00    -0.269 OA
BRANCH  36  39
ATOM     39  C   UNL A   1      42.415  20.269  26.401  1.00  0.00     0.039 A 
ATOM     40  C   UNL A   1      42.297  20.887  27.648  1.00  0.00     0.014 A 
ATOM     41  C   UNL A   1      43.123  20.893  25.370  1.00  0.00     0.014 A 
ATOM     42  C   UNL A   1      42.723  22.200  27.804  1.00  0.00     0.010 A 
ATOM     43  C   UNL A   1      43.624  22.185  25.557  1.00  0.00     0.010 A 
ATOM     44  C   UNL A   1      43.372  22.872  26.755  1.00  0.00    -0.014 A 
BRANCH  44  45
ATOM     45  C   UNL A   1      43.735  24.304  26.924  1.00  0.00     0.031 A 
ATOM     46  C   UNL A   1      42.739  25.287  27.483  1.00  0.00     0.074 A 
ATOM     47  C   UNL A   1      44.991  24.705  26.650  1.00  0.00     0.049 A 
ATOM     48  N   UNL A   1      42.893  26.562  27.741  1.00  0.00    -0.248 NA
ATOM     49  C   UNL A   1      41.394  24.776  27.792  1.00  0.00     0.031 C 
ATOM     50  C   UNL A   1      46.050  23.845  26.122  1.00  0.00     0.029 A 
ATOM     51  N   UNL A   1      45.599  25.925  26.809  1.00  0.00    -0.354 N 
ATOM     52  C   UNL A   1      41.669  27.005  28.225  1.00  0.00     0.074 A 
ATOM     53  C   UNL A   1      40.770  25.872  28.198  1.00  0.00     0.031 C 
ATOM     54  C   UNL A   1      47.191  24.546  26.056  1.00  0.00     0.029 A 
ATOM     55  C   UNL A   1      46.934  25.918  26.484  1.00  0.00     0.049 A 
ATOM     56  H   UNL A   1      45.125  26.727  27.126  1.00  0.00     0.167 HD
ATOM     57  C   UNL A   1      41.330  28.240  28.668  1.00  0.00     0.037 A 
ATOM     58  C   UNL A   1      47.846  26.906  26.520  1.00  0.00     0.037 A 
ATOM     59  C   UNL A   1      42.233  29.360  28.727  1.00  0.00     0.049 A 
ATOM     60  C   UNL A   1      47.431  28.277  26.974  1.00  0.00     0.074 A 
ATOM     61  C   UNL A   1      41.987  30.641  29.189  1.00  0.00     0.029 A 
ATOM     62  N   UNL A   1      43.557  29.330  28.318  1.00  0.00    -0.354 N 
ATOM     63  N   UNL A   1      46.272  28.679  27.430  1.00  0.00    -0.248 NA
ATOM     64  C   UNL A   1      48.450  29.333  26.904  1.00  0.00     0.031 C 
ATOM     65  C   UNL A   1      43.151  31.398  29.025  1.00  0.00     0.029 A 
ATOM     66  C   UNL A   1      44.133  30.577  28.496  1.00  0.00     0.049 A 
ATOM     67  H   UNL A   1      44.019  28.539  27.956  1.00  0.00     0.167 HD
ATOM     68  C   UNL A   1      46.418  30.031  27.704  1.00  0.00     0.074 A 
ATOM     69  C   UNL A   1      47.788  30.376  27.387  1.00  0.00     0.031 C 
ATOM     70  C   UNL A   1      45.497  30.908  28.169  1.00  0.00     0.037 A 
BRANCH  57  71
ATOM     71  C   UNL A   1      39.918  28.457  29.128  1.00  0.00     0.064 A 
ATOM     72  C   UNL A   1      39.533  28.209  30.452  1.00  0.00     0.173 A 
ATOM     73  C   UNL A   1      38.961  28.991  28.252  1.00  0.00     0.173 A 
ATOM     74  F   UNL A   1      40.410  27.690  31.324  1.00  0.00    -0.203 F 
ATOM     75  C   UNL A   1      38.235  28.474  30.881  1.00  0.00     0.198 A 
ATOM     76  C   UNL A   1      37.670  29.277  28.690  1.00  0.00     0.198 A 
ATOM     77  F   UNL A   1      39.282  29.253  26.977  1.00  0.00    -0.203 F 
ATOM     78  F   UNL A   1      37.879  28.203  32.145  1.00  0.00    -0.200 F 
ATOM     79  C   UNL A   1      37.307  29.016  30.003  1.00  0.00     0.200 A 
ATOM     80  F   UNL A   1      36.779  29.811  27.844  1.00  0.00    -0.200 F 
ATOM     81  F   UNL A   1      36.063  29.284  30.422  1.00  0.00    -0.200 F 
ENDBRANCH  57  71
BRANCH  58  82
ATOM     82  C   UNL A   1      49.247  26.625  26.116  1.00  0.00     0.064 A 
ATOM     83  C   UNL A   1      49.676  26.853  24.803  1.00  0.00     0.173 A 
ATOM     84  C   UNL A   1      50.190  26.149  27.040  1.00  0.00     0.173 A 
ATOM     85  F   UNL A   1      48.805  27.287  23.880  1.00  0.00    -0.203 F 
ATOM     86  C   UNL A   1      50.996  26.613  24.426  1.00  0.00     0.198 A 
ATOM     87  C   UNL A   1      51.515  25.936  26.670  1.00  0.00     0.198 A 
ATOM     88  F   UNL A   1      49.827  25.917  28.311  1.00  0.00    -0.203 F 
ATOM     89  F   UNL A   1      51.375  26.813  23.157  1.00  0.00    -0.200 F 
ATOM     90  C   UNL A   1      51.916  26.164  25.362  1.00  0.00     0.200 A 
ATOM     91  F   UNL A   1      52.404  25.516  27.580  1.00  0.00    -0.200 F 
ATOM     92  F   UNL A   1      53.189  25.948  25.003  1.00  0.00    -0.200 F 
ENDBRANCH  58  82
BRANCH  70  93
ATOM     93  C   UNL A   1      45.931  32.329  28.360  1.00  0.00     0.064 A 
ATOM     94  C   UNL A   1      45.799  33.273  27.332  1.00  0.00     0.173 A 
ATOM     95  C   UNL A   1      46.420  32.768  29.600  1.00  0.00     0.173 A 
ATOM     96  F   UNL A   1      45.349  32.897  26.124  1.00  0.00    -0.203 F 
ATOM     97  C   UNL A   1      46.150  34.605  27.535  1.00  0.00     0.198 A 
ATOM     98  C   UNL A   1      46.748  34.104  29.806  1.00  0.00     0.198 A 
ATOM     99  F   UNL A   1      46.559  31.903  30.616  1.00  0.00    -0.203 F 
ATOM    100  F   UNL A   1      46.043  35.484  26.530  1.00  0.00    -0.200 F 
ATOM    101  C   UNL A   1      46.617  35.020  28.774  1.00  0.00     0.200 A 
ATOM    102  F   UNL A   1      47.188  34.507  31.006  1.00  0.00    -0.200 F 
ATOM    103  F   UNL A   1      46.942  36.305  28.970  1.00  0.00    -0.200 F 
ENDBRANCH  70  93
ENDBRANCH  44  45
ENDBRANCH  36  39
ENDBRANCH  34  35
ENDBRANCH  33  34
ENDBRANCH  32  33
ENDBRANCH   1  32
TORSDOF 16
ENDMDL
