MODEL 1
REMARK VINA RESULT:     -13.4      0.000      0.000
REMARK SMILES O=C(NCCCCCCNC(=O)c1ccc(-c2c3nc(c(-c4c(F)c(F)c(F)c(F)c4F)c4ccc([nH]4)c(-c4c(F)c(F)c(F)c(F)c4F)c4nc(c(-c5c(F)c(F)c(F)c(F)c5F)c5ccc2[nH]5)C=C4)C=C3)cc1)C1=Cc2cc(S(F)(F)(F)(F)F)ccc2O[C@@H]1C(F)(F)F
REMARK SMILES IDX 7 1 6 2 5 3 4 4 3 5 1 6 2 7 76 9 77 10 91 11 78 12 90 13
REMARK SMILES IDX 79 14 89 15 80 16 88 17 87 18 92 19 93 20 94 21 95 22 81 23
REMARK SMILES IDX 82 24 83 25 84 26 85 27 86 28 8 29 9 30 10 31 11 32 12 34
REMARK SMILES IDX 13 35 14 36 75 37 15 38 74 39 16 40 17 41 18 42 68 43 19 44
REMARK SMILES IDX 73 45 67 46 69 47 20 48 72 49 66 50 65 51 21 53 53 54 33 55
REMARK SMILES IDX 52 56 34 57 37 58 51 59 70 60 35 61 36 62 50 64 71 65 38 66
REMARK SMILES IDX 22 67 23 68 31 69 24 70 25 71 29 72 32 73 26 74 27 75 30 76
REMARK SMILES IDX 28 77 54 78 55 79 63 80 56 81 57 82 61 83 64 84 58 85 59 86
REMARK SMILES IDX 62 87 60 88 39 89 40 90 48 91 41 92 42 93 46 94 49 95 43 96
REMARK SMILES IDX 44 97 47 98 45 99
REMARK H PARENT 3 8 10 33 69 52 37 63
REMARK Flexibility Score: inf
ROOT
ATOM      1  C   UNL A   1      31.800  30.828  26.162  1.00  0.00     0.002 C 
ENDROOT
BRANCH   1   2
ATOM      2  C   UNL A   1      32.699  30.236  27.236  1.00  0.00     0.002 C 
BRANCH   2   3
ATOM      3  C   UNL A   1      33.984  29.730  26.599  1.00  0.00     0.021 C 
BRANCH   3   4
ATOM      4  C   UNL A   1      33.960  28.211  26.550  1.00  0.00     0.116 C 
BRANCH   4   5
ATOM      5  N   UNL A   1      32.752  27.717  27.226  1.00  0.00    -0.352 N 
ATOM      6  O   UNL A   1      30.601  26.730  27.023  1.00  0.00    -0.270 OA
ATOM      7  C   UNL A   1      31.645  27.156  26.438  1.00  0.00     0.251 C 
ATOM      8  H   UNL A   1      32.684  27.762  28.207  1.00  0.00     0.163 HD
BRANCH   7   9
ATOM      9  C   UNL A   1      31.750  27.086  24.923  1.00  0.00     0.067 C 
ATOM     10  C   UNL A   1      32.549  26.153  24.339  1.00  0.00     0.025 C 
ATOM     11  C   UNL A   1      30.963  28.059  24.060  1.00  0.00     0.314 C 
ATOM     12  C   UNL A   1      33.337  25.180  25.203  1.00  0.00     0.019 A 
ATOM     13  O   UNL A   1      31.421  25.144  26.609  1.00  0.00    -0.475 OA
ATOM     14  C   UNL A   1      34.629  24.795  24.885  1.00  0.00     0.036 A 
ATOM     15  C   UNL A   1      32.679  24.618  26.210  1.00  0.00     0.128 A 
ATOM     16  C   UNL A   1      35.041  23.596  25.515  1.00  0.00     0.107 A 
ATOM     17  C   UNL A   1      33.203  23.532  26.869  1.00  0.00     0.048 A 
ATOM     18  C   UNL A   1      34.452  23.062  26.567  1.00  0.00     0.028 A 
BRANCH  11  19
ATOM     19  C   UNL A   1      30.021  27.284  23.153  1.00  0.00     0.429 C 
ATOM     20  F   UNL A   1      30.681  26.875  22.073  1.00  0.00    -0.167 F 
ATOM     21  F   UNL A   1      29.543  26.230  23.807  1.00  0.00    -0.167 F 
ATOM     22  F   UNL A   1      29.014  28.071  22.785  1.00  0.00    -0.167 F 
ENDBRANCH  11  19
BRANCH  16  23
ATOM     23  S   UNL A   1      36.478  22.736  24.827  1.00  0.00     0.310 S 
ATOM     24  F   UNL A   1      36.378  23.528  23.456  1.00  0.00    -0.094 F 
ATOM     25  F   UNL A   1      35.502  21.670  24.204  1.00  0.00    -0.094 F 
ATOM     26  F   UNL A   1      37.711  21.994  24.238  1.00  0.00    -0.094 F 
ATOM     27  F   UNL A   1      37.429  23.890  25.340  1.00  0.00    -0.094 F 
ATOM     28  F   UNL A   1      35.229  23.561  25.335  1.00  0.00    -0.094 F 
ENDBRANCH  16  23
ENDBRANCH   7   9
ENDBRANCH   4   5
ENDBRANCH   3   4
ENDBRANCH   2   3
ENDBRANCH   1   2
BRANCH   1  29
ATOM     29  C   UNL A   1      31.358  32.221  26.581  1.00  0.00     0.021 C 
BRANCH  29  30
ATOM     30  C   UNL A   1      32.520  32.942  27.244  1.00  0.00     0.116 C 
BRANCH  30  31
ATOM     31  N   UNL A   1      32.116  34.313  27.585  1.00  0.00    -0.352 N 
ATOM     32  C   UNL A   1      32.883  35.080  28.578  1.00  0.00     0.251 C 
ATOM     33  H   UNL A   1      31.332  34.718  27.149  1.00  0.00     0.163 HD
ATOM     34  O   UNL A   1      32.533  36.266  28.873  1.00  0.00    -0.269 OA
BRANCH  32  35
ATOM     35  C   UNL A   1      34.094  34.455  29.251  1.00  0.00     0.039 A 
ATOM     36  C   UNL A   1      35.357  34.696  28.738  1.00  0.00     0.014 A 
ATOM     37  C   UNL A   1      33.920  33.687  30.321  1.00  0.00     0.014 A 
ATOM     38  C   UNL A   1      36.359  33.842  29.256  1.00  0.00     0.010 A 
ATOM     39  C   UNL A   1      34.973  32.986  30.858  1.00  0.00     0.010 A 
ATOM     40  C   UNL A   1      36.239  33.132  30.362  1.00  0.00    -0.014 A 
BRANCH  40  41
ATOM     41  C   UNL A   1      37.444  32.508  31.048  1.00  0.00     0.031 A 
ATOM     42  C   UNL A   1      37.840  33.028  32.281  1.00  0.00     0.074 A 
ATOM     43  C   UNL A   1      38.082  31.457  30.410  1.00  0.00     0.049 A 
ATOM     44  N   UNL A   1      38.841  32.608  33.057  1.00  0.00    -0.248 NA
ATOM     45  C   UNL A   1      37.185  34.165  32.944  1.00  0.00     0.031 C 
ATOM     46  C   UNL A   1      37.682  30.921  29.169  1.00  0.00     0.029 A 
ATOM     47  N   UNL A   1      39.187  30.755  30.836  1.00  0.00    -0.354 N 
ATOM     48  C   UNL A   1      38.899  33.343  34.170  1.00  0.00     0.074 A 
ATOM     49  C   UNL A   1      37.839  34.358  34.111  1.00  0.00     0.031 C 
ATOM     50  C   UNL A   1      38.541  29.918  28.848  1.00  0.00     0.029 A 
ATOM     51  C   UNL A   1      39.491  29.810  29.882  1.00  0.00     0.049 A 
ATOM     52  H   UNL A   1      39.675  30.903  31.678  1.00  0.00     0.167 HD
ATOM     53  C   UNL A   1      39.794  33.204  35.232  1.00  0.00     0.037 A 
ATOM     54  C   UNL A   1      40.535  28.898  29.893  1.00  0.00     0.037 A 
ATOM     55  C   UNL A   1      40.810  32.263  35.264  1.00  0.00     0.049 A 
ATOM     56  C   UNL A   1      41.465  28.798  30.930  1.00  0.00     0.074 A 
ATOM     57  C   UNL A   1      41.715  32.105  36.330  1.00  0.00     0.029 A 
ATOM     58  N   UNL A   1      41.130  31.334  34.297  1.00  0.00    -0.354 N 
ATOM     59  N   UNL A   1      41.499  29.505  32.060  1.00  0.00    -0.248 NA
ATOM     60  C   UNL A   1      42.594  27.857  30.937  1.00  0.00     0.031 C 
ATOM     61  C   UNL A   1      42.575  31.101  36.008  1.00  0.00     0.029 A 
ATOM     62  C   UNL A   1      42.221  30.616  34.735  1.00  0.00     0.049 A 
ATOM     63  H   UNL A   1      40.659  31.206  33.442  1.00  0.00     0.167 HD
ATOM     64  C   UNL A   1      42.526  29.113  32.817  1.00  0.00     0.074 A 
ATOM     65  C   UNL A   1      43.249  28.052  32.103  1.00  0.00     0.031 C 
ATOM     66  C   UNL A   1      42.886  29.594  34.076  1.00  0.00     0.037 A 
BRANCH  53  67
ATOM     67  C   UNL A   1      39.644  34.137  36.423  1.00  0.00     0.064 A 
ATOM     68  C   UNL A   1      40.230  35.393  36.445  1.00  0.00     0.173 A 
ATOM     69  C   UNL A   1      38.897  33.708  37.434  1.00  0.00     0.173 A 
ATOM     70  F   UNL A   1      40.767  35.962  35.368  1.00  0.00    -0.203 F 
ATOM     71  C   UNL A   1      40.204  36.015  37.715  1.00  0.00     0.198 A 
ATOM     72  C   UNL A   1      38.809  34.436  38.596  1.00  0.00     0.198 A 
ATOM     73  F   UNL A   1      38.228  32.565  37.319  1.00  0.00    -0.203 F 
ATOM     74  F   UNL A   1      41.036  37.032  37.922  1.00  0.00    -0.200 F 
ATOM     75  C   UNL A   1      39.411  35.658  38.708  1.00  0.00     0.200 A 
ATOM     76  F   UNL A   1      38.128  33.943  39.626  1.00  0.00    -0.200 F 
ATOM     77  F   UNL A   1      39.210  36.445  39.761  1.00  0.00    -0.200 F 
ENDBRANCH  53  67
BRANCH  54  78
ATOM     78  C   UNL A   1      40.674  27.953  28.710  1.00  0.00     0.064 A 
ATOM     79  C   UNL A   1      41.482  28.360  27.662  1.00  0.00     0.173 A 
ATOM     80  C   UNL A   1      40.013  26.803  28.663  1.00  0.00     0.173 A 
ATOM     81  F   UNL A   1      42.351  29.362  27.764  1.00  0.00    -0.203 F 
ATOM     82  C   UNL A   1      41.301  27.613  26.474  1.00  0.00     0.198 A 
ATOM     83  C   UNL A   1      39.989  26.056  27.510  1.00  0.00     0.198 A 
ATOM     84  F   UNL A   1      39.366  26.369  29.742  1.00  0.00    -0.203 F 
ATOM     85  F   UNL A   1      41.748  28.139  25.339  1.00  0.00    -0.200 F 
ATOM     86  C   UNL A   1      40.718  26.429  26.415  1.00  0.00     0.200 A 
ATOM     87  F   UNL A   1      39.247  24.953  27.458  1.00  0.00    -0.200 F 
ATOM     88  F   UNL A   1      40.834  25.643  25.349  1.00  0.00    -0.200 F 
ENDBRANCH  54  78
BRANCH  66  89
ATOM     89  C   UNL A   1      44.082  28.960  34.768  1.00  0.00     0.064 A 
ATOM     90  C   UNL A   1      43.893  27.835  35.554  1.00  0.00     0.173 A 
ATOM     91  C   UNL A   1      45.287  29.494  34.608  1.00  0.00     0.173 A 
ATOM     92  F   UNL A   1      42.770  27.123  35.544  1.00  0.00    -0.203 F 
ATOM     93  C   UNL A   1      45.003  27.513  36.371  1.00  0.00     0.198 A 
ATOM     94  C   UNL A   1      46.357  29.039  35.341  1.00  0.00     0.198 A 
ATOM     95  F   UNL A   1      45.460  30.479  33.731  1.00  0.00    -0.203 F 
ATOM     96  F   UNL A   1      44.799  26.695  37.399  1.00  0.00    -0.200 F 
ATOM     97  C   UNL A   1      46.229  27.969  36.181  1.00  0.00     0.200 A 
ATOM     98  F   UNL A   1      47.534  29.648  35.230  1.00  0.00    -0.200 F 
ATOM     99  F   UNL A   1      47.282  27.416  36.778  1.00  0.00    -0.200 F 
ENDBRANCH  66  89
ENDBRANCH  40  41
ENDBRANCH  32  35
ENDBRANCH  30  31
ENDBRANCH  29  30
ENDBRANCH   1  29
TORSDOF 15
ENDMDL
MODEL 2
REMARK VINA RESULT:     -13.3      0.489      6.991
REMARK SMILES O=C(NCCCCCCNC(=O)c1ccc(-c2c3nc(c(-c4c(F)c(F)c(F)c(F)c4F)c4ccc([nH]4)c(-c4c(F)c(F)c(F)c(F)c4F)c4nc(c(-c5c(F)c(F)c(F)c(F)c5F)c5ccc2[nH]5)C=C4)C=C3)cc1)C1=Cc2cc(S(F)(F)(F)(F)F)ccc2O[C@@H]1C(F)(F)F
REMARK SMILES IDX 7 1 6 2 5 3 4 4 3 5 1 6 2 7 76 9 77 10 91 11 78 12 90 13
REMARK SMILES IDX 79 14 89 15 80 16 88 17 87 18 92 19 93 20 94 21 95 22 81 23
REMARK SMILES IDX 82 24 83 25 84 26 85 27 86 28 8 29 9 30 10 31 11 32 12 34
REMARK SMILES IDX 13 35 14 36 75 37 15 38 74 39 16 40 17 41 18 42 68 43 19 44
REMARK SMILES IDX 73 45 67 46 69 47 20 48 72 49 66 50 65 51 21 53 53 54 33 55
REMARK SMILES IDX 52 56 34 57 37 58 51 59 70 60 35 61 36 62 50 64 71 65 38 66
REMARK SMILES IDX 22 67 23 68 31 69 24 70 25 71 29 72 32 73 26 74 27 75 30 76
REMARK SMILES IDX 28 77 54 78 55 79 63 80 56 81 57 82 61 83 64 84 58 85 59 86
REMARK SMILES IDX 62 87 60 88 39 89 40 90 48 91 41 92 42 93 46 94 49 95 43 96
REMARK SMILES IDX 44 97 47 98 45 99
REMARK H PARENT 3 8 10 33 69 52 37 63
REMARK Flexibility Score: inf
ROOT
ATOM      1  C   UNL A   1      31.780  30.913  26.183  1.00  0.00     0.002 C 
ENDROOT
BRANCH   1   2
ATOM      2  C   UNL A   1      32.680  30.313  27.251  1.00  0.00     0.002 C 
BRANCH   2   3
ATOM      3  C   UNL A   1      33.974  29.833  26.612  1.00  0.00     0.021 C 
BRANCH   3   4
ATOM      4  C   UNL A   1      34.007  28.314  26.617  1.00  0.00     0.116 C 
BRANCH   4   5
ATOM      5  N   UNL A   1      32.768  27.798  27.215  1.00  0.00    -0.352 N 
ATOM      6  O   UNL A   1      30.653  26.770  26.877  1.00  0.00    -0.270 OA
ATOM      7  C   UNL A   1      31.724  27.216  26.359  1.00  0.00     0.251 C 
ATOM      8  H   UNL A   1      32.636  27.842  28.190  1.00  0.00     0.163 HD
BRANCH   7   9
ATOM      9  C   UNL A   1      31.927  27.146  24.854  1.00  0.00     0.067 C 
ATOM     10  C   UNL A   1      32.737  26.193  24.320  1.00  0.00     0.025 C 
ATOM     11  C   UNL A   1      31.226  28.143  23.945  1.00  0.00     0.314 C 
ATOM     12  C   UNL A   1      33.440  25.197  25.229  1.00  0.00     0.019 A 
ATOM     13  O   UNL A   1      31.435  25.210  26.506  1.00  0.00    -0.475 OA
ATOM     14  C   UNL A   1      34.738  24.777  24.996  1.00  0.00     0.036 A 
ATOM     15  C   UNL A   1      32.701  24.651  26.189  1.00  0.00     0.128 A 
ATOM     16  C   UNL A   1      35.076  23.566  25.646  1.00  0.00     0.107 A 
ATOM     17  C   UNL A   1      33.151  23.549  26.876  1.00  0.00     0.048 A 
ATOM     18  C   UNL A   1      34.403  23.045  26.655  1.00  0.00     0.028 A 
BRANCH  11  19
ATOM     19  C   UNL A   1      30.324  27.396  22.975  1.00  0.00     0.429 C 
ATOM     20  F   UNL A   1      29.347  28.202  22.568  1.00  0.00    -0.167 F 
ATOM     21  F   UNL A   1      31.036  26.998  21.925  1.00  0.00    -0.167 F 
ATOM     22  F   UNL A   1      29.800  26.336  23.584  1.00  0.00    -0.167 F 
ENDBRANCH  11  19
BRANCH  16  23
ATOM     23  S   UNL A   1      36.531  22.669  25.051  1.00  0.00     0.310 S 
ATOM     24  F   UNL A   1      36.656  23.592  23.767  1.00  0.00    -0.094 F 
ATOM     25  F   UNL A   1      35.576  21.743  24.208  1.00  0.00    -0.094 F 
ATOM     26  F   UNL A   1      37.778  21.894  24.540  1.00  0.00    -0.094 F 
ATOM     27  F   UNL A   1      37.480  23.693  25.791  1.00  0.00    -0.094 F 
ATOM     28  F   UNL A   1      35.282  23.534  25.487  1.00  0.00    -0.094 F 
ENDBRANCH  16  23
ENDBRANCH   7   9
ENDBRANCH   4   5
ENDBRANCH   3   4
ENDBRANCH   2   3
ENDBRANCH   1   2
BRANCH   1  29
ATOM     29  C   UNL A   1      31.365  32.315  26.598  1.00  0.00     0.021 C 
BRANCH  29  30
ATOM     30  C   UNL A   1      32.545  33.020  27.247  1.00  0.00     0.116 C 
BRANCH  30  31
ATOM     31  N   UNL A   1      32.153  34.385  27.627  1.00  0.00    -0.352 N 
ATOM     32  C   UNL A   1      32.927  35.116  28.641  1.00  0.00     0.251 C 
ATOM     33  H   UNL A   1      31.371  34.808  27.205  1.00  0.00     0.163 HD
ATOM     34  O   UNL A   1      32.587  36.296  28.970  1.00  0.00    -0.269 OA
BRANCH  32  35
ATOM     35  C   UNL A   1      34.134  34.463  29.294  1.00  0.00     0.039 A 
ATOM     36  C   UNL A   1      35.377  34.579  28.695  1.00  0.00     0.014 A 
ATOM     37  C   UNL A   1      33.976  33.789  30.428  1.00  0.00     0.014 A 
ATOM     38  C   UNL A   1      36.352  33.701  29.222  1.00  0.00     0.010 A 
ATOM     39  C   UNL A   1      35.013  33.061  30.959  1.00  0.00     0.010 A 
ATOM     40  C   UNL A   1      36.254  33.084  30.386  1.00  0.00    -0.014 A 
BRANCH  40  41
ATOM     41  C   UNL A   1      37.455  32.432  31.051  1.00  0.00     0.031 A 
ATOM     42  C   UNL A   1      38.001  31.295  30.454  1.00  0.00     0.074 A 
ATOM     43  C   UNL A   1      37.941  33.003  32.215  1.00  0.00     0.049 A 
ATOM     44  N   UNL A   1      39.065  30.597  30.853  1.00  0.00    -0.248 NA
ATOM     45  C   UNL A   1      37.466  30.667  29.236  1.00  0.00     0.031 C 
ATOM     46  C   UNL A   1      37.400  34.156  32.820  1.00  0.00     0.029 A 
ATOM     47  N   UNL A   1      39.001  32.581  32.986  1.00  0.00    -0.354 N 
ATOM     48  C   UNL A   1      39.294  29.585  30.014  1.00  0.00     0.074 A 
ATOM     49  C   UNL A   1      38.265  29.612  28.965  1.00  0.00     0.031 C 
ATOM     50  C   UNL A   1      38.118  34.417  33.944  1.00  0.00     0.029 A 
ATOM     51  C   UNL A   1      39.119  33.433  34.061  1.00  0.00     0.049 A 
ATOM     52  H   UNL A   1      39.576  31.804  32.799  1.00  0.00     0.167 HD
ATOM     53  C   UNL A   1      40.321  28.642  30.081  1.00  0.00     0.037 A 
ATOM     54  C   UNL A   1      40.038  33.372  35.096  1.00  0.00     0.037 A 
ATOM     55  C   UNL A   1      41.267  28.607  31.093  1.00  0.00     0.049 A 
ATOM     56  C   UNL A   1      41.030  32.394  35.195  1.00  0.00     0.074 A 
ATOM     57  C   UNL A   1      42.313  27.669  31.171  1.00  0.00     0.029 A 
ATOM     58  N   UNL A   1      41.369  29.445  32.182  1.00  0.00    -0.354 N 
ATOM     59  N   UNL A   1      41.283  31.406  34.335  1.00  0.00    -0.248 NA
ATOM     60  C   UNL A   1      41.989  32.300  36.304  1.00  0.00     0.031 C 
ATOM     61  C   UNL A   1      43.031  27.930  32.297  1.00  0.00     0.029 A 
ATOM     62  C   UNL A   1      42.445  29.036  32.940  1.00  0.00     0.049 A 
ATOM     63  H   UNL A   1      40.776  30.204  32.383  1.00  0.00     0.167 HD
ATOM     64  C   UNL A   1      42.322  30.683  34.758  1.00  0.00     0.074 A 
ATOM     65  C   UNL A   1      42.787  31.243  36.034  1.00  0.00     0.031 C 
ATOM     66  C   UNL A   1      42.903  29.582  34.128  1.00  0.00     0.037 A 
BRANCH  53  67
ATOM     67  C   UNL A   1      40.407  27.595  28.983  1.00  0.00     0.064 A 
ATOM     68  C   UNL A   1      41.254  27.745  27.896  1.00  0.00     0.173 A 
ATOM     69  C   UNL A   1      39.655  26.510  29.126  1.00  0.00     0.173 A 
ATOM     70  F   UNL A   1      42.200  28.679  27.837  1.00  0.00    -0.203 F 
ATOM     71  C   UNL A   1      41.021  26.814  26.856  1.00  0.00     0.198 A 
ATOM     72  C   UNL A   1      39.582  25.574  28.123  1.00  0.00     0.198 A 
ATOM     73  F   UNL A   1      38.969  26.328  30.250  1.00  0.00    -0.203 F 
ATOM     74  F   UNL A   1      41.518  27.093  25.655  1.00  0.00    -0.200 F 
ATOM     75  C   UNL A   1      40.347  25.688  26.996  1.00  0.00     0.200 A 
ATOM     76  F   UNL A   1      38.754  24.540  28.251  1.00  0.00    -0.200 F 
ATOM     77  F   UNL A   1      40.407  24.718  26.088  1.00  0.00    -0.200 F 
ENDBRANCH  53  67
BRANCH  54  78
ATOM     78  C   UNL A   1      39.963  34.430  36.186  1.00  0.00     0.064 A 
ATOM     79  C   UNL A   1      40.770  35.546  36.046  1.00  0.00     0.173 A 
ATOM     80  C   UNL A   1      39.186  34.270  37.251  1.00  0.00     0.173 A 
ATOM     81  F   UNL A   1      41.364  35.872  34.901  1.00  0.00    -0.203 F 
ATOM     82  C   UNL A   1      40.907  36.307  37.231  1.00  0.00     0.198 A 
ATOM     83  C   UNL A   1      39.277  35.132  38.318  1.00  0.00     0.198 A 
ATOM     84  F   UNL A   1      38.313  33.267  37.287  1.00  0.00    -0.203 F 
ATOM     85  F   UNL A   1      41.919  37.165  37.301  1.00  0.00    -0.200 F 
ATOM     86  C   UNL A   1      40.098  36.224  38.272  1.00  0.00     0.200 A 
ATOM     87  F   UNL A   1      38.554  34.901  39.410  1.00  0.00    -0.200 F 
ATOM     88  F   UNL A   1      40.084  37.152  39.224  1.00  0.00    -0.200 F 
ENDBRANCH  54  78
BRANCH  66  89
ATOM     89  C   UNL A   1      44.114  28.940  34.786  1.00  0.00     0.064 A 
ATOM     90  C   UNL A   1      45.382  29.408  34.480  1.00  0.00     0.173 A 
ATOM     91  C   UNL A   1      43.937  27.942  35.644  1.00  0.00     0.173 A 
ATOM     92  F   UNL A   1      45.596  30.551  33.834  1.00  0.00    -0.203 F 
ATOM     93  C   UNL A   1      46.427  28.558  34.913  1.00  0.00     0.198 A 
ATOM     94  C   UNL A   1      45.014  27.242  36.135  1.00  0.00     0.198 A 
ATOM     95  F   UNL A   1      42.707  27.617  36.032  1.00  0.00    -0.203 F 
ATOM     96  F   UNL A   1      47.628  28.725  34.367  1.00  0.00    -0.200 F 
ATOM     97  C   UNL A   1      46.293  27.612  35.826  1.00  0.00     0.200 A 
ATOM     98  F   UNL A   1      44.808  26.190  36.922  1.00  0.00    -0.200 F 
ATOM     99  F   UNL A   1      47.347  27.049  36.412  1.00  0.00    -0.200 F 
ENDBRANCH  66  89
ENDBRANCH  40  41
ENDBRANCH  32  35
ENDBRANCH  30  31
ENDBRANCH  29  30
ENDBRANCH   1  29
TORSDOF 15
ENDMDL
MODEL 3
REMARK VINA RESULT:     -13.3      5.506      9.653
REMARK SMILES O=C(NCCCCCCNC(=O)c1ccc(-c2c3nc(c(-c4c(F)c(F)c(F)c(F)c4F)c4ccc([nH]4)c(-c4c(F)c(F)c(F)c(F)c4F)c4nc(c(-c5c(F)c(F)c(F)c(F)c5F)c5ccc2[nH]5)C=C4)C=C3)cc1)C1=Cc2cc(S(F)(F)(F)(F)F)ccc2O[C@@H]1C(F)(F)F
REMARK SMILES IDX 7 1 6 2 5 3 4 4 3 5 1 6 2 7 76 9 77 10 91 11 78 12 90 13
REMARK SMILES IDX 79 14 89 15 80 16 88 17 87 18 92 19 93 20 94 21 95 22 81 23
REMARK SMILES IDX 82 24 83 25 84 26 85 27 86 28 8 29 9 30 10 31 11 32 12 34
REMARK SMILES IDX 13 35 14 36 75 37 15 38 74 39 16 40 17 41 18 42 68 43 19 44
REMARK SMILES IDX 73 45 67 46 69 47 20 48 72 49 66 50 65 51 21 53 53 54 33 55
REMARK SMILES IDX 52 56 34 57 37 58 51 59 70 60 35 61 36 62 50 64 71 65 38 66
REMARK SMILES IDX 22 67 23 68 31 69 24 70 25 71 29 72 32 73 26 74 27 75 30 76
REMARK SMILES IDX 28 77 54 78 55 79 63 80 56 81 57 82 61 83 64 84 58 85 59 86
REMARK SMILES IDX 62 87 60 88 39 89 40 90 48 91 41 92 42 93 46 94 49 95 43 96
REMARK SMILES IDX 44 97 47 98 45 99
REMARK H PARENT 3 8 10 33 69 52 37 63
REMARK Flexibility Score: inf
ROOT
ATOM      1  C   UNL A   1      37.430  20.813  24.627  1.00  0.00     0.002 C 
ENDROOT
BRANCH   1   2
ATOM      2  C   UNL A   1      37.141  21.608  25.890  1.00  0.00     0.002 C 
BRANCH   2   3
ATOM      3  C   UNL A   1      37.679  23.021  25.734  1.00  0.00     0.021 C 
BRANCH   3   4
ATOM      4  C   UNL A   1      36.543  23.956  25.351  1.00  0.00     0.116 C 
BRANCH   4   5
ATOM      5  N   UNL A   1      36.275  23.837  23.910  1.00  0.00    -0.352 N 
ATOM      6  O   UNL A   1      34.745  23.229  22.198  1.00  0.00    -0.270 OA
ATOM      7  C   UNL A   1      34.976  23.332  23.443  1.00  0.00     0.251 C 
ATOM      8  H   UNL A   1      36.966  24.095  23.258  1.00  0.00     0.163 HD
BRANCH   7   9
ATOM      9  C   UNL A   1      33.909  22.933  24.450  1.00  0.00     0.067 C 
ATOM     10  C   UNL A   1      33.206  23.892  25.111  1.00  0.00     0.025 C 
ATOM     11  C   UNL A   1      33.627  21.464  24.718  1.00  0.00     0.314 C 
ATOM     12  C   UNL A   1      33.489  25.362  24.844  1.00  0.00     0.019 A 
ATOM     13  O   UNL A   1      33.771  24.717  22.574  1.00  0.00    -0.475 OA
ATOM     14  C   UNL A   1      33.487  26.307  25.855  1.00  0.00     0.036 A 
ATOM     15  C   UNL A   1      33.612  25.717  23.570  1.00  0.00     0.128 A 
ATOM     16  C   UNL A   1      33.332  27.637  25.398  1.00  0.00     0.107 A 
ATOM     17  C   UNL A   1      33.588  27.042  23.207  1.00  0.00     0.048 A 
ATOM     18  C   UNL A   1      33.529  28.029  24.153  1.00  0.00     0.028 A 
BRANCH  11  19
ATOM     19  C   UNL A   1      32.178  21.156  24.379  1.00  0.00     0.429 C 
ATOM     20  F   UNL A   1      31.810  21.867  23.316  1.00  0.00    -0.167 F 
ATOM     21  F   UNL A   1      32.051  19.860  24.112  1.00  0.00    -0.167 F 
ATOM     22  F   UNL A   1      31.404  21.473  25.414  1.00  0.00    -0.167 F 
ENDBRANCH  11  19
BRANCH  16  23
ATOM     23  S   UNL A   1      32.829  28.889  26.604  1.00  0.00     0.310 S 
ATOM     24  F   UNL A   1      32.344  27.790  27.641  1.00  0.00    -0.094 F 
ATOM     25  F   UNL A   1      31.379  28.852  25.991  1.00  0.00    -0.094 F 
ATOM     26  F   UNL A   1      32.395  29.967  27.638  1.00  0.00    -0.094 F 
ATOM     27  F   UNL A   1      34.248  28.811  27.296  1.00  0.00    -0.094 F 
ATOM     28  F   UNL A   1      33.253  27.715  25.635  1.00  0.00    -0.094 F 
ENDBRANCH  16  23
ENDBRANCH   7   9
ENDBRANCH   4   5
ENDBRANCH   3   4
ENDBRANCH   2   3
ENDBRANCH   1   2
BRANCH   1  29
ATOM     29  C   UNL A   1      38.148  19.524  24.992  1.00  0.00     0.021 C 
BRANCH  29  30
ATOM     30  C   UNL A   1      39.341  19.843  25.878  1.00  0.00     0.116 C 
BRANCH  30  31
ATOM     31  N   UNL A   1      40.329  18.760  25.779  1.00  0.00    -0.352 N 
ATOM     32  C   UNL A   1      41.749  19.035  26.045  1.00  0.00     0.251 C 
ATOM     33  H   UNL A   1      40.041  17.852  25.534  1.00  0.00     0.163 HD
ATOM     34  O   UNL A   1      42.604  18.098  25.959  1.00  0.00    -0.269 OA
BRANCH  32  35
ATOM     35  C   UNL A   1      42.194  20.438  26.423  1.00  0.00     0.039 A 
ATOM     36  C   UNL A   1      42.253  20.795  27.760  1.00  0.00     0.014 A 
ATOM     37  C   UNL A   1      42.520  21.298  25.465  1.00  0.00     0.014 A 
ATOM     38  C   UNL A   1      42.392  22.186  27.976  1.00  0.00     0.010 A 
ATOM     39  C   UNL A   1      42.777  22.615  25.765  1.00  0.00     0.010 A 
ATOM     40  C   UNL A   1      42.793  23.050  27.061  1.00  0.00    -0.014 A 
BRANCH  40  41
ATOM     41  C   UNL A   1      43.247  24.453  27.429  1.00  0.00     0.031 A 
ATOM     42  C   UNL A   1      42.269  25.397  27.748  1.00  0.00     0.074 A 
ATOM     43  C   UNL A   1      44.606  24.717  27.426  1.00  0.00     0.049 A 
ATOM     44  N   UNL A   1      42.454  26.663  28.126  1.00  0.00    -0.248 NA
ATOM     45  C   UNL A   1      40.824  25.129  27.719  1.00  0.00     0.031 C 
ATOM     46  C   UNL A   1      45.599  23.767  27.113  1.00  0.00     0.029 A 
ATOM     47  N   UNL A   1      45.237  25.908  27.713  1.00  0.00    -0.354 N 
ATOM     48  C   UNL A   1      41.278  27.249  28.364  1.00  0.00     0.074 A 
ATOM     49  C   UNL A   1      40.213  26.272  28.100  1.00  0.00     0.031 C 
ATOM     50  C   UNL A   1      46.809  24.379  27.200  1.00  0.00     0.029 A 
ATOM     51  C   UNL A   1      46.594  25.721  27.569  1.00  0.00     0.049 A 
ATOM     52  H   UNL A   1      44.793  26.746  27.976  1.00  0.00     0.167 HD
ATOM     53  C   UNL A   1      41.053  28.558  28.793  1.00  0.00     0.037 A 
ATOM     54  C   UNL A   1      47.601  26.657  27.741  1.00  0.00     0.037 A 
ATOM     55  C   UNL A   1      42.064  29.481  29.008  1.00  0.00     0.049 A 
ATOM     56  C   UNL A   1      47.373  27.983  28.114  1.00  0.00     0.074 A 
ATOM     57  C   UNL A   1      41.855  30.801  29.448  1.00  0.00     0.029 A 
ATOM     58  N   UNL A   1      43.420  29.301  28.839  1.00  0.00    -0.354 N 
ATOM     59  N   UNL A   1      46.201  28.556  28.391  1.00  0.00    -0.248 NA
ATOM     60  C   UNL A   1      48.431  28.991  28.269  1.00  0.00     0.031 C 
ATOM     61  C   UNL A   1      43.067  31.414  29.534  1.00  0.00     0.029 A 
ATOM     62  C   UNL A   1      44.052  30.485  29.149  1.00  0.00     0.049 A 
ATOM     63  H   UNL A   1      43.860  28.470  28.548  1.00  0.00     0.167 HD
ATOM     64  C   UNL A   1      46.383  29.835  28.728  1.00  0.00     0.074 A 
ATOM     65  C   UNL A   1      47.819  30.134  28.648  1.00  0.00     0.031 C 
ATOM     66  C   UNL A   1      45.409  30.762  29.104  1.00  0.00     0.037 A 
BRANCH  53  67
ATOM     67  C   UNL A   1      39.619  28.996  29.038  1.00  0.00     0.064 A 
ATOM     68  C   UNL A   1      39.067  29.013  30.308  1.00  0.00     0.173 A 
ATOM     69  C   UNL A   1      38.922  29.396  27.980  1.00  0.00     0.173 A 
ATOM     70  F   UNL A   1      39.791  28.867  31.415  1.00  0.00    -0.203 F 
ATOM     71  C   UNL A   1      37.665  29.198  30.322  1.00  0.00     0.198 A 
ATOM     72  C   UNL A   1      37.586  29.692  28.094  1.00  0.00     0.198 A 
ATOM     73  F   UNL A   1      39.525  29.511  26.800  1.00  0.00    -0.203 F 
ATOM     74  F   UNL A   1      37.009  28.874  31.433  1.00  0.00    -0.200 F 
ATOM     75  C   UNL A   1      36.961  29.672  29.310  1.00  0.00     0.200 A 
ATOM     76  F   UNL A   1      36.889  30.004  27.005  1.00  0.00    -0.200 F 
ATOM     77  F   UNL A   1      35.714  30.104  29.465  1.00  0.00    -0.200 F 
ENDBRANCH  53  67
BRANCH  54  78
ATOM     78  C   UNL A   1      49.038  26.213  27.513  1.00  0.00     0.064 A 
ATOM     79  C   UNL A   1      49.789  25.890  28.630  1.00  0.00     0.173 A 
ATOM     80  C   UNL A   1      49.565  26.179  26.295  1.00  0.00     0.173 A 
ATOM     81  F   UNL A   1      49.250  25.665  29.826  1.00  0.00    -0.203 F 
ATOM     82  C   UNL A   1      51.181  25.820  28.386  1.00  0.00     0.198 A 
ATOM     83  C   UNL A   1      50.913  25.971  26.122  1.00  0.00     0.198 A 
ATOM     84  F   UNL A   1      48.783  26.348  25.233  1.00  0.00    -0.203 F 
ATOM     85  F   UNL A   1      51.997  25.875  29.433  1.00  0.00    -0.200 F 
ATOM     86  C   UNL A   1      51.726  25.704  27.188  1.00  0.00     0.200 A 
ATOM     87  F   UNL A   1      51.433  26.030  24.899  1.00  0.00    -0.200 F 
ATOM     88  F   UNL A   1      52.997  25.346  27.028  1.00  0.00    -0.200 F 
ENDBRANCH  54  78
BRANCH  66  89
ATOM     89  C   UNL A   1      45.865  32.161  29.486  1.00  0.00     0.064 A 
ATOM     90  C   UNL A   1      45.915  33.148  28.516  1.00  0.00     0.173 A 
ATOM     91  C   UNL A   1      46.209  32.413  30.744  1.00  0.00     0.173 A 
ATOM     92  F   UNL A   1      45.350  33.017  27.319  1.00  0.00    -0.203 F 
ATOM     93  C   UNL A   1      46.623  34.307  28.913  1.00  0.00     0.198 A 
ATOM     94  C   UNL A   1      46.770  33.619  31.087  1.00  0.00     0.198 A 
ATOM     95  F   UNL A   1      46.007  31.490  31.680  1.00  0.00    -0.203 F 
ATOM     96  F   UNL A   1      47.031  35.140  27.960  1.00  0.00    -0.200 F 
ATOM     97  C   UNL A   1      46.904  34.620  30.165  1.00  0.00     0.200 A 
ATOM     98  F   UNL A   1      47.189  33.817  32.334  1.00  0.00    -0.200 F 
ATOM     99  F   UNL A   1      47.298  35.843  30.510  1.00  0.00    -0.200 F 
ENDBRANCH  66  89
ENDBRANCH  40  41
ENDBRANCH  32  35
ENDBRANCH  30  31
ENDBRANCH  29  30
ENDBRANCH   1  29
TORSDOF 15
ENDMDL
