MODEL 1
REMARK VINA RESULT:     -10.6      0.000      0.000
REMARK SMILES CC[C@](C)(C(=O)NCCCCCCNC(=O)c1ccc(-c2c3nc(c(-c4c(F)c(F)c(F)c(F)c4F)c4ccc([nH]4)c(-c4c(F)c(F)c(F)c(F)c4F)c4nc(c(-c5c(F)c(F)c(F)c(F)c5F)c5ccc2[nH]5)C=C4)C=C3)cc1)[C@H]1CCC[C@H](OC)C1
REMARK SMILES IDX 10 1 9 2 8 3 7 4 5 5 6 6 3 8 4 9 2 10 1 11 80 12 81 13 87 14
REMARK SMILES IDX 82 15 84 16 83 17 85 18 86 19 11 20 12 21 13 22 14 23 15 24
REMARK SMILES IDX 16 26 17 27 18 28 79 29 19 30 78 31 20 32 21 33 22 34 72 35
REMARK SMILES IDX 23 36 77 37 71 38 73 39 24 40 76 41 70 42 69 43 25 45 57 46
REMARK SMILES IDX 37 47 56 48 38 49 41 50 55 51 74 52 39 53 40 54 54 56 75 57
REMARK SMILES IDX 42 58 26 59 27 60 35 61 28 62 29 63 33 64 36 65 30 66 31 67
REMARK SMILES IDX 34 68 32 69 58 70 59 71 67 72 60 73 61 74 65 75 68 76 62 77
REMARK SMILES IDX 63 78 66 79 64 80 43 81 44 82 52 83 45 84 46 85 50 86 53 87
REMARK SMILES IDX 47 88 48 89 51 90 49 91
REMARK H PARENT 7 7 14 25 73 44 41 55
REMARK Flexibility Score: inf
ROOT
ATOM      1  C   UNL A   1      34.410  32.226  28.838  1.00  0.00     0.002 C 
ENDROOT
BRANCH   1   2
ATOM      2  C   UNL A   1      33.659  31.708  27.610  1.00  0.00     0.021 C 
BRANCH   2   3
ATOM      3  C   UNL A   1      33.995  30.263  27.259  1.00  0.00     0.116 C 
BRANCH   3   4
ATOM      4  N   UNL A   1      33.012  29.344  27.791  1.00  0.00    -0.356 N 
ATOM      5  C   UNL A   1      32.146  28.479  27.189  1.00  0.00     0.226 C 
ATOM      6  O   UNL A   1      31.421  27.852  27.968  1.00  0.00    -0.274 OA
ATOM      7  H   UNL A   1      32.958  29.342  28.774  1.00  0.00     0.163 HD
BRANCH   5   8
ATOM      8  C   UNL A   1      32.070  28.306  25.625  1.00  0.00     0.049 C 
ATOM      9  C   UNL A   1      31.517  29.651  25.092  1.00  0.00     0.022 C 
BRANCH   8  10
ATOM     10  C   UNL A   1      33.540  28.016  25.131  1.00  0.00     0.013 C 
ATOM     11  C   UNL A   1      33.952  28.578  23.768  1.00  0.00     0.005 C 
ENDBRANCH   8  10
BRANCH   8  12
ATOM     12  C   UNL A   1      31.036  27.080  25.311  1.00  0.00     0.007 C 
ATOM     13  C   UNL A   1      30.075  27.257  24.105  1.00  0.00     0.005 C 
ATOM     14  C   UNL A   1      31.588  25.639  25.226  1.00  0.00     0.036 C 
ATOM     15  C   UNL A   1      30.703  26.954  22.742  1.00  0.00     0.003 C 
ATOM     16  C   UNL A   1      32.312  25.364  23.908  1.00  0.00     0.118 C 
ATOM     17  C   UNL A   1      31.403  25.598  22.698  1.00  0.00     0.032 C 
BRANCH  16  18
ATOM     18  O   UNL A   1      32.961  24.091  23.893  1.00  0.00    -0.381 OA
ATOM     19  C   UNL A   1      34.360  24.086  24.126  1.00  0.00     0.195 C 
ENDBRANCH  16  18
ENDBRANCH   8  12
ENDBRANCH   5   8
ENDBRANCH   3   4
ENDBRANCH   2   3
ENDBRANCH   1   2
BRANCH   1  20
ATOM     20  C   UNL A   1      34.569  33.750  28.895  1.00  0.00     0.002 C 
BRANCH  20  21
ATOM     21  C   UNL A   1      33.257  34.541  28.877  1.00  0.00     0.021 C 
BRANCH  21  22
ATOM     22  C   UNL A   1      33.385  35.987  29.342  1.00  0.00     0.116 C 
BRANCH  22  23
ATOM     23  N   UNL A   1      32.528  36.265  30.482  1.00  0.00    -0.352 N 
ATOM     24  C   UNL A   1      32.607  35.787  31.761  1.00  0.00     0.251 C 
ATOM     25  H   UNL A   1      31.785  36.886  30.310  1.00  0.00     0.163 HD
ATOM     26  O   UNL A   1      31.670  35.954  32.544  1.00  0.00    -0.269 OA
BRANCH  24  27
ATOM     27  C   UNL A   1      33.812  35.061  32.203  1.00  0.00     0.039 A 
ATOM     28  C   UNL A   1      33.678  33.752  32.671  1.00  0.00     0.014 A 
ATOM     29  C   UNL A   1      35.068  35.675  32.174  1.00  0.00     0.014 A 
ATOM     30  C   UNL A   1      34.811  33.042  33.068  1.00  0.00     0.010 A 
ATOM     31  C   UNL A   1      36.205  34.942  32.501  1.00  0.00     0.010 A 
ATOM     32  C   UNL A   1      36.086  33.622  32.962  1.00  0.00    -0.014 A 
BRANCH  32  33
ATOM     33  C   UNL A   1      37.303  32.865  33.340  1.00  0.00     0.031 A 
ATOM     34  C   UNL A   1      38.009  33.166  34.633  1.00  0.00     0.074 A 
ATOM     35  C   UNL A   1      37.802  31.943  32.493  1.00  0.00     0.049 A 
ATOM     36  N   UNL A   1      39.111  32.650  35.114  1.00  0.00    -0.248 NA
ATOM     37  C   UNL A   1      37.410  34.203  35.487  1.00  0.00     0.031 C 
ATOM     38  C   UNL A   1      37.232  31.599  31.191  1.00  0.00     0.029 A 
ATOM     39  N   UNL A   1      38.905  31.133  32.600  1.00  0.00    -0.354 N 
ATOM     40  C   UNL A   1      39.343  33.307  36.315  1.00  0.00     0.074 A 
ATOM     41  C   UNL A   1      38.300  34.298  36.464  1.00  0.00     0.031 C 
ATOM     42  C   UNL A   1      37.976  30.633  30.628  1.00  0.00     0.029 A 
ATOM     43  C   UNL A   1      39.094  30.318  31.511  1.00  0.00     0.049 A 
ATOM     44  H   UNL A   1      39.503  31.138  33.381  1.00  0.00     0.167 HD
ATOM     45  C   UNL A   1      40.324  33.087  37.222  1.00  0.00     0.037 A 
ATOM     46  C   UNL A   1      40.065  29.422  31.253  1.00  0.00     0.037 A 
ATOM     47  C   UNL A   1      41.345  32.083  37.079  1.00  0.00     0.049 A 
ATOM     48  C   UNL A   1      41.146  29.199  32.278  1.00  0.00     0.074 A 
ATOM     49  C   UNL A   1      42.348  31.739  37.968  1.00  0.00     0.029 A 
ATOM     50  N   UNL A   1      41.496  31.262  35.970  1.00  0.00    -0.354 N 
ATOM     51  N   UNL A   1      41.314  29.776  33.442  1.00  0.00    -0.248 NA
ATOM     52  C   UNL A   1      42.165  28.192  31.954  1.00  0.00     0.031 C 
ATOM     53  C   UNL A   1      43.137  30.748  37.376  1.00  0.00     0.029 A 
ATOM     54  C   UNL A   1      42.590  30.430  36.143  1.00  0.00     0.049 A 
ATOM     55  H   UNL A   1      40.911  31.270  35.178  1.00  0.00     0.167 HD
ATOM     56  C   UNL A   1      42.438  29.185  34.003  1.00  0.00     0.074 A 
ATOM     57  C   UNL A   1      42.901  28.191  33.057  1.00  0.00     0.031 C 
ATOM     58  C   UNL A   1      43.033  29.441  35.194  1.00  0.00     0.037 A 
BRANCH  45  59
ATOM     59  C   UNL A   1      40.339  33.947  38.454  1.00  0.00     0.064 A 
ATOM     60  C   UNL A   1      41.079  35.137  38.513  1.00  0.00     0.173 A 
ATOM     61  C   UNL A   1      39.572  33.596  39.576  1.00  0.00     0.173 A 
ATOM     62  F   UNL A   1      41.838  35.513  37.473  1.00  0.00    -0.203 F 
ATOM     63  C   UNL A   1      41.074  35.929  39.659  1.00  0.00     0.198 A 
ATOM     64  C   UNL A   1      39.543  34.408  40.707  1.00  0.00     0.198 A 
ATOM     65  F   UNL A   1      38.840  32.471  39.572  1.00  0.00    -0.203 F 
ATOM     66  F   UNL A   1      41.829  37.035  39.710  1.00  0.00    -0.200 F 
ATOM     67  C   UNL A   1      40.300  35.569  40.751  1.00  0.00     0.200 A 
ATOM     68  F   UNL A   1      38.784  34.065  41.757  1.00  0.00    -0.200 F 
ATOM     69  F   UNL A   1      40.290  36.336  41.849  1.00  0.00    -0.200 F 
ENDBRANCH  45  59
BRANCH  46  70
ATOM     70  C   UNL A   1      40.048  28.653  29.982  1.00  0.00     0.064 A 
ATOM     71  C   UNL A   1      39.441  27.392  29.910  1.00  0.00     0.173 A 
ATOM     72  C   UNL A   1      40.638  29.159  28.815  1.00  0.00     0.173 A 
ATOM     73  F   UNL A   1      38.879  26.856  31.004  1.00  0.00    -0.203 F 
ATOM     74  C   UNL A   1      39.446  26.655  28.727  1.00  0.00     0.198 A 
ATOM     75  C   UNL A   1      40.617  28.435  27.625  1.00  0.00     0.198 A 
ATOM     76  F   UNL A   1      41.227  30.364  28.828  1.00  0.00    -0.203 F 
ATOM     77  F   UNL A   1      38.903  25.431  28.700  1.00  0.00    -0.200 F 
ATOM     78  C   UNL A   1      40.030  27.180  27.584  1.00  0.00     0.200 A 
ATOM     79  F   UNL A   1      41.167  28.954  26.518  1.00  0.00    -0.200 F 
ATOM     80  F   UNL A   1      40.031  26.474  26.446  1.00  0.00    -0.200 F 
ENDBRANCH  46  70
BRANCH  58  81
ATOM     81  C   UNL A   1      44.229  28.608  35.558  1.00  0.00     0.064 A 
ATOM     82  C   UNL A   1      44.101  27.390  36.242  1.00  0.00     0.173 A 
ATOM     83  C   UNL A   1      45.517  29.019  35.183  1.00  0.00     0.173 A 
ATOM     84  F   UNL A   1      42.893  26.961  36.636  1.00  0.00    -0.203 F 
ATOM     85  C   UNL A   1      45.222  26.629  36.563  1.00  0.00     0.198 A 
ATOM     86  C   UNL A   1      46.632  28.238  35.475  1.00  0.00     0.198 A 
ATOM     87  F   UNL A   1      45.695  30.170  34.519  1.00  0.00    -0.203 F 
ATOM     88  F   UNL A   1      45.081  25.495  37.263  1.00  0.00    -0.200 F 
ATOM     89  C   UNL A   1      46.485  27.049  36.173  1.00  0.00     0.200 A 
ATOM     90  F   UNL A   1      47.850  28.637  35.083  1.00  0.00    -0.200 F 
ATOM     91  F   UNL A   1      47.561  26.310  36.475  1.00  0.00    -0.200 F 
ENDBRANCH  58  81
ENDBRANCH  32  33
ENDBRANCH  24  27
ENDBRANCH  22  23
ENDBRANCH  21  22
ENDBRANCH  20  21
ENDBRANCH   1  20
TORSDOF 16
ENDMDL
MODEL 2
REMARK VINA RESULT:     -10.6      4.242      6.482
REMARK SMILES CC[C@](C)(C(=O)NCCCCCCNC(=O)c1ccc(-c2c3nc(c(-c4c(F)c(F)c(F)c(F)c4F)c4ccc([nH]4)c(-c4c(F)c(F)c(F)c(F)c4F)c4nc(c(-c5c(F)c(F)c(F)c(F)c5F)c5ccc2[nH]5)C=C4)C=C3)cc1)[C@H]1CCC[C@H](OC)C1
REMARK SMILES IDX 10 1 9 2 8 3 7 4 5 5 6 6 3 8 4 9 2 10 1 11 80 12 81 13 87 14
REMARK SMILES IDX 82 15 84 16 83 17 85 18 86 19 11 20 12 21 13 22 14 23 15 24
REMARK SMILES IDX 16 26 17 27 18 28 79 29 19 30 78 31 20 32 21 33 22 34 72 35
REMARK SMILES IDX 23 36 77 37 71 38 73 39 24 40 76 41 70 42 69 43 25 45 57 46
REMARK SMILES IDX 37 47 56 48 38 49 41 50 55 51 74 52 39 53 40 54 54 56 75 57
REMARK SMILES IDX 42 58 26 59 27 60 35 61 28 62 29 63 33 64 36 65 30 66 31 67
REMARK SMILES IDX 34 68 32 69 58 70 59 71 67 72 60 73 61 74 65 75 68 76 62 77
REMARK SMILES IDX 63 78 66 79 64 80 43 81 44 82 52 83 45 84 46 85 50 86 53 87
REMARK SMILES IDX 47 88 48 89 51 90 49 91
REMARK H PARENT 7 7 14 25 73 44 41 55
REMARK Flexibility Score: inf
ROOT
ATOM      1  C   UNL A   1      32.905  28.753  23.275  1.00  0.00     0.002 C 
ENDROOT
BRANCH   1   2
ATOM      2  C   UNL A   1      31.421  28.692  22.910  1.00  0.00     0.021 C 
BRANCH   2   3
ATOM      3  C   UNL A   1      30.944  27.291  22.543  1.00  0.00     0.116 C 
BRANCH   3   4
ATOM      4  N   UNL A   1      31.866  26.636  21.640  1.00  0.00    -0.356 N 
ATOM      5  C   UNL A   1      32.513  25.436  21.702  1.00  0.00     0.226 C 
ATOM      6  O   UNL A   1      33.255  25.203  20.743  1.00  0.00    -0.274 OA
ATOM      7  H   UNL A   1      32.063  27.153  20.825  1.00  0.00     0.163 HD
BRANCH   5   8
ATOM      8  C   UNL A   1      32.334  24.439  22.908  1.00  0.00     0.049 C 
ATOM      9  C   UNL A   1      30.804  24.331  23.125  1.00  0.00     0.022 C 
BRANCH   8  10
ATOM     10  C   UNL A   1      32.982  23.071  22.463  1.00  0.00     0.013 C 
ATOM     11  C   UNL A   1      32.219  21.786  22.794  1.00  0.00     0.005 C 
ENDBRANCH   8  10
BRANCH   8  12
ATOM     12  C   UNL A   1      33.067  25.099  24.211  1.00  0.00     0.007 C 
ATOM     13  C   UNL A   1      32.270  25.105  25.543  1.00  0.00     0.005 C 
ATOM     14  C   UNL A   1      34.506  24.662  24.561  1.00  0.00     0.036 C 
ATOM     15  C   UNL A   1      32.306  23.781  26.311  1.00  0.00     0.003 C 
ATOM     16  C   UNL A   1      34.557  23.289  25.232  1.00  0.00     0.118 C 
ATOM     17  C   UNL A   1      33.722  23.249  26.514  1.00  0.00     0.032 C 
BRANCH  16  18
ATOM     18  O   UNL A   1      35.893  22.813  25.409  1.00  0.00    -0.381 OA
ATOM     19  C   UNL A   1      36.927  23.783  25.358  1.00  0.00     0.195 C 
ENDBRANCH  16  18
ENDBRANCH   8  12
ENDBRANCH   5   8
ENDBRANCH   3   4
ENDBRANCH   2   3
ENDBRANCH   1   2
BRANCH   1  20
ATOM     20  C   UNL A   1      33.193  29.200  24.713  1.00  0.00     0.002 C 
BRANCH  20  21
ATOM     21  C   UNL A   1      33.995  28.203  25.555  1.00  0.00     0.021 C 
BRANCH  21  22
ATOM     22  C   UNL A   1      33.866  28.399  27.061  1.00  0.00     0.116 C 
BRANCH  22  23
ATOM     23  N   UNL A   1      33.722  29.802  27.411  1.00  0.00    -0.352 N 
ATOM     24  C   UNL A   1      34.573  30.611  28.114  1.00  0.00     0.251 C 
ATOM     25  H   UNL A   1      32.896  30.233  27.096  1.00  0.00     0.163 HD
ATOM     26  O   UNL A   1      34.195  31.715  28.508  1.00  0.00    -0.269 OA
BRANCH  24  27
ATOM     27  C   UNL A   1      35.944  30.156  28.412  1.00  0.00     0.039 A 
ATOM     28  C   UNL A   1      36.944  30.358  27.458  1.00  0.00     0.014 A 
ATOM     29  C   UNL A   1      36.239  29.516  29.620  1.00  0.00     0.014 A 
ATOM     30  C   UNL A   1      38.251  29.957  27.735  1.00  0.00     0.010 A 
ATOM     31  C   UNL A   1      37.555  29.185  29.924  1.00  0.00     0.010 A 
ATOM     32  C   UNL A   1      38.572  29.391  28.980  1.00  0.00    -0.014 A 
BRANCH  32  33
ATOM     33  C   UNL A   1      39.965  29.000  29.304  1.00  0.00     0.031 A 
ATOM     34  C   UNL A   1      40.841  29.922  30.105  1.00  0.00     0.074 A 
ATOM     35  C   UNL A   1      40.456  27.839  28.830  1.00  0.00     0.049 A 
ATOM     36  N   UNL A   1      42.097  29.783  30.447  1.00  0.00    -0.248 NA
ATOM     37  C   UNL A   1      40.232  31.181  30.563  1.00  0.00     0.031 C 
ATOM     38  C   UNL A   1      39.718  26.885  28.002  1.00  0.00     0.029 A 
ATOM     39  N   UNL A   1      41.696  27.267  28.971  1.00  0.00    -0.354 N 
ATOM     40  C   UNL A   1      42.430  30.936  31.144  1.00  0.00     0.074 A 
ATOM     41  C   UNL A   1      41.262  31.791  31.130  1.00  0.00     0.031 C 
ATOM     42  C   UNL A   1      40.510  25.837  27.727  1.00  0.00     0.029 A 
ATOM     43  C   UNL A   1      41.821  26.061  28.326  1.00  0.00     0.049 A 
ATOM     44  H   UNL A   1      42.425  27.683  29.486  1.00  0.00     0.167 HD
ATOM     45  C   UNL A   1      43.595  31.244  31.760  1.00  0.00     0.037 A 
ATOM     46  C   UNL A   1      42.879  25.234  28.225  1.00  0.00     0.037 A 
ATOM     47  C   UNL A   1      44.745  30.379  31.790  1.00  0.00     0.049 A 
ATOM     48  C   UNL A   1      44.164  25.602  28.917  1.00  0.00     0.074 A 
ATOM     49  C   UNL A   1      45.953  30.571  32.437  1.00  0.00     0.029 A 
ATOM     50  N   UNL A   1      44.831  29.155  31.140  1.00  0.00    -0.354 N 
ATOM     51  N   UNL A   1      44.444  26.663  29.634  1.00  0.00    -0.248 NA
ATOM     52  C   UNL A   1      45.277  24.651  28.793  1.00  0.00     0.031 C 
ATOM     53  C   UNL A   1      46.787  29.489  32.136  1.00  0.00     0.029 A 
ATOM     54  C   UNL A   1      46.079  28.593  31.351  1.00  0.00     0.049 A 
ATOM     55  H   UNL A   1      44.110  28.747  30.607  1.00  0.00     0.167 HD
ATOM     56  C   UNL A   1      45.752  26.495  30.070  1.00  0.00     0.074 A 
ATOM     57  C   UNL A   1      46.203  25.221  29.550  1.00  0.00     0.031 C 
ATOM     58  C   UNL A   1      46.510  27.321  30.832  1.00  0.00     0.037 A 
BRANCH  45  59
ATOM     59  C   UNL A   1      43.686  32.572  32.456  1.00  0.00     0.064 A 
ATOM     60  C   UNL A   1      43.362  32.717  33.813  1.00  0.00     0.173 A 
ATOM     61  C   UNL A   1      44.142  33.707  31.767  1.00  0.00     0.173 A 
ATOM     62  F   UNL A   1      42.910  31.668  34.516  1.00  0.00    -0.203 F 
ATOM     63  C   UNL A   1      43.462  33.953  34.447  1.00  0.00     0.198 A 
ATOM     64  C   UNL A   1      44.273  34.934  32.412  1.00  0.00     0.198 A 
ATOM     65  F   UNL A   1      44.472  33.623  30.469  1.00  0.00    -0.203 F 
ATOM     66  F   UNL A   1      43.097  34.078  35.730  1.00  0.00    -0.200 F 
ATOM     67  C   UNL A   1      43.925  35.058  33.749  1.00  0.00     0.200 A 
ATOM     68  F   UNL A   1      44.734  35.997  31.739  1.00  0.00    -0.200 F 
ATOM     69  F   UNL A   1      44.029  36.245  34.362  1.00  0.00    -0.200 F 
ENDBRANCH  45  59
BRANCH  46  70
ATOM     70  C   UNL A   1      42.760  23.968  27.457  1.00  0.00     0.064 A 
ATOM     71  C   UNL A   1      42.291  22.796  28.066  1.00  0.00     0.173 A 
ATOM     72  C   UNL A   1      43.115  23.900  26.102  1.00  0.00     0.173 A 
ATOM     73  F   UNL A   1      41.956  22.805  29.365  1.00  0.00    -0.203 F 
ATOM     74  C   UNL A   1      42.204  21.599  27.357  1.00  0.00     0.198 A 
ATOM     75  C   UNL A   1      42.999  22.711  25.385  1.00  0.00     0.198 A 
ATOM     76  F   UNL A   1      43.564  24.994  25.469  1.00  0.00    -0.203 F 
ATOM     77  F   UNL A   1      41.799  20.484  27.977  1.00  0.00    -0.200 F 
ATOM     78  C   UNL A   1      42.553  21.560  26.015  1.00  0.00     0.200 A 
ATOM     79  F   UNL A   1      43.322  22.681  24.085  1.00  0.00    -0.200 F 
ATOM     80  F   UNL A   1      42.465  20.410  25.333  1.00  0.00    -0.200 F 
ENDBRANCH  46  70
BRANCH  58  81
ATOM     81  C   UNL A   1      47.895  26.855  31.182  1.00  0.00     0.064 A 
ATOM     82  C   UNL A   1      49.016  27.242  30.433  1.00  0.00     0.173 A 
ATOM     83  C   UNL A   1      48.104  26.041  32.306  1.00  0.00     0.173 A 
ATOM     84  F   UNL A   1      48.867  28.006  29.341  1.00  0.00    -0.203 F 
ATOM     85  C   UNL A   1      50.292  26.806  30.778  1.00  0.00     0.198 A 
ATOM     86  C   UNL A   1      49.386  25.636  32.668  1.00  0.00     0.198 A 
ATOM     87  F   UNL A   1      47.068  25.650  33.061  1.00  0.00    -0.203 F 
ATOM     88  F   UNL A   1      51.342  27.144  30.018  1.00  0.00    -0.200 F 
ATOM     89  C   UNL A   1      50.477  26.010  31.900  1.00  0.00     0.200 A 
ATOM     90  F   UNL A   1      49.564  24.880  33.761  1.00  0.00    -0.200 F 
ATOM     91  F   UNL A   1      51.707  25.599  32.235  1.00  0.00    -0.200 F 
ENDBRANCH  58  81
ENDBRANCH  32  33
ENDBRANCH  24  27
ENDBRANCH  22  23
ENDBRANCH  21  22
ENDBRANCH  20  21
ENDBRANCH   1  20
TORSDOF 16
ENDMDL
MODEL 3
REMARK VINA RESULT:     -10.6      1.841      7.966
REMARK SMILES CC[C@](C)(C(=O)NCCCCCCNC(=O)c1ccc(-c2c3nc(c(-c4c(F)c(F)c(F)c(F)c4F)c4ccc([nH]4)c(-c4c(F)c(F)c(F)c(F)c4F)c4nc(c(-c5c(F)c(F)c(F)c(F)c5F)c5ccc2[nH]5)C=C4)C=C3)cc1)[C@H]1CCC[C@H](OC)C1
REMARK SMILES IDX 10 1 9 2 8 3 7 4 5 5 6 6 3 8 4 9 2 10 1 11 80 12 81 13 87 14
REMARK SMILES IDX 82 15 84 16 83 17 85 18 86 19 11 20 12 21 13 22 14 23 15 24
REMARK SMILES IDX 16 26 17 27 18 28 79 29 19 30 78 31 20 32 21 33 22 34 72 35
REMARK SMILES IDX 23 36 77 37 71 38 73 39 24 40 76 41 70 42 69 43 25 45 57 46
REMARK SMILES IDX 37 47 56 48 38 49 41 50 55 51 74 52 39 53 40 54 54 56 75 57
REMARK SMILES IDX 42 58 26 59 27 60 35 61 28 62 29 63 33 64 36 65 30 66 31 67
REMARK SMILES IDX 34 68 32 69 58 70 59 71 67 72 60 73 61 74 65 75 68 76 62 77
REMARK SMILES IDX 63 78 66 79 64 80 43 81 44 82 52 83 45 84 46 85 50 86 53 87
REMARK SMILES IDX 47 88 48 89 51 90 49 91
REMARK H PARENT 7 7 14 25 73 44 41 55
REMARK Flexibility Score: inf
ROOT
ATOM      1  C   UNL A   1      32.876  29.940  26.140  1.00  0.00     0.002 C 
ENDROOT
BRANCH   1   2
ATOM      2  C   UNL A   1      33.473  29.191  24.949  1.00  0.00     0.021 C 
BRANCH   2   3
ATOM      3  C   UNL A   1      32.480  28.266  24.254  1.00  0.00     0.116 C 
BRANCH   3   4
ATOM      4  N   UNL A   1      33.038  27.699  23.046  1.00  0.00    -0.356 N 
ATOM      5  C   UNL A   1      33.247  26.410  22.650  1.00  0.00     0.226 C 
ATOM      6  O   UNL A   1      33.773  26.292  21.539  1.00  0.00    -0.274 OA
ATOM      7  H   UNL A   1      33.319  28.370  22.382  1.00  0.00     0.163 HD
BRANCH   5   8
ATOM      8  C   UNL A   1      32.859  25.174  23.547  1.00  0.00     0.049 C 
ATOM      9  C   UNL A   1      31.310  25.155  23.568  1.00  0.00     0.022 C 
BRANCH   8  10
ATOM     10  C   UNL A   1      33.472  23.899  22.849  1.00  0.00     0.013 C 
ATOM     11  C   UNL A   1      32.626  22.623  22.838  1.00  0.00     0.005 C 
ENDBRANCH   8  10
BRANCH   8  12
ATOM     12  C   UNL A   1      33.463  25.437  25.042  1.00  0.00     0.007 C 
ATOM     13  C   UNL A   1      32.530  25.135  26.245  1.00  0.00     0.005 C 
ATOM     14  C   UNL A   1      34.848  24.855  25.403  1.00  0.00     0.036 C 
ATOM     15  C   UNL A   1      32.456  23.657  26.637  1.00  0.00     0.003 C 
ATOM     16  C   UNL A   1      34.798  23.354  25.689  1.00  0.00     0.118 C 
ATOM     17  C   UNL A   1      33.831  23.023  26.829  1.00  0.00     0.032 C 
BRANCH  16  18
ATOM     18  O   UNL A   1      36.098  22.785  25.863  1.00  0.00    -0.381 OA
ATOM     19  C   UNL A   1      37.193  23.530  25.356  1.00  0.00     0.195 C 
ENDBRANCH  16  18
ENDBRANCH   8  12
ENDBRANCH   5   8
ENDBRANCH   3   4
ENDBRANCH   2   3
ENDBRANCH   1   2
BRANCH   1  20
ATOM     20  C   UNL A   1      31.508  30.580  25.875  1.00  0.00     0.002 C 
BRANCH  20  21
ATOM     21  C   UNL A   1      31.324  31.985  26.457  1.00  0.00     0.021 C 
BRANCH  21  22
ATOM     22  C   UNL A   1      32.560  32.548  27.151  1.00  0.00     0.116 C 
BRANCH  22  23
ATOM     23  N   UNL A   1      32.394  33.951  27.490  1.00  0.00    -0.352 N 
ATOM     24  C   UNL A   1      33.019  34.687  28.459  1.00  0.00     0.251 C 
ATOM     25  H   UNL A   1      31.740  34.443  26.945  1.00  0.00     0.163 HD
ATOM     26  O   UNL A   1      32.601  35.807  28.754  1.00  0.00    -0.269 OA
BRANCH  24  27
ATOM     27  C   UNL A   1      34.192  34.134  29.162  1.00  0.00     0.039 A 
ATOM     28  C   UNL A   1      33.988  33.295  30.260  1.00  0.00     0.014 A 
ATOM     29  C   UNL A   1      35.489  34.456  28.751  1.00  0.00     0.014 A 
ATOM     30  C   UNL A   1      35.086  32.744  30.920  1.00  0.00     0.010 A 
ATOM     31  C   UNL A   1      36.581  33.847  29.363  1.00  0.00     0.010 A 
ATOM     32  C   UNL A   1      36.390  32.994  30.460  1.00  0.00    -0.014 A 
BRANCH  32  33
ATOM     33  C   UNL A   1      37.564  32.380  31.125  1.00  0.00     0.031 A 
ATOM     34  C   UNL A   1      38.315  31.265  30.452  1.00  0.00     0.074 A 
ATOM     35  C   UNL A   1      37.920  32.791  32.358  1.00  0.00     0.049 A 
ATOM     36  N   UNL A   1      39.332  30.568  30.892  1.00  0.00    -0.248 NA
ATOM     37  C   UNL A   1      37.845  30.862  29.118  1.00  0.00     0.031 C 
ATOM     38  C   UNL A   1      37.239  33.830  33.130  1.00  0.00     0.029 A 
ATOM     39  N   UNL A   1      38.939  32.378  33.180  1.00  0.00    -0.354 N 
ATOM     40  C   UNL A   1      39.613  29.640  29.898  1.00  0.00     0.074 A 
ATOM     41  C   UNL A   1      38.625  29.824  28.857  1.00  0.00     0.031 C 
ATOM     42  C   UNL A   1      37.871  33.989  34.304  1.00  0.00     0.029 A 
ATOM     43  C   UNL A   1      38.976  33.040  34.383  1.00  0.00     0.049 A 
ATOM     44  H   UNL A   1      39.580  31.674  32.931  1.00  0.00     0.167 HD
ATOM     45  C   UNL A   1      40.617  28.733  29.848  1.00  0.00     0.037 A 
ATOM     46  C   UNL A   1      39.806  32.891  35.432  1.00  0.00     0.037 A 
ATOM     47  C   UNL A   1      41.610  28.571  30.877  1.00  0.00     0.049 A 
ATOM     48  C   UNL A   1      40.913  31.873  35.352  1.00  0.00     0.074 A 
ATOM     49  C   UNL A   1      42.704  27.723  30.896  1.00  0.00     0.029 A 
ATOM     50  N   UNL A   1      41.628  29.272  32.075  1.00  0.00    -0.354 N 
ATOM     51  N   UNL A   1      41.211  31.050  34.376  1.00  0.00    -0.248 NA
ATOM     52  C   UNL A   1      41.802  31.771  36.517  1.00  0.00     0.031 C 
ATOM     53  C   UNL A   1      43.352  27.874  32.126  1.00  0.00     0.029 A 
ATOM     54  C   UNL A   1      42.699  28.858  32.850  1.00  0.00     0.049 A 
ATOM     55  H   UNL A   1      40.975  29.962  32.336  1.00  0.00     0.167 HD
ATOM     56  C   UNL A   1      42.338  30.355  34.795  1.00  0.00     0.074 A 
ATOM     57  C   UNL A   1      42.679  30.865  36.107  1.00  0.00     0.031 C 
ATOM     58  C   UNL A   1      43.028  29.382  34.151  1.00  0.00     0.037 A 
BRANCH  45  59
ATOM     59  C   UNL A   1      40.695  27.845  28.639  1.00  0.00     0.064 A 
ATOM     60  C   UNL A   1      40.033  26.610  28.587  1.00  0.00     0.173 A 
ATOM     61  C   UNL A   1      41.409  28.254  27.501  1.00  0.00     0.173 A 
ATOM     62  F   UNL A   1      39.346  26.167  29.651  1.00  0.00    -0.203 F 
ATOM     63  C   UNL A   1      40.105  25.803  27.455  1.00  0.00     0.198 A 
ATOM     64  C   UNL A   1      41.452  27.459  26.358  1.00  0.00     0.198 A 
ATOM     65  F   UNL A   1      42.056  29.429  27.493  1.00  0.00    -0.203 F 
ATOM     66  F   UNL A   1      39.506  24.604  27.448  1.00  0.00    -0.200 F 
ATOM     67  C   UNL A   1      40.807  26.232  26.339  1.00  0.00     0.200 A 
ATOM     68  F   UNL A   1      42.120  27.882  25.275  1.00  0.00    -0.200 F 
ATOM     69  F   UNL A   1      40.869  25.458  25.246  1.00  0.00    -0.200 F 
ENDBRANCH  45  59
BRANCH  46  70
ATOM     70  C   UNL A   1      39.637  33.741  36.639  1.00  0.00     0.064 A 
ATOM     71  C   UNL A   1      40.234  35.006  36.720  1.00  0.00     0.173 A 
ATOM     72  C   UNL A   1      38.879  33.308  37.737  1.00  0.00     0.173 A 
ATOM     73  F   UNL A   1      40.983  35.459  35.703  1.00  0.00    -0.203 F 
ATOM     74  C   UNL A   1      40.100  35.796  37.860  1.00  0.00     0.198 A 
ATOM     75  C   UNL A   1      38.720  34.110  38.864  1.00  0.00     0.198 A 
ATOM     76  F   UNL A   1      38.281  32.108  37.708  1.00  0.00    -0.203 F 
ATOM     77  F   UNL A   1      40.723  36.980  37.930  1.00  0.00    -0.200 F 
ATOM     78  C   UNL A   1      39.339  35.349  38.930  1.00  0.00     0.200 A 
ATOM     79  F   UNL A   1      37.970  33.681  39.889  1.00  0.00    -0.200 F 
ATOM     80  F   UNL A   1      39.207  36.110  40.024  1.00  0.00    -0.200 F 
ENDBRANCH  46  70
BRANCH  58  81
ATOM     81  C   UNL A   1      44.244  28.830  34.840  1.00  0.00     0.064 A 
ATOM     82  C   UNL A   1      44.174  27.705  35.674  1.00  0.00     0.173 A 
ATOM     83  C   UNL A   1      45.502  29.417  34.631  1.00  0.00     0.173 A 
ATOM     84  F   UNL A   1      42.993  27.118  35.918  1.00  0.00    -0.203 F 
ATOM     85  C   UNL A   1      45.315  27.205  36.296  1.00  0.00     0.198 A 
ATOM     86  C   UNL A   1      46.645  28.893  35.228  1.00  0.00     0.198 A 
ATOM     87  F   UNL A   1      45.625  30.490  33.836  1.00  0.00    -0.203 F 
ATOM     88  F   UNL A   1      45.216  26.160  37.130  1.00  0.00    -0.200 F 
ATOM     89  C   UNL A   1      46.549  27.794  36.067  1.00  0.00     0.200 A 
ATOM     90  F   UNL A   1      47.840  29.454  34.993  1.00  0.00    -0.200 F 
ATOM     91  F   UNL A   1      47.647  27.305  36.661  1.00  0.00    -0.200 F 
ENDBRANCH  58  81
ENDBRANCH  32  33
ENDBRANCH  24  27
ENDBRANCH  22  23
ENDBRANCH  21  22
ENDBRANCH  20  21
ENDBRANCH   1  20
TORSDOF 16
ENDMDL
