MODEL 1
REMARK VINA RESULT:     -11.9      0.000      0.000
REMARK SMILES Cc1nn(C)c(C)c1CNC(=O)N[C@H]1CC[C@@H](C(=O)NCCCCCCNC(=O)c2ccc(-c3c4nc(c(-c5c(F)c(F)c(F)c(F)c5F)c5ccc([nH]5)c(-c5c(F)c(F)c(F)c(F)c5F)c5nc(c(-c6c(F)c(F)c(F)c(F)c6F)c6ccc3[nH]6)C=C5)C=C4)cc2)C1
REMARK SMILES IDX 23 1 22 2 21 3 20 4 18 5 19 6 17 8 14 9 15 10 93 11 16 12
REMARK SMILES IDX 13 13 10 14 11 15 12 17 9 19 8 20 1 21 2 22 3 23 4 24 6 25
REMARK SMILES IDX 5 26 7 27 24 28 25 29 26 30 27 31 28 32 29 34 30 35 31 36
REMARK SMILES IDX 92 37 32 38 91 39 33 40 34 41 35 42 85 43 36 44 90 45 84 46
REMARK SMILES IDX 86 47 37 48 89 49 83 50 82 51 38 53 70 54 50 55 69 56 51 57
REMARK SMILES IDX 54 58 68 59 87 60 52 61 53 62 67 64 88 65 55 66 39 67 40 68
REMARK SMILES IDX 48 69 41 70 42 71 46 72 49 73 43 74 44 75 47 76 45 77 71 78
REMARK SMILES IDX 72 79 80 80 73 81 74 82 78 83 81 84 75 85 76 86 79 87 77 88
REMARK SMILES IDX 56 89 57 90 65 91 58 92 59 93 63 94 66 95 60 96 61 97 64 98
REMARK SMILES IDX 62 99
REMARK H PARENT 20 7 10 16 13 18 27 33 86 52 54 63
REMARK Flexibility Score: inf
ROOT
ATOM      1  C   UNL A   1      34.390  32.264  29.001  1.00  0.00     0.002 C 
ENDROOT
BRANCH   1   2
ATOM      2  C   UNL A   1      34.625  31.142  27.986  1.00  0.00     0.021 C 
BRANCH   2   3
ATOM      3  C   UNL A   1      33.428  30.826  27.090  1.00  0.00     0.116 C 
BRANCH   3   4
ATOM      4  N   UNL A   1      32.574  29.790  27.626  1.00  0.00    -0.356 N 
ATOM      5  C   UNL A   1      32.236  28.554  27.193  1.00  0.00     0.223 C 
ATOM      6  O   UNL A   1      31.596  27.862  27.997  1.00  0.00    -0.275 OA
ATOM      7  H   UNL A   1      32.152  30.035  28.481  1.00  0.00     0.163 HD
BRANCH   5   8
ATOM      8  C   UNL A   1      32.617  27.930  25.848  1.00  0.00     0.080 C 
ATOM      9  C   UNL A   1      32.359  25.638  24.999  1.00  0.00     0.084 C 
ATOM     10  C   UNL A   1      31.682  26.607  24.031  1.00  0.00     0.026 C 
ATOM     11  C   UNL A   1      33.327  26.576  25.744  1.00  0.00     0.038 C 
ATOM     12  C   UNL A   1      31.415  27.841  24.895  1.00  0.00     0.015 C 
BRANCH   9  13
ATOM     13  N   UNL A   1      31.326  25.026  25.839  1.00  0.00    -0.335 N 
ATOM     14  N   UNL A   1      31.671  22.695  25.890  1.00  0.00    -0.334 N 
ATOM     15  C   UNL A   1      31.076  23.806  26.319  1.00  0.00     0.315 C 
ATOM     16  H   UNL A   1      31.806  22.003  26.578  1.00  0.00     0.165 HD
ATOM     17  O   UNL A   1      30.274  23.716  27.251  1.00  0.00    -0.249 OA
ATOM     18  H   UNL A   1      30.645  25.679  26.120  1.00  0.00     0.165 HD
BRANCH  14  19
ATOM     19  C   UNL A   1      32.150  22.348  24.581  1.00  0.00     0.157 C 
BRANCH  19  20
ATOM     20  C   UNL A   1      33.532  21.792  24.626  1.00  0.00     0.015 A 
ATOM     21  C   UNL A   1      32.903  19.354  25.362  1.00  0.00     0.069 C 
ATOM     22  C   UNL A   1      33.837  20.450  24.996  1.00  0.00     0.065 A 
ATOM     23  N   UNL A   1      35.151  20.217  25.001  1.00  0.00    -0.178 NA
ATOM     24  N   UNL A   1      35.698  21.385  24.635  1.00  0.00    -0.272 N 
ATOM     25  C   UNL A   1      34.772  22.355  24.335  1.00  0.00     0.040 A 
ATOM     26  C   UNL A   1      37.140  21.477  24.625  1.00  0.00     0.174 C 
ATOM     27  C   UNL A   1      35.166  23.696  23.830  1.00  0.00     0.067 C 
ENDBRANCH  19  20
ENDBRANCH  14  19
ENDBRANCH   9  13
ENDBRANCH   5   8
ENDBRANCH   3   4
ENDBRANCH   2   3
ENDBRANCH   1   2
BRANCH   1  28
ATOM     28  C   UNL A   1      34.416  33.691  28.441  1.00  0.00     0.002 C 
BRANCH  28  29
ATOM     29  C   UNL A   1      33.128  34.501  28.603  1.00  0.00     0.021 C 
BRANCH  29  30
ATOM     30  C   UNL A   1      33.291  35.915  29.146  1.00  0.00     0.116 C 
BRANCH  30  31
ATOM     31  N   UNL A   1      32.528  36.140  30.361  1.00  0.00    -0.352 N 
ATOM     32  C   UNL A   1      32.726  35.681  31.634  1.00  0.00     0.251 C 
ATOM     33  H   UNL A   1      31.739  36.717  30.251  1.00  0.00     0.163 HD
ATOM     34  O   UNL A   1      31.852  35.866  32.486  1.00  0.00    -0.269 OA
BRANCH  32  35
ATOM     35  C   UNL A   1      33.959  34.955  32.012  1.00  0.00     0.039 A 
ATOM     36  C   UNL A   1      33.847  33.621  32.419  1.00  0.00     0.014 A 
ATOM     37  C   UNL A   1      35.208  35.582  32.034  1.00  0.00     0.014 A 
ATOM     38  C   UNL A   1      34.984  32.909  32.807  1.00  0.00     0.010 A 
ATOM     39  C   UNL A   1      36.353  34.850  32.350  1.00  0.00     0.010 A 
ATOM     40  C   UNL A   1      36.251  33.511  32.755  1.00  0.00    -0.014 A 
BRANCH  40  41
ATOM     41  C   UNL A   1      37.470  32.755  33.145  1.00  0.00     0.031 A 
ATOM     42  C   UNL A   1      38.163  33.055  34.446  1.00  0.00     0.074 A 
ATOM     43  C   UNL A   1      37.974  31.827  32.310  1.00  0.00     0.049 A 
ATOM     44  N   UNL A   1      39.257  32.530  34.942  1.00  0.00    -0.248 NA
ATOM     45  C   UNL A   1      37.564  34.099  35.290  1.00  0.00     0.031 C 
ATOM     46  C   UNL A   1      37.422  31.478  31.000  1.00  0.00     0.029 A 
ATOM     47  N   UNL A   1      39.069  31.009  32.438  1.00  0.00    -0.354 N 
ATOM     48  C   UNL A   1      39.481  33.189  36.143  1.00  0.00     0.074 A 
ATOM     49  C   UNL A   1      38.442  34.187  36.278  1.00  0.00     0.031 C 
ATOM     50  C   UNL A   1      38.168  30.504  30.455  1.00  0.00     0.029 A 
ATOM     51  C   UNL A   1      39.265  30.180  31.360  1.00  0.00     0.049 A 
ATOM     52  H   UNL A   1      39.659  31.018  33.225  1.00  0.00     0.167 HD
ATOM     53  C   UNL A   1      40.450  32.966  37.064  1.00  0.00     0.037 A 
ATOM     54  C   UNL A   1      40.223  29.261  31.130  1.00  0.00     0.037 A 
ATOM     55  C   UNL A   1      41.466  31.954  36.942  1.00  0.00     0.049 A 
ATOM     56  C   UNL A   1      41.276  29.020  32.177  1.00  0.00     0.074 A 
ATOM     57  C   UNL A   1      42.462  31.616  37.842  1.00  0.00     0.029 A 
ATOM     58  N   UNL A   1      41.614  31.111  35.850  1.00  0.00    -0.354 N 
ATOM     59  N   UNL A   1      41.441  29.608  33.336  1.00  0.00    -0.248 NA
ATOM     60  C   UNL A   1      42.269  27.976  31.887  1.00  0.00     0.031 C 
ATOM     61  C   UNL A   1      43.235  30.594  37.279  1.00  0.00     0.029 A 
ATOM     62  C   UNL A   1      42.691  30.263  36.047  1.00  0.00     0.049 A 
ATOM     63  H   UNL A   1      41.038  31.116  35.051  1.00  0.00     0.167 HD
ATOM     64  C   UNL A   1      42.537  28.991  33.925  1.00  0.00     0.074 A 
ATOM     65  C   UNL A   1      42.987  27.970  33.000  1.00  0.00     0.031 C 
ATOM     66  C   UNL A   1      43.120  29.247  35.121  1.00  0.00     0.037 A 
BRANCH  53  67
ATOM     67  C   UNL A   1      40.453  33.832  38.290  1.00  0.00     0.064 A 
ATOM     68  C   UNL A   1      39.692  33.503  39.423  1.00  0.00     0.173 A 
ATOM     69  C   UNL A   1      41.246  34.987  38.348  1.00  0.00     0.173 A 
ATOM     70  F   UNL A   1      38.907  32.416  39.415  1.00  0.00    -0.203 F 
ATOM     71  C   UNL A   1      39.702  34.313  40.555  1.00  0.00     0.198 A 
ATOM     72  C   UNL A   1      41.278  35.780  39.493  1.00  0.00     0.198 A 
ATOM     73  F   UNL A   1      41.998  35.346  37.296  1.00  0.00    -0.203 F 
ATOM     74  F   UNL A   1      38.928  34.006  41.605  1.00  0.00    -0.200 F 
ATOM     75  C   UNL A   1      40.500  35.447  40.592  1.00  0.00     0.200 A 
ATOM     76  F   UNL A   1      42.058  36.869  39.532  1.00  0.00    -0.200 F 
ATOM     77  F   UNL A   1      40.512  36.224  41.684  1.00  0.00    -0.200 F 
ENDBRANCH  53  67
BRANCH  54  78
ATOM     78  C   UNL A   1      40.207  28.477  29.870  1.00  0.00     0.064 A 
ATOM     79  C   UNL A   1      40.863  28.945  28.723  1.00  0.00     0.173 A 
ATOM     80  C   UNL A   1      39.539  27.247  29.784  1.00  0.00     0.173 A 
ATOM     81  F   UNL A   1      41.499  30.126  28.751  1.00  0.00    -0.203 F 
ATOM     82  C   UNL A   1      40.833  28.225  27.531  1.00  0.00     0.198 A 
ATOM     83  C   UNL A   1      39.532  26.513  28.599  1.00  0.00     0.198 A 
ATOM     84  F   UNL A   1      38.900  26.753  30.855  1.00  0.00    -0.203 F 
ATOM     85  F   UNL A   1      41.429  28.717  26.437  1.00  0.00    -0.200 F 
ATOM     86  C   UNL A   1      40.172  27.006  27.471  1.00  0.00     0.200 A 
ATOM     87  F   UNL A   1      38.903  25.331  28.550  1.00  0.00    -0.200 F 
ATOM     88  F   UNL A   1      40.145  26.311  26.326  1.00  0.00    -0.200 F 
ENDBRANCH  54  78
BRANCH  66  89
ATOM     89  C   UNL A   1      44.285  28.387  35.515  1.00  0.00     0.064 A 
ATOM     90  C   UNL A   1      45.598  28.711  35.143  1.00  0.00     0.173 A 
ATOM     91  C   UNL A   1      44.086  27.239  36.296  1.00  0.00     0.173 A 
ATOM     92  F   UNL A   1      45.837  29.790  34.382  1.00  0.00    -0.203 F 
ATOM     93  C   UNL A   1      46.667  27.899  35.514  1.00  0.00     0.198 A 
ATOM     94  C   UNL A   1      45.160  26.446  36.691  1.00  0.00     0.198 A 
ATOM     95  F   UNL A   1      42.850  26.889  36.683  1.00  0.00    -0.203 F 
ATOM     96  F   UNL A   1      47.907  28.201  35.106  1.00  0.00    -0.200 F 
ATOM     97  C   UNL A   1      46.449  26.772  36.293  1.00  0.00     0.200 A 
ATOM     98  F   UNL A   1      44.949  25.364  37.453  1.00  0.00    -0.200 F 
ATOM     99  F   UNL A   1      47.479  25.995  36.653  1.00  0.00    -0.200 F 
ENDBRANCH  66  89
ENDBRANCH  40  41
ENDBRANCH  32  35
ENDBRANCH  30  31
ENDBRANCH  29  30
ENDBRANCH  28  29
ENDBRANCH   1  28
TORSDOF 16
ENDMDL
MODEL 2
REMARK VINA RESULT:     -11.9      0.113      1.561
REMARK SMILES Cc1nn(C)c(C)c1CNC(=O)N[C@H]1CC[C@@H](C(=O)NCCCCCCNC(=O)c2ccc(-c3c4nc(c(-c5c(F)c(F)c(F)c(F)c5F)c5ccc([nH]5)c(-c5c(F)c(F)c(F)c(F)c5F)c5nc(c(-c6c(F)c(F)c(F)c(F)c6F)c6ccc3[nH]6)C=C5)C=C4)cc2)C1
REMARK SMILES IDX 23 1 22 2 21 3 20 4 18 5 19 6 17 8 14 9 15 10 93 11 16 12
REMARK SMILES IDX 13 13 10 14 11 15 12 17 9 19 8 20 1 21 2 22 3 23 4 24 6 25
REMARK SMILES IDX 5 26 7 27 24 28 25 29 26 30 27 31 28 32 29 34 30 35 31 36
REMARK SMILES IDX 92 37 32 38 91 39 33 40 34 41 35 42 85 43 36 44 90 45 84 46
REMARK SMILES IDX 86 47 37 48 89 49 83 50 82 51 38 53 70 54 50 55 69 56 51 57
REMARK SMILES IDX 54 58 68 59 87 60 52 61 53 62 67 64 88 65 55 66 39 67 40 68
REMARK SMILES IDX 48 69 41 70 42 71 46 72 49 73 43 74 44 75 47 76 45 77 71 78
REMARK SMILES IDX 72 79 80 80 73 81 74 82 78 83 81 84 75 85 76 86 79 87 77 88
REMARK SMILES IDX 56 89 57 90 65 91 58 92 59 93 63 94 66 95 60 96 61 97 64 98
REMARK SMILES IDX 62 99
REMARK H PARENT 20 7 10 16 13 18 27 33 86 52 54 63
REMARK Flexibility Score: inf
ROOT
ATOM      1  C   UNL A   1      34.408  32.306  29.005  1.00  0.00     0.002 C 
ENDROOT
BRANCH   1   2
ATOM      2  C   UNL A   1      34.576  31.164  27.999  1.00  0.00     0.021 C 
BRANCH   2   3
ATOM      3  C   UNL A   1      33.357  30.902  27.116  1.00  0.00     0.116 C 
BRANCH   3   4
ATOM      4  N   UNL A   1      32.497  29.859  27.627  1.00  0.00    -0.356 N 
ATOM      5  C   UNL A   1      32.207  28.607  27.201  1.00  0.00     0.223 C 
ATOM      6  O   UNL A   1      31.540  27.917  27.984  1.00  0.00    -0.275 OA
ATOM      7  H   UNL A   1      32.025  30.110  28.454  1.00  0.00     0.163 HD
BRANCH   5   8
ATOM      8  C   UNL A   1      32.672  27.966  25.891  1.00  0.00     0.080 C 
ATOM      9  C   UNL A   1      32.526  25.649  25.085  1.00  0.00     0.084 C 
ATOM     10  C   UNL A   1      31.867  26.575  24.064  1.00  0.00     0.026 C 
ATOM     11  C   UNL A   1      33.428  26.634  25.853  1.00  0.00     0.038 C 
ATOM     12  C   UNL A   1      31.521  27.818  24.885  1.00  0.00     0.015 C 
BRANCH   9  13
ATOM     13  N   UNL A   1      31.473  25.024  25.889  1.00  0.00    -0.335 N 
ATOM     14  N   UNL A   1      31.813  22.691  25.902  1.00  0.00    -0.334 N 
ATOM     15  C   UNL A   1      31.210  23.795  26.340  1.00  0.00     0.315 C 
ATOM     16  H   UNL A   1      31.930  21.985  26.579  1.00  0.00     0.165 HD
ATOM     17  O   UNL A   1      30.387  23.689  27.251  1.00  0.00    -0.249 OA
ATOM     18  H   UNL A   1      30.788  25.673  26.167  1.00  0.00     0.165 HD
BRANCH  14  19
ATOM     19  C   UNL A   1      32.320  22.368  24.598  1.00  0.00     0.157 C 
BRANCH  19  20
ATOM     20  C   UNL A   1      33.673  21.747  24.668  1.00  0.00     0.015 A 
ATOM     21  C   UNL A   1      32.902  19.292  25.183  1.00  0.00     0.069 C 
ATOM     22  C   UNL A   1      33.900  20.368  24.949  1.00  0.00     0.065 A 
ATOM     23  N   UNL A   1      35.201  20.075  25.000  1.00  0.00    -0.178 NA
ATOM     24  N   UNL A   1      35.815  21.239  24.752  1.00  0.00    -0.272 N 
ATOM     25  C   UNL A   1      34.949  22.271  24.482  1.00  0.00     0.040 A 
ATOM     26  C   UNL A   1      37.259  21.264  24.820  1.00  0.00     0.174 C 
ATOM     27  C   UNL A   1      35.427  23.626  24.101  1.00  0.00     0.067 C 
ENDBRANCH  19  20
ENDBRANCH  14  19
ENDBRANCH   9  13
ENDBRANCH   5   8
ENDBRANCH   3   4
ENDBRANCH   2   3
ENDBRANCH   1   2
BRANCH   1  28
ATOM     28  C   UNL A   1      34.413  33.722  28.418  1.00  0.00     0.002 C 
BRANCH  28  29
ATOM     29  C   UNL A   1      33.126  34.530  28.597  1.00  0.00     0.021 C 
BRANCH  29  30
ATOM     30  C   UNL A   1      33.291  35.935  29.163  1.00  0.00     0.116 C 
BRANCH  30  31
ATOM     31  N   UNL A   1      32.528  36.142  30.380  1.00  0.00    -0.352 N 
ATOM     32  C   UNL A   1      32.728  35.668  31.647  1.00  0.00     0.251 C 
ATOM     33  H   UNL A   1      31.737  36.718  30.277  1.00  0.00     0.163 HD
ATOM     34  O   UNL A   1      31.854  35.840  32.502  1.00  0.00    -0.269 OA
BRANCH  32  35
ATOM     35  C   UNL A   1      33.964  34.941  32.016  1.00  0.00     0.039 A 
ATOM     36  C   UNL A   1      33.852  33.617  32.452  1.00  0.00     0.014 A 
ATOM     37  C   UNL A   1      35.217  35.561  32.000  1.00  0.00     0.014 A 
ATOM     38  C   UNL A   1      34.991  32.906  32.833  1.00  0.00     0.010 A 
ATOM     39  C   UNL A   1      36.363  34.828  32.309  1.00  0.00     0.010 A 
ATOM     40  C   UNL A   1      36.261  33.498  32.743  1.00  0.00    -0.014 A 
BRANCH  40  41
ATOM     41  C   UNL A   1      37.482  32.742  33.125  1.00  0.00     0.031 A 
ATOM     42  C   UNL A   1      38.178  33.032  34.427  1.00  0.00     0.074 A 
ATOM     43  C   UNL A   1      37.988  31.822  32.282  1.00  0.00     0.049 A 
ATOM     44  N   UNL A   1      39.273  32.507  34.917  1.00  0.00    -0.248 NA
ATOM     45  C   UNL A   1      37.577  34.068  35.281  1.00  0.00     0.031 C 
ATOM     46  C   UNL A   1      37.434  31.483  30.970  1.00  0.00     0.029 A 
ATOM     47  N   UNL A   1      39.085  31.006  32.400  1.00  0.00    -0.354 N 
ATOM     48  C   UNL A   1      39.498  33.156  36.123  1.00  0.00     0.074 A 
ATOM     49  C   UNL A   1      38.456  34.151  36.268  1.00  0.00     0.031 C 
ATOM     50  C   UNL A   1      38.181  30.515  30.415  1.00  0.00     0.029 A 
ATOM     51  C   UNL A   1      39.281  30.186  31.316  1.00  0.00     0.049 A 
ATOM     52  H   UNL A   1      39.676  31.010  33.187  1.00  0.00     0.167 HD
ATOM     53  C   UNL A   1      40.470  32.928  37.040  1.00  0.00     0.037 A 
ATOM     54  C   UNL A   1      40.241  29.272  31.077  1.00  0.00     0.037 A 
ATOM     55  C   UNL A   1      41.488  31.920  36.909  1.00  0.00     0.049 A 
ATOM     56  C   UNL A   1      41.296  29.025  32.119  1.00  0.00     0.074 A 
ATOM     57  C   UNL A   1      42.486  31.577  37.804  1.00  0.00     0.029 A 
ATOM     58  N   UNL A   1      41.635  31.087  35.809  1.00  0.00    -0.354 N 
ATOM     59  N   UNL A   1      41.462  29.604  33.283  1.00  0.00    -0.248 NA
ATOM     60  C   UNL A   1      42.292  27.986  31.819  1.00  0.00     0.031 C 
ATOM     61  C   UNL A   1      43.260  30.561  37.230  1.00  0.00     0.029 A 
ATOM     62  C   UNL A   1      42.715  30.240  35.997  1.00  0.00     0.049 A 
ATOM     63  H   UNL A   1      41.058  31.097  35.011  1.00  0.00     0.167 HD
ATOM     64  C   UNL A   1      42.561  28.985  33.864  1.00  0.00     0.074 A 
ATOM     65  C   UNL A   1      43.012  27.973  32.931  1.00  0.00     0.031 C 
ATOM     66  C   UNL A   1      43.146  29.232  35.062  1.00  0.00     0.037 A 
BRANCH  53  67
ATOM     67  C   UNL A   1      40.472  33.784  38.274  1.00  0.00     0.064 A 
ATOM     68  C   UNL A   1      39.701  33.452  39.399  1.00  0.00     0.173 A 
ATOM     69  C   UNL A   1      41.276  34.931  38.347  1.00  0.00     0.173 A 
ATOM     70  F   UNL A   1      38.906  32.373  39.377  1.00  0.00    -0.203 F 
ATOM     71  C   UNL A   1      39.711  34.254  40.538  1.00  0.00     0.198 A 
ATOM     72  C   UNL A   1      41.307  35.714  39.498  1.00  0.00     0.198 A 
ATOM     73  F   UNL A   1      42.037  35.292  37.302  1.00  0.00    -0.203 F 
ATOM     74  F   UNL A   1      38.927  33.944  41.580  1.00  0.00    -0.200 F 
ATOM     75  C   UNL A   1      40.519  35.379  40.589  1.00  0.00     0.200 A 
ATOM     76  F   UNL A   1      42.097  36.795  39.551  1.00  0.00    -0.200 F 
ATOM     77  F   UNL A   1      40.531  36.147  41.687  1.00  0.00    -0.200 F 
ENDBRANCH  53  67
BRANCH  54  78
ATOM     78  C   UNL A   1      40.225  28.498  29.810  1.00  0.00     0.064 A 
ATOM     79  C   UNL A   1      39.532  27.282  29.718  1.00  0.00     0.173 A 
ATOM     80  C   UNL A   1      40.899  28.953  28.668  1.00  0.00     0.173 A 
ATOM     81  F   UNL A   1      38.890  26.796  30.790  1.00  0.00    -0.203 F 
ATOM     82  C   UNL A   1      39.533  26.540  28.539  1.00  0.00     0.198 A 
ATOM     83  C   UNL A   1      40.877  28.224  27.480  1.00  0.00     0.198 A 
ATOM     84  F   UNL A   1      41.572  30.113  28.703  1.00  0.00    -0.203 F 
ATOM     85  F   UNL A   1      38.902  25.359  28.492  1.00  0.00    -0.200 F 
ATOM     86  C   UNL A   1      40.201  27.015  27.419  1.00  0.00     0.200 A 
ATOM     87  F   UNL A   1      41.512  28.692  26.398  1.00  0.00    -0.200 F 
ATOM     88  F   UNL A   1      40.199  26.303  26.284  1.00  0.00    -0.200 F 
ENDBRANCH  54  78
BRANCH  66  89
ATOM     89  C   UNL A   1      44.313  28.372  35.446  1.00  0.00     0.064 A 
ATOM     90  C   UNL A   1      44.142  27.173  36.154  1.00  0.00     0.173 A 
ATOM     91  C   UNL A   1      45.616  28.739  35.079  1.00  0.00     0.173 A 
ATOM     92  F   UNL A   1      42.917  26.787  36.542  1.00  0.00    -0.203 F 
ATOM     93  C   UNL A   1      45.238  26.388  36.505  1.00  0.00     0.198 A 
ATOM     94  C   UNL A   1      46.706  27.937  35.405  1.00  0.00     0.198 A 
ATOM     95  F   UNL A   1      45.832  29.874  34.395  1.00  0.00    -0.203 F 
ATOM     96  F   UNL A   1      45.056  25.272  37.224  1.00  0.00    -0.200 F 
ATOM     97  C   UNL A   1      46.517  26.767  36.125  1.00  0.00     0.200 A 
ATOM     98  F   UNL A   1      47.940  28.298  35.028  1.00  0.00    -0.200 F 
ATOM     99  F   UNL A   1      47.569  26.008  36.460  1.00  0.00    -0.200 F 
ENDBRANCH  66  89
ENDBRANCH  40  41
ENDBRANCH  32  35
ENDBRANCH  30  31
ENDBRANCH  29  30
ENDBRANCH  28  29
ENDBRANCH   1  28
TORSDOF 16
ENDMDL
MODEL 3
REMARK VINA RESULT:     -11.8      6.348     12.152
REMARK SMILES Cc1nn(C)c(C)c1CNC(=O)N[C@H]1CC[C@@H](C(=O)NCCCCCCNC(=O)c2ccc(-c3c4nc(c(-c5c(F)c(F)c(F)c(F)c5F)c5ccc([nH]5)c(-c5c(F)c(F)c(F)c(F)c5F)c5nc(c(-c6c(F)c(F)c(F)c(F)c6F)c6ccc3[nH]6)C=C5)C=C4)cc2)C1
REMARK SMILES IDX 23 1 22 2 21 3 20 4 18 5 19 6 17 8 14 9 15 10 93 11 16 12
REMARK SMILES IDX 13 13 10 14 11 15 12 17 9 19 8 20 1 21 2 22 3 23 4 24 6 25
REMARK SMILES IDX 5 26 7 27 24 28 25 29 26 30 27 31 28 32 29 34 30 35 31 36
REMARK SMILES IDX 92 37 32 38 91 39 33 40 34 41 35 42 85 43 36 44 90 45 84 46
REMARK SMILES IDX 86 47 37 48 89 49 83 50 82 51 38 53 70 54 50 55 69 56 51 57
REMARK SMILES IDX 54 58 68 59 87 60 52 61 53 62 67 64 88 65 55 66 39 67 40 68
REMARK SMILES IDX 48 69 41 70 42 71 46 72 49 73 43 74 44 75 47 76 45 77 71 78
REMARK SMILES IDX 72 79 80 80 73 81 74 82 78 83 81 84 75 85 76 86 79 87 77 88
REMARK SMILES IDX 56 89 57 90 65 91 58 92 59 93 63 94 66 95 60 96 61 97 64 98
REMARK SMILES IDX 62 99
REMARK H PARENT 20 7 10 16 13 18 27 33 86 52 54 63
REMARK Flexibility Score: inf
ROOT
ATOM      1  C   UNL A   1      40.721  22.104  26.164  1.00  0.00     0.002 C 
ENDROOT
BRANCH   1   2
ATOM      2  C   UNL A   1      39.299  22.639  26.348  1.00  0.00     0.021 C 
BRANCH   2   3
ATOM      3  C   UNL A   1      38.200  21.759  25.755  1.00  0.00     0.116 C 
BRANCH   3   4
ATOM      4  N   UNL A   1      37.760  22.199  24.450  1.00  0.00    -0.356 N 
ATOM      5  C   UNL A   1      36.622  22.778  24.004  1.00  0.00     0.223 C 
ATOM      6  O   UNL A   1      36.647  23.175  22.831  1.00  0.00    -0.275 OA
ATOM      7  H   UNL A   1      38.425  22.044  23.740  1.00  0.00     0.163 HD
BRANCH   5   8
ATOM      8  C   UNL A   1      35.354  23.033  24.824  1.00  0.00     0.080 C 
ATOM      9  C   UNL A   1      33.322  24.312  24.303  1.00  0.00     0.084 C 
ATOM     10  C   UNL A   1      32.929  22.883  24.673  1.00  0.00     0.026 C 
ATOM     11  C   UNL A   1      34.719  24.422  24.942  1.00  0.00     0.038 C 
ATOM     12  C   UNL A   1      34.211  22.088  24.421  1.00  0.00     0.015 C 
BRANCH   9  13
ATOM     13  N   UNL A   1      33.303  24.434  22.843  1.00  0.00    -0.335 N 
ATOM     14  N   UNL A   1      32.009  26.313  22.254  1.00  0.00    -0.334 N 
ATOM     15  C   UNL A   1      32.851  25.325  21.958  1.00  0.00     0.315 C 
ATOM     16  H   UNL A   1      32.135  27.138  21.730  1.00  0.00     0.165 HD
ATOM     17  O   UNL A   1      33.279  25.248  20.805  1.00  0.00    -0.249 OA
ATOM     18  H   UNL A   1      33.732  23.664  22.404  1.00  0.00     0.165 HD
BRANCH  14  19
ATOM     19  C   UNL A   1      30.946  26.367  23.218  1.00  0.00     0.157 C 
BRANCH  19  20
ATOM     20  C   UNL A   1      31.079  27.543  24.124  1.00  0.00     0.015 A 
ATOM     21  C   UNL A   1      30.304  29.383  22.422  1.00  0.00     0.069 C 
ATOM     22  C   UNL A   1      30.799  28.885  23.731  1.00  0.00     0.065 A 
ATOM     23  N   UNL A   1      31.041  29.755  24.713  1.00  0.00    -0.178 NA
ATOM     24  N   UNL A   1      31.467  28.998  25.733  1.00  0.00    -0.272 N 
ATOM     25  C   UNL A   1      31.452  27.651  25.461  1.00  0.00     0.040 A 
ATOM     26  C   UNL A   1      31.893  29.673  26.938  1.00  0.00     0.174 C 
ATOM     27  C   UNL A   1      31.809  26.633  26.484  1.00  0.00     0.067 C 
ENDBRANCH  19  20
ENDBRANCH  14  19
ENDBRANCH   9  13
ENDBRANCH   5   8
ENDBRANCH   3   4
ENDBRANCH   2   3
ENDBRANCH   1   2
BRANCH   1  28
ATOM     28  C   UNL A   1      41.064  20.830  26.946  1.00  0.00     0.002 C 
BRANCH  28  29
ATOM     29  C   UNL A   1      41.343  19.581  26.107  1.00  0.00     0.021 C 
BRANCH  29  30
ATOM     30  C   UNL A   1      42.647  18.853  26.405  1.00  0.00     0.116 C 
BRANCH  30  31
ATOM     31  N   UNL A   1      43.472  18.672  25.224  1.00  0.00    -0.352 N 
ATOM     32  C   UNL A   1      44.207  19.573  24.506  1.00  0.00     0.251 C 
ATOM     33  H   UNL A   1      43.507  17.749  24.884  1.00  0.00     0.163 HD
ATOM     34  O   UNL A   1      44.704  19.228  23.430  1.00  0.00    -0.269 OA
BRANCH  32  35
ATOM     35  C   UNL A   1      44.412  20.960  24.982  1.00  0.00     0.039 A 
ATOM     36  C   UNL A   1      43.870  22.008  24.230  1.00  0.00     0.014 A 
ATOM     37  C   UNL A   1      45.179  21.246  26.115  1.00  0.00     0.014 A 
ATOM     38  C   UNL A   1      44.062  23.331  24.632  1.00  0.00     0.010 A 
ATOM     39  C   UNL A   1      45.308  22.562  26.558  1.00  0.00     0.010 A 
ATOM     40  C   UNL A   1      44.764  23.619  25.813  1.00  0.00    -0.014 A 
BRANCH  40  41
ATOM     41  C   UNL A   1      44.955  25.023  26.262  1.00  0.00     0.031 A 
ATOM     42  C   UNL A   1      46.306  25.676  26.154  1.00  0.00     0.074 A 
ATOM     43  C   UNL A   1      43.922  25.697  26.802  1.00  0.00     0.049 A 
ATOM     44  N   UNL A   1      46.679  26.876  26.525  1.00  0.00    -0.248 NA
ATOM     45  C   UNL A   1      47.389  24.866  25.574  1.00  0.00     0.031 C 
ATOM     46  C   UNL A   1      42.577  25.160  27.006  1.00  0.00     0.029 A 
ATOM     47  N   UNL A   1      43.845  26.980  27.285  1.00  0.00    -0.354 N 
ATOM     48  C   UNL A   1      48.035  26.957  26.239  1.00  0.00     0.074 A 
ATOM     49  C   UNL A   1      48.432  25.669  25.712  1.00  0.00     0.031 C 
ATOM     50  C   UNL A   1      41.801  26.111  27.551  1.00  0.00     0.029 A 
ATOM     51  C   UNL A   1      42.600  27.314  27.762  1.00  0.00     0.049 A 
ATOM     52  H   UNL A   1      44.608  27.600  27.290  1.00  0.00     0.167 HD
ATOM     53  C   UNL A   1      48.869  28.016  26.379  1.00  0.00     0.037 A 
ATOM     54  C   UNL A   1      42.156  28.462  28.308  1.00  0.00     0.037 A 
ATOM     55  C   UNL A   1      48.466  29.305  26.876  1.00  0.00     0.049 A 
ATOM     56  C   UNL A   1      43.097  29.628  28.434  1.00  0.00     0.074 A 
ATOM     57  C   UNL A   1      49.223  30.456  27.009  1.00  0.00     0.029 A 
ATOM     58  N   UNL A   1      47.188  29.615  27.321  1.00  0.00    -0.354 N 
ATOM     59  N   UNL A   1      44.362  29.711  28.103  1.00  0.00    -0.248 NA
ATOM     60  C   UNL A   1      42.542  30.867  28.999  1.00  0.00     0.031 C 
ATOM     61  C   UNL A   1      48.414  31.452  27.568  1.00  0.00     0.029 A 
ATOM     62  C   UNL A   1      47.139  30.934  27.740  1.00  0.00     0.049 A 
ATOM     63  H   UNL A   1      46.429  28.989  27.337  1.00  0.00     0.167 HD
ATOM     64  C   UNL A   1      44.749  31.012  28.393  1.00  0.00     0.074 A 
ATOM     65  C   UNL A   1      43.578  31.689  28.912  1.00  0.00     0.031 C 
ATOM     66  C   UNL A   1      45.964  31.595  28.246  1.00  0.00     0.037 A 
BRANCH  53  67
ATOM     67  C   UNL A   1      50.303  27.825  25.980  1.00  0.00     0.064 A 
ATOM     68  C   UNL A   1      50.709  27.905  24.638  1.00  0.00     0.173 A 
ATOM     69  C   UNL A   1      51.290  27.591  26.949  1.00  0.00     0.173 A 
ATOM     70  F   UNL A   1      49.804  28.115  23.671  1.00  0.00    -0.203 F 
ATOM     71  C   UNL A   1      52.043  27.726  24.280  1.00  0.00     0.198 A 
ATOM     72  C   UNL A   1      52.627  27.443  26.591  1.00  0.00     0.198 A 
ATOM     73  F   UNL A   1      50.959  27.511  28.246  1.00  0.00    -0.203 F 
ATOM     74  F   UNL A   1      52.398  27.755  22.988  1.00  0.00    -0.200 F 
ATOM     75  C   UNL A   1      53.002  27.502  25.256  1.00  0.00     0.200 A 
ATOM     76  F   UNL A   1      53.555  27.237  27.536  1.00  0.00    -0.200 F 
ATOM     77  F   UNL A   1      54.285  27.335  24.910  1.00  0.00    -0.200 F 
ENDBRANCH  53  67
BRANCH  54  78
ATOM     78  C   UNL A   1      40.741  28.574  28.743  1.00  0.00     0.064 A 
ATOM     79  C   UNL A   1      39.747  29.006  27.854  1.00  0.00     0.173 A 
ATOM     80  C   UNL A   1      40.352  28.254  30.052  1.00  0.00     0.173 A 
ATOM     81  F   UNL A   1      40.073  29.343  26.598  1.00  0.00    -0.203 F 
ATOM     82  C   UNL A   1      38.421  29.135  28.263  1.00  0.00     0.198 A 
ATOM     83  C   UNL A   1      39.022  28.356  30.453  1.00  0.00     0.198 A 
ATOM     84  F   UNL A   1      41.265  27.831  30.939  1.00  0.00    -0.203 F 
ATOM     85  F   UNL A   1      37.499  29.594  27.406  1.00  0.00    -0.200 F 
ATOM     86  C   UNL A   1      38.058  28.805  29.561  1.00  0.00     0.200 A 
ATOM     87  F   UNL A   1      38.674  28.025  31.704  1.00  0.00    -0.200 F 
ATOM     88  F   UNL A   1      36.783  28.926  29.954  1.00  0.00    -0.200 F 
ENDBRANCH  54  78
BRANCH  66  89
ATOM     89  C   UNL A   1      46.079  33.044  28.617  1.00  0.00     0.064 A 
ATOM     90  C   UNL A   1      45.863  34.063  27.678  1.00  0.00     0.173 A 
ATOM     91  C   UNL A   1      46.384  33.417  29.934  1.00  0.00     0.173 A 
ATOM     92  F   UNL A   1      45.585  33.758  26.401  1.00  0.00    -0.203 F 
ATOM     93  C   UNL A   1      45.977  35.404  28.039  1.00  0.00     0.198 A 
ATOM     94  C   UNL A   1      46.468  34.757  30.299  1.00  0.00     0.198 A 
ATOM     95  F   UNL A   1      46.593  32.480  30.871  1.00  0.00    -0.203 F 
ATOM     96  F   UNL A   1      45.815  36.360  27.114  1.00  0.00    -0.200 F 
ATOM     97  C   UNL A   1      46.272  35.750  29.349  1.00  0.00     0.200 A 
ATOM     98  F   UNL A   1      46.742  35.091  31.567  1.00  0.00    -0.200 F 
ATOM     99  F   UNL A   1      46.378  37.040  29.695  1.00  0.00    -0.200 F 
ENDBRANCH  66  89
ENDBRANCH  40  41
ENDBRANCH  32  35
ENDBRANCH  30  31
ENDBRANCH  29  30
ENDBRANCH  28  29
ENDBRANCH   1  28
TORSDOF 16
ENDMDL
