MODEL 1
REMARK VINA RESULT:     -12.0      0.000      0.000
REMARK SMILES CC(=O)N[C@@H](CSCc1ccnc2ccccc12)C(=O)NCCCCCCNC(=O)c1ccc(-c2c3nc(c(-c4c(F)c(F)c(F)c(F)c4F)c4ccc([nH]4)c(-c4c(F)c(F)c(F)c(F)c4F)c4nc(c(-c5c(F)c(F)c(F)c(F)c5F)c5ccc2[nH]5)C=C4)C=C3)cc1
REMARK SMILES IDX 23 1 22 2 21 3 19 4 20 5 5 7 4 8 1 9 2 10 3 11 6 13 7 14
REMARK SMILES IDX 8 15 9 16 10 17 18 18 11 19 13 20 17 21 12 22 14 23 16 24
REMARK SMILES IDX 15 25 24 26 25 27 26 28 27 29 28 30 29 31 30 33 31 34 32 35
REMARK SMILES IDX 93 36 33 37 92 38 34 39 35 40 36 41 86 42 37 43 91 44 85 45
REMARK SMILES IDX 87 46 38 47 90 48 84 49 83 50 39 52 71 53 51 54 70 55 52 56
REMARK SMILES IDX 55 57 69 58 88 59 53 60 54 61 68 63 89 64 56 65 40 66 41 67
REMARK SMILES IDX 49 68 42 69 43 70 47 71 50 72 44 73 45 74 48 75 46 76 72 77
REMARK SMILES IDX 73 78 81 79 74 80 75 81 79 82 82 83 76 84 77 85 80 86 78 87
REMARK SMILES IDX 57 88 58 89 66 90 59 91 60 92 64 93 67 94 61 95 62 96 65 97
REMARK SMILES IDX 63 98
REMARK H PARENT 21 6 4 12 28 32 87 51 55 62
REMARK Flexibility Score: inf
ROOT
ATOM      1  C   UNL A   1      31.825  28.527  26.972  1.00  0.00     0.021 C 
ENDROOT
BRANCH   1   2
ATOM      2  C   UNL A   1      32.811  27.512  26.425  1.00  0.00     0.116 C 
BRANCH   2   3
ATOM      3  N   UNL A   1      33.678  28.045  25.405  1.00  0.00    -0.354 N 
ATOM      4  C   UNL A   1      33.441  28.131  24.062  1.00  0.00     0.243 C 
ATOM      5  O   UNL A   1      34.243  28.755  23.363  1.00  0.00    -0.273 OA
ATOM      6  H   UNL A   1      34.547  28.391  25.713  1.00  0.00     0.163 HD
BRANCH   4   7
ATOM      7  C   UNL A   1      32.202  27.459  23.440  1.00  0.00     0.181 C 
BRANCH   7   8
ATOM      8  N   UNL A   1      31.587  28.389  22.495  1.00  0.00    -0.344 N 
ATOM      9  C   UNL A   1      29.227  28.109  23.176  1.00  0.00     0.114 C 
ATOM     10  C   UNL A   1      30.293  28.782  22.366  1.00  0.00     0.217 C 
ATOM     11  O   UNL A   1      30.043  29.698  21.584  1.00  0.00    -0.275 OA
ATOM     12  H   UNL A   1      32.210  28.795  21.850  1.00  0.00     0.164 HD
ENDBRANCH   7   8
BRANCH   7  13
ATOM     13  C   UNL A   1      32.478  25.993  22.990  1.00  0.00     0.105 C 
BRANCH  13  14
ATOM     14  S   UNL A   1      31.622  24.403  23.466  1.00  0.00    -0.154 SA
BRANCH  14  15
ATOM     15  C   UNL A   1      32.480  23.044  22.613  1.00  0.00     0.105 C 
BRANCH  15  16
ATOM     16  C   UNL A   1      33.207  22.012  23.444  1.00  0.00    -0.027 A 
ATOM     17  C   UNL A   1      32.522  20.819  23.725  1.00  0.00     0.025 A 
ATOM     18  C   UNL A   1      34.474  22.208  24.054  1.00  0.00     0.004 A 
ATOM     19  C   UNL A   1      33.121  19.872  24.533  1.00  0.00     0.112 A 
ATOM     20  C   UNL A   1      35.015  21.152  24.821  1.00  0.00     0.070 A 
ATOM     21  C   UNL A   1      35.227  23.395  23.962  1.00  0.00     0.010 A 
ATOM     22  N   UNL A   1      34.351  20.011  25.059  1.00  0.00    -0.256 NA
ATOM     23  C   UNL A   1      36.284  21.300  25.370  1.00  0.00     0.029 A 
ATOM     24  C   UNL A   1      36.499  23.525  24.505  1.00  0.00     0.001 A 
ATOM     25  C   UNL A   1      37.038  22.463  25.203  1.00  0.00     0.002 A 
ENDBRANCH  15  16
ENDBRANCH  14  15
ENDBRANCH  13  14
ENDBRANCH   7  13
ENDBRANCH   4   7
ENDBRANCH   2   3
ENDBRANCH   1   2
BRANCH   1  26
ATOM     26  C   UNL A   1      32.310  29.967  26.846  1.00  0.00     0.002 C 
BRANCH  26  27
ATOM     27  C   UNL A   1      31.411  30.870  25.992  1.00  0.00     0.002 C 
BRANCH  27  28
ATOM     28  C   UNL A   1      31.293  32.321  26.473  1.00  0.00     0.021 C 
BRANCH  28  29
ATOM     29  C   UNL A   1      32.506  32.833  27.242  1.00  0.00     0.116 C 
BRANCH  29  30
ATOM     30  N   UNL A   1      32.360  34.231  27.612  1.00  0.00    -0.352 N 
ATOM     31  C   UNL A   1      32.975  34.948  28.604  1.00  0.00     0.251 C 
ATOM     32  H   UNL A   1      31.722  34.742  27.064  1.00  0.00     0.163 HD
ATOM     33  O   UNL A   1      32.557  36.057  28.911  1.00  0.00    -0.269 OA
BRANCH  31  34
ATOM     34  C   UNL A   1      34.138  34.376  29.310  1.00  0.00     0.039 A 
ATOM     35  C   UNL A   1      33.924  33.671  30.496  1.00  0.00     0.014 A 
ATOM     36  C   UNL A   1      35.434  34.562  28.821  1.00  0.00     0.014 A 
ATOM     37  C   UNL A   1      35.009  33.108  31.167  1.00  0.00     0.010 A 
ATOM     38  C   UNL A   1      36.506  33.938  29.450  1.00  0.00     0.010 A 
ATOM     39  C   UNL A   1      36.305  33.212  30.634  1.00  0.00    -0.014 A 
BRANCH  39  40
ATOM     40  C   UNL A   1      37.461  32.571  31.305  1.00  0.00     0.031 A 
ATOM     41  C   UNL A   1      38.182  31.432  30.643  1.00  0.00     0.074 A 
ATOM     42  C   UNL A   1      37.822  32.981  32.536  1.00  0.00     0.049 A 
ATOM     43  N   UNL A   1      39.173  30.705  31.096  1.00  0.00    -0.248 NA
ATOM     44  C   UNL A   1      37.712  31.038  29.306  1.00  0.00     0.031 C 
ATOM     45  C   UNL A   1      37.168  34.048  33.297  1.00  0.00     0.029 A 
ATOM     46  N   UNL A   1      38.820  32.543  33.369  1.00  0.00    -0.354 N 
ATOM     47  C   UNL A   1      39.434  29.766  30.106  1.00  0.00     0.074 A 
ATOM     48  C   UNL A   1      38.462  29.976  29.056  1.00  0.00     0.031 C 
ATOM     49  C   UNL A   1      37.797  34.198  34.473  1.00  0.00     0.029 A 
ATOM     50  C   UNL A   1      38.869  33.212  34.567  1.00  0.00     0.049 A 
ATOM     51  H   UNL A   1      39.442  31.819  33.130  1.00  0.00     0.167 HD
ATOM     52  C   UNL A   1      40.413  28.830  30.068  1.00  0.00     0.037 A 
ATOM     53  C   UNL A   1      39.684  33.042  35.625  1.00  0.00     0.037 A 
ATOM     54  C   UNL A   1      41.388  28.641  31.110  1.00  0.00     0.049 A 
ATOM     55  C   UNL A   1      40.752  31.983  35.564  1.00  0.00     0.074 A 
ATOM     56  C   UNL A   1      42.455  27.759  31.142  1.00  0.00     0.029 A 
ATOM     57  N   UNL A   1      41.412  29.342  32.306  1.00  0.00    -0.354 N 
ATOM     58  N   UNL A   1      41.035  31.148  34.594  1.00  0.00    -0.248 NA
ATOM     59  C   UNL A   1      41.616  31.847  36.745  1.00  0.00     0.031 C 
ATOM     60  C   UNL A   1      43.093  27.891  32.380  1.00  0.00     0.029 A 
ATOM     61  C   UNL A   1      42.460  28.895  33.096  1.00  0.00     0.049 A 
ATOM     62  H   UNL A   1      40.780  30.053  32.557  1.00  0.00     0.167 HD
ATOM     63  C   UNL A   1      42.124  30.409  35.033  1.00  0.00     0.074 A 
ATOM     64  C   UNL A   1      42.461  30.906  36.351  1.00  0.00     0.031 C 
ATOM     65  C   UNL A   1      42.785  29.405  34.404  1.00  0.00     0.037 A 
BRANCH  52  66
ATOM     66  C   UNL A   1      40.476  27.938  28.861  1.00  0.00     0.064 A 
ATOM     67  C   UNL A   1      39.772  26.726  28.803  1.00  0.00     0.173 A 
ATOM     68  C   UNL A   1      41.222  28.317  27.734  1.00  0.00     0.173 A 
ATOM     69  F   UNL A   1      39.054  26.310  29.857  1.00  0.00    -0.203 F 
ATOM     70  C   UNL A   1      39.835  25.913  27.674  1.00  0.00     0.198 A 
ATOM     71  C   UNL A   1      41.255  27.518  26.595  1.00  0.00     0.198 A 
ATOM     72  F   UNL A   1      41.910  29.469  27.734  1.00  0.00    -0.203 F 
ATOM     73  F   UNL A   1      39.196  24.735  27.662  1.00  0.00    -0.200 F 
ATOM     74  C   UNL A   1      40.570  26.313  26.568  1.00  0.00     0.200 A 
ATOM     75  F   UNL A   1      41.955  27.913  25.521  1.00  0.00    -0.200 F 
ATOM     76  F   UNL A   1      40.623  25.533  25.479  1.00  0.00    -0.200 F 
ENDBRANCH  52  66
BRANCH  53  77
ATOM     77  C   UNL A   1      39.536  33.908  36.825  1.00  0.00     0.064 A 
ATOM     78  C   UNL A   1      40.164  35.159  36.892  1.00  0.00     0.173 A 
ATOM     79  C   UNL A   1      38.772  33.501  37.929  1.00  0.00     0.173 A 
ATOM     80  F   UNL A   1      40.920  35.584  35.869  1.00  0.00    -0.203 F 
ATOM     81  C   UNL A   1      40.055  35.959  38.027  1.00  0.00     0.198 A 
ATOM     82  C   UNL A   1      38.638  34.316  39.051  1.00  0.00     0.198 A 
ATOM     83  F   UNL A   1      38.145  32.316  37.912  1.00  0.00    -0.203 F 
ATOM     84  F   UNL A   1      40.707  37.129  38.084  1.00  0.00    -0.200 F 
ATOM     85  C   UNL A   1      39.288  35.540  39.103  1.00  0.00     0.200 A 
ATOM     86  F   UNL A   1      37.882  33.914  40.081  1.00  0.00    -0.200 F 
ATOM     87  F   UNL A   1      39.180  36.312  40.193  1.00  0.00    -0.200 F 
ENDBRANCH  53  77
BRANCH  65  88
ATOM     88  C   UNL A   1      43.959  28.801  35.118  1.00  0.00     0.064 A 
ATOM     89  C   UNL A   1      45.254  29.324  34.981  1.00  0.00     0.173 A 
ATOM     90  C   UNL A   1      43.781  27.709  35.980  1.00  0.00     0.173 A 
ATOM     91  F   UNL A   1      45.481  30.359  34.158  1.00  0.00    -0.203 F 
ATOM     92  C   UNL A   1      46.330  28.757  35.658  1.00  0.00     0.198 A 
ATOM     93  C   UNL A   1      44.853  27.165  36.682  1.00  0.00     0.198 A 
ATOM     94  F   UNL A   1      42.562  27.175  36.152  1.00  0.00    -0.203 F 
ATOM     95  F   UNL A   1      47.566  29.240  35.472  1.00  0.00    -0.200 F 
ATOM     96  C   UNL A   1      46.127  27.684  36.513  1.00  0.00     0.200 A 
ATOM     97  F   UNL A   1      44.653  26.138  37.519  1.00  0.00    -0.200 F 
ATOM     98  F   UNL A   1      47.164  27.145  37.171  1.00  0.00    -0.200 F 
ENDBRANCH  65  88
ENDBRANCH  39  40
ENDBRANCH  31  34
ENDBRANCH  29  30
ENDBRANCH  28  29
ENDBRANCH  27  28
ENDBRANCH  26  27
ENDBRANCH   1  26
TORSDOF 18
ENDMDL
MODEL 2
REMARK VINA RESULT:     -11.8      1.401      2.587
REMARK SMILES CC(=O)N[C@@H](CSCc1ccnc2ccccc12)C(=O)NCCCCCCNC(=O)c1ccc(-c2c3nc(c(-c4c(F)c(F)c(F)c(F)c4F)c4ccc([nH]4)c(-c4c(F)c(F)c(F)c(F)c4F)c4nc(c(-c5c(F)c(F)c(F)c(F)c5F)c5ccc2[nH]5)C=C4)C=C3)cc1
REMARK SMILES IDX 23 1 22 2 21 3 19 4 20 5 5 7 4 8 1 9 2 10 3 11 6 13 7 14
REMARK SMILES IDX 8 15 9 16 10 17 18 18 11 19 13 20 17 21 12 22 14 23 16 24
REMARK SMILES IDX 15 25 24 26 25 27 26 28 27 29 28 30 29 31 30 33 31 34 32 35
REMARK SMILES IDX 93 36 33 37 92 38 34 39 35 40 36 41 86 42 37 43 91 44 85 45
REMARK SMILES IDX 87 46 38 47 90 48 84 49 83 50 39 52 71 53 51 54 70 55 52 56
REMARK SMILES IDX 55 57 69 58 88 59 53 60 54 61 68 63 89 64 56 65 40 66 41 67
REMARK SMILES IDX 49 68 42 69 43 70 47 71 50 72 44 73 45 74 48 75 46 76 72 77
REMARK SMILES IDX 73 78 81 79 74 80 75 81 79 82 82 83 76 84 77 85 80 86 78 87
REMARK SMILES IDX 57 88 58 89 66 90 59 91 60 92 64 93 67 94 61 95 62 96 65 97
REMARK SMILES IDX 63 98
REMARK H PARENT 21 6 4 12 28 32 87 51 55 62
REMARK Flexibility Score: inf
ROOT
ATOM      1  C   UNL A   1      31.851  29.039  27.619  1.00  0.00     0.021 C 
ENDROOT
BRANCH   1   2
ATOM      2  C   UNL A   1      31.873  27.664  26.979  1.00  0.00     0.116 C 
BRANCH   2   3
ATOM      3  N   UNL A   1      30.914  27.510  25.915  1.00  0.00    -0.354 N 
ATOM      4  C   UNL A   1      30.640  26.388  25.186  1.00  0.00     0.243 C 
ATOM      5  O   UNL A   1      29.679  26.409  24.413  1.00  0.00    -0.273 OA
ATOM      6  H   UNL A   1      30.392  28.313  25.684  1.00  0.00     0.163 HD
BRANCH   4   7
ATOM      7  C   UNL A   1      31.516  25.128  25.328  1.00  0.00     0.181 C 
BRANCH   7   8
ATOM      8  N   UNL A   1      30.647  23.971  25.531  1.00  0.00    -0.344 N 
ATOM      9  C   UNL A   1      32.007  22.772  27.212  1.00  0.00     0.114 C 
ATOM     10  C   UNL A   1      30.760  22.929  26.395  1.00  0.00     0.217 C 
ATOM     11  O   UNL A   1      29.815  22.147  26.484  1.00  0.00    -0.275 OA
ATOM     12  H   UNL A   1      29.854  23.943  24.949  1.00  0.00     0.164 HD
ENDBRANCH   7   8
BRANCH   7  13
ATOM     13  C   UNL A   1      32.637  25.054  24.248  1.00  0.00     0.105 C 
BRANCH  13  14
ATOM     14  S   UNL A   1      32.516  24.954  22.387  1.00  0.00    -0.154 SA
BRANCH  14  15
ATOM     15  C   UNL A   1      33.126  23.314  21.887  1.00  0.00     0.105 C 
BRANCH  15  16
ATOM     16  C   UNL A   1      33.400  22.286  22.960  1.00  0.00    -0.027 A 
ATOM     17  C   UNL A   1      32.340  21.439  23.319  1.00  0.00     0.025 A 
ATOM     18  C   UNL A   1      34.604  22.192  23.706  1.00  0.00     0.004 A 
ATOM     19  C   UNL A   1      32.522  20.525  24.339  1.00  0.00     0.112 A 
ATOM     20  C   UNL A   1      34.700  21.186  24.694  1.00  0.00     0.070 A 
ATOM     21  C   UNL A   1      35.711  23.048  23.542  1.00  0.00     0.010 A 
ATOM     22  N   UNL A   1      33.680  20.373  25.006  1.00  0.00    -0.256 NA
ATOM     23  C   UNL A   1      35.896  21.036  25.387  1.00  0.00     0.029 A 
ATOM     24  C   UNL A   1      36.904  22.878  24.233  1.00  0.00     0.001 A 
ATOM     25  C   UNL A   1      37.002  21.854  25.154  1.00  0.00     0.002 A 
ENDBRANCH  15  16
ENDBRANCH  14  15
ENDBRANCH  13  14
ENDBRANCH   7  13
ENDBRANCH   4   7
ENDBRANCH   2   3
ENDBRANCH   1   2
BRANCH   1  26
ATOM     26  C   UNL A   1      32.442  30.127  26.729  1.00  0.00     0.002 C 
BRANCH  26  27
ATOM     27  C   UNL A   1      31.402  30.994  26.006  1.00  0.00     0.002 C 
BRANCH  27  28
ATOM     28  C   UNL A   1      31.287  32.436  26.511  1.00  0.00     0.021 C 
BRANCH  28  29
ATOM     29  C   UNL A   1      32.529  32.958  27.227  1.00  0.00     0.116 C 
BRANCH  29  30
ATOM     30  N   UNL A   1      32.375  34.344  27.636  1.00  0.00    -0.352 N 
ATOM     31  C   UNL A   1      32.982  35.035  28.651  1.00  0.00     0.251 C 
ATOM     32  H   UNL A   1      31.737  34.867  27.100  1.00  0.00     0.163 HD
ATOM     33  O   UNL A   1      32.557  36.133  28.987  1.00  0.00    -0.269 OA
BRANCH  31  34
ATOM     34  C   UNL A   1      34.144  34.448  29.346  1.00  0.00     0.039 A 
ATOM     35  C   UNL A   1      33.931  33.731  30.524  1.00  0.00     0.014 A 
ATOM     36  C   UNL A   1      35.439  34.632  28.854  1.00  0.00     0.014 A 
ATOM     37  C   UNL A   1      35.015  33.154  31.185  1.00  0.00     0.010 A 
ATOM     38  C   UNL A   1      36.510  33.995  29.473  1.00  0.00     0.010 A 
ATOM     39  C   UNL A   1      36.309  33.256  30.649  1.00  0.00    -0.014 A 
BRANCH  39  40
ATOM     40  C   UNL A   1      37.464  32.601  31.309  1.00  0.00     0.031 A 
ATOM     41  C   UNL A   1      38.170  31.459  30.635  1.00  0.00     0.074 A 
ATOM     42  C   UNL A   1      37.837  33.001  32.539  1.00  0.00     0.049 A 
ATOM     43  N   UNL A   1      39.156  30.720  31.077  1.00  0.00    -0.248 NA
ATOM     44  C   UNL A   1      37.686  31.077  29.299  1.00  0.00     0.031 C 
ATOM     45  C   UNL A   1      37.198  34.069  33.310  1.00  0.00     0.029 A 
ATOM     46  N   UNL A   1      38.836  32.549  33.363  1.00  0.00    -0.354 N 
ATOM     47  C   UNL A   1      39.402  29.785  30.080  1.00  0.00     0.074 A 
ATOM     48  C   UNL A   1      38.426  30.010  29.038  1.00  0.00     0.031 C 
ATOM     49  C   UNL A   1      37.836  34.206  34.483  1.00  0.00     0.029 A 
ATOM     50  C   UNL A   1      38.900  33.211  34.565  1.00  0.00     0.049 A 
ATOM     51  H   UNL A   1      39.450  31.820  33.115  1.00  0.00     0.167 HD
ATOM     52  C   UNL A   1      40.372  28.840  30.031  1.00  0.00     0.037 A 
ATOM     53  C   UNL A   1      39.720  33.027  35.616  1.00  0.00     0.037 A 
ATOM     54  C   UNL A   1      41.353  28.636  31.064  1.00  0.00     0.049 A 
ATOM     55  C   UNL A   1      40.777  31.958  35.541  1.00  0.00     0.074 A 
ATOM     56  C   UNL A   1      42.412  27.745  31.085  1.00  0.00     0.029 A 
ATOM     57  N   UNL A   1      41.392  29.330  32.265  1.00  0.00    -0.354 N 
ATOM     58  N   UNL A   1      41.046  31.126  34.565  1.00  0.00    -0.248 NA
ATOM     59  C   UNL A   1      41.648  31.808  36.716  1.00  0.00     0.031 C 
ATOM     60  C   UNL A   1      43.060  27.864  32.319  1.00  0.00     0.029 A 
ATOM     61  C   UNL A   1      42.441  28.869  33.045  1.00  0.00     0.049 A 
ATOM     62  H   UNL A   1      40.767  30.046  32.523  1.00  0.00     0.167 HD
ATOM     63  C   UNL A   1      42.131  30.375  34.993  1.00  0.00     0.074 A 
ATOM     64  C   UNL A   1      42.482  30.861  36.311  1.00  0.00     0.031 C 
ATOM     65  C   UNL A   1      42.779  29.369  34.354  1.00  0.00     0.037 A 
BRANCH  52  66
ATOM     66  C   UNL A   1      40.420  27.955  28.818  1.00  0.00     0.064 A 
ATOM     67  C   UNL A   1      41.178  28.296  27.688  1.00  0.00     0.173 A 
ATOM     68  C   UNL A   1      39.728  26.734  28.800  1.00  0.00     0.173 A 
ATOM     69  F   UNL A   1      41.848  29.456  27.647  1.00  0.00    -0.203 F 
ATOM     70  C   UNL A   1      41.218  27.461  26.572  1.00  0.00     0.198 A 
ATOM     71  C   UNL A   1      39.798  25.887  27.697  1.00  0.00     0.198 A 
ATOM     72  F   UNL A   1      38.993  26.356  29.856  1.00  0.00    -0.203 F 
ATOM     73  F   UNL A   1      41.907  27.833  25.485  1.00  0.00    -0.200 F 
ATOM     74  C   UNL A   1      40.535  26.255  26.581  1.00  0.00     0.200 A 
ATOM     75  F   UNL A   1      39.148  24.714  27.712  1.00  0.00    -0.200 F 
ATOM     76  F   UNL A   1      40.581  25.449  25.511  1.00  0.00    -0.200 F 
ENDBRANCH  52  66
BRANCH  53  77
ATOM     77  C   UNL A   1      39.587  33.888  36.821  1.00  0.00     0.064 A 
ATOM     78  C   UNL A   1      38.830  33.470  37.925  1.00  0.00     0.173 A 
ATOM     79  C   UNL A   1      40.205  35.145  36.893  1.00  0.00     0.173 A 
ATOM     80  F   UNL A   1      38.204  32.285  37.895  1.00  0.00    -0.203 F 
ATOM     81  C   UNL A   1      38.675  34.287  39.043  1.00  0.00     0.198 A 
ATOM     82  C   UNL A   1      40.076  35.947  38.025  1.00  0.00     0.198 A 
ATOM     83  F   UNL A   1      40.948  35.588  35.867  1.00  0.00    -0.203 F 
ATOM     84  F   UNL A   1      37.905  33.883  40.062  1.00  0.00    -0.200 F 
ATOM     85  C   UNL A   1      39.303  35.521  39.094  1.00  0.00     0.200 A 
ATOM     86  F   UNL A   1      40.699  37.132  38.077  1.00  0.00    -0.200 F 
ATOM     87  F   UNL A   1      39.158  36.305  40.172  1.00  0.00    -0.200 F 
ENDBRANCH  53  77
BRANCH  65  88
ATOM     88  C   UNL A   1      43.952  28.750  35.056  1.00  0.00     0.064 A 
ATOM     89  C   UNL A   1      43.806  27.633  35.892  1.00  0.00     0.173 A 
ATOM     90  C   UNL A   1      45.245  29.259  34.861  1.00  0.00     0.173 A 
ATOM     91  F   UNL A   1      42.589  27.118  36.123  1.00  0.00    -0.203 F 
ATOM     92  C   UNL A   1      44.907  27.067  36.528  1.00  0.00     0.198 A 
ATOM     93  C   UNL A   1      46.349  28.669  35.472  1.00  0.00     0.198 A 
ATOM     94  F   UNL A   1      45.441  30.322  34.066  1.00  0.00    -0.203 F 
ATOM     95  F   UNL A   1      44.737  26.032  37.363  1.00  0.00    -0.200 F 
ATOM     96  C   UNL A   1      46.177  27.579  36.311  1.00  0.00     0.200 A 
ATOM     97  F   UNL A   1      47.576  29.157  35.249  1.00  0.00    -0.200 F 
ATOM     98  F   UNL A   1      47.237  27.027  36.918  1.00  0.00    -0.200 F 
ENDBRANCH  65  88
ENDBRANCH  39  40
ENDBRANCH  31  34
ENDBRANCH  29  30
ENDBRANCH  28  29
ENDBRANCH  27  28
ENDBRANCH  26  27
ENDBRANCH   1  26
TORSDOF 18
ENDMDL
MODEL 3
REMARK VINA RESULT:     -11.8      5.181      9.888
REMARK SMILES CC(=O)N[C@@H](CSCc1ccnc2ccccc12)C(=O)NCCCCCCNC(=O)c1ccc(-c2c3nc(c(-c4c(F)c(F)c(F)c(F)c4F)c4ccc([nH]4)c(-c4c(F)c(F)c(F)c(F)c4F)c4nc(c(-c5c(F)c(F)c(F)c(F)c5F)c5ccc2[nH]5)C=C4)C=C3)cc1
REMARK SMILES IDX 23 1 22 2 21 3 19 4 20 5 5 7 4 8 1 9 2 10 3 11 6 13 7 14
REMARK SMILES IDX 8 15 9 16 10 17 18 18 11 19 13 20 17 21 12 22 14 23 16 24
REMARK SMILES IDX 15 25 24 26 25 27 26 28 27 29 28 30 29 31 30 33 31 34 32 35
REMARK SMILES IDX 93 36 33 37 92 38 34 39 35 40 36 41 86 42 37 43 91 44 85 45
REMARK SMILES IDX 87 46 38 47 90 48 84 49 83 50 39 52 71 53 51 54 70 55 52 56
REMARK SMILES IDX 55 57 69 58 88 59 53 60 54 61 68 63 89 64 56 65 40 66 41 67
REMARK SMILES IDX 49 68 42 69 43 70 47 71 50 72 44 73 45 74 48 75 46 76 72 77
REMARK SMILES IDX 73 78 81 79 74 80 75 81 79 82 82 83 76 84 77 85 80 86 78 87
REMARK SMILES IDX 57 88 58 89 66 90 59 91 60 92 64 93 67 94 61 95 62 96 65 97
REMARK SMILES IDX 63 98
REMARK H PARENT 21 6 4 12 28 32 87 51 55 62
REMARK Flexibility Score: inf
ROOT
ATOM      1  C   UNL A   1      37.037  23.355  26.123  1.00  0.00     0.021 C 
ENDROOT
BRANCH   1   2
ATOM      2  C   UNL A   1      35.637  22.832  25.862  1.00  0.00     0.116 C 
BRANCH   2   3
ATOM      3  N   UNL A   1      34.814  22.776  27.043  1.00  0.00    -0.354 N 
ATOM      4  C   UNL A   1      33.491  22.451  27.131  1.00  0.00     0.243 C 
ATOM      5  O   UNL A   1      32.992  22.314  28.251  1.00  0.00    -0.273 OA
ATOM      6  H   UNL A   1      35.262  22.999  27.892  1.00  0.00     0.163 HD
BRANCH   4   7
ATOM      7  C   UNL A   1      32.643  22.265  25.858  1.00  0.00     0.181 C 
BRANCH   7   8
ATOM      8  N   UNL A   1      32.165  20.886  25.809  1.00  0.00    -0.344 N 
ATOM      9  C   UNL A   1      34.106  19.858  24.672  1.00  0.00     0.114 C 
ATOM     10  C   UNL A   1      32.781  19.758  25.368  1.00  0.00     0.217 C 
ATOM     11  O   UNL A   1      32.226  18.679  25.569  1.00  0.00    -0.275 OA
ATOM     12  H   UNL A   1      31.251  20.752  26.150  1.00  0.00     0.164 HD
ENDBRANCH   7   8
BRANCH   7  13
ATOM     13  C   UNL A   1      31.628  23.428  25.639  1.00  0.00     0.105 C 
BRANCH  13  14
ATOM     14  S   UNL A   1      31.074  24.265  24.065  1.00  0.00    -0.154 SA
BRANCH  14  15
ATOM     15  C   UNL A   1      32.180  25.683  23.782  1.00  0.00     0.105 C 
BRANCH  15  16
ATOM     16  C   UNL A   1      31.662  27.074  24.069  1.00  0.00    -0.027 A 
ATOM     17  C   UNL A   1      30.678  27.579  23.205  1.00  0.00     0.025 A 
ATOM     18  C   UNL A   1      32.178  27.942  25.066  1.00  0.00     0.004 A 
ATOM     19  C   UNL A   1      30.218  28.869  23.388  1.00  0.00     0.112 A 
ATOM     20  C   UNL A   1      31.600  29.224  25.198  1.00  0.00     0.070 A 
ATOM     21  C   UNL A   1      33.244  27.619  25.929  1.00  0.00     0.010 A 
ATOM     22  N   UNL A   1      30.644  29.680  24.374  1.00  0.00    -0.256 NA
ATOM     23  C   UNL A   1      32.046  30.063  26.213  1.00  0.00     0.029 A 
ATOM     24  C   UNL A   1      33.671  28.462  26.947  1.00  0.00     0.001 A 
ATOM     25  C   UNL A   1      33.057  29.689  27.099  1.00  0.00     0.002 A 
ENDBRANCH  15  16
ENDBRANCH  14  15
ENDBRANCH  13  14
ENDBRANCH   7  13
ENDBRANCH   4   7
ENDBRANCH   2   3
ENDBRANCH   1   2
BRANCH   1  26
ATOM     26  C   UNL A   1      38.132  22.447  25.575  1.00  0.00     0.002 C 
BRANCH  26  27
ATOM     27  C   UNL A   1      37.619  21.243  24.774  1.00  0.00     0.002 C 
BRANCH  27  28
ATOM     28  C   UNL A   1      38.415  19.946  24.961  1.00  0.00     0.021 C 
BRANCH  28  29
ATOM     29  C   UNL A   1      39.299  19.919  26.204  1.00  0.00     0.116 C 
BRANCH  29  30
ATOM     30  N   UNL A   1      40.485  19.102  26.005  1.00  0.00    -0.352 N 
ATOM     31  C   UNL A   1      41.804  19.465  25.945  1.00  0.00     0.251 C 
ATOM     32  H   UNL A   1      40.313  18.138  25.899  1.00  0.00     0.163 HD
ATOM     33  O   UNL A   1      42.643  18.669  25.544  1.00  0.00    -0.269 OA
BRANCH  31  34
ATOM     34  C   UNL A   1      42.211  20.823  26.356  1.00  0.00     0.039 A 
ATOM     35  C   UNL A   1      42.533  21.755  25.369  1.00  0.00     0.014 A 
ATOM     36  C   UNL A   1      42.305  21.163  27.709  1.00  0.00     0.014 A 
ATOM     37  C   UNL A   1      42.902  23.049  25.737  1.00  0.00     0.010 A 
ATOM     38  C   UNL A   1      42.601  22.472  28.073  1.00  0.00     0.010 A 
ATOM     39  C   UNL A   1      42.910  23.425  27.091  1.00  0.00    -0.014 A 
BRANCH  39  40
ATOM     40  C   UNL A   1      43.245  24.812  27.496  1.00  0.00     0.031 A 
ATOM     41  C   UNL A   1      44.681  25.240  27.608  1.00  0.00     0.074 A 
ATOM     42  C   UNL A   1      42.254  25.665  27.818  1.00  0.00     0.049 A 
ATOM     43  N   UNL A   1      45.174  26.386  28.005  1.00  0.00    -0.248 NA
ATOM     44  C   UNL A   1      45.699  24.239  27.253  1.00  0.00     0.031 C 
ATOM     45  C   UNL A   1      40.825  25.348  27.790  1.00  0.00     0.029 A 
ATOM     46  N   UNL A   1      42.297  26.969  28.241  1.00  0.00    -0.354 N 
ATOM     47  C   UNL A   1      46.554  26.239  27.957  1.00  0.00     0.074 A 
ATOM     48  C   UNL A   1      46.822  24.877  27.549  1.00  0.00     0.031 C 
ATOM     49  C   UNL A   1      40.127  26.435  28.156  1.00  0.00     0.029 A 
ATOM     50  C   UNL A   1      41.058  27.509  28.484  1.00  0.00     0.049 A 
ATOM     51  H   UNL A   1      43.137  27.469  28.360  1.00  0.00     0.167 HD
ATOM     52  C   UNL A   1      47.510  27.166  28.206  1.00  0.00     0.037 A 
ATOM     53  C   UNL A   1      40.715  28.732  28.928  1.00  0.00     0.037 A 
ATOM     54  C   UNL A   1      47.235  28.525  28.592  1.00  0.00     0.049 A 
ATOM     55  C   UNL A   1      41.799  29.737  29.215  1.00  0.00     0.074 A 
ATOM     56  C   UNL A   1      48.131  29.557  28.812  1.00  0.00     0.029 A 
ATOM     57  N   UNL A   1      45.967  29.040  28.820  1.00  0.00    -0.354 N 
ATOM     58  N   UNL A   1      43.098  29.611  29.098  1.00  0.00    -0.248 NA
ATOM     59  C   UNL A   1      41.365  31.058  29.691  1.00  0.00     0.031 C 
ATOM     60  C   UNL A   1      47.408  30.682  29.224  1.00  0.00     0.029 A 
ATOM     61  C   UNL A   1      46.058  30.369  29.205  1.00  0.00     0.049 A 
ATOM     62  H   UNL A   1      45.127  28.536  28.722  1.00  0.00     0.167 HD
ATOM     63  C   UNL A   1      43.635  30.838  29.457  1.00  0.00     0.074 A 
ATOM     64  C   UNL A   1      42.519  31.703  29.780  1.00  0.00     0.031 C 
ATOM     65  C   UNL A   1      44.936  31.217  29.518  1.00  0.00     0.037 A 
BRANCH  52  66
ATOM     66  C   UNL A   1      48.944  26.740  28.069  1.00  0.00     0.064 A 
ATOM     67  C   UNL A   1      49.597  26.741  26.827  1.00  0.00     0.173 A 
ATOM     68  C   UNL A   1      49.686  26.361  29.198  1.00  0.00     0.173 A 
ATOM     69  F   UNL A   1      48.932  27.083  25.714  1.00  0.00    -0.203 F 
ATOM     70  C   UNL A   1      50.930  26.351  26.716  1.00  0.00     0.198 A 
ATOM     71  C   UNL A   1      51.027  26.004  29.089  1.00  0.00     0.198 A 
ATOM     72  F   UNL A   1      49.113  26.348  30.411  1.00  0.00    -0.203 F 
ATOM     73  F   UNL A   1      51.516  26.310  25.512  1.00  0.00    -0.200 F 
ATOM     74  C   UNL A   1      51.645  25.990  27.848  1.00  0.00     0.200 A 
ATOM     75  F   UNL A   1      51.722  25.668  30.185  1.00  0.00    -0.200 F 
ATOM     76  F   UNL A   1      52.930  25.622  27.741  1.00  0.00    -0.200 F 
ENDBRANCH  52  66
BRANCH  53  77
ATOM     77  C   UNL A   1      39.282  29.082  29.111  1.00  0.00     0.064 A 
ATOM     78  C   UNL A   1      38.503  29.521  28.031  1.00  0.00     0.173 A 
ATOM     79  C   UNL A   1      38.663  28.995  30.367  1.00  0.00     0.173 A 
ATOM     80  F   UNL A   1      39.055  29.639  26.814  1.00  0.00    -0.203 F 
ATOM     81  C   UNL A   1      37.169  29.881  28.204  1.00  0.00     0.198 A 
ATOM     82  C   UNL A   1      37.320  29.325  30.533  1.00  0.00     0.198 A 
ATOM     83  F   UNL A   1      39.361  28.574  31.432  1.00  0.00    -0.203 F 
ATOM     84  F   UNL A   1      36.463  30.344  27.163  1.00  0.00    -0.200 F 
ATOM     85  C   UNL A   1      36.577  29.777  29.452  1.00  0.00     0.200 A 
ATOM     86  F   UNL A   1      36.747  29.207  31.738  1.00  0.00    -0.200 F 
ATOM     87  F   UNL A   1      35.292  30.121  29.618  1.00  0.00    -0.200 F 
ENDBRANCH  53  77
BRANCH  65  88
ATOM     88  C   UNL A   1      45.222  32.636  29.916  1.00  0.00     0.064 A 
ATOM     89  C   UNL A   1      45.261  33.673  28.973  1.00  0.00     0.173 A 
ATOM     90  C   UNL A   1      45.422  32.968  31.265  1.00  0.00     0.173 A 
ATOM     91  F   UNL A   1      45.092  33.406  27.669  1.00  0.00    -0.203 F 
ATOM     92  C   UNL A   1      45.519  34.985  29.362  1.00  0.00     0.198 A 
ATOM     93  C   UNL A   1      45.645  34.285  31.655  1.00  0.00     0.198 A 
ATOM     94  F   UNL A   1      45.387  32.014  32.208  1.00  0.00    -0.203 F 
ATOM     95  F   UNL A   1      45.604  35.951  28.437  1.00  0.00    -0.200 F 
ATOM     96  C   UNL A   1      45.702  35.290  30.702  1.00  0.00     0.200 A 
ATOM     97  F   UNL A   1      45.807  34.580  32.951  1.00  0.00    -0.200 F 
ATOM     98  F   UNL A   1      45.941  36.556  31.075  1.00  0.00    -0.200 F 
ENDBRANCH  65  88
ENDBRANCH  39  40
ENDBRANCH  31  34
ENDBRANCH  29  30
ENDBRANCH  28  29
ENDBRANCH  27  28
ENDBRANCH  26  27
ENDBRANCH   1  26
TORSDOF 18
ENDMDL
