MODEL 1
REMARK VINA RESULT:     -13.3      0.000      0.000
REMARK SMILES O=C(NCCCCCCNC(=O)c1cc(-c2ccccc2)nc(Nc2nc3ccccc3s2)n1)c1ccc(-c2c3nc(c(-c4c(F)c(F)c(F)c(F)c4F)c4ccc([nH]4)c(-c4c(F)c(F)c(F)c(F)c4F)c4nc(c(-c5c(F)c(F)c(F)c(F)c5F)c5ccc2[nH]5)C=C4)C=C3)cc1
REMARK SMILES IDX 6 1 5 2 4 3 3 4 1 5 2 6 35 8 36 9 97 10 37 11 96 12 38 13
REMARK SMILES IDX 39 14 40 15 90 16 41 17 95 18 89 19 91 20 42 21 94 22 88 23
REMARK SMILES IDX 87 24 43 26 75 27 55 28 74 29 56 30 59 31 73 32 92 33 57 34
REMARK SMILES IDX 58 35 72 37 93 38 60 39 44 40 45 41 53 42 46 43 47 44 51 45
REMARK SMILES IDX 54 46 48 47 49 48 52 49 50 50 76 51 77 52 85 53 78 54 79 55
REMARK SMILES IDX 83 56 86 57 80 58 81 59 84 60 82 61 61 62 62 63 70 64 63 65
REMARK SMILES IDX 64 66 68 67 71 68 65 69 66 70 69 71 67 72 7 73 8 74 9 75
REMARK SMILES IDX 10 76 11 77 12 79 13 80 14 81 34 82 15 83 23 84 22 85 16 86
REMARK SMILES IDX 17 87 21 88 18 89 20 90 19 91 24 92 25 94 26 95 33 96 27 97
REMARK SMILES IDX 32 98 28 99 31 100 29 101 30 102
REMARK H PARENT 3 7 91 25 59 36 10 78 24 93
REMARK Flexibility Score: inf
ROOT
ATOM      1  C   UNL A   1      36.810  20.553  24.990  1.00  0.00     0.002 C 
ENDROOT
BRANCH   1   2
ATOM      2  C   UNL A   1      38.016  19.619  24.916  1.00  0.00     0.021 C 
BRANCH   2   3
ATOM      3  C   UNL A   1      39.229  20.050  25.729  1.00  0.00     0.116 C 
BRANCH   3   4
ATOM      4  N   UNL A   1      40.255  19.026  25.816  1.00  0.00    -0.352 N 
ATOM      5  O   UNL A   1      42.343  18.187  25.985  1.00  0.00    -0.269 OA
ATOM      6  C   UNL A   1      41.602  19.155  26.070  1.00  0.00     0.251 C 
ATOM      7  H   UNL A   1      39.941  18.104  25.670  1.00  0.00     0.163 HD
BRANCH   6   8
ATOM      8  C   UNL A   1      42.161  20.484  26.411  1.00  0.00     0.039 A 
ATOM      9  C   UNL A   1      42.280  20.895  27.739  1.00  0.00     0.014 A 
ATOM     10  C   UNL A   1      42.559  21.337  25.377  1.00  0.00     0.014 A 
ATOM     11  C   UNL A   1      42.639  22.208  28.025  1.00  0.00     0.010 A 
ATOM     12  C   UNL A   1      43.005  22.629  25.672  1.00  0.00     0.010 A 
ATOM     13  C   UNL A   1      43.005  23.091  26.996  1.00  0.00    -0.014 A 
BRANCH  13  14
ATOM     14  C   UNL A   1      43.404  24.481  27.341  1.00  0.00     0.031 A 
ATOM     15  C   UNL A   1      44.792  24.986  27.054  1.00  0.00     0.074 A 
ATOM     16  C   UNL A   1      42.485  25.306  27.878  1.00  0.00     0.049 A 
ATOM     17  N   UNL A   1      45.287  26.186  27.235  1.00  0.00    -0.248 NA
ATOM     18  C   UNL A   1      45.753  24.021  26.500  1.00  0.00     0.031 C 
ATOM     19  C   UNL A   1      41.113  24.927  28.218  1.00  0.00     0.029 A 
ATOM     20  N   UNL A   1      42.553  26.636  28.205  1.00  0.00    -0.354 N 
ATOM     21  C   UNL A   1      46.617  26.114  26.844  1.00  0.00     0.074 A 
ATOM     22  C   UNL A   1      46.862  24.747  26.436  1.00  0.00     0.031 C 
ATOM     23  C   UNL A   1      40.451  26.011  28.650  1.00  0.00     0.029 A 
ATOM     24  C   UNL A   1      41.366  27.148  28.668  1.00  0.00     0.049 A 
ATOM     25  H   UNL A   1      43.374  27.173  28.117  1.00  0.00     0.167 HD
ATOM     26  C   UNL A   1      47.547  27.100  26.822  1.00  0.00     0.037 A 
ATOM     27  C   UNL A   1      41.047  28.393  29.065  1.00  0.00     0.037 A 
ATOM     28  C   UNL A   1      47.293  28.467  27.200  1.00  0.00     0.049 A 
ATOM     29  C   UNL A   1      42.096  29.467  29.020  1.00  0.00     0.074 A 
ATOM     30  C   UNL A   1      48.158  29.548  27.162  1.00  0.00     0.029 A 
ATOM     31  N   UNL A   1      46.084  28.941  27.685  1.00  0.00    -0.354 N 
ATOM     32  N   UNL A   1      43.337  29.394  28.607  1.00  0.00    -0.248 NA
ATOM     33  C   UNL A   1      41.696  30.797  29.498  1.00  0.00     0.031 C 
ATOM     34  C   UNL A   1      47.483  30.668  27.664  1.00  0.00     0.029 A 
ATOM     35  C   UNL A   1      46.185  30.294  27.970  1.00  0.00     0.049 A 
ATOM     36  H   UNL A   1      45.272  28.397  27.810  1.00  0.00     0.167 HD
ATOM     37  C   UNL A   1      43.863  30.669  28.756  1.00  0.00     0.074 A 
ATOM     38  C   UNL A   1      42.798  31.501  29.280  1.00  0.00     0.031 C 
ATOM     39  C   UNL A   1      45.115  31.110  28.486  1.00  0.00     0.037 A 
BRANCH  26  40
ATOM     40  C   UNL A   1      48.938  26.739  26.387  1.00  0.00     0.064 A 
ATOM     41  C   UNL A   1      49.366  26.908  25.063  1.00  0.00     0.173 A 
ATOM     42  C   UNL A   1      49.870  26.261  27.322  1.00  0.00     0.173 A 
ATOM     43  F   UNL A   1      48.512  27.352  24.128  1.00  0.00    -0.203 F 
ATOM     44  C   UNL A   1      50.669  26.592  24.684  1.00  0.00     0.198 A 
ATOM     45  C   UNL A   1      51.179  25.969  26.945  1.00  0.00     0.198 A 
ATOM     46  F   UNL A   1      49.515  26.087  28.602  1.00  0.00    -0.203 F 
ATOM     47  F   UNL A   1      51.045  26.725  23.405  1.00  0.00    -0.200 F 
ATOM     48  C   UNL A   1      51.576  26.130  25.626  1.00  0.00     0.200 A 
ATOM     49  F   UNL A   1      52.057  25.535  27.860  1.00  0.00    -0.200 F 
ATOM     50  F   UNL A   1      52.831  25.833  25.262  1.00  0.00    -0.200 F 
ENDBRANCH  26  40
BRANCH  27  51
ATOM     51  C   UNL A   1      39.665  28.691  29.517  1.00  0.00     0.064 A 
ATOM     52  C   UNL A   1      39.291  28.508  30.855  1.00  0.00     0.173 A 
ATOM     53  C   UNL A   1      38.696  29.177  28.628  1.00  0.00     0.173 A 
ATOM     54  F   UNL A   1      40.179  28.027  31.739  1.00  0.00    -0.203 F 
ATOM     55  C   UNL A   1      37.997  28.789  31.284  1.00  0.00     0.198 A 
ATOM     56  C   UNL A   1      37.410  29.484  29.063  1.00  0.00     0.198 A 
ATOM     57  F   UNL A   1      39.007  29.374  27.337  1.00  0.00    -0.203 F 
ATOM     58  F   UNL A   1      37.654  28.570  32.561  1.00  0.00    -0.200 F 
ATOM     59  C   UNL A   1      37.059  29.283  30.389  1.00  0.00     0.200 A 
ATOM     60  F   UNL A   1      36.512  29.976  28.199  1.00  0.00    -0.200 F 
ATOM     61  F   UNL A   1      35.816  29.562  30.804  1.00  0.00    -0.200 F 
ENDBRANCH  27  51
BRANCH  39  62
ATOM     62  C   UNL A   1      45.390  32.565  28.723  1.00  0.00     0.064 A 
ATOM     63  C   UNL A   1      45.929  33.024  29.934  1.00  0.00     0.173 A 
ATOM     64  C   UNL A   1      45.126  33.510  27.721  1.00  0.00     0.173 A 
ATOM     65  F   UNL A   1      46.182  32.161  30.929  1.00  0.00    -0.203 F 
ATOM     66  C   UNL A   1      46.165  34.380  30.143  1.00  0.00     0.198 A 
ATOM     67  C   UNL A   1      45.388  34.861  27.922  1.00  0.00     0.198 A 
ATOM     68  F   UNL A   1      44.614  33.121  26.542  1.00  0.00    -0.203 F 
ATOM     69  F   UNL A   1      46.632  34.802  31.326  1.00  0.00    -0.200 F 
ATOM     70  C   UNL A   1      45.900  35.296  29.136  1.00  0.00     0.200 A 
ATOM     71  F   UNL A   1      45.141  35.744  26.945  1.00  0.00    -0.200 F 
ATOM     72  F   UNL A   1      46.127  36.602  29.339  1.00  0.00    -0.200 F 
ENDBRANCH  39  62
ENDBRANCH  13  14
ENDBRANCH   6   8
ENDBRANCH   3   4
ENDBRANCH   2   3
ENDBRANCH   1   2
BRANCH   1  73
ATOM     73  C   UNL A   1      37.001  21.941  24.371  1.00  0.00     0.002 C 
BRANCH  73  74
ATOM     74  C   UNL A   1      37.089  23.113  25.353  1.00  0.00     0.021 C 
BRANCH  74  75
ATOM     75  C   UNL A   1      35.796  23.895  25.567  1.00  0.00     0.116 C 
BRANCH  75  76
ATOM     76  N   UNL A   1      35.149  23.577  26.826  1.00  0.00    -0.351 N 
ATOM     77  C   UNL A   1      34.087  22.734  27.057  1.00  0.00     0.270 C 
ATOM     78  H   UNL A   1      35.520  24.023  27.621  1.00  0.00     0.163 HD
ATOM     79  O   UNL A   1      33.650  22.593  28.195  1.00  0.00    -0.268 OA
BRANCH  77  80
ATOM     80  C   UNL A   1      33.505  21.976  25.925  1.00  0.00     0.134 A 
ATOM     81  C   UNL A   1      33.470  20.611  25.961  1.00  0.00     0.063 A 
ATOM     82  N   UNL A   1      33.081  22.707  24.889  1.00  0.00    -0.207 NA
ATOM     83  C   UNL A   1      33.008  20.008  24.814  1.00  0.00     0.077 A 
ATOM     84  C   UNL A   1      32.608  22.059  23.823  1.00  0.00     0.230 A 
ATOM     85  N   UNL A   1      32.565  20.717  23.745  1.00  0.00    -0.213 NA
BRANCH  83  86
ATOM     86  C   UNL A   1      33.070  18.545  24.677  1.00  0.00     0.000 A 
ATOM     87  C   UNL A   1      33.697  17.953  23.569  1.00  0.00     0.010 A 
ATOM     88  C   UNL A   1      32.598  17.700  25.698  1.00  0.00     0.010 A 
ATOM     89  C   UNL A   1      33.885  16.569  23.504  1.00  0.00     0.001 A 
ATOM     90  C   UNL A   1      32.781  16.316  25.633  1.00  0.00     0.001 A 
ATOM     91  C   UNL A   1      33.434  15.754  24.539  1.00  0.00     0.000 A 
ENDBRANCH  83  86
BRANCH  84  92
ATOM     92  N   UNL A   1      32.061  22.785  22.767  1.00  0.00    -0.300 N 
ATOM     93  H   UNL A   1      31.714  22.292  21.988  1.00  0.00     0.172 HD
BRANCH  92  94
ATOM     94  C   UNL A   1      31.985  24.132  22.764  1.00  0.00     0.190 A 
ATOM     95  N   UNL A   1      32.882  24.936  22.240  1.00  0.00    -0.220 NA
ATOM     96  S   UNL A   1      30.648  24.947  23.489  1.00  0.00    -0.097 S 
ATOM     97  C   UNL A   1      32.648  26.242  22.608  1.00  0.00     0.084 A 
ATOM     98  C   UNL A   1      31.475  26.453  23.329  1.00  0.00     0.056 A 
ATOM     99  C   UNL A   1      33.496  27.333  22.337  1.00  0.00     0.030 A 
ATOM    100  C   UNL A   1      31.124  27.728  23.804  1.00  0.00     0.021 A 
ATOM    101  C   UNL A   1      33.166  28.602  22.817  1.00  0.00     0.002 A 
ATOM    102  C   UNL A   1      31.996  28.793  23.545  1.00  0.00     0.002 A 
ENDBRANCH  92  94
ENDBRANCH  84  92
ENDBRANCH  77  80
ENDBRANCH  75  76
ENDBRANCH  74  75
ENDBRANCH  73  74
ENDBRANCH   1  73
TORSDOF 16
ENDMDL
MODEL 2
REMARK VINA RESULT:     -13.3      0.529      7.017
REMARK SMILES O=C(NCCCCCCNC(=O)c1cc(-c2ccccc2)nc(Nc2nc3ccccc3s2)n1)c1ccc(-c2c3nc(c(-c4c(F)c(F)c(F)c(F)c4F)c4ccc([nH]4)c(-c4c(F)c(F)c(F)c(F)c4F)c4nc(c(-c5c(F)c(F)c(F)c(F)c5F)c5ccc2[nH]5)C=C4)C=C3)cc1
REMARK SMILES IDX 6 1 5 2 4 3 3 4 1 5 2 6 35 8 36 9 97 10 37 11 96 12 38 13
REMARK SMILES IDX 39 14 40 15 90 16 41 17 95 18 89 19 91 20 42 21 94 22 88 23
REMARK SMILES IDX 87 24 43 26 75 27 55 28 74 29 56 30 59 31 73 32 92 33 57 34
REMARK SMILES IDX 58 35 72 37 93 38 60 39 44 40 45 41 53 42 46 43 47 44 51 45
REMARK SMILES IDX 54 46 48 47 49 48 52 49 50 50 76 51 77 52 85 53 78 54 79 55
REMARK SMILES IDX 83 56 86 57 80 58 81 59 84 60 82 61 61 62 62 63 70 64 63 65
REMARK SMILES IDX 64 66 68 67 71 68 65 69 66 70 69 71 67 72 7 73 8 74 9 75
REMARK SMILES IDX 10 76 11 77 12 79 13 80 14 81 34 82 15 83 23 84 22 85 16 86
REMARK SMILES IDX 17 87 21 88 18 89 20 90 19 91 24 92 25 94 26 95 33 96 27 97
REMARK SMILES IDX 32 98 28 99 31 100 29 101 30 102
REMARK H PARENT 3 7 91 25 59 36 10 78 24 93
REMARK Flexibility Score: inf
ROOT
ATOM      1  C   UNL A   1      36.943  20.469  24.994  1.00  0.00     0.002 C 
ENDROOT
BRANCH   1   2
ATOM      2  C   UNL A   1      38.141  19.522  25.008  1.00  0.00     0.021 C 
BRANCH   2   3
ATOM      3  C   UNL A   1      39.353  20.010  25.789  1.00  0.00     0.116 C 
BRANCH   3   4
ATOM      4  N   UNL A   1      40.389  19.001  25.930  1.00  0.00    -0.352 N 
ATOM      5  O   UNL A   1      42.488  18.189  26.102  1.00  0.00    -0.269 OA
ATOM      6  C   UNL A   1      41.742  19.158  26.126  1.00  0.00     0.251 C 
ATOM      7  H   UNL A   1      40.077  18.069  25.877  1.00  0.00     0.163 HD
BRANCH   6   8
ATOM      8  C   UNL A   1      42.303  20.514  26.330  1.00  0.00     0.039 A 
ATOM      9  C   UNL A   1      42.446  21.048  27.612  1.00  0.00     0.014 A 
ATOM     10  C   UNL A   1      42.679  21.267  25.213  1.00  0.00     0.014 A 
ATOM     11  C   UNL A   1      42.805  22.383  27.766  1.00  0.00     0.010 A 
ATOM     12  C   UNL A   1      43.126  22.581  25.377  1.00  0.00     0.010 A 
ATOM     13  C   UNL A   1      43.149  23.166  26.652  1.00  0.00    -0.014 A 
BRANCH  13  14
ATOM     14  C   UNL A   1      43.550  24.583  26.857  1.00  0.00     0.031 A 
ATOM     15  C   UNL A   1      42.593  25.586  27.440  1.00  0.00     0.074 A 
ATOM     16  C   UNL A   1      44.810  24.952  26.555  1.00  0.00     0.049 A 
ATOM     17  N   UNL A   1      42.798  26.845  27.742  1.00  0.00    -0.248 NA
ATOM     18  C   UNL A   1      41.224  25.123  27.714  1.00  0.00     0.031 C 
ATOM     19  C   UNL A   1      45.824  24.074  25.969  1.00  0.00     0.029 A 
ATOM     20  N   UNL A   1      45.462  26.146  26.724  1.00  0.00    -0.354 N 
ATOM     21  C   UNL A   1      41.586  27.329  28.213  1.00  0.00     0.074 A 
ATOM     22  C   UNL A   1      40.639  26.236  28.138  1.00  0.00     0.031 C 
ATOM     23  C   UNL A   1      46.984  24.740  25.880  1.00  0.00     0.029 A 
ATOM     24  C   UNL A   1      46.783  26.106  26.353  1.00  0.00     0.049 A 
ATOM     25  H   UNL A   1      45.024  26.955  27.076  1.00  0.00     0.167 HD
ATOM     26  C   UNL A   1      41.290  28.569  28.672  1.00  0.00     0.037 A 
ATOM     27  C   UNL A   1      47.729  27.062  26.388  1.00  0.00     0.037 A 
ATOM     28  C   UNL A   1      42.242  29.647  28.774  1.00  0.00     0.049 A 
ATOM     29  C   UNL A   1      47.376  28.424  26.911  1.00  0.00     0.074 A 
ATOM     30  C   UNL A   1      42.049  30.924  29.274  1.00  0.00     0.029 A 
ATOM     31  N   UNL A   1      43.565  29.574  28.368  1.00  0.00    -0.354 N 
ATOM     32  N   UNL A   1      46.236  28.854  27.394  1.00  0.00    -0.248 NA
ATOM     33  C   UNL A   1      48.442  29.434  26.892  1.00  0.00     0.031 C 
ATOM     34  C   UNL A   1      43.245  31.636  29.132  1.00  0.00     0.029 A 
ATOM     35  C   UNL A   1      44.196  30.789  28.586  1.00  0.00     0.049 A 
ATOM     36  H   UNL A   1      43.994  28.776  27.980  1.00  0.00     0.167 HD
ATOM     37  C   UNL A   1      46.451  30.176  27.755  1.00  0.00     0.074 A 
ATOM     38  C   UNL A   1      47.836  30.472  27.452  1.00  0.00     0.031 C 
ATOM     39  C   UNL A   1      45.577  31.066  28.285  1.00  0.00     0.037 A 
BRANCH  26  40
ATOM     40  C   UNL A   1      39.874  28.841  29.089  1.00  0.00     0.064 A 
ATOM     41  C   UNL A   1      38.898  29.250  28.169  1.00  0.00     0.173 A 
ATOM     42  C   UNL A   1      39.477  28.643  30.421  1.00  0.00     0.173 A 
ATOM     43  F   UNL A   1      39.227  29.463  26.886  1.00  0.00    -0.203 F 
ATOM     44  C   UNL A   1      37.582  29.471  28.570  1.00  0.00     0.198 A 
ATOM     45  C   UNL A   1      38.155  28.841  30.814  1.00  0.00     0.198 A 
ATOM     46  F   UNL A   1      40.369  28.245  31.340  1.00  0.00    -0.203 F 
ATOM     47  F   UNL A   1      36.675  29.900  27.682  1.00  0.00    -0.200 F 
ATOM     48  C   UNL A   1      37.211  29.260  29.889  1.00  0.00     0.200 A 
ATOM     49  F   UNL A   1      37.796  28.624  32.087  1.00  0.00    -0.200 F 
ATOM     50  F   UNL A   1      35.943  29.467  30.272  1.00  0.00    -0.200 F 
ENDBRANCH  26  40
BRANCH  27  51
ATOM     51  C   UNL A   1      49.108  26.750  25.933  1.00  0.00     0.064 A 
ATOM     52  C   UNL A   1      50.030  26.145  26.798  1.00  0.00     0.173 A 
ATOM     53  C   UNL A   1      49.526  27.035  24.626  1.00  0.00     0.173 A 
ATOM     54  F   UNL A   1      49.681  25.870  28.064  1.00  0.00    -0.203 F 
ATOM     55  C   UNL A   1      51.323  25.848  26.374  1.00  0.00     0.198 A 
ATOM     56  C   UNL A   1      50.809  26.713  24.195  1.00  0.00     0.198 A 
ATOM     57  F   UNL A   1      48.677  27.610  23.760  1.00  0.00    -0.203 F 
ATOM     58  F   UNL A   1      52.198  25.303  27.232  1.00  0.00    -0.200 F 
ATOM     59  C   UNL A   1      51.710  26.126  25.071  1.00  0.00     0.200 A 
ATOM     60  F   UNL A   1      51.174  26.969  22.932  1.00  0.00    -0.200 F 
ATOM     61  F   UNL A   1      52.951  25.832  24.662  1.00  0.00    -0.200 F 
ENDBRANCH  27  51
BRANCH  39  62
ATOM     62  C   UNL A   1      46.107  32.433  28.602  1.00  0.00     0.064 A 
ATOM     63  C   UNL A   1      46.031  33.483  27.676  1.00  0.00     0.173 A 
ATOM     64  C   UNL A   1      46.683  32.698  29.853  1.00  0.00     0.173 A 
ATOM     65  F   UNL A   1      45.505  33.274  26.460  1.00  0.00    -0.203 F 
ATOM     66  C   UNL A   1      46.541  34.743  27.981  1.00  0.00     0.198 A 
ATOM     67  C   UNL A   1      47.166  33.965  30.166  1.00  0.00     0.198 A 
ATOM     68  F   UNL A   1      46.774  31.728  30.776  1.00  0.00    -0.203 F 
ATOM     69  F   UNL A   1      46.505  35.718  27.062  1.00  0.00    -0.200 F 
ATOM     70  C   UNL A   1      47.102  34.984  29.226  1.00  0.00     0.200 A 
ATOM     71  F   UNL A   1      47.699  34.200  31.372  1.00  0.00    -0.200 F 
ATOM     72  F   UNL A   1      47.593  36.197  29.518  1.00  0.00    -0.200 F 
ENDBRANCH  39  62
ENDBRANCH  13  14
ENDBRANCH   6   8
ENDBRANCH   3   4
ENDBRANCH   2   3
ENDBRANCH   1   2
BRANCH   1  73
ATOM     73  C   UNL A   1      37.240  21.916  24.591  1.00  0.00     0.002 C 
BRANCH  73  74
ATOM     74  C   UNL A   1      37.086  22.971  25.692  1.00  0.00     0.021 C 
BRANCH  74  75
ATOM     75  C   UNL A   1      35.738  23.686  25.736  1.00  0.00     0.116 C 
BRANCH  75  76
ATOM     76  N   UNL A   1      35.010  23.437  26.966  1.00  0.00    -0.351 N 
ATOM     77  C   UNL A   1      33.892  22.660  27.160  1.00  0.00     0.270 C 
ATOM     78  H   UNL A   1      35.364  23.883  27.769  1.00  0.00     0.163 HD
ATOM     79  O   UNL A   1      33.389  22.573  28.276  1.00  0.00    -0.268 OA
BRANCH  77  80
ATOM     80  C   UNL A   1      33.328  21.906  26.016  1.00  0.00     0.134 A 
ATOM     81  C   UNL A   1      33.349  20.539  26.020  1.00  0.00     0.063 A 
ATOM     82  N   UNL A   1      32.862  22.643  25.002  1.00  0.00    -0.207 NA
ATOM     83  C   UNL A   1      32.898  19.946  24.864  1.00  0.00     0.077 A 
ATOM     84  C   UNL A   1      32.403  22.001  23.926  1.00  0.00     0.230 A 
ATOM     85  N   UNL A   1      32.414  20.660  23.817  1.00  0.00    -0.213 NA
BRANCH  83  86
ATOM     86  C   UNL A   1      33.018  18.490  24.691  1.00  0.00     0.000 A 
ATOM     87  C   UNL A   1      33.700  17.951  23.588  1.00  0.00     0.010 A 
ATOM     88  C   UNL A   1      32.548  17.601  25.676  1.00  0.00     0.010 A 
ATOM     89  C   UNL A   1      33.940  16.577  23.493  1.00  0.00     0.001 A 
ATOM     90  C   UNL A   1      32.784  16.227  25.580  1.00  0.00     0.001 A 
ATOM     91  C   UNL A   1      33.489  15.718  24.493  1.00  0.00     0.000 A 
ENDBRANCH  83  86
BRANCH  84  92
ATOM     92  N   UNL A   1      31.814  22.728  22.894  1.00  0.00    -0.300 N 
ATOM     93  H   UNL A   1      31.345  22.237  22.182  1.00  0.00     0.172 HD
BRANCH  92  94
ATOM     94  C   UNL A   1      31.858  24.075  22.827  1.00  0.00     0.190 A 
ATOM     95  N   UNL A   1      32.828  24.771  22.278  1.00  0.00    -0.220 NA
ATOM     96  S   UNL A   1      30.593  25.039  23.496  1.00  0.00    -0.097 S 
ATOM     97  C   UNL A   1      32.708  26.109  22.582  1.00  0.00     0.084 A 
ATOM     98  C   UNL A   1      31.551  26.457  23.277  1.00  0.00     0.056 A 
ATOM     99  C   UNL A   1      33.652  27.106  22.272  1.00  0.00     0.030 A 
ATOM    100  C   UNL A   1      31.311  27.779  23.687  1.00  0.00     0.021 A 
ATOM    101  C   UNL A   1      33.431  28.421  22.688  1.00  0.00     0.002 A 
ATOM    102  C   UNL A   1      32.276  28.749  23.390  1.00  0.00     0.002 A 
ENDBRANCH  92  94
ENDBRANCH  84  92
ENDBRANCH  77  80
ENDBRANCH  75  76
ENDBRANCH  74  75
ENDBRANCH  73  74
ENDBRANCH   1  73
TORSDOF 16
ENDMDL
MODEL 3
REMARK VINA RESULT:     -13.1      5.388     11.249
REMARK SMILES O=C(NCCCCCCNC(=O)c1cc(-c2ccccc2)nc(Nc2nc3ccccc3s2)n1)c1ccc(-c2c3nc(c(-c4c(F)c(F)c(F)c(F)c4F)c4ccc([nH]4)c(-c4c(F)c(F)c(F)c(F)c4F)c4nc(c(-c5c(F)c(F)c(F)c(F)c5F)c5ccc2[nH]5)C=C4)C=C3)cc1
REMARK SMILES IDX 6 1 5 2 4 3 3 4 1 5 2 6 35 8 36 9 97 10 37 11 96 12 38 13
REMARK SMILES IDX 39 14 40 15 90 16 41 17 95 18 89 19 91 20 42 21 94 22 88 23
REMARK SMILES IDX 87 24 43 26 75 27 55 28 74 29 56 30 59 31 73 32 92 33 57 34
REMARK SMILES IDX 58 35 72 37 93 38 60 39 44 40 45 41 53 42 46 43 47 44 51 45
REMARK SMILES IDX 54 46 48 47 49 48 52 49 50 50 76 51 77 52 85 53 78 54 79 55
REMARK SMILES IDX 83 56 86 57 80 58 81 59 84 60 82 61 61 62 62 63 70 64 63 65
REMARK SMILES IDX 64 66 68 67 71 68 65 69 66 70 69 71 67 72 7 73 8 74 9 75
REMARK SMILES IDX 10 76 11 77 12 79 13 80 14 81 34 82 15 83 23 84 22 85 16 86
REMARK SMILES IDX 17 87 21 88 18 89 20 90 19 91 24 92 25 94 26 95 33 96 27 97
REMARK SMILES IDX 32 98 28 99 31 100 29 101 30 102
REMARK H PARENT 3 7 91 25 59 36 10 78 24 93
REMARK Flexibility Score: inf
ROOT
ATOM      1  C   UNL A   1      31.489  30.708  26.316  1.00  0.00     0.002 C 
ENDROOT
BRANCH   1   2
ATOM      2  C   UNL A   1      31.409  32.220  26.511  1.00  0.00     0.021 C 
BRANCH   2   3
ATOM      3  C   UNL A   1      32.563  32.842  27.285  1.00  0.00     0.116 C 
BRANCH   3   4
ATOM      4  N   UNL A   1      32.311  34.216  27.685  1.00  0.00    -0.352 N 
ATOM      5  O   UNL A   1      32.527  36.092  28.920  1.00  0.00    -0.269 OA
ATOM      6  C   UNL A   1      32.955  34.985  28.627  1.00  0.00     0.251 C 
ATOM      7  H   UNL A   1      31.570  34.661  27.214  1.00  0.00     0.163 HD
BRANCH   6   8
ATOM      8  C   UNL A   1      34.153  34.452  29.317  1.00  0.00     0.039 A 
ATOM      9  C   UNL A   1      35.430  34.626  28.780  1.00  0.00     0.014 A 
ATOM     10  C   UNL A   1      33.989  33.753  30.517  1.00  0.00     0.014 A 
ATOM     11  C   UNL A   1      36.513  33.966  29.350  1.00  0.00     0.010 A 
ATOM     12  C   UNL A   1      35.095  33.164  31.138  1.00  0.00     0.010 A 
ATOM     13  C   UNL A   1      36.360  33.227  30.535  1.00  0.00    -0.014 A 
BRANCH  13  14
ATOM     14  C   UNL A   1      37.545  32.553  31.128  1.00  0.00     0.031 A 
ATOM     15  C   UNL A   1      38.021  32.892  32.514  1.00  0.00     0.074 A 
ATOM     16  C   UNL A   1      38.168  31.592  30.419  1.00  0.00     0.049 A 
ATOM     17  N   UNL A   1      38.998  32.357  33.205  1.00  0.00    -0.248 NA
ATOM     18  C   UNL A   1      37.315  33.974  33.217  1.00  0.00     0.031 C 
ATOM     19  C   UNL A   1      37.810  31.187  29.058  1.00  0.00     0.029 A 
ATOM     20  N   UNL A   1      39.208  30.763  30.750  1.00  0.00    -0.354 N 
ATOM     21  C   UNL A   1      39.042  33.053  34.406  1.00  0.00     0.074 A 
ATOM     22  C   UNL A   1      38.008  34.064  34.345  1.00  0.00     0.031 C 
ATOM     23  C   UNL A   1      38.578  30.150  28.692  1.00  0.00     0.029 A 
ATOM     24  C   UNL A   1      39.516  29.851  29.769  1.00  0.00     0.049 A 
ATOM     25  H   UNL A   1      39.690  30.816  31.607  1.00  0.00     0.167 HD
ATOM     26  C   UNL A   1      39.866  32.861  35.465  1.00  0.00     0.037 A 
ATOM     27  C   UNL A   1      40.449  28.883  29.738  1.00  0.00     0.037 A 
ATOM     28  C   UNL A   1      40.875  31.834  35.536  1.00  0.00     0.049 A 
ATOM     29  C   UNL A   1      41.342  28.687  30.931  1.00  0.00     0.074 A 
ATOM     30  C   UNL A   1      41.723  31.528  36.587  1.00  0.00     0.029 A 
ATOM     31  N   UNL A   1      41.170  30.945  34.514  1.00  0.00    -0.354 N 
ATOM     32  N   UNL A   1      41.343  29.324  32.076  1.00  0.00    -0.248 NA
ATOM     33  C   UNL A   1      42.363  27.638  30.823  1.00  0.00     0.031 C 
ATOM     34  C   UNL A   1      42.561  30.482  36.184  1.00  0.00     0.029 A 
ATOM     35  C   UNL A   1      42.203  30.104  34.900  1.00  0.00     0.049 A 
ATOM     36  H   UNL A   1      40.715  30.915  33.640  1.00  0.00     0.167 HD
ATOM     37  C   UNL A   1      42.348  28.742  32.833  1.00  0.00     0.074 A 
ATOM     38  C   UNL A   1      42.923  27.687  32.023  1.00  0.00     0.031 C 
ATOM     39  C   UNL A   1      42.761  29.055  34.085  1.00  0.00     0.037 A 
BRANCH  26  40
ATOM     40  C   UNL A   1      39.726  33.790  36.636  1.00  0.00     0.064 A 
ATOM     41  C   UNL A   1      40.365  35.038  36.670  1.00  0.00     0.173 A 
ATOM     42  C   UNL A   1      38.902  33.445  37.719  1.00  0.00     0.173 A 
ATOM     43  F   UNL A   1      41.171  35.411  35.664  1.00  0.00    -0.203 F 
ATOM     44  C   UNL A   1      40.201  35.898  37.753  1.00  0.00     0.198 A 
ATOM     45  C   UNL A   1      38.722  34.318  38.790  1.00  0.00     0.198 A 
ATOM     46  F   UNL A   1      38.263  32.267  37.734  1.00  0.00    -0.203 F 
ATOM     47  F   UNL A   1      40.853  37.069  37.782  1.00  0.00    -0.200 F 
ATOM     48  C   UNL A   1      39.376  35.540  38.808  1.00  0.00     0.200 A 
ATOM     49  F   UNL A   1      37.913  33.976  39.802  1.00  0.00    -0.200 F 
ATOM     50  F   UNL A   1      39.214  36.372  39.847  1.00  0.00    -0.200 F 
ENDBRANCH  26  40
BRANCH  27  51
ATOM     51  C   UNL A   1      40.567  28.012  28.542  1.00  0.00     0.064 A 
ATOM     52  C   UNL A   1      41.349  28.399  27.446  1.00  0.00     0.173 A 
ATOM     53  C   UNL A   1      39.917  26.772  28.477  1.00  0.00     0.173 A 
ATOM     54  F   UNL A   1      41.975  29.586  27.455  1.00  0.00    -0.203 F 
ATOM     55  C   UNL A   1      41.465  27.584  26.323  1.00  0.00     0.198 A 
ATOM     56  C   UNL A   1      40.056  25.945  27.366  1.00  0.00     0.198 A 
ATOM     57  F   UNL A   1      39.162  26.355  29.504  1.00  0.00    -0.203 F 
ATOM     58  F   UNL A   1      42.188  27.994  25.271  1.00  0.00    -0.200 F 
ATOM     59  C   UNL A   1      40.824  26.354  26.287  1.00  0.00     0.200 A 
ATOM     60  F   UNL A   1      39.448  24.751  27.341  1.00  0.00    -0.200 F 
ATOM     61  F   UNL A   1      40.943  25.566  25.210  1.00  0.00    -0.200 F 
ENDBRANCH  27  51
BRANCH  39  62
ATOM     62  C   UNL A   1      43.865  28.224  34.666  1.00  0.00     0.064 A 
ATOM     63  C   UNL A   1      43.607  27.001  35.303  1.00  0.00     0.173 A 
ATOM     64  C   UNL A   1      45.198  28.648  34.572  1.00  0.00     0.173 A 
ATOM     65  F   UNL A   1      42.347  26.561  35.433  1.00  0.00    -0.203 F 
ATOM     66  C   UNL A   1      44.643  26.248  35.850  1.00  0.00     0.198 A 
ATOM     67  C   UNL A   1      46.234  27.881  35.095  1.00  0.00     0.198 A 
ATOM     68  F   UNL A   1      45.498  29.809  33.968  1.00  0.00    -0.203 F 
ATOM     69  F   UNL A   1      44.369  25.108  36.499  1.00  0.00    -0.200 F 
ATOM     70  C   UNL A   1      45.954  26.685  35.741  1.00  0.00     0.200 A 
ATOM     71  F   UNL A   1      47.502  28.299  34.981  1.00  0.00    -0.200 F 
ATOM     72  F   UNL A   1      46.950  25.959  36.269  1.00  0.00    -0.200 F 
ENDBRANCH  39  62
ENDBRANCH  13  14
ENDBRANCH   6   8
ENDBRANCH   3   4
ENDBRANCH   2   3
ENDBRANCH   1   2
BRANCH   1  73
ATOM     73  C   UNL A   1      32.843  30.064  26.628  1.00  0.00     0.002 C 
BRANCH  73  74
ATOM     74  C   UNL A   1      32.799  28.681  27.285  1.00  0.00     0.021 C 
BRANCH  74  75
ATOM     75  C   UNL A   1      33.419  27.546  26.476  1.00  0.00     0.116 C 
BRANCH  75  76
ATOM     76  N   UNL A   1      34.174  28.018  25.331  1.00  0.00    -0.351 N 
ATOM     77  C   UNL A   1      33.742  28.215  24.039  1.00  0.00     0.270 C 
ATOM     78  H   UNL A   1      35.121  28.226  25.501  1.00  0.00     0.163 HD
ATOM     79  O   UNL A   1      34.528  28.607  23.182  1.00  0.00    -0.268 OA
BRANCH  77  80
ATOM     80  C   UNL A   1      32.317  27.981  23.710  1.00  0.00     0.134 A 
ATOM     81  C   UNL A   1      31.553  29.002  23.218  1.00  0.00     0.063 A 
ATOM     82  N   UNL A   1      31.850  26.756  23.970  1.00  0.00    -0.207 NA
ATOM     83  C   UNL A   1      30.221  28.704  23.048  1.00  0.00     0.077 A 
ATOM     84  C   UNL A   1      30.555  26.524  23.745  1.00  0.00     0.230 A 
ATOM     85  N   UNL A   1      29.712  27.471  23.296  1.00  0.00    -0.213 NA
BRANCH  83  86
ATOM     86  C   UNL A   1      29.273  29.764  22.673  1.00  0.00     0.000 A 
ATOM     87  C   UNL A   1      28.394  30.311  23.622  1.00  0.00     0.010 A 
ATOM     88  C   UNL A   1      29.292  30.332  21.386  1.00  0.00     0.010 A 
ATOM     89  C   UNL A   1      27.593  31.413  23.308  1.00  0.00     0.001 A 
ATOM     90  C   UNL A   1      28.489  31.431  21.070  1.00  0.00     0.001 A 
ATOM     91  C   UNL A   1      27.648  31.977  22.035  1.00  0.00     0.000 A 
ENDBRANCH  83  86
BRANCH  84  92
ATOM     92  N   UNL A   1      30.053  25.234  23.904  1.00  0.00    -0.300 N 
ATOM     93  H   UNL A   1      29.140  25.043  23.588  1.00  0.00     0.172 HD
BRANCH  92  94
ATOM     94  C   UNL A   1      30.761  24.235  24.470  1.00  0.00     0.190 A 
ATOM     95  N   UNL A   1      30.946  24.081  25.762  1.00  0.00    -0.220 NA
ATOM     96  S   UNL A   1      31.525  23.029  23.501  1.00  0.00    -0.097 S 
ATOM     97  C   UNL A   1      31.904  23.124  26.012  1.00  0.00     0.084 A 
ATOM     98  C   UNL A   1      32.372  22.447  24.887  1.00  0.00     0.056 A 
ATOM     99  C   UNL A   1      32.441  22.814  27.276  1.00  0.00     0.030 A 
ATOM    100  C   UNL A   1      33.377  21.470  24.984  1.00  0.00     0.021 A 
ATOM    101  C   UNL A   1      33.452  21.856  27.382  1.00  0.00     0.002 A 
ATOM    102  C   UNL A   1      33.915  21.197  26.248  1.00  0.00     0.002 A 
ENDBRANCH  92  94
ENDBRANCH  84  92
ENDBRANCH  77  80
ENDBRANCH  75  76
ENDBRANCH  74  75
ENDBRANCH  73  74
ENDBRANCH   1  73
TORSDOF 16
ENDMDL
