MODEL 1
REMARK VINA RESULT:     -13.3      0.000      0.000
REMARK SMILES Cc1ccnc(C(=O)c2[nH]c3ccc(OC(F)(F)F)cc3c2CC(=O)NCCCCCCNC(=O)c2ccc(-c3c4nc(c(-c5c(F)c(F)c(F)c(F)c5F)c5ccc([nH]5)c(-c5c(F)c(F)c(F)c(F)c5F)c5nc(c(-c6c(F)c(F)c(F)c(F)c6F)c6ccc3[nH]6)C=C5)C=C4)cc2)c1
REMARK SMILES IDX 29 1 28 2 27 3 26 4 24 5 25 6 23 8 22 9 9 10 10 11 11 12
REMARK SMILES IDX 21 14 12 15 20 16 13 17 14 18 7 19 8 20 6 21 1 22 2 23 3 24
REMARK SMILES IDX 99 25 4 26 5 27 15 28 16 29 17 30 18 31 19 32 30 33 31 34
REMARK SMILES IDX 32 35 33 36 34 37 35 39 36 40 37 41 98 42 38 43 97 44 39 45
REMARK SMILES IDX 40 46 41 47 91 48 42 49 96 50 90 51 92 52 43 53 95 54 89 55
REMARK SMILES IDX 88 56 44 58 76 59 56 60 75 61 57 62 60 63 74 64 93 65 58 66
REMARK SMILES IDX 59 67 73 69 94 70 61 71 45 72 46 73 54 74 47 75 48 76 52 77
REMARK SMILES IDX 55 78 49 79 50 80 53 81 51 82 77 83 78 84 86 85 79 86 80 87
REMARK SMILES IDX 84 88 87 89 81 90 82 91 85 92 83 93 62 94 63 95 71 96 64 97
REMARK SMILES IDX 65 98 69 99 72 100 66 101 67 102 70 103 68 104
REMARK H PARENT 26 7 10 13 33 38 92 57 60 68
REMARK Flexibility Score: inf
ROOT
ATOM      1  C   UNL A   1      32.008  29.464  26.604  1.00  0.00     0.002 C 
ENDROOT
BRANCH   1   2
ATOM      2  C   UNL A   1      31.392  28.107  26.242  1.00  0.00     0.021 C 
BRANCH   2   3
ATOM      3  C   UNL A   1      32.306  26.907  26.491  1.00  0.00     0.116 C 
BRANCH   3   4
ATOM      4  N   UNL A   1      31.569  25.731  26.907  1.00  0.00    -0.356 N 
ATOM      5  C   UNL A   1      31.816  24.414  26.651  1.00  0.00     0.224 C 
ATOM      6  O   UNL A   1      31.096  23.575  27.200  1.00  0.00    -0.275 OA
ATOM      7  H   UNL A   1      30.772  25.910  27.456  1.00  0.00     0.163 HD
BRANCH   5   8
ATOM      8  C   UNL A   1      33.021  23.985  25.831  1.00  0.00     0.138 C 
BRANCH   8   9
ATOM      9  C   UNL A   1      32.719  23.412  24.475  1.00  0.00    -0.002 A 
ATOM     10  C   UNL A   1      32.520  24.104  23.285  1.00  0.00     0.093 A 
ATOM     11  N   UNL A   1      32.351  23.170  22.288  1.00  0.00    -0.352 N 
ATOM     12  C   UNL A   1      32.298  21.903  22.813  1.00  0.00     0.046 A 
ATOM     13  H   UNL A   1      32.278  23.382  21.329  1.00  0.00     0.167 HD
ATOM     14  C   UNL A   1      32.513  22.020  24.182  1.00  0.00     0.008 A 
ATOM     15  C   UNL A   1      32.090  20.672  22.183  1.00  0.00     0.030 A 
ATOM     16  C   UNL A   1      32.509  20.841  24.958  1.00  0.00     0.057 A 
ATOM     17  C   UNL A   1      32.100  19.518  22.978  1.00  0.00     0.049 A 
ATOM     18  C   UNL A   1      32.309  19.593  24.353  1.00  0.00     0.130 A 
BRANCH  10  19
ATOM     19  C   UNL A   1      32.567  25.534  23.032  1.00  0.00     0.227 C 
ATOM     20  O   UNL A   1      33.621  26.083  22.728  1.00  0.00    -0.285 OA
BRANCH  19  21
ATOM     21  C   UNL A   1      31.277  26.324  23.110  1.00  0.00     0.113 A 
ATOM     22  C   UNL A   1      29.780  29.694  22.204  1.00  0.00     0.044 C 
ATOM     23  C   UNL A   1      29.947  28.297  22.723  1.00  0.00    -0.047 A 
ATOM     24  C   UNL A   1      28.893  27.663  23.379  1.00  0.00     0.023 A 
ATOM     25  C   UNL A   1      31.154  27.605  22.568  1.00  0.00     0.036 A 
ATOM     26  C   UNL A   1      29.092  26.383  23.870  1.00  0.00     0.112 A 
ATOM     27  N   UNL A   1      30.256  25.713  23.764  1.00  0.00    -0.253 NA
ENDBRANCH  19  21
ENDBRANCH  10  19
BRANCH  18  28
ATOM     28  O   UNL A   1      32.347  18.542  25.228  1.00  0.00    -0.406 OA
BRANCH  28  29
ATOM     29  C   UNL A   1      33.277  17.502  24.977  1.00  0.00     0.573 C 
ATOM     30  F   UNL A   1      32.824  16.667  24.019  1.00  0.00    -0.132 F 
ATOM     31  F   UNL A   1      34.478  18.001  24.613  1.00  0.00    -0.132 F 
ATOM     32  F   UNL A   1      33.444  16.790  26.113  1.00  0.00    -0.132 F 
ENDBRANCH  28  29
ENDBRANCH  18  28
ENDBRANCH   8   9
ENDBRANCH   5   8
ENDBRANCH   3   4
ENDBRANCH   2   3
ENDBRANCH   1   2
BRANCH   1  33
ATOM     33  C   UNL A   1      31.521  30.661  25.778  1.00  0.00     0.002 C 
BRANCH  33  34
ATOM     34  C   UNL A   1      31.311  31.965  26.554  1.00  0.00     0.021 C 
BRANCH  34  35
ATOM     35  C   UNL A   1      32.580  32.600  27.120  1.00  0.00     0.116 C 
BRANCH  35  36
ATOM     36  N   UNL A   1      32.373  33.976  27.539  1.00  0.00    -0.352 N 
ATOM     37  C   UNL A   1      33.020  34.705  28.505  1.00  0.00     0.251 C 
ATOM     38  H   UNL A   1      31.662  34.457  27.059  1.00  0.00     0.163 HD
ATOM     39  O   UNL A   1      32.598  35.814  28.824  1.00  0.00    -0.269 OA
BRANCH  37  40
ATOM     40  C   UNL A   1      34.218  34.162  29.186  1.00  0.00     0.039 A 
ATOM     41  C   UNL A   1      34.039  33.345  30.308  1.00  0.00     0.014 A 
ATOM     42  C   UNL A   1      35.509  34.490  28.760  1.00  0.00     0.014 A 
ATOM     43  C   UNL A   1      35.148  32.811  30.968  1.00  0.00     0.010 A 
ATOM     44  C   UNL A   1      36.615  33.923  29.394  1.00  0.00     0.010 A 
ATOM     45  C   UNL A   1      36.444  33.079  30.503  1.00  0.00    -0.014 A 
BRANCH  45  46
ATOM     46  C   UNL A   1      37.635  32.490  31.165  1.00  0.00     0.031 A 
ATOM     47  C   UNL A   1      38.404  31.388  30.493  1.00  0.00     0.074 A 
ATOM     48  C   UNL A   1      37.988  32.904  32.396  1.00  0.00     0.049 A 
ATOM     49  N   UNL A   1      39.401  30.674  30.953  1.00  0.00    -0.248 NA
ATOM     50  C   UNL A   1      37.983  31.027  29.131  1.00  0.00     0.031 C 
ATOM     51  C   UNL A   1      37.306  33.943  33.167  1.00  0.00     0.029 A 
ATOM     52  N   UNL A   1      39.000  32.485  33.223  1.00  0.00    -0.354 N 
ATOM     53  C   UNL A   1      39.712  29.769  29.948  1.00  0.00     0.074 A 
ATOM     54  C   UNL A   1      38.783  30.005  28.863  1.00  0.00     0.031 C 
ATOM     55  C   UNL A   1      37.921  34.086  34.353  1.00  0.00     0.029 A 
ATOM     56  C   UNL A   1      39.021  33.129  34.436  1.00  0.00     0.049 A 
ATOM     57  H   UNL A   1      39.651  31.789  32.971  1.00  0.00     0.167 HD
ATOM     58  C   UNL A   1      40.691  28.833  29.928  1.00  0.00     0.037 A 
ATOM     59  C   UNL A   1      39.830  32.958  35.498  1.00  0.00     0.037 A 
ATOM     60  C   UNL A   1      41.635  28.617  30.992  1.00  0.00     0.049 A 
ATOM     61  C   UNL A   1      40.926  31.932  35.439  1.00  0.00     0.074 A 
ATOM     62  C   UNL A   1      42.682  27.711  31.049  1.00  0.00     0.029 A 
ATOM     63  N   UNL A   1      41.655  29.324  32.183  1.00  0.00    -0.354 N 
ATOM     64  N   UNL A   1      41.226  31.099  34.473  1.00  0.00    -0.248 NA
ATOM     65  C   UNL A   1      41.803  31.827  36.615  1.00  0.00     0.031 C 
ATOM     66  C   UNL A   1      43.324  27.860  32.284  1.00  0.00     0.029 A 
ATOM     67  C   UNL A   1      42.694  28.876  32.983  1.00  0.00     0.049 A 
ATOM     68  H   UNL A   1      41.024  30.041  32.426  1.00  0.00     0.167 HD
ATOM     69  C   UNL A   1      42.333  30.387  34.913  1.00  0.00     0.074 A 
ATOM     70  C   UNL A   1      42.660  30.892  36.229  1.00  0.00     0.031 C 
ATOM     71  C   UNL A   1      43.015  29.401  34.283  1.00  0.00     0.037 A 
BRANCH  58  72
ATOM     72  C   UNL A   1      40.796  27.970  28.709  1.00  0.00     0.064 A 
ATOM     73  C   UNL A   1      40.073  26.774  28.597  1.00  0.00     0.173 A 
ATOM     74  C   UNL A   1      41.592  28.364  27.623  1.00  0.00     0.173 A 
ATOM     75  F   UNL A   1      39.308  26.351  29.614  1.00  0.00    -0.203 F 
ATOM     76  C   UNL A   1      40.155  25.994  27.447  1.00  0.00     0.198 A 
ATOM     77  C   UNL A   1      41.656  27.591  26.467  1.00  0.00     0.198 A 
ATOM     78  F   UNL A   1      42.301  29.501  27.681  1.00  0.00    -0.203 F 
ATOM     79  F   UNL A   1      39.480  24.838  27.373  1.00  0.00    -0.200 F 
ATOM     80  C   UNL A   1      40.941  26.405  26.381  1.00  0.00     0.200 A 
ATOM     81  F   UNL A   1      42.411  27.993  25.435  1.00  0.00    -0.200 F 
ATOM     82  F   UNL A   1      41.015  25.656  25.273  1.00  0.00    -0.200 F 
ENDBRANCH  58  72
BRANCH  59  83
ATOM     83  C   UNL A   1      39.644  33.795  36.710  1.00  0.00     0.064 A 
ATOM     84  C   UNL A   1      38.855  33.345  37.777  1.00  0.00     0.173 A 
ATOM     85  C   UNL A   1      40.241  35.057  36.822  1.00  0.00     0.173 A 
ATOM     86  F   UNL A   1      38.246  32.152  37.702  1.00  0.00    -0.203 F 
ATOM     87  C   UNL A   1      38.658  34.135  38.907  1.00  0.00     0.198 A 
ATOM     88  C   UNL A   1      40.061  35.838  37.961  1.00  0.00     0.198 A 
ATOM     89  F   UNL A   1      41.006  35.529  35.825  1.00  0.00    -0.203 F 
ATOM     90  F   UNL A   1      37.867  33.699  39.897  1.00  0.00    -0.200 F 
ATOM     91  C   UNL A   1      39.264  35.379  39.000  1.00  0.00     0.200 A 
ATOM     92  F   UNL A   1      40.653  37.036  38.051  1.00  0.00    -0.200 F 
ATOM     93  F   UNL A   1      39.073  36.139  40.087  1.00  0.00    -0.200 F 
ENDBRANCH  59  83
BRANCH  71  94
ATOM     94  C   UNL A   1      44.200  28.827  34.993  1.00  0.00     0.064 A 
ATOM     95  C   UNL A   1      44.077  27.722  35.846  1.00  0.00     0.173 A 
ATOM     96  C   UNL A   1      45.480  29.365  34.788  1.00  0.00     0.173 A 
ATOM     97  F   UNL A   1      42.870  27.185  36.083  1.00  0.00    -0.203 F 
ATOM     98  C   UNL A   1      45.192  27.183  36.482  1.00  0.00     0.198 A 
ATOM     99  C   UNL A   1      46.595  28.813  35.411  1.00  0.00     0.198 A 
ATOM    100  F   UNL A   1      45.646  30.422  33.978  1.00  0.00    -0.203 F 
ATOM    101  F   UNL A   1      45.048  26.146  37.318  1.00  0.00    -0.200 F 
ATOM    102  C   UNL A   1      46.450  27.725  36.260  1.00  0.00     0.200 A 
ATOM    103  F   UNL A   1      47.809  29.333  35.192  1.00  0.00    -0.200 F 
ATOM    104  F   UNL A   1      47.522  27.203  36.871  1.00  0.00    -0.200 F 
ENDBRANCH  71  94
ENDBRANCH  45  46
ENDBRANCH  37  40
ENDBRANCH  35  36
ENDBRANCH  34  35
ENDBRANCH  33  34
ENDBRANCH   1  33
TORSDOF 18
ENDMDL
MODEL 2
REMARK VINA RESULT:     -13.2      2.978      8.503
REMARK SMILES Cc1ccnc(C(=O)c2[nH]c3ccc(OC(F)(F)F)cc3c2CC(=O)NCCCCCCNC(=O)c2ccc(-c3c4nc(c(-c5c(F)c(F)c(F)c(F)c5F)c5ccc([nH]5)c(-c5c(F)c(F)c(F)c(F)c5F)c5nc(c(-c6c(F)c(F)c(F)c(F)c6F)c6ccc3[nH]6)C=C5)C=C4)cc2)c1
REMARK SMILES IDX 29 1 28 2 27 3 26 4 24 5 25 6 23 8 22 9 9 10 10 11 11 12
REMARK SMILES IDX 21 14 12 15 20 16 13 17 14 18 7 19 8 20 6 21 1 22 2 23 3 24
REMARK SMILES IDX 99 25 4 26 5 27 15 28 16 29 17 30 18 31 19 32 30 33 31 34
REMARK SMILES IDX 32 35 33 36 34 37 35 39 36 40 37 41 98 42 38 43 97 44 39 45
REMARK SMILES IDX 40 46 41 47 91 48 42 49 96 50 90 51 92 52 43 53 95 54 89 55
REMARK SMILES IDX 88 56 44 58 76 59 56 60 75 61 57 62 60 63 74 64 93 65 58 66
REMARK SMILES IDX 59 67 73 69 94 70 61 71 45 72 46 73 54 74 47 75 48 76 52 77
REMARK SMILES IDX 55 78 49 79 50 80 53 81 51 82 77 83 78 84 86 85 79 86 80 87
REMARK SMILES IDX 84 88 87 89 81 90 82 91 85 92 83 93 62 94 63 95 71 96 64 97
REMARK SMILES IDX 65 98 69 99 72 100 66 101 67 102 70 103 68 104
REMARK H PARENT 26 7 10 13 33 38 92 57 60 68
REMARK Flexibility Score: inf
ROOT
ATOM      1  C   UNL A   1      33.809  32.222  28.009  1.00  0.00     0.002 C 
ENDROOT
BRANCH   1   2
ATOM      2  C   UNL A   1      34.969  31.223  27.914  1.00  0.00     0.021 C 
BRANCH   2   3
ATOM      3  C   UNL A   1      34.605  29.887  27.265  1.00  0.00     0.116 C 
BRANCH   3   4
ATOM      4  N   UNL A   1      33.443  29.277  27.876  1.00  0.00    -0.356 N 
ATOM      5  C   UNL A   1      32.574  28.358  27.366  1.00  0.00     0.224 C 
ATOM      6  O   UNL A   1      31.704  27.907  28.118  1.00  0.00    -0.275 OA
ATOM      7  H   UNL A   1      33.251  29.571  28.796  1.00  0.00     0.163 HD
BRANCH   5   8
ATOM      8  C   UNL A   1      32.752  27.799  25.964  1.00  0.00     0.138 C 
BRANCH   8   9
ATOM      9  C   UNL A   1      31.540  27.147  25.361  1.00  0.00    -0.002 A 
ATOM     10  C   UNL A   1      31.154  25.814  25.460  1.00  0.00     0.093 A 
ATOM     11  N   UNL A   1      29.943  25.687  24.819  1.00  0.00    -0.352 N 
ATOM     12  C   UNL A   1      29.598  26.859  24.194  1.00  0.00     0.046 A 
ATOM     13  H   UNL A   1      29.398  24.867  24.811  1.00  0.00     0.167 HD
ATOM     14  C   UNL A   1      30.583  27.791  24.503  1.00  0.00     0.008 A 
ATOM     15  C   UNL A   1      28.493  27.166  23.395  1.00  0.00     0.030 A 
ATOM     16  C   UNL A   1      30.456  29.093  23.974  1.00  0.00     0.057 A 
ATOM     17  C   UNL A   1      28.389  28.469  22.891  1.00  0.00     0.049 A 
ATOM     18  C   UNL A   1      29.355  29.431  23.175  1.00  0.00     0.130 A 
BRANCH  10  19
ATOM     19  C   UNL A   1      31.794  24.720  26.170  1.00  0.00     0.227 C 
ATOM     20  O   UNL A   1      31.347  24.320  27.240  1.00  0.00    -0.285 OA
BRANCH  19  21
ATOM     21  C   UNL A   1      33.000  24.056  25.540  1.00  0.00     0.113 A 
ATOM     22  C   UNL A   1      36.783  23.852  25.814  1.00  0.00     0.044 C 
ATOM     23  C   UNL A   1      35.368  23.641  25.362  1.00  0.00    -0.047 A 
ATOM     24  C   UNL A   1      35.100  22.834  24.257  1.00  0.00     0.023 A 
ATOM     25  C   UNL A   1      34.295  24.245  26.027  1.00  0.00     0.036 A 
ATOM     26  C   UNL A   1      33.785  22.683  23.850  1.00  0.00     0.112 A 
ATOM     27  N   UNL A   1      32.740  23.284  24.453  1.00  0.00    -0.253 NA
ENDBRANCH  19  21
ENDBRANCH  10  19
BRANCH  18  28
ATOM     28  O   UNL A   1      29.359  30.730  22.749  1.00  0.00    -0.406 OA
BRANCH  28  29
ATOM     29  C   UNL A   1      28.777  31.708  23.594  1.00  0.00     0.573 C 
ATOM     30  F   UNL A   1      29.570  31.967  24.655  1.00  0.00    -0.132 F 
ATOM     31  F   UNL A   1      28.537  32.853  22.918  1.00  0.00    -0.132 F 
ATOM     32  F   UNL A   1      27.598  31.236  24.053  1.00  0.00    -0.132 F 
ENDBRANCH  28  29
ENDBRANCH  18  28
ENDBRANCH   8   9
ENDBRANCH   5   8
ENDBRANCH   3   4
ENDBRANCH   2   3
ENDBRANCH   1   2
BRANCH   1  33
ATOM     33  C   UNL A   1      34.106  33.520  28.769  1.00  0.00     0.002 C 
BRANCH  33  34
ATOM     34  C   UNL A   1      32.998  34.577  28.743  1.00  0.00     0.021 C 
BRANCH  34  35
ATOM     35  C   UNL A   1      33.358  35.917  29.383  1.00  0.00     0.116 C 
BRANCH  35  36
ATOM     36  N   UNL A   1      32.547  36.211  30.553  1.00  0.00    -0.352 N 
ATOM     37  C   UNL A   1      32.692  35.785  31.849  1.00  0.00     0.251 C 
ATOM     38  H   UNL A   1      31.778  36.803  30.390  1.00  0.00     0.163 HD
ATOM     39  O   UNL A   1      31.811  36.016  32.674  1.00  0.00    -0.269 OA
BRANCH  37  40
ATOM     40  C   UNL A   1      33.896  35.031  32.267  1.00  0.00     0.039 A 
ATOM     41  C   UNL A   1      33.734  33.736  32.772  1.00  0.00     0.014 A 
ATOM     42  C   UNL A   1      35.170  35.604  32.211  1.00  0.00     0.014 A 
ATOM     43  C   UNL A   1      34.850  32.995  33.168  1.00  0.00     0.010 A 
ATOM     44  C   UNL A   1      36.288  34.849  32.567  1.00  0.00     0.010 A 
ATOM     45  C   UNL A   1      36.138  33.539  33.048  1.00  0.00    -0.014 A 
BRANCH  45  46
ATOM     46  C   UNL A   1      37.341  32.755  33.425  1.00  0.00     0.031 A 
ATOM     47  C   UNL A   1      38.054  33.042  34.715  1.00  0.00     0.074 A 
ATOM     48  C   UNL A   1      37.826  31.828  32.579  1.00  0.00     0.049 A 
ATOM     49  N   UNL A   1      39.178  32.545  35.169  1.00  0.00    -0.248 NA
ATOM     50  C   UNL A   1      37.434  34.037  35.604  1.00  0.00     0.031 C 
ATOM     51  C   UNL A   1      37.244  31.476  31.284  1.00  0.00     0.029 A 
ATOM     52  N   UNL A   1      38.934  31.022  32.675  1.00  0.00    -0.354 N 
ATOM     53  C   UNL A   1      39.408  33.178  36.382  1.00  0.00     0.074 A 
ATOM     54  C   UNL A   1      38.322  34.114  36.584  1.00  0.00     0.031 C 
ATOM     55  C   UNL A   1      37.995  30.524  30.708  1.00  0.00     0.029 A 
ATOM     56  C   UNL A   1      39.126  30.218  31.580  1.00  0.00     0.049 A 
ATOM     57  H   UNL A   1      39.534  31.021  33.457  1.00  0.00     0.167 HD
ATOM     58  C   UNL A   1      40.427  32.987  37.255  1.00  0.00     0.037 A 
ATOM     59  C   UNL A   1      40.111  29.342  31.305  1.00  0.00     0.037 A 
ATOM     60  C   UNL A   1      41.490  32.035  37.072  1.00  0.00     0.049 A 
ATOM     61  C   UNL A   1      41.214  29.129  32.302  1.00  0.00     0.074 A 
ATOM     62  C   UNL A   1      42.551  31.751  37.916  1.00  0.00     0.029 A 
ATOM     63  N   UNL A   1      41.622  31.203  35.971  1.00  0.00    -0.354 N 
ATOM     64  N   UNL A   1      41.407  29.716  33.457  1.00  0.00    -0.248 NA
ATOM     65  C   UNL A   1      42.234  28.125  31.961  1.00  0.00     0.031 C 
ATOM     66  C   UNL A   1      43.334  30.757  37.316  1.00  0.00     0.029 A 
ATOM     67  C   UNL A   1      42.746  30.405  36.113  1.00  0.00     0.049 A 
ATOM     68  H   UNL A   1      41.007  31.182  35.202  1.00  0.00     0.167 HD
ATOM     69  C   UNL A   1      42.553  29.142  33.990  1.00  0.00     0.074 A 
ATOM     70  C   UNL A   1      43.009  28.152  33.037  1.00  0.00     0.031 C 
ATOM     71  C   UNL A   1      43.174  29.414  35.162  1.00  0.00     0.037 A 
BRANCH  58  72
ATOM     72  C   UNL A   1      40.439  33.825  38.496  1.00  0.00     0.064 A 
ATOM     73  C   UNL A   1      41.183  35.010  38.568  1.00  0.00     0.173 A 
ATOM     74  C   UNL A   1      39.664  33.462  39.608  1.00  0.00     0.173 A 
ATOM     75  F   UNL A   1      41.948  35.392  37.535  1.00  0.00    -0.203 F 
ATOM     76  C   UNL A   1      41.164  35.797  39.717  1.00  0.00     0.198 A 
ATOM     77  C   UNL A   1      39.633  34.261  40.747  1.00  0.00     0.198 A 
ATOM     78  F   UNL A   1      38.934  32.337  39.585  1.00  0.00    -0.203 F 
ATOM     79  F   UNL A   1      41.907  36.911  39.778  1.00  0.00    -0.200 F 
ATOM     80  C   UNL A   1      40.385  35.425  40.803  1.00  0.00     0.200 A 
ATOM     81  F   UNL A   1      38.874  33.905  41.792  1.00  0.00    -0.200 F 
ATOM     82  F   UNL A   1      40.363  36.186  41.906  1.00  0.00    -0.200 F 
ENDBRANCH  58  72
BRANCH  59  83
ATOM     83  C   UNL A   1      40.089  28.583  30.030  1.00  0.00     0.064 A 
ATOM     84  C   UNL A   1      39.448  27.340  29.946  1.00  0.00     0.173 A 
ATOM     85  C   UNL A   1      40.710  29.080  28.876  1.00  0.00     0.173 A 
ATOM     86  F   UNL A   1      38.859  26.817  31.032  1.00  0.00    -0.203 F 
ATOM     87  C   UNL A   1      39.443  26.613  28.758  1.00  0.00     0.198 A 
ATOM     88  C   UNL A   1      40.688  28.362  27.682  1.00  0.00     0.198 A 
ATOM     89  F   UNL A   1      41.336  30.267  28.908  1.00  0.00    -0.203 F 
ATOM     90  F   UNL A   1      38.857  25.409  28.714  1.00  0.00    -0.200 F 
ATOM     91  C   UNL A   1      40.060  27.126  27.626  1.00  0.00     0.200 A 
ATOM     92  F   UNL A   1      41.277  28.863  26.589  1.00  0.00    -0.200 F 
ATOM     93  F   UNL A   1      40.056  26.426  26.484  1.00  0.00    -0.200 F 
ENDBRANCH  59  83
BRANCH  71  94
ATOM     94  C   UNL A   1      44.391  28.609  35.496  1.00  0.00     0.064 A 
ATOM     95  C   UNL A   1      45.672  29.026  35.108  1.00  0.00     0.173 A 
ATOM     96  C   UNL A   1      44.277  27.428  36.244  1.00  0.00     0.173 A 
ATOM     97  F   UNL A   1      45.825  30.142  34.378  1.00  0.00    -0.203 F 
ATOM     98  C   UNL A   1      46.798  28.280  35.446  1.00  0.00     0.198 A 
ATOM     99  C   UNL A   1      45.407  26.694  36.594  1.00  0.00     0.198 A 
ATOM    100  F   UNL A   1      43.072  26.991  36.638  1.00  0.00    -0.203 F 
ATOM    101  F   UNL A   1      48.010  28.679  35.038  1.00  0.00    -0.200 F 
ATOM    102  C   UNL A   1      46.664  27.118  36.192  1.00  0.00     0.200 A 
ATOM    103  F   UNL A   1      45.278  25.575  37.320  1.00  0.00    -0.200 F 
ATOM    104  F   UNL A   1      47.750  26.403  36.518  1.00  0.00    -0.200 F 
ENDBRANCH  71  94
ENDBRANCH  45  46
ENDBRANCH  37  40
ENDBRANCH  35  36
ENDBRANCH  34  35
ENDBRANCH  33  34
ENDBRANCH   1  33
TORSDOF 18
ENDMDL
MODEL 3
REMARK VINA RESULT:     -13.1      0.469      7.011
REMARK SMILES Cc1ccnc(C(=O)c2[nH]c3ccc(OC(F)(F)F)cc3c2CC(=O)NCCCCCCNC(=O)c2ccc(-c3c4nc(c(-c5c(F)c(F)c(F)c(F)c5F)c5ccc([nH]5)c(-c5c(F)c(F)c(F)c(F)c5F)c5nc(c(-c6c(F)c(F)c(F)c(F)c6F)c6ccc3[nH]6)C=C5)C=C4)cc2)c1
REMARK SMILES IDX 29 1 28 2 27 3 26 4 24 5 25 6 23 8 22 9 9 10 10 11 11 12
REMARK SMILES IDX 21 14 12 15 20 16 13 17 14 18 7 19 8 20 6 21 1 22 2 23 3 24
REMARK SMILES IDX 99 25 4 26 5 27 15 28 16 29 17 30 18 31 19 32 30 33 31 34
REMARK SMILES IDX 32 35 33 36 34 37 35 39 36 40 37 41 98 42 38 43 97 44 39 45
REMARK SMILES IDX 40 46 41 47 91 48 42 49 96 50 90 51 92 52 43 53 95 54 89 55
REMARK SMILES IDX 88 56 44 58 76 59 56 60 75 61 57 62 60 63 74 64 93 65 58 66
REMARK SMILES IDX 59 67 73 69 94 70 61 71 45 72 46 73 54 74 47 75 48 76 52 77
REMARK SMILES IDX 55 78 49 79 50 80 53 81 51 82 77 83 78 84 86 85 79 86 80 87
REMARK SMILES IDX 84 88 87 89 81 90 82 91 85 92 83 93 62 94 63 95 71 96 64 97
REMARK SMILES IDX 65 98 69 99 72 100 66 101 67 102 70 103 68 104
REMARK H PARENT 26 7 10 13 33 38 92 57 60 68
REMARK Flexibility Score: inf
ROOT
ATOM      1  C   UNL A   1      32.166  29.499  26.185  1.00  0.00     0.002 C 
ENDROOT
BRANCH   1   2
ATOM      2  C   UNL A   1      31.400  28.188  26.404  1.00  0.00     0.021 C 
BRANCH   2   3
ATOM      3  C   UNL A   1      32.278  26.936  26.431  1.00  0.00     0.116 C 
BRANCH   3   4
ATOM      4  N   UNL A   1      31.552  25.765  26.876  1.00  0.00    -0.356 N 
ATOM      5  C   UNL A   1      31.809  24.444  26.651  1.00  0.00     0.224 C 
ATOM      6  O   UNL A   1      31.098  23.613  27.222  1.00  0.00    -0.275 OA
ATOM      7  H   UNL A   1      30.754  25.950  27.423  1.00  0.00     0.163 HD
BRANCH   5   8
ATOM      8  C   UNL A   1      33.017  24.005  25.838  1.00  0.00     0.138 C 
BRANCH   8   9
ATOM      9  C   UNL A   1      32.718  23.429  24.483  1.00  0.00    -0.002 A 
ATOM     10  C   UNL A   1      32.522  24.118  23.291  1.00  0.00     0.093 A 
ATOM     11  N   UNL A   1      32.355  23.181  22.296  1.00  0.00    -0.352 N 
ATOM     12  C   UNL A   1      32.303  21.915  22.824  1.00  0.00     0.046 A 
ATOM     13  H   UNL A   1      32.285  23.390  21.337  1.00  0.00     0.167 HD
ATOM     14  C   UNL A   1      32.514  22.036  24.193  1.00  0.00     0.008 A 
ATOM     15  C   UNL A   1      32.097  20.683  22.197  1.00  0.00     0.030 A 
ATOM     16  C   UNL A   1      32.509  20.859  24.973  1.00  0.00     0.057 A 
ATOM     17  C   UNL A   1      32.105  19.530  22.995  1.00  0.00     0.049 A 
ATOM     18  C   UNL A   1      32.312  19.609  24.371  1.00  0.00     0.130 A 
BRANCH  10  19
ATOM     19  C   UNL A   1      32.567  25.547  23.035  1.00  0.00     0.227 C 
ATOM     20  O   UNL A   1      33.621  26.096  22.729  1.00  0.00    -0.285 OA
BRANCH  19  21
ATOM     21  C   UNL A   1      31.278  26.336  23.111  1.00  0.00     0.113 A 
ATOM     22  C   UNL A   1      29.803  29.736  22.279  1.00  0.00     0.044 C 
ATOM     23  C   UNL A   1      29.959  28.323  22.758  1.00  0.00    -0.047 A 
ATOM     24  C   UNL A   1      28.890  27.671  23.372  1.00  0.00     0.023 A 
ATOM     25  C   UNL A   1      31.167  27.634  22.606  1.00  0.00     0.036 A 
ATOM     26  C   UNL A   1      29.077  26.376  23.827  1.00  0.00     0.112 A 
ATOM     27  N   UNL A   1      30.242  25.707  23.724  1.00  0.00    -0.253 NA
ENDBRANCH  19  21
ENDBRANCH  10  19
BRANCH  18  28
ATOM     28  O   UNL A   1      32.349  18.561  25.248  1.00  0.00    -0.406 OA
BRANCH  28  29
ATOM     29  C   UNL A   1      33.261  17.508  24.989  1.00  0.00     0.573 C 
ATOM     30  F   UNL A   1      32.801  16.696  24.014  1.00  0.00    -0.132 F 
ATOM     31  F   UNL A   1      34.474  17.991  24.641  1.00  0.00    -0.132 F 
ATOM     32  F   UNL A   1      33.408  16.776  26.114  1.00  0.00    -0.132 F 
ENDBRANCH  28  29
ENDBRANCH  18  28
ENDBRANCH   8   9
ENDBRANCH   5   8
ENDBRANCH   3   4
ENDBRANCH   2   3
ENDBRANCH   1   2
BRANCH   1  33
ATOM     33  C   UNL A   1      31.350  30.659  25.601  1.00  0.00     0.002 C 
BRANCH  33  34
ATOM     34  C   UNL A   1      31.235  31.905  26.485  1.00  0.00     0.021 C 
BRANCH  34  35
ATOM     35  C   UNL A   1      32.558  32.448  27.023  1.00  0.00     0.116 C 
BRANCH  35  36
ATOM     36  N   UNL A   1      32.453  33.828  27.466  1.00  0.00    -0.352 N 
ATOM     37  C   UNL A   1      33.156  34.492  28.440  1.00  0.00     0.251 C 
ATOM     38  H   UNL A   1      31.776  34.367  26.997  1.00  0.00     0.163 HD
ATOM     39  O   UNL A   1      32.817  35.624  28.779  1.00  0.00    -0.269 OA
BRANCH  37  40
ATOM     40  C   UNL A   1      34.315  33.853  29.105  1.00  0.00     0.039 A 
ATOM     41  C   UNL A   1      34.075  32.854  30.054  1.00  0.00     0.014 A 
ATOM     42  C   UNL A   1      35.624  34.263  28.837  1.00  0.00     0.014 A 
ATOM     43  C   UNL A   1      35.146  32.227  30.694  1.00  0.00     0.010 A 
ATOM     44  C   UNL A   1      36.695  33.607  29.445  1.00  0.00     0.010 A 
ATOM     45  C   UNL A   1      36.466  32.583  30.378  1.00  0.00    -0.014 A 
BRANCH  45  46
ATOM     46  C   UNL A   1      37.620  31.902  31.016  1.00  0.00     0.031 A 
ATOM     47  C   UNL A   1      38.060  32.297  32.397  1.00  0.00     0.074 A 
ATOM     48  C   UNL A   1      38.310  30.972  30.330  1.00  0.00     0.049 A 
ATOM     49  N   UNL A   1      39.105  31.899  33.079  1.00  0.00    -0.248 NA
ATOM     50  C   UNL A   1      37.226  33.286  33.096  1.00  0.00     0.031 C 
ATOM     51  C   UNL A   1      38.003  30.522  28.972  1.00  0.00     0.029 A 
ATOM     52  N   UNL A   1      39.425  30.250  30.676  1.00  0.00    -0.354 N 
ATOM     53  C   UNL A   1      39.065  32.602  34.275  1.00  0.00     0.074 A 
ATOM     54  C   UNL A   1      37.908  33.469  34.218  1.00  0.00     0.031 C 
ATOM     55  C   UNL A   1      38.904  29.598  28.601  1.00  0.00     0.029 A 
ATOM     56  C   UNL A   1      39.867  29.411  29.684  1.00  0.00     0.049 A 
ATOM     57  H   UNL A   1      39.866  30.326  31.554  1.00  0.00     0.167 HD
ATOM     58  C   UNL A   1      39.911  32.521  35.331  1.00  0.00     0.037 A 
ATOM     59  C   UNL A   1      40.935  28.592  29.647  1.00  0.00     0.037 A 
ATOM     60  C   UNL A   1      41.043  31.637  35.403  1.00  0.00     0.049 A 
ATOM     61  C   UNL A   1      41.841  28.502  30.842  1.00  0.00     0.074 A 
ATOM     62  C   UNL A   1      41.941  31.465  36.444  1.00  0.00     0.029 A 
ATOM     63  N   UNL A   1      41.428  30.766  34.396  1.00  0.00    -0.354 N 
ATOM     64  N   UNL A   1      41.778  29.153  31.977  1.00  0.00    -0.248 NA
ATOM     65  C   UNL A   1      42.964  27.556  30.754  1.00  0.00     0.031 C 
ATOM     66  C   UNL A   1      42.880  30.501  36.059  1.00  0.00     0.029 A 
ATOM     67  C   UNL A   1      42.550  30.054  34.790  1.00  0.00     0.049 A 
ATOM     68  H   UNL A   1      40.971  30.667  33.529  1.00  0.00     0.167 HD
ATOM     69  C   UNL A   1      42.835  28.685  32.744  1.00  0.00     0.074 A 
ATOM     70  C   UNL A   1      43.519  27.685  31.952  1.00  0.00     0.031 C 
ATOM     71  C   UNL A   1      43.207  29.052  33.994  1.00  0.00     0.037 A 
BRANCH  58  72
ATOM     72  C   UNL A   1      39.640  33.414  36.502  1.00  0.00     0.064 A 
ATOM     73  C   UNL A   1      38.781  33.020  37.537  1.00  0.00     0.173 A 
ATOM     74  C   UNL A   1      40.279  34.658  36.612  1.00  0.00     0.173 A 
ATOM     75  F   UNL A   1      38.138  31.844  37.469  1.00  0.00    -0.203 F 
ATOM     76  C   UNL A   1      38.559  33.845  38.635  1.00  0.00     0.198 A 
ATOM     77  C   UNL A   1      40.069  35.472  37.721  1.00  0.00     0.198 A 
ATOM     78  F   UNL A   1      41.111  35.079  35.648  1.00  0.00    -0.203 F 
ATOM     79  F   UNL A   1      37.709  33.463  39.599  1.00  0.00    -0.200 F 
ATOM     80  C   UNL A   1      39.207  35.068  38.730  1.00  0.00     0.200 A 
ATOM     81  F   UNL A   1      40.702  36.651  37.815  1.00  0.00    -0.200 F 
ATOM     82  F   UNL A   1      38.996  35.860  39.790  1.00  0.00    -0.200 F 
ENDBRANCH  58  72
BRANCH  59  83
ATOM     83  C   UNL A   1      41.198  27.776  28.436  1.00  0.00     0.064 A 
ATOM     84  C   UNL A   1      42.059  28.239  27.432  1.00  0.00     0.173 A 
ATOM     85  C   UNL A   1      40.591  26.526  28.255  1.00  0.00     0.173 A 
ATOM     86  F   UNL A   1      42.643  29.440  27.554  1.00  0.00    -0.203 F 
ATOM     87  C   UNL A   1      42.292  27.487  26.283  1.00  0.00     0.198 A 
ATOM     88  C   UNL A   1      40.841  25.765  27.115  1.00  0.00     0.198 A 
ATOM     89  F   UNL A   1      39.759  26.041  29.190  1.00  0.00    -0.203 F 
ATOM     90  F   UNL A   1      43.090  27.969  25.320  1.00  0.00    -0.200 F 
ATOM     91  C   UNL A   1      41.686  26.249  26.127  1.00  0.00     0.200 A 
ATOM     92  F   UNL A   1      40.260  24.566  26.970  1.00  0.00    -0.200 F 
ATOM     93  F   UNL A   1      41.910  25.527  25.021  1.00  0.00    -0.200 F 
ENDBRANCH  59  83
BRANCH  71  94
ATOM     94  C   UNL A   1      44.385  28.349  34.593  1.00  0.00     0.064 A 
ATOM     95  C   UNL A   1      45.684  28.857  34.460  1.00  0.00     0.173 A 
ATOM     96  C   UNL A   1      44.206  27.174  35.339  1.00  0.00     0.173 A 
ATOM     97  F   UNL A   1      45.904  29.969  33.743  1.00  0.00    -0.203 F 
ATOM     98  C   UNL A   1      46.768  28.205  35.043  1.00  0.00     0.198 A 
ATOM     99  C   UNL A   1      45.289  26.535  35.934  1.00  0.00     0.198 A 
ATOM    100  F   UNL A   1      42.979  26.652  35.493  1.00  0.00    -0.203 F 
ATOM    101  F   UNL A   1      48.006  28.689  34.879  1.00  0.00    -0.200 F 
ATOM    102  C   UNL A   1      46.568  27.048  35.784  1.00  0.00     0.200 A 
ATOM    103  F   UNL A   1      45.095  25.422  36.654  1.00  0.00    -0.200 F 
ATOM    104  F   UNL A   1      47.613  26.424  36.346  1.00  0.00    -0.200 F 
ENDBRANCH  71  94
ENDBRANCH  45  46
ENDBRANCH  37  40
ENDBRANCH  35  36
ENDBRANCH  34  35
ENDBRANCH  33  34
ENDBRANCH   1  33
TORSDOF 18
ENDMDL
