MODEL 1
REMARK VINA RESULT:     -12.0      0.000      0.000
REMARK SMILES O=C(NCCCCCCNC(=O)C1CCN(S(=O)(=O)C2CC2)CC1)c1ccc(-c2c3nc(c(-c4c(F)c(F)c(F)c(F)c4F)c4ccc([nH]4)c(-c4c(F)c(F)c(F)c(F)c4F)c4nc(c(-c5c(F)c(F)c(F)c(F)c5F)c5ccc2[nH]5)C=C4)C=C3)cc1
REMARK SMILES IDX 6 1 5 2 4 3 3 4 1 5 2 6 25 8 26 9 87 10 27 11 86 12 28 13
REMARK SMILES IDX 29 14 30 15 80 16 31 17 85 18 79 19 81 20 32 21 84 22 78 23
REMARK SMILES IDX 77 24 33 26 65 27 45 28 64 29 46 30 49 31 63 32 82 33 47 34
REMARK SMILES IDX 48 35 62 37 83 38 50 39 34 40 35 41 43 42 36 43 37 44 41 45
REMARK SMILES IDX 44 46 38 47 39 48 42 49 40 50 66 51 67 52 75 53 68 54 69 55
REMARK SMILES IDX 73 56 76 57 70 58 71 59 74 60 72 61 51 62 52 63 60 64 53 65
REMARK SMILES IDX 54 66 58 67 61 68 55 69 56 70 59 71 57 72 7 73 8 74 9 75
REMARK SMILES IDX 10 76 11 77 12 79 13 80 14 81 24 82 15 83 23 84 16 85 17 86
REMARK SMILES IDX 18 87 19 88 20 89 21 90 22 91
REMARK H PARENT 3 7 81 25 49 36 10 78
REMARK Flexibility Score: inf
ROOT
ATOM      1  C   UNL A   1      31.481  30.721  25.906  1.00  0.00     0.002 C 
ENDROOT
BRANCH   1   2
ATOM      2  C   UNL A   1      31.290  32.119  26.497  1.00  0.00     0.021 C 
BRANCH   2   3
ATOM      3  C   UNL A   1      32.469  32.610  27.323  1.00  0.00     0.116 C 
BRANCH   3   4
ATOM      4  N   UNL A   1      32.361  34.033  27.613  1.00  0.00    -0.352 N 
ATOM      5  O   UNL A   1      32.629  35.899  28.857  1.00  0.00    -0.269 OA
ATOM      6  C   UNL A   1      33.012  34.769  28.569  1.00  0.00     0.251 C 
ATOM      7  H   UNL A   1      31.734  34.535  27.044  1.00  0.00     0.163 HD
BRANCH   6   8
ATOM      8  C   UNL A   1      34.190  34.191  29.246  1.00  0.00     0.039 A 
ATOM      9  C   UNL A   1      34.025  33.460  30.424  1.00  0.00     0.014 A 
ATOM     10  C   UNL A   1      35.459  34.350  28.683  1.00  0.00     0.014 A 
ATOM     11  C   UNL A   1      35.137  32.984  31.102  1.00  0.00     0.010 A 
ATOM     12  C   UNL A   1      36.569  33.786  29.315  1.00  0.00     0.010 A 
ATOM     13  C   UNL A   1      36.416  33.102  30.532  1.00  0.00    -0.014 A 
BRANCH  13  14
ATOM     14  C   UNL A   1      37.546  32.380  31.164  1.00  0.00     0.031 A 
ATOM     15  C   UNL A   1      38.021  32.718  32.546  1.00  0.00     0.074 A 
ATOM     16  C   UNL A   1      38.134  31.394  30.457  1.00  0.00     0.049 A 
ATOM     17  N   UNL A   1      38.999  32.180  33.230  1.00  0.00    -0.248 NA
ATOM     18  C   UNL A   1      37.316  33.799  33.253  1.00  0.00     0.031 C 
ATOM     19  C   UNL A   1      37.760  30.997  29.096  1.00  0.00     0.029 A 
ATOM     20  N   UNL A   1      39.156  30.540  30.779  1.00  0.00    -0.354 N 
ATOM     21  C   UNL A   1      39.041  32.865  34.436  1.00  0.00     0.074 A 
ATOM     22  C   UNL A   1      38.002  33.871  34.387  1.00  0.00     0.031 C 
ATOM     23  C   UNL A   1      38.511  29.956  28.716  1.00  0.00     0.029 A 
ATOM     24  C   UNL A   1      39.471  29.662  29.769  1.00  0.00     0.049 A 
ATOM     25  H   UNL A   1      39.619  30.553  31.648  1.00  0.00     0.167 HD
ATOM     26  C   UNL A   1      39.876  32.663  35.484  1.00  0.00     0.037 A 
ATOM     27  C   UNL A   1      40.452  28.745  29.685  1.00  0.00     0.037 A 
ATOM     28  C   UNL A   1      40.898  31.646  35.521  1.00  0.00     0.049 A 
ATOM     29  C   UNL A   1      41.381  28.577  30.853  1.00  0.00     0.074 A 
ATOM     30  C   UNL A   1      41.756  31.327  36.560  1.00  0.00     0.029 A 
ATOM     31  N   UNL A   1      41.209  30.794  34.472  1.00  0.00    -0.354 N 
ATOM     32  N   UNL A   1      41.372  29.189  32.013  1.00  0.00    -0.248 NA
ATOM     33  C   UNL A   1      42.459  27.593  30.702  1.00  0.00     0.031 C 
ATOM     34  C   UNL A   1      42.629  30.329  36.116  1.00  0.00     0.029 A 
ATOM     35  C   UNL A   1      42.271  29.976  34.825  1.00  0.00     0.049 A 
ATOM     36  H   UNL A   1      40.743  30.772  33.604  1.00  0.00     0.167 HD
ATOM     37  C   UNL A   1      42.427  28.651  32.735  1.00  0.00     0.074 A 
ATOM     38  C   UNL A   1      43.034  27.640  31.894  1.00  0.00     0.031 C 
ATOM     39  C   UNL A   1      42.861  28.971  33.977  1.00  0.00     0.037 A 
BRANCH  26  40
ATOM     40  C   UNL A   1      39.747  33.560  36.681  1.00  0.00     0.064 A 
ATOM     41  C   UNL A   1      40.403  34.798  36.752  1.00  0.00     0.173 A 
ATOM     42  C   UNL A   1      38.874  33.220  37.727  1.00  0.00     0.173 A 
ATOM     43  F   UNL A   1      41.253  35.169  35.783  1.00  0.00    -0.203 F 
ATOM     44  C   UNL A   1      40.193  35.659  37.828  1.00  0.00     0.198 A 
ATOM     45  C   UNL A   1      38.646  34.095  38.786  1.00  0.00     0.198 A 
ATOM     46  F   UNL A   1      38.215  32.052  37.704  1.00  0.00    -0.203 F 
ATOM     47  F   UNL A   1      40.847  36.828  37.886  1.00  0.00    -0.200 F 
ATOM     48  C   UNL A   1      39.306  35.313  38.837  1.00  0.00     0.200 A 
ATOM     49  F   UNL A   1      37.774  33.765  39.750  1.00  0.00    -0.200 F 
ATOM     50  F   UNL A   1      39.087  36.153  39.858  1.00  0.00    -0.200 F 
ENDBRANCH  26  40
BRANCH  27  51
ATOM     51  C   UNL A   1      40.629  27.950  28.442  1.00  0.00     0.064 A 
ATOM     52  C   UNL A   1      40.040  26.685  28.299  1.00  0.00     0.173 A 
ATOM     53  C   UNL A   1      41.416  28.424  27.382  1.00  0.00     0.173 A 
ATOM     54  F   UNL A   1      39.290  26.180  29.290  1.00  0.00    -0.203 F 
ATOM     55  C   UNL A   1      40.263  25.912  27.162  1.00  0.00     0.198 A 
ATOM     56  C   UNL A   1      41.605  27.668  26.228  1.00  0.00     0.198 A 
ATOM     57  F   UNL A   1      41.996  29.631  27.461  1.00  0.00    -0.203 F 
ATOM     58  F   UNL A   1      39.744  24.680  27.082  1.00  0.00    -0.200 F 
ATOM     59  C   UNL A   1      41.042  26.406  26.126  1.00  0.00     0.200 A 
ATOM     60  F   UNL A   1      42.339  28.158  25.220  1.00  0.00    -0.200 F 
ATOM     61  F   UNL A   1      41.257  25.661  25.033  1.00  0.00    -0.200 F 
ENDBRANCH  27  51
BRANCH  39  62
ATOM     62  C   UNL A   1      44.028  28.193  34.512  1.00  0.00     0.064 A 
ATOM     63  C   UNL A   1      45.346  28.650  34.371  1.00  0.00     0.173 A 
ATOM     64  C   UNL A   1      43.821  26.982  35.192  1.00  0.00     0.173 A 
ATOM     65  F   UNL A   1      45.598  29.793  33.713  1.00  0.00    -0.203 F 
ATOM     66  C   UNL A   1      46.418  27.908  34.860  1.00  0.00     0.198 A 
ATOM     67  C   UNL A   1      44.892  26.262  35.712  1.00  0.00     0.198 A 
ATOM     68  F   UNL A   1      42.581  26.502  35.359  1.00  0.00    -0.203 F 
ATOM     69  F   UNL A   1      47.672  28.334  34.658  1.00  0.00    -0.200 F 
ATOM     70  C   UNL A   1      46.189  26.719  35.536  1.00  0.00     0.200 A 
ATOM     71  F   UNL A   1      44.669  25.122  36.380  1.00  0.00    -0.200 F 
ATOM     72  F   UNL A   1      47.221  26.009  36.012  1.00  0.00    -0.200 F 
ENDBRANCH  39  62
ENDBRANCH  13  14
ENDBRANCH   6   8
ENDBRANCH   3   4
ENDBRANCH   2   3
ENDBRANCH   1   2
BRANCH   1  73
ATOM     73  C   UNL A   1      32.421  29.798  26.692  1.00  0.00     0.002 C 
BRANCH  73  74
ATOM     74  C   UNL A   1      31.781  28.505  27.198  1.00  0.00     0.021 C 
BRANCH  74  75
ATOM     75  C   UNL A   1      31.630  27.433  26.120  1.00  0.00     0.116 C 
BRANCH  75  76
ATOM     76  N   UNL A   1      31.186  26.172  26.651  1.00  0.00    -0.356 N 
ATOM     77  C   UNL A   1      31.708  24.926  26.586  1.00  0.00     0.223 C 
ATOM     78  H   UNL A   1      30.344  26.226  27.158  1.00  0.00     0.163 HD
ATOM     79  O   UNL A   1      31.106  24.062  27.238  1.00  0.00    -0.275 OA
BRANCH  77  80
ATOM     80  C   UNL A   1      32.945  24.516  25.774  1.00  0.00     0.081 C 
ATOM     81  C   UNL A   1      32.763  24.251  24.290  1.00  0.00     0.030 C 
ATOM     82  C   UNL A   1      33.880  23.506  26.409  1.00  0.00     0.030 C 
ATOM     83  C   UNL A   1      32.540  22.806  23.885  1.00  0.00     0.103 C 
ATOM     84  C   UNL A   1      33.625  22.052  26.058  1.00  0.00     0.103 C 
ATOM     85  N   UNL A   1      33.364  21.775  24.620  1.00  0.00    -0.202 NA
BRANCH  85  86
ATOM     86  S   UNL A   1      32.682  20.202  24.276  1.00  0.00     0.216 S 
ATOM     87  O   UNL A   1      31.778  19.899  25.367  1.00  0.00    -0.212 OA
ATOM     88  O   UNL A   1      32.166  20.273  22.922  1.00  0.00    -0.212 OA
BRANCH  86  89
ATOM     89  C   UNL A   1      33.836  18.813  24.251  1.00  0.00     0.124 C 
ATOM     90  C   UNL A   1      33.463  17.532  24.922  1.00  0.00     0.022 C 
ATOM     91  C   UNL A   1      33.403  17.636  23.418  1.00  0.00     0.022 C 
ENDBRANCH  86  89
ENDBRANCH  85  86
ENDBRANCH  77  80
ENDBRANCH  75  76
ENDBRANCH  74  75
ENDBRANCH  73  74
ENDBRANCH   1  73
TORSDOF 15
ENDMDL
MODEL 2
REMARK VINA RESULT:     -12.0      2.645      3.701
REMARK SMILES O=C(NCCCCCCNC(=O)C1CCN(S(=O)(=O)C2CC2)CC1)c1ccc(-c2c3nc(c(-c4c(F)c(F)c(F)c(F)c4F)c4ccc([nH]4)c(-c4c(F)c(F)c(F)c(F)c4F)c4nc(c(-c5c(F)c(F)c(F)c(F)c5F)c5ccc2[nH]5)C=C4)C=C3)cc1
REMARK SMILES IDX 6 1 5 2 4 3 3 4 1 5 2 6 25 8 26 9 87 10 27 11 86 12 28 13
REMARK SMILES IDX 29 14 30 15 80 16 31 17 85 18 79 19 81 20 32 21 84 22 78 23
REMARK SMILES IDX 77 24 33 26 65 27 45 28 64 29 46 30 49 31 63 32 82 33 47 34
REMARK SMILES IDX 48 35 62 37 83 38 50 39 34 40 35 41 43 42 36 43 37 44 41 45
REMARK SMILES IDX 44 46 38 47 39 48 42 49 40 50 66 51 67 52 75 53 68 54 69 55
REMARK SMILES IDX 73 56 76 57 70 58 71 59 74 60 72 61 51 62 52 63 60 64 53 65
REMARK SMILES IDX 54 66 58 67 61 68 55 69 56 70 59 71 57 72 7 73 8 74 9 75
REMARK SMILES IDX 10 76 11 77 12 79 13 80 14 81 24 82 15 83 23 84 16 85 17 86
REMARK SMILES IDX 18 87 19 88 20 89 21 90 22 91
REMARK H PARENT 3 7 81 25 49 36 10 78
REMARK Flexibility Score: inf
ROOT
ATOM      1  C   UNL A   1      34.655  34.836  28.372  1.00  0.00     0.002 C 
ENDROOT
BRANCH   1   2
ATOM      2  C   UNL A   1      33.310  35.242  28.978  1.00  0.00     0.021 C 
BRANCH   2   3
ATOM      3  C   UNL A   1      33.357  36.526  29.791  1.00  0.00     0.116 C 
BRANCH   3   4
ATOM      4  N   UNL A   1      32.458  36.465  30.935  1.00  0.00    -0.352 N 
ATOM      5  O   UNL A   1      31.538  35.530  32.773  1.00  0.00    -0.269 OA
ATOM      6  C   UNL A   1      32.503  35.632  32.023  1.00  0.00     0.251 C 
ATOM      7  H   UNL A   1      31.716  37.112  30.926  1.00  0.00     0.163 HD
BRANCH   6   8
ATOM      8  C   UNL A   1      33.734  34.863  32.291  1.00  0.00     0.039 A 
ATOM      9  C   UNL A   1      34.968  35.515  32.323  1.00  0.00     0.014 A 
ATOM     10  C   UNL A   1      33.652  33.492  32.545  1.00  0.00     0.014 A 
ATOM     11  C   UNL A   1      36.133  34.782  32.496  1.00  0.00     0.010 A 
ATOM     12  C   UNL A   1      34.816  32.770  32.817  1.00  0.00     0.010 A 
ATOM     13  C   UNL A   1      36.065  33.410  32.790  1.00  0.00    -0.014 A 
BRANCH  13  14
ATOM     14  C   UNL A   1      37.306  32.709  33.201  1.00  0.00     0.031 A 
ATOM     15  C   UNL A   1      37.992  33.020  34.498  1.00  0.00     0.074 A 
ATOM     16  C   UNL A   1      37.798  31.767  32.371  1.00  0.00     0.049 A 
ATOM     17  N   UNL A   1      39.086  32.497  34.992  1.00  0.00    -0.248 NA
ATOM     18  C   UNL A   1      37.382  34.053  35.350  1.00  0.00     0.031 C 
ATOM     19  C   UNL A   1      37.216  31.400  31.077  1.00  0.00     0.029 A 
ATOM     20  N   UNL A   1      38.885  30.941  32.489  1.00  0.00    -0.354 N 
ATOM     21  C   UNL A   1      39.307  33.145  36.199  1.00  0.00     0.074 A 
ATOM     22  C   UNL A   1      38.244  34.114  36.358  1.00  0.00     0.031 C 
ATOM     23  C   UNL A   1      37.925  30.398  30.541  1.00  0.00     0.029 A 
ATOM     24  C   UNL A   1      39.055  30.107  31.410  1.00  0.00     0.049 A 
ATOM     25  H   UNL A   1      39.484  30.943  33.270  1.00  0.00     0.167 HD
ATOM     26  C   UNL A   1      40.309  32.940  37.087  1.00  0.00     0.037 A 
ATOM     27  C   UNL A   1      40.035  29.229  31.132  1.00  0.00     0.037 A 
ATOM     28  C   UNL A   1      41.353  31.960  36.918  1.00  0.00     0.049 A 
ATOM     29  C   UNL A   1      41.150  29.057  32.125  1.00  0.00     0.074 A 
ATOM     30  C   UNL A   1      42.381  31.639  37.789  1.00  0.00     0.029 A 
ATOM     31  N   UNL A   1      41.512  31.152  35.802  1.00  0.00    -0.354 N 
ATOM     32  N   UNL A   1      41.314  29.632  33.292  1.00  0.00    -0.248 NA
ATOM     33  C   UNL A   1      42.217  28.117  31.762  1.00  0.00     0.031 C 
ATOM     34  C   UNL A   1      43.198  30.687  37.172  1.00  0.00     0.029 A 
ATOM     35  C   UNL A   1      42.642  30.362  35.945  1.00  0.00     0.049 A 
ATOM     36  H   UNL A   1      40.910  31.141  35.022  1.00  0.00     0.167 HD
ATOM     37  C   UNL A   1      42.489  29.110  33.810  1.00  0.00     0.074 A 
ATOM     38  C   UNL A   1      42.980  28.148  32.844  1.00  0.00     0.031 C 
ATOM     39  C   UNL A   1      43.113  29.406  34.976  1.00  0.00     0.037 A 
BRANCH  26  40
ATOM     40  C   UNL A   1      40.353  33.794  38.321  1.00  0.00     0.064 A 
ATOM     41  C   UNL A   1      41.080  34.992  38.366  1.00  0.00     0.173 A 
ATOM     42  C   UNL A   1      39.573  33.459  39.440  1.00  0.00     0.173 A 
ATOM     43  F   UNL A   1      41.846  35.357  37.328  1.00  0.00    -0.203 F 
ATOM     44  C   UNL A   1      41.030  35.820  39.487  1.00  0.00     0.198 A 
ATOM     45  C   UNL A   1      39.503  34.300  40.546  1.00  0.00     0.198 A 
ATOM     46  F   UNL A   1      38.851  32.328  39.446  1.00  0.00    -0.203 F 
ATOM     47  F   UNL A   1      41.750  36.950  39.517  1.00  0.00    -0.200 F 
ATOM     48  C   UNL A   1      40.233  35.480  40.570  1.00  0.00     0.200 A 
ATOM     49  F   UNL A   1      38.718  33.978  41.583  1.00  0.00    -0.200 F 
ATOM     50  F   UNL A   1      40.166  36.289  41.636  1.00  0.00    -0.200 F 
ENDBRANCH  26  40
BRANCH  27  51
ATOM     51  C   UNL A   1      40.028  28.479  29.849  1.00  0.00     0.064 A 
ATOM     52  C   UNL A   1      39.399  27.230  29.741  1.00  0.00     0.173 A 
ATOM     53  C   UNL A   1      40.676  28.982  28.710  1.00  0.00     0.173 A 
ATOM     54  F   UNL A   1      38.778  26.699  30.805  1.00  0.00    -0.203 F 
ATOM     55  C   UNL A   1      39.452  26.498  28.556  1.00  0.00     0.198 A 
ATOM     56  C   UNL A   1      40.694  28.267  27.515  1.00  0.00     0.198 A 
ATOM     57  F   UNL A   1      41.286  30.175  28.755  1.00  0.00    -0.203 F 
ATOM     58  F   UNL A   1      38.901  25.278  28.503  1.00  0.00    -0.200 F 
ATOM     59  C   UNL A   1      40.095  27.019  27.444  1.00  0.00     0.200 A 
ATOM     60  F   UNL A   1      41.296  28.785  26.436  1.00  0.00    -0.200 F 
ATOM     61  F   UNL A   1      40.147  26.314  26.306  1.00  0.00    -0.200 F 
ENDBRANCH  27  51
BRANCH  39  62
ATOM     62  C   UNL A   1      44.375  28.654  35.282  1.00  0.00     0.064 A 
ATOM     63  C   UNL A   1      44.354  27.414  35.939  1.00  0.00     0.173 A 
ATOM     64  C   UNL A   1      45.622  29.172  34.896  1.00  0.00     0.173 A 
ATOM     65  F   UNL A   1      43.190  26.885  36.345  1.00  0.00    -0.203 F 
ATOM     66  C   UNL A   1      45.536  26.738  36.228  1.00  0.00     0.198 A 
ATOM     67  C   UNL A   1      46.798  28.474  35.154  1.00  0.00     0.198 A 
ATOM     68  F   UNL A   1      45.698  30.350  34.262  1.00  0.00    -0.203 F 
ATOM     69  F   UNL A   1      45.496  25.586  36.912  1.00  0.00    -0.200 F 
ATOM     70  C   UNL A   1      46.755  27.264  35.829  1.00  0.00     0.200 A 
ATOM     71  F   UNL A   1      47.974  28.976  34.753  1.00  0.00    -0.200 F 
ATOM     72  F   UNL A   1      47.891  26.608  36.103  1.00  0.00    -0.200 F 
ENDBRANCH  39  62
ENDBRANCH  13  14
ENDBRANCH   6   8
ENDBRANCH   3   4
ENDBRANCH   2   3
ENDBRANCH   1   2
BRANCH   1  73
ATOM     73  C   UNL A   1      35.299  33.584  28.983  1.00  0.00     0.002 C 
BRANCH  73  74
ATOM     74  C   UNL A   1      34.402  32.346  29.011  1.00  0.00     0.021 C 
BRANCH  74  75
ATOM     75  C   UNL A   1      33.886  31.931  27.635  1.00  0.00     0.116 C 
BRANCH  75  76
ATOM     76  N   UNL A   1      34.326  30.615  27.253  1.00  0.00    -0.356 N 
ATOM     77  C   UNL A   1      33.656  29.531  26.800  1.00  0.00     0.223 C 
ATOM     78  H   UNL A   1      35.297  30.479  27.336  1.00  0.00     0.163 HD
ATOM     79  O   UNL A   1      34.362  28.566  26.477  1.00  0.00    -0.275 OA
BRANCH  77  80
ATOM     80  C   UNL A   1      32.130  29.409  26.678  1.00  0.00     0.081 C 
ATOM     81  C   UNL A   1      31.501  28.059  26.978  1.00  0.00     0.030 C 
ATOM     82  C   UNL A   1      31.482  30.072  25.479  1.00  0.00     0.030 C 
ATOM     83  C   UNL A   1      31.246  27.155  25.787  1.00  0.00     0.103 C 
ATOM     84  C   UNL A   1      31.279  29.190  24.261  1.00  0.00     0.103 C 
ATOM     85  N   UNL A   1      30.738  27.832  24.535  1.00  0.00    -0.202 NA
BRANCH  85  86
ATOM     86  S   UNL A   1      30.882  26.693  23.216  1.00  0.00     0.216 S 
ATOM     87  O   UNL A   1      30.009  25.581  23.536  1.00  0.00    -0.212 OA
ATOM     88  O   UNL A   1      30.653  27.452  22.001  1.00  0.00    -0.212 OA
BRANCH  86  89
ATOM     89  C   UNL A   1      32.504  25.936  22.980  1.00  0.00     0.124 C 
ATOM     90  C   UNL A   1      32.937  25.530  21.609  1.00  0.00     0.022 C 
ATOM     91  C   UNL A   1      33.504  26.780  22.236  1.00  0.00     0.022 C 
ENDBRANCH  86  89
ENDBRANCH  85  86
ENDBRANCH  77  80
ENDBRANCH  75  76
ENDBRANCH  74  75
ENDBRANCH  73  74
ENDBRANCH   1  73
TORSDOF 15
ENDMDL
MODEL 3
REMARK VINA RESULT:     -12.0      6.305     10.937
REMARK SMILES O=C(NCCCCCCNC(=O)C1CCN(S(=O)(=O)C2CC2)CC1)c1ccc(-c2c3nc(c(-c4c(F)c(F)c(F)c(F)c4F)c4ccc([nH]4)c(-c4c(F)c(F)c(F)c(F)c4F)c4nc(c(-c5c(F)c(F)c(F)c(F)c5F)c5ccc2[nH]5)C=C4)C=C3)cc1
REMARK SMILES IDX 6 1 5 2 4 3 3 4 1 5 2 6 25 8 26 9 87 10 27 11 86 12 28 13
REMARK SMILES IDX 29 14 30 15 80 16 31 17 85 18 79 19 81 20 32 21 84 22 78 23
REMARK SMILES IDX 77 24 33 26 65 27 45 28 64 29 46 30 49 31 63 32 82 33 47 34
REMARK SMILES IDX 48 35 62 37 83 38 50 39 34 40 35 41 43 42 36 43 37 44 41 45
REMARK SMILES IDX 44 46 38 47 39 48 42 49 40 50 66 51 67 52 75 53 68 54 69 55
REMARK SMILES IDX 73 56 76 57 70 58 71 59 74 60 72 61 51 62 52 63 60 64 53 65
REMARK SMILES IDX 54 66 58 67 61 68 55 69 56 70 59 71 57 72 7 73 8 74 9 75
REMARK SMILES IDX 10 76 11 77 12 79 13 80 14 81 24 82 15 83 23 84 16 85 17 86
REMARK SMILES IDX 18 87 19 88 20 89 21 90 22 91
REMARK H PARENT 3 7 81 25 49 36 10 78
REMARK Flexibility Score: inf
ROOT
ATOM      1  C   UNL A   1      41.757  19.869  27.598  1.00  0.00     0.002 C 
ENDROOT
BRANCH   1   2
ATOM      2  C   UNL A   1      42.680  18.911  26.842  1.00  0.00     0.021 C 
BRANCH   2   3
ATOM      3  C   UNL A   1      42.692  19.119  25.335  1.00  0.00     0.116 C 
BRANCH   3   4
ATOM      4  N   UNL A   1      43.975  18.745  24.756  1.00  0.00    -0.352 N 
ATOM      5  O   UNL A   1      45.925  19.117  23.680  1.00  0.00    -0.269 OA
ATOM      6  C   UNL A   1      45.019  19.551  24.384  1.00  0.00     0.251 C 
ATOM      7  H   UNL A   1      44.110  17.780  24.613  1.00  0.00     0.163 HD
BRANCH   6   8
ATOM      8  C   UNL A   1      45.049  20.952  24.848  1.00  0.00     0.039 A 
ATOM      9  C   UNL A   1      45.497  21.248  26.138  1.00  0.00     0.014 A 
ATOM     10  C   UNL A   1      44.663  21.977  23.981  1.00  0.00     0.014 A 
ATOM     11  C   UNL A   1      45.451  22.554  26.602  1.00  0.00     0.010 A 
ATOM     12  C   UNL A   1      44.712  23.304  24.416  1.00  0.00     0.010 A 
ATOM     13  C   UNL A   1      45.102  23.600  25.732  1.00  0.00    -0.014 A 
BRANCH  13  14
ATOM     14  C   UNL A   1      45.291  24.998  26.189  1.00  0.00     0.031 A 
ATOM     15  C   UNL A   1      44.161  25.794  26.772  1.00  0.00     0.074 A 
ATOM     16  C   UNL A   1      46.522  25.535  26.073  1.00  0.00     0.049 A 
ATOM     17  N   UNL A   1      44.169  27.028  27.210  1.00  0.00    -0.248 NA
ATOM     18  C   UNL A   1      42.853  25.129  26.873  1.00  0.00     0.031 C 
ATOM     19  C   UNL A   1      47.687  24.851  25.503  1.00  0.00     0.029 A 
ATOM     20  N   UNL A   1      47.007  26.765  26.434  1.00  0.00    -0.354 N 
ATOM     21  C   UNL A   1      42.871  27.294  27.621  1.00  0.00     0.074 A 
ATOM     22  C   UNL A   1      42.094  26.101  27.365  1.00  0.00     0.031 C 
ATOM     23  C   UNL A   1      48.757  25.652  25.589  1.00  0.00     0.029 A 
ATOM     24  C   UNL A   1      48.340  26.932  26.143  1.00  0.00     0.049 A 
ATOM     25  H   UNL A   1      46.456  27.460  26.860  1.00  0.00     0.167 HD
ATOM     26  C   UNL A   1      42.383  28.436  28.164  1.00  0.00     0.037 A 
ATOM     27  C   UNL A   1      49.133  28.011  26.274  1.00  0.00     0.037 A 
ATOM     28  C   UNL A   1      43.176  29.612  28.424  1.00  0.00     0.049 A 
ATOM     29  C   UNL A   1      48.545  29.270  26.845  1.00  0.00     0.074 A 
ATOM     30  C   UNL A   1      42.784  30.798  29.022  1.00  0.00     0.029 A 
ATOM     31  N   UNL A   1      44.514  29.757  28.092  1.00  0.00    -0.354 N 
ATOM     32  N   UNL A   1      47.330  29.490  27.287  1.00  0.00    -0.248 NA
ATOM     33  C   UNL A   1      49.436  30.433  26.932  1.00  0.00     0.031 C 
ATOM     34  C   UNL A   1      43.866  31.683  28.992  1.00  0.00     0.029 A 
ATOM     35  C   UNL A   1      44.954  31.026  28.438  1.00  0.00     0.049 A 
ATOM     36  H   UNL A   1      45.072  29.062  27.673  1.00  0.00     0.167 HD
ATOM     37  C   UNL A   1      47.317  30.806  27.722  1.00  0.00     0.074 A 
ATOM     38  C   UNL A   1      48.655  31.325  27.521  1.00  0.00     0.031 C 
ATOM     39  C   UNL A   1      46.289  31.525  28.234  1.00  0.00     0.037 A 
BRANCH  26  40
ATOM     40  C   UNL A   1      40.922  28.495  28.504  1.00  0.00     0.064 A 
ATOM     41  C   UNL A   1      40.443  28.150  29.776  1.00  0.00     0.173 A 
ATOM     42  C   UNL A   1      40.001  29.002  27.572  1.00  0.00     0.173 A 
ATOM     43  F   UNL A   1      41.278  27.656  30.701  1.00  0.00    -0.203 F 
ATOM     44  C   UNL A   1      39.096  28.304  30.101  1.00  0.00     0.198 A 
ATOM     45  C   UNL A   1      38.662  29.181  27.909  1.00  0.00     0.198 A 
ATOM     46  F   UNL A   1      40.407  29.355  26.344  1.00  0.00    -0.203 F 
ATOM     47  F   UNL A   1      38.656  27.948  31.316  1.00  0.00    -0.200 F 
ATOM     48  C   UNL A   1      38.210  28.831  29.172  1.00  0.00     0.200 A 
ATOM     49  F   UNL A   1      37.812  29.706  27.016  1.00  0.00    -0.200 F 
ATOM     50  F   UNL A   1      36.921  29.002  29.495  1.00  0.00    -0.200 F 
ENDBRANCH  26  40
BRANCH  27  51
ATOM     51  C   UNL A   1      50.548  27.960  25.822  1.00  0.00     0.064 A 
ATOM     52  C   UNL A   1      51.599  27.838  26.741  1.00  0.00     0.173 A 
ATOM     53  C   UNL A   1      50.880  28.063  24.462  1.00  0.00     0.173 A 
ATOM     54  F   UNL A   1      51.335  27.751  28.053  1.00  0.00    -0.203 F 
ATOM     55  C   UNL A   1      52.928  27.858  26.321  1.00  0.00     0.198 A 
ATOM     56  C   UNL A   1      52.207  28.043  24.040  1.00  0.00     0.198 A 
ATOM     57  F   UNL A   1      49.914  28.173  23.539  1.00  0.00    -0.203 F 
ATOM     58  F   UNL A   1      53.913  27.809  27.227  1.00  0.00    -0.200 F 
ATOM     59  C   UNL A   1      53.230  27.957  24.971  1.00  0.00     0.200 A 
ATOM     60  F   UNL A   1      52.494  28.114  22.734  1.00  0.00    -0.200 F 
ATOM     61  F   UNL A   1      54.508  27.979  24.569  1.00  0.00    -0.200 F 
ENDBRANCH  27  51
BRANCH  39  62
ATOM     62  C   UNL A   1      46.585  32.939  28.643  1.00  0.00     0.064 A 
ATOM     63  C   UNL A   1      46.412  34.014  27.759  1.00  0.00     0.173 A 
ATOM     64  C   UNL A   1      47.028  33.223  29.945  1.00  0.00     0.173 A 
ATOM     65  F   UNL A   1      46.008  33.794  26.498  1.00  0.00    -0.203 F 
ATOM     66  C   UNL A   1      46.706  35.317  28.151  1.00  0.00     0.198 A 
ATOM     67  C   UNL A   1      47.285  34.531  30.344  1.00  0.00     0.198 A 
ATOM     68  F   UNL A   1      47.206  32.233  30.831  1.00  0.00    -0.203 F 
ATOM     69  F   UNL A   1      46.593  36.321  27.270  1.00  0.00    -0.200 F 
ATOM     70  C   UNL A   1      47.134  35.575  29.444  1.00  0.00     0.200 A 
ATOM     71  F   UNL A   1      47.683  34.781  31.599  1.00  0.00    -0.200 F 
ATOM     72  F   UNL A   1      47.410  36.831  29.821  1.00  0.00    -0.200 F 
ENDBRANCH  39  62
ENDBRANCH  13  14
ENDBRANCH   6   8
ENDBRANCH   3   4
ENDBRANCH   2   3
ENDBRANCH   1   2
BRANCH   1  73
ATOM     73  C   UNL A   1      42.021  21.361  27.356  1.00  0.00     0.002 C 
BRANCH  73  74
ATOM     74  C   UNL A   1      41.147  22.006  26.280  1.00  0.00     0.021 C 
BRANCH  74  75
ATOM     75  C   UNL A   1      39.695  21.536  26.307  1.00  0.00     0.116 C 
BRANCH  75  76
ATOM     76  N   UNL A   1      38.762  22.626  26.407  1.00  0.00    -0.356 N 
ATOM     77  C   UNL A   1      37.599  22.886  25.765  1.00  0.00     0.223 C 
ATOM     78  H   UNL A   1      39.016  23.311  27.066  1.00  0.00     0.163 HD
ATOM     79  O   UNL A   1      36.988  23.889  26.158  1.00  0.00    -0.275 OA
BRANCH  77  80
ATOM     80  C   UNL A   1      37.010  22.062  24.611  1.00  0.00     0.081 C 
ATOM     81  C   UNL A   1      36.149  22.786  23.591  1.00  0.00     0.030 C 
ATOM     82  C   UNL A   1      36.438  20.703  24.960  1.00  0.00     0.030 C 
ATOM     83  C   UNL A   1      34.651  22.746  23.825  1.00  0.00     0.103 C 
ATOM     84  C   UNL A   1      34.950  20.665  25.256  1.00  0.00     0.103 C 
ATOM     85  N   UNL A   1      34.089  21.432  24.317  1.00  0.00    -0.202 NA
BRANCH  85  86
ATOM     86  S   UNL A   1      32.457  21.723  24.872  1.00  0.00     0.216 S 
ATOM     87  O   UNL A   1      31.832  22.578  23.882  1.00  0.00    -0.212 OA
ATOM     88  O   UNL A   1      31.886  20.419  25.148  1.00  0.00    -0.212 OA
BRANCH  86  89
ATOM     89  C   UNL A   1      32.284  22.633  26.422  1.00  0.00     0.124 C 
ATOM     90  C   UNL A   1      32.338  24.125  26.412  1.00  0.00     0.022 C 
ATOM     91  C   UNL A   1      31.011  23.424  26.563  1.00  0.00     0.022 C 
ENDBRANCH  86  89
ENDBRANCH  85  86
ENDBRANCH  77  80
ENDBRANCH  75  76
ENDBRANCH  74  75
ENDBRANCH  73  74
ENDBRANCH   1  73
TORSDOF 15
ENDMDL
