MODEL 1
REMARK VINA RESULT:     -13.8      0.000      0.000
REMARK SMILES Cc1cccc(-n2c(C)cc(/C=N\c3ccc(O)c(C(=O)NCCCCCCNC(=O)c4ccc(-c5c6nc(c(-c7c(F)c(F)c(F)c(F)c7F)c7ccc([nH]7)c(-c7c(F)c(F)c(F)c(F)c7F)c7nc(c(-c8c(F)c(F)c(F)c(F)c8F)c8ccc5[nH]8)C=C7)C=C6)cc4)c3)c2C)c1
REMARK SMILES IDX 25 1 24 2 23 3 22 4 20 5 21 6 19 8 14 9 15 10 95 11 16 12
REMARK SMILES IDX 17 13 13 14 12 15 11 16 7 17 8 18 96 19 9 20 10 21 97 22
REMARK SMILES IDX 6 23 1 24 2 25 3 26 98 27 4 28 5 29 18 30 26 32 27 33 28 34
REMARK SMILES IDX 29 35 30 36 31 38 32 39 33 40 94 41 34 42 93 43 35 44 36 45
REMARK SMILES IDX 37 46 87 47 38 48 92 49 86 50 88 51 39 52 91 53 85 54 84 55
REMARK SMILES IDX 40 57 72 58 52 59 71 60 53 61 56 62 70 63 89 64 54 65 55 66
REMARK SMILES IDX 69 68 90 69 57 70 41 71 42 72 50 73 43 74 44 75 48 76 51 77
REMARK SMILES IDX 45 78 46 79 49 80 47 81 73 82 74 83 82 84 75 85 76 86 80 87
REMARK SMILES IDX 83 88 77 89 78 90 81 91 79 92 58 93 59 94 67 95 60 96 61 97
REMARK SMILES IDX 65 98 68 99 62 100 63 101 66 102 64 103
REMARK H PARENT 22 7 18 31 29 37 88 56 56 67
REMARK Flexibility Score: inf
ROOT
ATOM      1  C   UNL A   1      33.287  26.875  26.096  1.00  0.00     0.002 C 
ENDROOT
BRANCH   1   2
ATOM      2  C   UNL A   1      31.829  26.714  26.538  1.00  0.00     0.021 C 
BRANCH   2   3
ATOM      3  C   UNL A   1      31.089  25.417  26.231  1.00  0.00     0.116 C 
BRANCH   3   4
ATOM      4  N   UNL A   1      31.357  24.291  27.094  1.00  0.00    -0.352 N 
ATOM      5  C   UNL A   1      32.360  23.344  27.058  1.00  0.00     0.255 C 
ATOM      6  O   UNL A   1      32.397  22.553  28.004  1.00  0.00    -0.269 OA
ATOM      7  H   UNL A   1      30.717  24.180  27.834  1.00  0.00     0.163 HD
BRANCH   5   8
ATOM      8  C   UNL A   1      33.377  23.199  25.961  1.00  0.00     0.083 A 
ATOM      9  C   UNL A   1      33.723  23.199  23.530  1.00  0.00     0.064 A 
ATOM     10  C   UNL A   1      35.084  22.973  23.710  1.00  0.00     0.032 A 
ATOM     11  C   UNL A   1      32.914  23.442  24.653  1.00  0.00     0.046 A 
ATOM     12  C   UNL A   1      35.569  22.726  24.989  1.00  0.00     0.049 A 
ATOM     13  C   UNL A   1      34.688  22.722  26.074  1.00  0.00     0.128 A 
BRANCH   9  14
ATOM     14  N   UNL A   1      33.135  23.158  22.266  1.00  0.00    -0.256 NA
ATOM     15  C   UNL A   1      32.635  24.208  21.674  1.00  0.00     0.121 C 
BRANCH  15  16
ATOM     16  C   UNL A   1      32.540  25.611  22.094  1.00  0.00     0.014 A 
ATOM     17  N   UNL A   1      31.902  27.679  22.772  1.00  0.00    -0.318 N 
ATOM     18  C   UNL A   1      33.257  27.745  22.497  1.00  0.00     0.021 A 
ATOM     19  C   UNL A   1      31.511  26.336  22.702  1.00  0.00     0.029 A 
ATOM     20  C   UNL A   1      34.093  28.954  22.749  1.00  0.00     0.065 C 
ATOM     21  C   UNL A   1      33.653  26.504  22.046  1.00  0.00     0.033 A 
ATOM     22  C   UNL A   1      30.170  25.889  23.160  1.00  0.00     0.065 C 
BRANCH  17  23
ATOM     23  C   UNL A   1      31.046  28.797  23.002  1.00  0.00     0.046 A 
ATOM     24  C   UNL A   1      28.167  30.565  21.225  1.00  0.00     0.044 C 
ATOM     25  C   UNL A   1      29.184  30.176  22.259  1.00  0.00    -0.049 A 
ATOM     26  C   UNL A   1      29.154  30.789  23.517  1.00  0.00     0.003 A 
ATOM     27  C   UNL A   1      30.139  29.179  22.002  1.00  0.00     0.030 A 
ATOM     28  C   UNL A   1      30.086  30.442  24.494  1.00  0.00     0.002 A 
ATOM     29  C   UNL A   1      31.038  29.456  24.234  1.00  0.00     0.026 A 
ENDBRANCH  17  23
ENDBRANCH  15  16
ENDBRANCH   9  14
BRANCH  13  30
ATOM     30  O   UNL A   1      35.153  22.017  27.150  1.00  0.00    -0.507 OA
ATOM     31  H   UNL A   1      35.811  22.386  27.703  1.00  0.00     0.293 HD
ENDBRANCH  13  30
ENDBRANCH   5   8
ENDBRANCH   3   4
ENDBRANCH   2   3
ENDBRANCH   1   2
BRANCH   1  32
ATOM     32  C   UNL A   1      34.065  28.157  26.425  1.00  0.00     0.002 C 
BRANCH  32  33
ATOM     33  C   UNL A   1      33.391  29.248  27.253  1.00  0.00     0.021 C 
BRANCH  33  34
ATOM     34  C   UNL A   1      33.720  30.687  26.887  1.00  0.00     0.116 C 
BRANCH  34  35
ATOM     35  N   UNL A   1      34.100  31.552  27.996  1.00  0.00    -0.352 N 
ATOM     36  C   UNL A   1      35.123  31.379  28.915  1.00  0.00     0.251 C 
ATOM     37  H   UNL A   1      33.559  32.366  28.108  1.00  0.00     0.163 HD
ATOM     38  O   UNL A   1      35.278  32.187  29.827  1.00  0.00    -0.269 OA
BRANCH  36  39
ATOM     39  C   UNL A   1      36.104  30.284  28.728  1.00  0.00     0.039 A 
ATOM     40  C   UNL A   1      36.299  29.374  29.777  1.00  0.00     0.014 A 
ATOM     41  C   UNL A   1      36.946  30.248  27.617  1.00  0.00     0.014 A 
ATOM     42  C   UNL A   1      37.467  28.615  29.823  1.00  0.00     0.010 A 
ATOM     43  C   UNL A   1      38.149  29.576  27.706  1.00  0.00     0.010 A 
ATOM     44  C   UNL A   1      38.438  28.817  28.844  1.00  0.00    -0.014 A 
BRANCH  44  45
ATOM     45  C   UNL A   1      39.826  28.390  28.983  1.00  0.00     0.031 A 
ATOM     46  C   UNL A   1      40.236  27.010  28.648  1.00  0.00     0.074 A 
ATOM     47  C   UNL A   1      40.760  29.322  29.285  1.00  0.00     0.049 A 
ATOM     48  N   UNL A   1      41.378  26.505  28.975  1.00  0.00    -0.248 NA
ATOM     49  C   UNL A   1      39.362  26.051  27.978  1.00  0.00     0.031 C 
ATOM     50  C   UNL A   1      42.207  29.221  29.108  1.00  0.00     0.029 A 
ATOM     51  N   UNL A   1      40.584  30.505  30.026  1.00  0.00    -0.354 N 
ATOM     52  C   UNL A   1      41.513  25.318  28.296  1.00  0.00     0.074 A 
ATOM     53  C   UNL A   1      40.188  25.009  27.826  1.00  0.00     0.031 C 
ATOM     54  C   UNL A   1      42.808  30.086  29.938  1.00  0.00     0.029 A 
ATOM     55  C   UNL A   1      41.771  30.646  30.785  1.00  0.00     0.049 A 
ATOM     56  H   UNL A   1      39.804  31.105  30.019  1.00  0.00     0.167 HD
ATOM     57  C   UNL A   1      42.766  24.828  28.085  1.00  0.00     0.037 A 
ATOM     58  C   UNL A   1      41.764  30.578  32.148  1.00  0.00     0.037 A 
ATOM     59  C   UNL A   1      43.742  25.493  28.948  1.00  0.00     0.049 A 
ATOM     60  C   UNL A   1      42.655  29.504  32.724  1.00  0.00     0.074 A 
ATOM     61  C   UNL A   1      44.767  26.394  28.721  1.00  0.00     0.029 A 
ATOM     62  N   UNL A   1      43.574  25.425  30.331  1.00  0.00    -0.354 N 
ATOM     63  N   UNL A   1      43.107  28.491  32.039  1.00  0.00    -0.248 NA
ATOM     64  C   UNL A   1      43.069  29.460  34.125  1.00  0.00     0.031 C 
ATOM     65  C   UNL A   1      45.146  26.944  29.977  1.00  0.00     0.029 A 
ATOM     66  C   UNL A   1      44.388  26.339  30.966  1.00  0.00     0.049 A 
ATOM     67  H   UNL A   1      42.959  24.810  30.790  1.00  0.00     0.167 HD
ATOM     68  C   UNL A   1      43.817  27.660  32.864  1.00  0.00     0.074 A 
ATOM     69  C   UNL A   1      43.787  28.324  34.155  1.00  0.00     0.031 C 
ATOM     70  C   UNL A   1      44.350  26.486  32.415  1.00  0.00     0.037 A 
BRANCH  57  71
ATOM     71  C   UNL A   1      43.165  23.887  26.963  1.00  0.00     0.064 A 
ATOM     72  C   UNL A   1      42.840  22.513  27.041  1.00  0.00     0.173 A 
ATOM     73  C   UNL A   1      43.985  24.230  25.865  1.00  0.00     0.173 A 
ATOM     74  F   UNL A   1      42.077  22.037  28.035  1.00  0.00    -0.203 F 
ATOM     75  C   UNL A   1      43.308  21.573  26.113  1.00  0.00     0.198 A 
ATOM     76  C   UNL A   1      44.403  23.299  24.909  1.00  0.00     0.198 A 
ATOM     77  F   UNL A   1      44.478  25.460  25.695  1.00  0.00    -0.203 F 
ATOM     78  F   UNL A   1      43.020  20.274  26.278  1.00  0.00    -0.200 F 
ATOM     79  C   UNL A   1      44.080  21.968  25.041  1.00  0.00     0.200 A 
ATOM     80  F   UNL A   1      45.156  23.707  23.876  1.00  0.00    -0.200 F 
ATOM     81  F   UNL A   1      44.528  21.072  24.151  1.00  0.00    -0.200 F 
ENDBRANCH  57  71
BRANCH  58  82
ATOM     82  C   UNL A   1      40.485  31.036  32.749  1.00  0.00     0.064 A 
ATOM     83  C   UNL A   1      40.257  32.422  32.854  1.00  0.00     0.173 A 
ATOM     84  C   UNL A   1      39.377  30.187  32.842  1.00  0.00     0.173 A 
ATOM     85  F   UNL A   1      41.287  33.278  32.768  1.00  0.00    -0.203 F 
ATOM     86  C   UNL A   1      38.966  32.939  32.922  1.00  0.00     0.198 A 
ATOM     87  C   UNL A   1      38.084  30.708  32.926  1.00  0.00     0.198 A 
ATOM     88  F   UNL A   1      39.528  28.859  32.729  1.00  0.00    -0.203 F 
ATOM     89  F   UNL A   1      38.774  34.265  32.902  1.00  0.00    -0.200 F 
ATOM     90  C   UNL A   1      37.879  32.081  32.928  1.00  0.00     0.200 A 
ATOM     91  F   UNL A   1      37.029  29.882  32.901  1.00  0.00    -0.200 F 
ATOM     92  F   UNL A   1      36.633  32.576  32.892  1.00  0.00    -0.200 F 
ENDBRANCH  58  82
BRANCH  70  93
ATOM     93  C   UNL A   1      44.941  25.399  33.280  1.00  0.00     0.064 A 
ATOM     94  C   UNL A   1      46.320  25.158  33.408  1.00  0.00     0.173 A 
ATOM     95  C   UNL A   1      44.110  24.643  34.141  1.00  0.00     0.173 A 
ATOM     96  F   UNL A   1      47.220  25.893  32.740  1.00  0.00    -0.203 F 
ATOM     97  C   UNL A   1      46.825  24.187  34.278  1.00  0.00     0.198 A 
ATOM     98  C   UNL A   1      44.621  23.716  35.049  1.00  0.00     0.198 A 
ATOM     99  F   UNL A   1      42.778  24.801  34.143  1.00  0.00    -0.203 F 
ATOM    100  F   UNL A   1      48.146  23.967  34.331  1.00  0.00    -0.200 F 
ATOM    101  C   UNL A   1      45.978  23.474  35.106  1.00  0.00     0.200 A 
ATOM    102  F   UNL A   1      43.791  23.071  35.882  1.00  0.00    -0.200 F 
ATOM    103  F   UNL A   1      46.469  22.576  35.969  1.00  0.00    -0.200 F 
ENDBRANCH  70  93
ENDBRANCH  44  45
ENDBRANCH  36  39
ENDBRANCH  34  35
ENDBRANCH  33  34
ENDBRANCH  32  33
ENDBRANCH   1  32
TORSDOF 17
ENDMDL
MODEL 2
REMARK VINA RESULT:     -13.2      1.648      4.231
REMARK SMILES Cc1cccc(-n2c(C)cc(/C=N\c3ccc(O)c(C(=O)NCCCCCCNC(=O)c4ccc(-c5c6nc(c(-c7c(F)c(F)c(F)c(F)c7F)c7ccc([nH]7)c(-c7c(F)c(F)c(F)c(F)c7F)c7nc(c(-c8c(F)c(F)c(F)c(F)c8F)c8ccc5[nH]8)C=C7)C=C6)cc4)c3)c2C)c1
REMARK SMILES IDX 25 1 24 2 23 3 22 4 20 5 21 6 19 8 14 9 15 10 95 11 16 12
REMARK SMILES IDX 17 13 13 14 12 15 11 16 7 17 8 18 96 19 9 20 10 21 97 22
REMARK SMILES IDX 6 23 1 24 2 25 3 26 98 27 4 28 5 29 18 30 26 32 27 33 28 34
REMARK SMILES IDX 29 35 30 36 31 38 32 39 33 40 94 41 34 42 93 43 35 44 36 45
REMARK SMILES IDX 37 46 87 47 38 48 92 49 86 50 88 51 39 52 91 53 85 54 84 55
REMARK SMILES IDX 40 57 72 58 52 59 71 60 53 61 56 62 70 63 89 64 54 65 55 66
REMARK SMILES IDX 69 68 90 69 57 70 41 71 42 72 50 73 43 74 44 75 48 76 51 77
REMARK SMILES IDX 45 78 46 79 49 80 47 81 73 82 74 83 82 84 75 85 76 86 80 87
REMARK SMILES IDX 83 88 77 89 78 90 81 91 79 92 58 93 59 94 67 95 60 96 61 97
REMARK SMILES IDX 65 98 68 99 62 100 63 101 66 102 64 103
REMARK H PARENT 22 7 18 31 29 37 88 56 56 67
REMARK Flexibility Score: inf
ROOT
ATOM      1  C   UNL A   1      33.094  28.112  27.247  1.00  0.00     0.002 C 
ENDROOT
BRANCH   1   2
ATOM      2  C   UNL A   1      33.834  27.657  25.985  1.00  0.00     0.021 C 
BRANCH   2   3
ATOM      3  C   UNL A   1      34.380  28.698  25.016  1.00  0.00     0.116 C 
BRANCH   3   4
ATOM      4  N   UNL A   1      34.414  28.337  23.619  1.00  0.00    -0.352 N 
ATOM      5  C   UNL A   1      33.443  27.794  22.801  1.00  0.00     0.255 C 
ATOM      6  O   UNL A   1      33.731  27.692  21.607  1.00  0.00    -0.269 OA
ATOM      7  H   UNL A   1      35.275  28.506  23.172  1.00  0.00     0.163 HD
BRANCH   5   8
ATOM      8  C   UNL A   1      32.095  27.311  23.259  1.00  0.00     0.083 A 
ATOM      9  C   UNL A   1      30.604  25.367  23.413  1.00  0.00     0.064 A 
ATOM     10  C   UNL A   1      29.631  26.145  24.032  1.00  0.00     0.032 A 
ATOM     11  C   UNL A   1      31.868  25.925  23.158  1.00  0.00     0.046 A 
ATOM     12  C   UNL A   1      29.827  27.516  24.143  1.00  0.00     0.049 A 
ATOM     13  C   UNL A   1      30.999  28.091  23.645  1.00  0.00     0.128 A 
BRANCH   9  14
ATOM     14  N   UNL A   1      30.346  24.057  23.009  1.00  0.00    -0.256 NA
ATOM     15  C   UNL A   1      31.026  23.028  23.437  1.00  0.00     0.121 C 
BRANCH  15  16
ATOM     16  C   UNL A   1      32.150  22.924  24.374  1.00  0.00     0.014 A 
ATOM     17  N   UNL A   1      34.164  22.759  25.404  1.00  0.00    -0.318 N 
ATOM     18  C   UNL A   1      33.198  22.660  26.390  1.00  0.00     0.021 A 
ATOM     19  C   UNL A   1      33.526  23.104  24.206  1.00  0.00     0.029 A 
ATOM     20  C   UNL A   1      33.509  22.590  27.847  1.00  0.00     0.065 C 
ATOM     21  C   UNL A   1      31.965  22.720  25.775  1.00  0.00     0.033 A 
ATOM     22  C   UNL A   1      34.296  23.506  23.000  1.00  0.00     0.065 C 
BRANCH  17  23
ATOM     23  C   UNL A   1      35.552  22.476  25.570  1.00  0.00     0.046 A 
ATOM     24  C   UNL A   1      37.952  19.591  24.872  1.00  0.00     0.044 C 
ATOM     25  C   UNL A   1      37.410  20.935  25.262  1.00  0.00    -0.049 A 
ATOM     26  C   UNL A   1      38.299  21.962  25.601  1.00  0.00     0.003 A 
ATOM     27  C   UNL A   1      36.031  21.196  25.252  1.00  0.00     0.030 A 
ATOM     28  C   UNL A   1      37.821  23.221  25.963  1.00  0.00     0.002 A 
ATOM     29  C   UNL A   1      36.449  23.474  25.960  1.00  0.00     0.026 A 
ENDBRANCH  17  23
ENDBRANCH  15  16
ENDBRANCH   9  14
BRANCH  13  30
ATOM     30  O   UNL A   1      30.877  29.425  23.369  1.00  0.00    -0.507 OA
ATOM     31  H   UNL A   1      31.576  30.011  23.575  1.00  0.00     0.293 HD
ENDBRANCH  13  30
ENDBRANCH   5   8
ENDBRANCH   3   4
ENDBRANCH   2   3
ENDBRANCH   1   2
BRANCH   1  32
ATOM     32  C   UNL A   1      31.911  29.085  27.151  1.00  0.00     0.002 C 
BRANCH  32  33
ATOM     33  C   UNL A   1      32.178  30.588  27.130  1.00  0.00     0.021 C 
BRANCH  33  34
ATOM     34  C   UNL A   1      33.636  31.023  27.118  1.00  0.00     0.116 C 
BRANCH  34  35
ATOM     35  N   UNL A   1      34.044  31.898  28.209  1.00  0.00    -0.352 N 
ATOM     36  C   UNL A   1      35.078  31.725  29.115  1.00  0.00     0.251 C 
ATOM     37  H   UNL A   1      33.516  32.722  28.317  1.00  0.00     0.163 HD
ATOM     38  O   UNL A   1      35.257  32.543  30.012  1.00  0.00    -0.269 OA
BRANCH  36  39
ATOM     39  C   UNL A   1      36.041  30.614  28.930  1.00  0.00     0.039 A 
ATOM     40  C   UNL A   1      36.278  29.747  30.006  1.00  0.00     0.014 A 
ATOM     41  C   UNL A   1      36.830  30.523  27.783  1.00  0.00     0.014 A 
ATOM     42  C   UNL A   1      37.442  28.979  30.030  1.00  0.00     0.010 A 
ATOM     43  C   UNL A   1      38.031  29.845  27.845  1.00  0.00     0.010 A 
ATOM     44  C   UNL A   1      38.367  29.131  29.000  1.00  0.00    -0.014 A 
BRANCH  44  45
ATOM     45  C   UNL A   1      39.757  28.698  29.092  1.00  0.00     0.031 A 
ATOM     46  C   UNL A   1      40.138  27.296  28.818  1.00  0.00     0.074 A 
ATOM     47  C   UNL A   1      40.713  29.635  29.289  1.00  0.00     0.049 A 
ATOM     48  N   UNL A   1      41.291  26.798  29.115  1.00  0.00    -0.248 NA
ATOM     49  C   UNL A   1      39.222  26.309  28.252  1.00  0.00     0.031 C 
ATOM     50  C   UNL A   1      42.148  29.507  29.044  1.00  0.00     0.029 A 
ATOM     51  N   UNL A   1      40.586  30.862  29.966  1.00  0.00    -0.354 N 
ATOM     52  C   UNL A   1      41.381  25.572  28.502  1.00  0.00     0.074 A 
ATOM     53  C   UNL A   1      40.031  25.251  28.120  1.00  0.00     0.031 C 
ATOM     54  C   UNL A   1      42.799  30.413  29.789  1.00  0.00     0.029 A 
ATOM     55  C   UNL A   1      41.812  31.034  30.653  1.00  0.00     0.049 A 
ATOM     56  H   UNL A   1      39.811  31.469  29.964  1.00  0.00     0.167 HD
ATOM     57  C   UNL A   1      42.617  25.056  28.257  1.00  0.00     0.037 A 
ATOM     58  C   UNL A   1      41.875  31.047  32.016  1.00  0.00     0.037 A 
ATOM     59  C   UNL A   1      43.643  25.760  29.027  1.00  0.00     0.049 A 
ATOM     60  C   UNL A   1      42.786  29.998  32.609  1.00  0.00     0.074 A 
ATOM     61  C   UNL A   1      44.661  26.635  28.694  1.00  0.00     0.029 A 
ATOM     62  N   UNL A   1      43.546  25.776  30.418  1.00  0.00    -0.354 N 
ATOM     63  N   UNL A   1      43.194  28.942  31.963  1.00  0.00    -0.248 NA
ATOM     64  C   UNL A   1      43.273  30.033  33.986  1.00  0.00     0.031 C 
ATOM     65  C   UNL A   1      45.110  27.253  29.894  1.00  0.00     0.029 A 
ATOM     66  C   UNL A   1      44.400  26.717  30.955  1.00  0.00     0.049 A 
ATOM     67  H   UNL A   1      42.951  25.195  30.944  1.00  0.00     0.167 HD
ATOM     68  C   UNL A   1      43.939  28.154  32.798  1.00  0.00     0.074 A 
ATOM     69  C   UNL A   1      43.982  28.892  34.047  1.00  0.00     0.031 C 
ATOM     70  C   UNL A   1      44.438  26.949  32.392  1.00  0.00     0.037 A 
BRANCH  57  71
ATOM     71  C   UNL A   1      42.950  24.046  27.173  1.00  0.00     0.064 A 
ATOM     72  C   UNL A   1      42.630  22.681  27.355  1.00  0.00     0.173 A 
ATOM     73  C   UNL A   1      43.702  24.318  26.009  1.00  0.00     0.173 A 
ATOM     74  F   UNL A   1      41.928  22.269  28.421  1.00  0.00    -0.203 F 
ATOM     75  C   UNL A   1      43.043  21.684  26.462  1.00  0.00     0.198 A 
ATOM     76  C   UNL A   1      44.064  23.328  25.089  1.00  0.00     0.198 A 
ATOM     77  F   UNL A   1      44.183  25.534  25.734  1.00  0.00    -0.203 F 
ATOM     78  F   UNL A   1      42.767  20.398  26.724  1.00  0.00    -0.200 F 
ATOM     79  C   UNL A   1      43.750  22.009  25.323  1.00  0.00     0.200 A 
ATOM     80  F   UNL A   1      44.754  23.669  23.990  1.00  0.00    -0.200 F 
ATOM     81  F   UNL A   1      44.144  21.058  24.466  1.00  0.00    -0.200 F 
ENDBRANCH  57  71
BRANCH  58  82
ATOM     82  C   UNL A   1      40.633  31.554  32.654  1.00  0.00     0.064 A 
ATOM     83  C   UNL A   1      40.418  32.945  32.680  1.00  0.00     0.173 A 
ATOM     84  C   UNL A   1      39.528  30.722  32.862  1.00  0.00     0.173 A 
ATOM     85  F   UNL A   1      41.446  33.785  32.484  1.00  0.00    -0.203 F 
ATOM     86  C   UNL A   1      39.135  33.476  32.785  1.00  0.00     0.198 A 
ATOM     87  C   UNL A   1      38.244  31.259  32.981  1.00  0.00     0.198 A 
ATOM     88  F   UNL A   1      39.666  29.388  32.828  1.00  0.00    -0.203 F 
ATOM     89  F   UNL A   1      38.950  34.800  32.688  1.00  0.00    -0.200 F 
ATOM     90  C   UNL A   1      38.046  32.631  32.905  1.00  0.00     0.200 A 
ATOM     91  F   UNL A   1      37.185  30.441  33.067  1.00  0.00    -0.200 F 
ATOM     92  F   UNL A   1      36.803  33.132  32.903  1.00  0.00    -0.200 F 
ENDBRANCH  58  82
BRANCH  70  93
ATOM     93  C   UNL A   1      45.065  25.908  33.289  1.00  0.00     0.064 A 
ATOM     94  C   UNL A   1      44.337  25.075  34.155  1.00  0.00     0.173 A 
ATOM     95  C   UNL A   1      46.447  25.618  33.185  1.00  0.00     0.173 A 
ATOM     96  F   UNL A   1      43.004  25.164  34.251  1.00  0.00    -0.203 F 
ATOM     97  C   UNL A   1      44.954  24.075  34.913  1.00  0.00     0.198 A 
ATOM     98  C   UNL A   1      47.049  24.582  33.899  1.00  0.00     0.198 A 
ATOM     99  F   UNL A   1      47.248  26.317  32.367  1.00  0.00    -0.203 F 
ATOM    100  F   UNL A   1      44.221  23.335  35.757  1.00  0.00    -0.200 F 
ATOM    101  C   UNL A   1      46.306  23.821  34.778  1.00  0.00     0.200 A 
ATOM    102  F   UNL A   1      48.350  24.315  33.717  1.00  0.00    -0.200 F 
ATOM    103  F   UNL A   1      46.885  22.833  35.473  1.00  0.00    -0.200 F 
ENDBRANCH  70  93
ENDBRANCH  44  45
ENDBRANCH  36  39
ENDBRANCH  34  35
ENDBRANCH  33  34
ENDBRANCH  32  33
ENDBRANCH   1  32
TORSDOF 17
ENDMDL
MODEL 3
REMARK VINA RESULT:     -13.0      3.032      5.862
REMARK SMILES Cc1cccc(-n2c(C)cc(/C=N\c3ccc(O)c(C(=O)NCCCCCCNC(=O)c4ccc(-c5c6nc(c(-c7c(F)c(F)c(F)c(F)c7F)c7ccc([nH]7)c(-c7c(F)c(F)c(F)c(F)c7F)c7nc(c(-c8c(F)c(F)c(F)c(F)c8F)c8ccc5[nH]8)C=C7)C=C6)cc4)c3)c2C)c1
REMARK SMILES IDX 25 1 24 2 23 3 22 4 20 5 21 6 19 8 14 9 15 10 95 11 16 12
REMARK SMILES IDX 17 13 13 14 12 15 11 16 7 17 8 18 96 19 9 20 10 21 97 22
REMARK SMILES IDX 6 23 1 24 2 25 3 26 98 27 4 28 5 29 18 30 26 32 27 33 28 34
REMARK SMILES IDX 29 35 30 36 31 38 32 39 33 40 94 41 34 42 93 43 35 44 36 45
REMARK SMILES IDX 37 46 87 47 38 48 92 49 86 50 88 51 39 52 91 53 85 54 84 55
REMARK SMILES IDX 40 57 72 58 52 59 71 60 53 61 56 62 70 63 89 64 54 65 55 66
REMARK SMILES IDX 69 68 90 69 57 70 41 71 42 72 50 73 43 74 44 75 48 76 51 77
REMARK SMILES IDX 45 78 46 79 49 80 47 81 73 82 74 83 82 84 75 85 76 86 80 87
REMARK SMILES IDX 83 88 77 89 78 90 81 91 79 92 58 93 59 94 67 95 60 96 61 97
REMARK SMILES IDX 65 98 68 99 62 100 63 101 66 102 64 103
REMARK H PARENT 22 7 18 31 29 37 88 56 56 67
REMARK Flexibility Score: inf
ROOT
ATOM      1  C   UNL A   1      34.573  30.628  27.628  1.00  0.00     0.002 C 
ENDROOT
BRANCH   1   2
ATOM      2  C   UNL A   1      33.091  30.508  27.257  1.00  0.00     0.021 C 
BRANCH   2   3
ATOM      3  C   UNL A   1      32.697  30.212  25.815  1.00  0.00     0.116 C 
BRANCH   3   4
ATOM      4  N   UNL A   1      33.476  29.216  25.116  1.00  0.00    -0.352 N 
ATOM      5  C   UNL A   1      33.086  28.104  24.398  1.00  0.00     0.255 C 
ATOM      6  O   UNL A   1      33.982  27.491  23.813  1.00  0.00    -0.269 OA
ATOM      7  H   UNL A   1      34.450  29.355  25.158  1.00  0.00     0.163 HD
BRANCH   5   8
ATOM      8  C   UNL A   1      31.678  27.588  24.297  1.00  0.00     0.083 A 
ATOM      9  C   UNL A   1      29.970  26.188  25.372  1.00  0.00     0.064 A 
ATOM     10  C   UNL A   1      29.069  26.482  24.353  1.00  0.00     0.032 A 
ATOM     11  C   UNL A   1      31.210  26.849  25.402  1.00  0.00     0.046 A 
ATOM     12  C   UNL A   1      29.504  27.205  23.250  1.00  0.00     0.049 A 
ATOM     13  C   UNL A   1      30.830  27.639  23.185  1.00  0.00     0.128 A 
BRANCH   9  14
ATOM     14  N   UNL A   1      29.686  25.232  26.347  1.00  0.00    -0.256 NA
ATOM     15  C   UNL A   1      30.382  24.140  26.504  1.00  0.00     0.121 C 
BRANCH  15  16
ATOM     16  C   UNL A   1      31.555  23.620  25.790  1.00  0.00     0.014 A 
ATOM     17  N   UNL A   1      33.581  22.837  25.139  1.00  0.00    -0.318 N 
ATOM     18  C   UNL A   1      32.824  22.999  23.991  1.00  0.00     0.021 A 
ATOM     19  C   UNL A   1      32.743  23.042  26.242  1.00  0.00     0.029 A 
ATOM     20  C   UNL A   1      33.284  22.589  22.633  1.00  0.00     0.065 C 
ATOM     21  C   UNL A   1      31.600  23.512  24.367  1.00  0.00     0.033 A 
ATOM     22  C   UNL A   1      33.185  22.726  27.626  1.00  0.00     0.065 C 
BRANCH  17  23
ATOM     23  C   UNL A   1      34.985  22.589  25.179  1.00  0.00     0.046 A 
ATOM     24  C   UNL A   1      37.336  19.597  24.884  1.00  0.00     0.044 C 
ATOM     25  C   UNL A   1      36.821  21.001  25.005  1.00  0.00    -0.049 A 
ATOM     26  C   UNL A   1      37.723  22.071  24.961  1.00  0.00     0.003 A 
ATOM     27  C   UNL A   1      35.446  21.265  25.120  1.00  0.00     0.030 A 
ATOM     28  C   UNL A   1      37.268  23.384  25.068  1.00  0.00     0.002 A 
ATOM     29  C   UNL A   1      35.902  23.643  25.189  1.00  0.00     0.026 A 
ENDBRANCH  17  23
ENDBRANCH  15  16
ENDBRANCH   9  14
BRANCH  13  30
ATOM     30  O   UNL A   1      31.260  27.891  21.911  1.00  0.00    -0.507 OA
ATOM     31  H   UNL A   1      31.596  28.735  21.688  1.00  0.00     0.293 HD
ENDBRANCH  13  30
ENDBRANCH   5   8
ENDBRANCH   3   4
ENDBRANCH   2   3
ENDBRANCH   1   2
BRANCH   1  32
ATOM     32  C   UNL A   1      35.136  31.945  28.177  1.00  0.00     0.002 C 
BRANCH  32  33
ATOM     33  C   UNL A   1      34.497  32.573  29.413  1.00  0.00     0.021 C 
BRANCH  33  34
ATOM     34  C   UNL A   1      34.253  34.074  29.370  1.00  0.00     0.116 C 
BRANCH  34  35
ATOM     35  N   UNL A   1      33.365  34.601  30.398  1.00  0.00    -0.352 N 
ATOM     36  C   UNL A   1      33.537  34.598  31.773  1.00  0.00     0.251 C 
ATOM     37  H   UNL A   1      32.533  35.014  30.073  1.00  0.00     0.163 HD
ATOM     38  O   UNL A   1      32.659  35.044  32.506  1.00  0.00    -0.269 OA
BRANCH  36  39
ATOM     39  C   UNL A   1      34.829  34.165  32.353  1.00  0.00     0.039 A 
ATOM     40  C   UNL A   1      35.961  34.967  32.143  1.00  0.00     0.014 A 
ATOM     41  C   UNL A   1      34.973  32.909  32.944  1.00  0.00     0.014 A 
ATOM     42  C   UNL A   1      37.233  34.416  32.290  1.00  0.00     0.010 A 
ATOM     43  C   UNL A   1      36.225  32.328  32.993  1.00  0.00     0.010 A 
ATOM     44  C   UNL A   1      37.347  33.062  32.597  1.00  0.00    -0.014 A 
BRANCH  44  45
ATOM     45  C   UNL A   1      38.570  32.290  32.403  1.00  0.00     0.031 A 
ATOM     46  C   UNL A   1      38.548  30.994  31.693  1.00  0.00     0.074 A 
ATOM     47  C   UNL A   1      39.749  32.852  32.755  1.00  0.00     0.049 A 
ATOM     48  N   UNL A   1      39.532  30.158  31.702  1.00  0.00    -0.248 NA
ATOM     49  C   UNL A   1      37.382  30.491  30.972  1.00  0.00     0.031 C 
ATOM     50  C   UNL A   1      41.088  32.454  32.324  1.00  0.00     0.029 A 
ATOM     51  N   UNL A   1      39.980  33.800  33.769  1.00  0.00    -0.354 N 
ATOM     52  C   UNL A   1      39.267  29.200  30.754  1.00  0.00     0.074 A 
ATOM     53  C   UNL A   1      37.869  29.359  30.449  1.00  0.00     0.031 C 
ATOM     54  C   UNL A   1      41.983  32.893  33.222  1.00  0.00     0.029 A 
ATOM     55  C   UNL A   1      41.228  33.441  34.335  1.00  0.00     0.049 A 
ATOM     56  H   UNL A   1      39.399  34.551  34.029  1.00  0.00     0.167 HD
ATOM     57  C   UNL A   1      40.309  28.495  30.232  1.00  0.00     0.037 A 
ATOM     58  C   UNL A   1      41.334  33.015  35.626  1.00  0.00     0.037 A 
ATOM     59  C   UNL A   1      41.510  28.648  31.054  1.00  0.00     0.049 A 
ATOM     60  C   UNL A   1      41.944  31.642  35.783  1.00  0.00     0.074 A 
ATOM     61  C   UNL A   1      42.717  29.300  30.877  1.00  0.00     0.029 A 
ATOM     62  N   UNL A   1      41.464  28.256  32.391  1.00  0.00    -0.354 N 
ATOM     63  N   UNL A   1      42.030  30.772  34.817  1.00  0.00    -0.248 NA
ATOM     64  C   UNL A   1      42.464  31.127  37.048  1.00  0.00     0.031 C 
ATOM     65  C   UNL A   1      43.353  29.385  32.146  1.00  0.00     0.029 A 
ATOM     66  C   UNL A   1      42.557  28.741  33.079  1.00  0.00     0.049 A 
ATOM     67  H   UNL A   1      40.750  27.708  32.790  1.00  0.00     0.167 HD
ATOM     68  C   UNL A   1      42.559  29.604  35.299  1.00  0.00     0.074 A 
ATOM     69  C   UNL A   1      42.839  29.885  36.695  1.00  0.00     0.031 C 
ATOM     70  C   UNL A   1      42.701  28.500  34.508  1.00  0.00     0.037 A 
BRANCH  57  71
ATOM     71  C   UNL A   1      40.322  27.821  28.872  1.00  0.00     0.064 A 
ATOM     72  C   UNL A   1      39.720  26.553  28.705  1.00  0.00     0.173 A 
ATOM     73  C   UNL A   1      41.023  28.287  27.738  1.00  0.00     0.173 A 
ATOM     74  F   UNL A   1      39.028  25.977  29.698  1.00  0.00    -0.203 F 
ATOM     75  C   UNL A   1      39.829  25.817  27.518  1.00  0.00     0.198 A 
ATOM     76  C   UNL A   1      41.082  27.576  26.535  1.00  0.00     0.198 A 
ATOM     77  F   UNL A   1      41.741  29.414  27.752  1.00  0.00    -0.203 F 
ATOM     78  F   UNL A   1      39.293  24.590  27.442  1.00  0.00    -0.200 F 
ATOM     79  C   UNL A   1      40.499  26.333  26.429  1.00  0.00     0.200 A 
ATOM     80  F   UNL A   1      41.743  28.098  25.491  1.00  0.00    -0.200 F 
ATOM     81  F   UNL A   1      40.604  25.633  25.291  1.00  0.00    -0.200 F 
ENDBRANCH  57  71
BRANCH  58  82
ATOM     82  C   UNL A   1      40.296  33.592  36.519  1.00  0.00     0.064 A 
ATOM     83  C   UNL A   1      39.165  32.809  36.818  1.00  0.00     0.173 A 
ATOM     84  C   UNL A   1      40.578  34.674  37.361  1.00  0.00     0.173 A 
ATOM     85  F   UNL A   1      38.854  31.759  36.042  1.00  0.00    -0.203 F 
ATOM     86  C   UNL A   1      38.422  33.024  37.976  1.00  0.00     0.198 A 
ATOM     87  C   UNL A   1      39.822  34.896  38.513  1.00  0.00     0.198 A 
ATOM     88  F   UNL A   1      41.654  35.443  37.140  1.00  0.00    -0.203 F 
ATOM     89  F   UNL A   1      37.422  32.190  38.293  1.00  0.00    -0.200 F 
ATOM     90  C   UNL A   1      38.769  34.050  38.838  1.00  0.00     0.200 A 
ATOM     91  F   UNL A   1      40.175  35.869  39.365  1.00  0.00    -0.200 F 
ATOM     92  F   UNL A   1      38.122  34.198  40.002  1.00  0.00    -0.200 F 
ENDBRANCH  58  82
BRANCH  70  93
ATOM     93  C   UNL A   1      43.049  27.111  34.988  1.00  0.00     0.064 A 
ATOM     94  C   UNL A   1      42.124  26.058  35.087  1.00  0.00     0.173 A 
ATOM     95  C   UNL A   1      44.399  26.759  35.229  1.00  0.00     0.173 A 
ATOM     96  F   UNL A   1      40.835  26.230  34.765  1.00  0.00    -0.203 F 
ATOM     97  C   UNL A   1      42.508  24.768  35.468  1.00  0.00     0.198 A 
ATOM     98  C   UNL A   1      44.786  25.459  35.552  1.00  0.00     0.198 A 
ATOM     99  F   UNL A   1      45.385  27.663  35.133  1.00  0.00    -0.203 F 
ATOM    100  F   UNL A   1      41.580  23.809  35.589  1.00  0.00    -0.200 F 
ATOM    101  C   UNL A   1      43.839  24.466  35.689  1.00  0.00     0.200 A 
ATOM    102  F   UNL A   1      46.086  25.170  35.711  1.00  0.00    -0.200 F 
ATOM    103  F   UNL A   1      44.207  23.219  36.010  1.00  0.00    -0.200 F 
ENDBRANCH  70  93
ENDBRANCH  44  45
ENDBRANCH  36  39
ENDBRANCH  34  35
ENDBRANCH  33  34
ENDBRANCH  32  33
ENDBRANCH   1  32
TORSDOF 17
ENDMDL
