MODEL 1
REMARK VINA RESULT:     -12.2      0.000      0.000
REMARK SMILES CC(C)Oc1ccc(/C=C(\NC(=O)c2ccccc2)C(=O)NCCCCCCNC(=O)c2ccc(-c3c4nc(c(-c5c(F)c(F)c(F)c(F)c5F)c5ccc([nH]5)c(-c5c(F)c(F)c(F)c(F)c5F)c5nc(c(-c6c(F)c(F)c(F)c(F)c6F)c6ccc3[nH]6)C=C5)C=C4)cc2)cc1
REMARK SMILES IDX 25 1 24 2 23 3 22 4 20 5 21 6 10 8 9 9 8 10 5 11 6 12 96 13
REMARK SMILES IDX 7 14 95 15 4 16 2 17 1 18 3 19 11 20 12 21 13 23 14 24 15 25
REMARK SMILES IDX 19 26 16 27 18 28 17 29 26 30 27 31 28 32 29 33 30 34 31 36
REMARK SMILES IDX 32 37 33 38 94 39 34 40 93 41 35 42 36 43 37 44 87 45 38 46
REMARK SMILES IDX 92 47 86 48 88 49 39 50 91 51 85 52 84 53 40 55 72 56 52 57
REMARK SMILES IDX 71 58 53 59 56 60 70 61 89 62 54 63 55 64 69 66 90 67 57 68
REMARK SMILES IDX 41 69 42 70 50 71 43 72 44 73 48 74 51 75 45 76 46 77 49 78
REMARK SMILES IDX 47 79 73 80 74 81 82 82 75 83 76 84 80 85 83 86 77 87 78 88
REMARK SMILES IDX 81 89 79 90 58 91 59 92 67 93 60 94 61 95 65 96 68 97 62 98
REMARK SMILES IDX 63 99 66 100 64 101
REMARK H PARENT 22 7 11 22 29 35 88 54 56 65
REMARK Flexibility Score: inf
ROOT
ATOM      1  C   UNL A   1      32.103  29.750  25.418  1.00  0.00     0.002 C 
ENDROOT
BRANCH   1   2
ATOM      2  C   UNL A   1      31.974  28.222  25.327  1.00  0.00     0.021 C 
BRANCH   2   3
ATOM      3  C   UNL A   1      33.065  27.403  24.626  1.00  0.00     0.116 C 
BRANCH   3   4
ATOM      4  N   UNL A   1      32.642  26.549  23.529  1.00  0.00    -0.351 N 
ATOM      5  C   UNL A   1      32.945  25.220  23.316  1.00  0.00     0.267 C 
ATOM      6  O   UNL A   1      32.599  24.683  22.263  1.00  0.00    -0.268 OA
ATOM      7  H   UNL A   1      32.065  26.973  22.852  1.00  0.00     0.163 HD
BRANCH   5   8
ATOM      8  C   UNL A   1      33.769  24.460  24.348  1.00  0.00     0.107 C 
ATOM      9  C   UNL A   1      34.968  24.010  23.911  1.00  0.00     0.040 C 
BRANCH   9  10
ATOM     10  C   UNL A   1      36.075  23.287  24.596  1.00  0.00    -0.023 A 
ATOM     11  C   UNL A   1      38.335  21.880  25.587  1.00  0.00     0.119 A 
ATOM     12  C   UNL A   1      38.064  23.172  26.013  1.00  0.00     0.047 A 
ATOM     13  C   UNL A   1      37.444  21.251  24.728  1.00  0.00     0.047 A 
ATOM     14  C   UNL A   1      36.967  23.873  25.502  1.00  0.00     0.012 A 
ATOM     15  C   UNL A   1      36.328  21.950  24.234  1.00  0.00     0.012 A 
BRANCH  11  16
ATOM     16  O   UNL A   1      39.434  21.283  26.126  1.00  0.00    -0.491 OA
BRANCH  16  17
ATOM     17  C   UNL A   1      40.489  22.123  26.624  1.00  0.00     0.167 C 
ATOM     18  C   UNL A   1      40.862  21.767  28.058  1.00  0.00     0.052 C 
ATOM     19  C   UNL A   1      41.710  22.267  25.712  1.00  0.00     0.052 C 
ENDBRANCH  16  17
ENDBRANCH  11  16
ENDBRANCH   9  10
BRANCH   8  20
ATOM     20  N   UNL A   1      33.322  24.276  25.637  1.00  0.00    -0.317 N 
ATOM     21  C   UNL A   1      32.725  23.208  26.259  1.00  0.00     0.255 C 
ATOM     22  H   UNL A   1      33.455  25.056  26.223  1.00  0.00     0.170 HD
ATOM     23  O   UNL A   1      32.175  23.362  27.347  1.00  0.00    -0.269 OA
BRANCH  21  24
ATOM     24  C   UNL A   1      32.721  21.887  25.610  1.00  0.00     0.040 A 
ATOM     25  C   UNL A   1      32.048  21.779  24.398  1.00  0.00     0.014 A 
ATOM     26  C   UNL A   1      33.456  20.814  26.113  1.00  0.00     0.014 A 
ATOM     27  C   UNL A   1      32.258  20.663  23.591  1.00  0.00     0.001 A 
ATOM     28  C   UNL A   1      33.632  19.683  25.318  1.00  0.00     0.001 A 
ATOM     29  C   UNL A   1      33.074  19.630  24.040  1.00  0.00     0.000 A 
ENDBRANCH  21  24
ENDBRANCH   8  20
ENDBRANCH   5   8
ENDBRANCH   3   4
ENDBRANCH   2   3
ENDBRANCH   1   2
BRANCH   1  30
ATOM     30  C   UNL A   1      31.748  30.459  26.722  1.00  0.00     0.002 C 
BRANCH  30  31
ATOM     31  C   UNL A   1      31.645  31.978  26.724  1.00  0.00     0.021 C 
BRANCH  31  32
ATOM     32  C   UNL A   1      32.842  32.679  27.345  1.00  0.00     0.116 C 
BRANCH  32  33
ATOM     33  N   UNL A   1      32.577  34.088  27.632  1.00  0.00    -0.352 N 
ATOM     34  C   UNL A   1      33.029  34.891  28.656  1.00  0.00     0.251 C 
ATOM     35  H   UNL A   1      31.979  34.536  26.991  1.00  0.00     0.163 HD
ATOM     36  O   UNL A   1      32.514  35.975  28.876  1.00  0.00    -0.269 OA
BRANCH  34  37
ATOM     37  C   UNL A   1      34.154  34.419  29.489  1.00  0.00     0.039 A 
ATOM     38  C   UNL A   1      33.910  33.747  30.689  1.00  0.00     0.014 A 
ATOM     39  C   UNL A   1      35.459  34.626  29.048  1.00  0.00     0.014 A 
ATOM     40  C   UNL A   1      34.985  33.208  31.401  1.00  0.00     0.010 A 
ATOM     41  C   UNL A   1      36.501  33.962  29.667  1.00  0.00     0.010 A 
ATOM     42  C   UNL A   1      36.283  33.274  30.869  1.00  0.00    -0.014 A 
BRANCH  42  43
ATOM     43  C   UNL A   1      37.458  32.687  31.555  1.00  0.00     0.031 A 
ATOM     44  C   UNL A   1      38.191  31.545  30.901  1.00  0.00     0.074 A 
ATOM     45  C   UNL A   1      37.789  33.100  32.793  1.00  0.00     0.049 A 
ATOM     46  N   UNL A   1      39.139  30.781  31.382  1.00  0.00    -0.248 NA
ATOM     47  C   UNL A   1      37.755  31.167  29.544  1.00  0.00     0.031 C 
ATOM     48  C   UNL A   1      37.102  34.147  33.552  1.00  0.00     0.029 A 
ATOM     49  N   UNL A   1      38.781  32.676  33.640  1.00  0.00    -0.354 N 
ATOM     50  C   UNL A   1      39.379  29.825  30.404  1.00  0.00     0.074 A 
ATOM     51  C   UNL A   1      38.421  30.042  29.346  1.00  0.00     0.031 C 
ATOM     52  C   UNL A   1      37.717  34.311  34.734  1.00  0.00     0.029 A 
ATOM     53  C   UNL A   1      38.808  33.349  34.837  1.00  0.00     0.049 A 
ATOM     54  H   UNL A   1      39.415  31.958  33.411  1.00  0.00     0.167 HD
ATOM     55  C   UNL A   1      40.341  28.874  30.373  1.00  0.00     0.037 A 
ATOM     56  C   UNL A   1      39.622  33.195  35.898  1.00  0.00     0.037 A 
ATOM     57  C   UNL A   1      41.321  28.707  31.409  1.00  0.00     0.049 A 
ATOM     58  C   UNL A   1      40.699  32.145  35.831  1.00  0.00     0.074 A 
ATOM     59  C   UNL A   1      42.393  27.837  31.453  1.00  0.00     0.029 A 
ATOM     60  N   UNL A   1      41.346  29.439  32.590  1.00  0.00    -0.354 N 
ATOM     61  N   UNL A   1      40.973  31.298  34.868  1.00  0.00    -0.248 NA
ATOM     62  C   UNL A   1      41.587  32.034  36.996  1.00  0.00     0.031 C 
ATOM     63  C   UNL A   1      43.035  28.002  32.684  1.00  0.00     0.029 A 
ATOM     64  C   UNL A   1      42.402  29.020  33.380  1.00  0.00     0.049 A 
ATOM     65  H   UNL A   1      40.708  30.148  32.828  1.00  0.00     0.167 HD
ATOM     66  C   UNL A   1      42.079  30.575  35.295  1.00  0.00     0.074 A 
ATOM     67  C   UNL A   1      42.436  31.097  36.599  1.00  0.00     0.031 C 
ATOM     68  C   UNL A   1      42.739  29.569  34.669  1.00  0.00     0.037 A 
BRANCH  55  69
ATOM     69  C   UNL A   1      40.386  27.964  29.177  1.00  0.00     0.064 A 
ATOM     70  C   UNL A   1      41.144  28.277  28.037  1.00  0.00     0.173 A 
ATOM     71  C   UNL A   1      39.673  26.756  29.175  1.00  0.00     0.173 A 
ATOM     72  F   UNL A   1      41.833  29.426  27.977  1.00  0.00    -0.203 F 
ATOM     73  C   UNL A   1      41.154  27.435  26.927  1.00  0.00     0.198 A 
ATOM     74  C   UNL A   1      39.717  25.898  28.080  1.00  0.00     0.198 A 
ATOM     75  F   UNL A   1      38.933  26.405  30.238  1.00  0.00    -0.203 F 
ATOM     76  F   UNL A   1      41.831  27.790  25.826  1.00  0.00    -0.200 F 
ATOM     77  C   UNL A   1      40.448  26.243  26.952  1.00  0.00     0.200 A 
ATOM     78  F   UNL A   1      39.044  24.739  28.111  1.00  0.00    -0.200 F 
ATOM     79  F   UNL A   1      40.464  25.430  25.887  1.00  0.00    -0.200 F 
ENDBRANCH  55  69
BRANCH  56  80
ATOM     80  C   UNL A   1      39.474  34.073  37.089  1.00  0.00     0.064 A 
ATOM     81  C   UNL A   1      40.067  35.344  37.123  1.00  0.00     0.173 A 
ATOM     82  C   UNL A   1      38.740  33.669  38.213  1.00  0.00     0.173 A 
ATOM     83  F   UNL A   1      40.793  35.772  36.079  1.00  0.00    -0.203 F 
ATOM     84  C   UNL A   1      39.955  36.164  38.244  1.00  0.00     0.198 A 
ATOM     85  C   UNL A   1      38.600  34.503  39.322  1.00  0.00     0.198 A 
ATOM     86  F   UNL A   1      38.144  32.468  38.231  1.00  0.00    -0.203 F 
ATOM     87  F   UNL A   1      40.575  37.351  38.268  1.00  0.00    -0.200 F 
ATOM     88  C   UNL A   1      39.217  35.745  39.340  1.00  0.00     0.200 A 
ATOM     89  F   UNL A   1      37.872  34.101  40.372  1.00  0.00    -0.200 F 
ATOM     90  F   UNL A   1      39.106  36.535  40.418  1.00  0.00    -0.200 F 
ENDBRANCH  56  80
BRANCH  68  91
ATOM     91  C   UNL A   1      43.937  28.995  35.367  1.00  0.00     0.064 A 
ATOM     92  C   UNL A   1      43.823  27.933  36.275  1.00  0.00     0.173 A 
ATOM     93  C   UNL A   1      45.222  29.480  35.078  1.00  0.00     0.173 A 
ATOM     94  F   UNL A   1      42.615  27.443  36.594  1.00  0.00    -0.203 F 
ATOM     95  C   UNL A   1      44.950  27.395  36.888  1.00  0.00     0.198 A 
ATOM     96  C   UNL A   1      46.349  28.914  35.664  1.00  0.00     0.198 A 
ATOM     97  F   UNL A   1      45.385  30.489  34.207  1.00  0.00    -0.203 F 
ATOM     98  F   UNL A   1      44.814  26.412  37.790  1.00  0.00    -0.200 F 
ATOM     99  C   UNL A   1      46.212  27.878  36.575  1.00  0.00     0.200 A 
ATOM    100  F   UNL A   1      47.569  29.369  35.344  1.00  0.00    -0.200 F 
ATOM    101  F   UNL A   1      47.297  27.347  37.155  1.00  0.00    -0.200 F 
ENDBRANCH  68  91
ENDBRANCH  42  43
ENDBRANCH  34  37
ENDBRANCH  32  33
ENDBRANCH  31  32
ENDBRANCH  30  31
ENDBRANCH   1  30
TORSDOF 18
ENDMDL
MODEL 2
REMARK VINA RESULT:     -11.9      5.366     11.162
REMARK SMILES CC(C)Oc1ccc(/C=C(\NC(=O)c2ccccc2)C(=O)NCCCCCCNC(=O)c2ccc(-c3c4nc(c(-c5c(F)c(F)c(F)c(F)c5F)c5ccc([nH]5)c(-c5c(F)c(F)c(F)c(F)c5F)c5nc(c(-c6c(F)c(F)c(F)c(F)c6F)c6ccc3[nH]6)C=C5)C=C4)cc2)cc1
REMARK SMILES IDX 25 1 24 2 23 3 22 4 20 5 21 6 10 8 9 9 8 10 5 11 6 12 96 13
REMARK SMILES IDX 7 14 95 15 4 16 2 17 1 18 3 19 11 20 12 21 13 23 14 24 15 25
REMARK SMILES IDX 19 26 16 27 18 28 17 29 26 30 27 31 28 32 29 33 30 34 31 36
REMARK SMILES IDX 32 37 33 38 94 39 34 40 93 41 35 42 36 43 37 44 87 45 38 46
REMARK SMILES IDX 92 47 86 48 88 49 39 50 91 51 85 52 84 53 40 55 72 56 52 57
REMARK SMILES IDX 71 58 53 59 56 60 70 61 89 62 54 63 55 64 69 66 90 67 57 68
REMARK SMILES IDX 41 69 42 70 50 71 43 72 44 73 48 74 51 75 45 76 46 77 49 78
REMARK SMILES IDX 47 79 73 80 74 81 82 82 75 83 76 84 80 85 83 86 77 87 78 88
REMARK SMILES IDX 81 89 79 90 58 91 59 92 67 93 60 94 61 95 65 96 68 97 62 98
REMARK SMILES IDX 63 99 66 100 64 101
REMARK H PARENT 22 7 11 22 29 35 88 54 56 65
REMARK Flexibility Score: inf
ROOT
ATOM      1  C   UNL A   1      38.286  23.716  26.174  1.00  0.00     0.002 C 
ENDROOT
BRANCH   1   2
ATOM      2  C   UNL A   1      37.100  23.444  25.237  1.00  0.00     0.021 C 
BRANCH   2   3
ATOM      3  C   UNL A   1      35.898  22.633  25.740  1.00  0.00     0.116 C 
BRANCH   3   4
ATOM      4  N   UNL A   1      35.021  22.066  24.730  1.00  0.00    -0.351 N 
ATOM      5  C   UNL A   1      34.020  22.696  24.019  1.00  0.00     0.267 C 
ATOM      6  O   UNL A   1      33.288  22.029  23.286  1.00  0.00    -0.268 OA
ATOM      7  H   UNL A   1      35.157  21.112  24.527  1.00  0.00     0.163 HD
BRANCH   5   8
ATOM      8  C   UNL A   1      33.785  24.189  24.210  1.00  0.00     0.107 C 
ATOM      9  C   UNL A   1      33.284  24.545  25.416  1.00  0.00     0.040 C 
BRANCH   9  10
ATOM     10  C   UNL A   1      32.966  25.870  26.016  1.00  0.00    -0.023 A 
ATOM     11  C   UNL A   1      32.377  28.524  26.837  1.00  0.00     0.119 A 
ATOM     12  C   UNL A   1      31.457  27.505  27.031  1.00  0.00     0.047 A 
ATOM     13  C   UNL A   1      33.623  28.219  26.306  1.00  0.00     0.047 A 
ATOM     14  C   UNL A   1      31.738  26.204  26.601  1.00  0.00     0.012 A 
ATOM     15  C   UNL A   1      33.912  26.906  25.895  1.00  0.00     0.012 A 
BRANCH  11  16
ATOM     16  O   UNL A   1      32.010  29.761  27.273  1.00  0.00    -0.491 OA
BRANCH  16  17
ATOM     17  C   UNL A   1      31.923  30.825  26.308  1.00  0.00     0.167 C 
ATOM     18  C   UNL A   1      31.104  30.413  25.091  1.00  0.00     0.052 C 
ATOM     19  C   UNL A   1      31.516  32.192  26.862  1.00  0.00     0.052 C 
ENDBRANCH  16  17
ENDBRANCH  11  16
ENDBRANCH   9  10
BRANCH   8  20
ATOM     20  N   UNL A   1      34.088  25.101  23.225  1.00  0.00    -0.317 N 
ATOM     21  C   UNL A   1      33.298  25.883  22.420  1.00  0.00     0.255 C 
ATOM     22  H   UNL A   1      35.054  25.214  23.067  1.00  0.00     0.170 HD
ATOM     23  O   UNL A   1      33.782  26.431  21.432  1.00  0.00    -0.269 OA
BRANCH  21  24
ATOM     24  C   UNL A   1      31.868  26.043  22.727  1.00  0.00     0.040 A 
ATOM     25  C   UNL A   1      31.119  24.881  22.878  1.00  0.00     0.014 A 
ATOM     26  C   UNL A   1      31.301  27.291  22.977  1.00  0.00     0.014 A 
ATOM     27  C   UNL A   1      29.855  24.948  23.460  1.00  0.00     0.001 A 
ATOM     28  C   UNL A   1      30.020  27.356  23.524  1.00  0.00     0.001 A 
ATOM     29  C   UNL A   1      29.320  26.183  23.810  1.00  0.00     0.000 A 
ENDBRANCH  21  24
ENDBRANCH   8  20
ENDBRANCH   5   8
ENDBRANCH   3   4
ENDBRANCH   2   3
ENDBRANCH   1   2
BRANCH   1  30
ATOM     30  C   UNL A   1      39.482  22.767  26.172  1.00  0.00     0.002 C 
BRANCH  30  31
ATOM     31  C   UNL A   1      39.264  21.316  26.577  1.00  0.00     0.021 C 
BRANCH  31  32
ATOM     32  C   UNL A   1      39.586  20.314  25.480  1.00  0.00     0.116 C 
BRANCH  32  33
ATOM     33  N   UNL A   1      40.480  19.252  25.939  1.00  0.00    -0.352 N 
ATOM     34  C   UNL A   1      41.811  19.295  26.290  1.00  0.00     0.251 C 
ATOM     35  H   UNL A   1      40.064  18.362  26.009  1.00  0.00     0.163 HD
ATOM     36  O   UNL A   1      42.459  18.268  26.416  1.00  0.00    -0.269 OA
BRANCH  34  37
ATOM     37  C   UNL A   1      42.447  20.609  26.514  1.00  0.00     0.039 A 
ATOM     38  C   UNL A   1      42.892  21.371  25.432  1.00  0.00     0.014 A 
ATOM     39  C   UNL A   1      42.570  21.091  27.815  1.00  0.00     0.014 A 
ATOM     40  C   UNL A   1      43.384  22.659  25.660  1.00  0.00     0.010 A 
ATOM     41  C   UNL A   1      42.908  22.414  28.023  1.00  0.00     0.010 A 
ATOM     42  C   UNL A   1      43.351  23.204  26.954  1.00  0.00    -0.014 A 
BRANCH  42  43
ATOM     43  C   UNL A   1      43.820  24.578  27.253  1.00  0.00     0.031 A 
ATOM     44  C   UNL A   1      42.823  25.603  27.726  1.00  0.00     0.074 A 
ATOM     45  C   UNL A   1      45.095  24.923  26.997  1.00  0.00     0.049 A 
ATOM     46  N   UNL A   1      42.973  26.892  27.898  1.00  0.00    -0.248 NA
ATOM     47  C   UNL A   1      41.451  25.127  27.981  1.00  0.00     0.031 C 
ATOM     48  C   UNL A   1      46.128  24.031  26.466  1.00  0.00     0.029 A 
ATOM     49  N   UNL A   1      45.739  26.127  27.134  1.00  0.00    -0.354 N 
ATOM     50  C   UNL A   1      41.716  27.371  28.242  1.00  0.00     0.074 A 
ATOM     51  C   UNL A   1      40.797  26.261  28.166  1.00  0.00     0.031 C 
ATOM     52  C   UNL A   1      47.283  24.706  26.361  1.00  0.00     0.029 A 
ATOM     53  C   UNL A   1      47.062  26.090  26.768  1.00  0.00     0.049 A 
ATOM     54  H   UNL A   1      45.294  26.941  27.465  1.00  0.00     0.167 HD
ATOM     55  C   UNL A   1      41.367  28.620  28.628  1.00  0.00     0.037 A 
ATOM     56  C   UNL A   1      47.985  27.069  26.757  1.00  0.00     0.037 A 
ATOM     57  C   UNL A   1      42.304  29.701  28.751  1.00  0.00     0.049 A 
ATOM     58  C   UNL A   1      47.579  28.445  27.211  1.00  0.00     0.074 A 
ATOM     59  C   UNL A   1      42.088  30.986  29.210  1.00  0.00     0.029 A 
ATOM     60  N   UNL A   1      43.650  29.614  28.414  1.00  0.00    -0.354 N 
ATOM     61  N   UNL A   1      46.405  28.873  27.614  1.00  0.00    -0.248 NA
ATOM     62  C   UNL A   1      48.625  29.476  27.218  1.00  0.00     0.031 C 
ATOM     63  C   UNL A   1      43.288  31.694  29.099  1.00  0.00     0.029 A 
ATOM     64  C   UNL A   1      44.268  30.832  28.631  1.00  0.00     0.049 A 
ATOM     65  H   UNL A   1      44.095  28.806  28.071  1.00  0.00     0.167 HD
ATOM     66  C   UNL A   1      46.578  30.209  27.949  1.00  0.00     0.074 A 
ATOM     67  C   UNL A   1      47.975  30.517  27.719  1.00  0.00     0.031 C 
ATOM     68  C   UNL A   1      45.665  31.104  28.404  1.00  0.00     0.037 A 
BRANCH  55  69
ATOM     69  C   UNL A   1      39.922  28.871  28.958  1.00  0.00     0.064 A 
ATOM     70  C   UNL A   1      39.417  28.689  30.256  1.00  0.00     0.173 A 
ATOM     71  C   UNL A   1      39.032  29.313  27.968  1.00  0.00     0.173 A 
ATOM     72  F   UNL A   1      40.219  28.253  31.239  1.00  0.00    -0.203 F 
ATOM     73  C   UNL A   1      38.070  28.901  30.539  1.00  0.00     0.198 A 
ATOM     74  C   UNL A   1      37.694  29.562  28.264  1.00  0.00     0.198 A 
ATOM     75  F   UNL A   1      39.458  29.505  26.711  1.00  0.00    -0.203 F 
ATOM     76  F   UNL A   1      37.600  28.654  31.770  1.00  0.00    -0.200 F 
ATOM     77  C   UNL A   1      37.211  29.345  29.546  1.00  0.00     0.200 A 
ATOM     78  F   UNL A   1      36.868  30.004  27.305  1.00  0.00    -0.200 F 
ATOM     79  F   UNL A   1      35.917  29.556  29.822  1.00  0.00    -0.200 F 
ENDBRANCH  55  69
BRANCH  56  80
ATOM     80  C   UNL A   1      49.382  26.776  26.339  1.00  0.00     0.064 A 
ATOM     81  C   UNL A   1      50.326  26.305  27.265  1.00  0.00     0.173 A 
ATOM     82  C   UNL A   1      49.806  26.956  25.015  1.00  0.00     0.173 A 
ATOM     83  F   UNL A   1      49.976  26.131  28.548  1.00  0.00    -0.203 F 
ATOM     84  C   UNL A   1      51.644  26.053  26.887  1.00  0.00     0.198 A 
ATOM     85  C   UNL A   1      51.116  26.671  24.631  1.00  0.00     0.198 A 
ATOM     86  F   UNL A   1      48.943  27.394  24.087  1.00  0.00    -0.203 F 
ATOM     87  F   UNL A   1      52.535  25.653  27.805  1.00  0.00    -0.200 F 
ATOM     88  C   UNL A   1      52.036  26.230  25.570  1.00  0.00     0.200 A 
ATOM     89  F   UNL A   1      51.486  26.828  23.353  1.00  0.00    -0.200 F 
ATOM     90  F   UNL A   1      53.302  25.984  25.206  1.00  0.00    -0.200 F 
ENDBRANCH  56  80
BRANCH  68  91
ATOM     91  C   UNL A   1      46.157  32.486  28.720  1.00  0.00     0.064 A 
ATOM     92  C   UNL A   1      46.676  32.813  29.980  1.00  0.00     0.173 A 
ATOM     93  C   UNL A   1      46.159  33.478  27.727  1.00  0.00     0.173 A 
ATOM     94  F   UNL A   1      46.684  31.903  30.965  1.00  0.00    -0.203 F 
ATOM     95  C   UNL A   1      47.156  34.093  30.242  1.00  0.00     0.198 A 
ATOM     96  C   UNL A   1      46.674  34.744  27.983  1.00  0.00     0.198 A 
ATOM     97  F   UNL A   1      45.682  33.210  26.501  1.00  0.00    -0.203 F 
ATOM     98  F   UNL A   1      47.603  34.399  31.469  1.00  0.00    -0.200 F 
ATOM     99  C   UNL A   1      47.164  35.054  29.241  1.00  0.00     0.200 A 
ATOM    100  F   UNL A   1      46.700  35.664  27.008  1.00  0.00    -0.200 F 
ATOM    101  F   UNL A   1      47.641  36.280  29.493  1.00  0.00    -0.200 F 
ENDBRANCH  68  91
ENDBRANCH  42  43
ENDBRANCH  34  37
ENDBRANCH  32  33
ENDBRANCH  31  32
ENDBRANCH  30  31
ENDBRANCH   1  30
TORSDOF 18
ENDMDL
MODEL 3
REMARK VINA RESULT:     -11.9      4.823     10.869
REMARK SMILES CC(C)Oc1ccc(/C=C(\NC(=O)c2ccccc2)C(=O)NCCCCCCNC(=O)c2ccc(-c3c4nc(c(-c5c(F)c(F)c(F)c(F)c5F)c5ccc([nH]5)c(-c5c(F)c(F)c(F)c(F)c5F)c5nc(c(-c6c(F)c(F)c(F)c(F)c6F)c6ccc3[nH]6)C=C5)C=C4)cc2)cc1
REMARK SMILES IDX 25 1 24 2 23 3 22 4 20 5 21 6 10 8 9 9 8 10 5 11 6 12 96 13
REMARK SMILES IDX 7 14 95 15 4 16 2 17 1 18 3 19 11 20 12 21 13 23 14 24 15 25
REMARK SMILES IDX 19 26 16 27 18 28 17 29 26 30 27 31 28 32 29 33 30 34 31 36
REMARK SMILES IDX 32 37 33 38 94 39 34 40 93 41 35 42 36 43 37 44 87 45 38 46
REMARK SMILES IDX 92 47 86 48 88 49 39 50 91 51 85 52 84 53 40 55 72 56 52 57
REMARK SMILES IDX 71 58 53 59 56 60 70 61 89 62 54 63 55 64 69 66 90 67 57 68
REMARK SMILES IDX 41 69 42 70 50 71 43 72 44 73 48 74 51 75 45 76 46 77 49 78
REMARK SMILES IDX 47 79 73 80 74 81 82 82 75 83 76 84 80 85 83 86 77 87 78 88
REMARK SMILES IDX 81 89 79 90 58 91 59 92 67 93 60 94 61 95 65 96 68 97 62 98
REMARK SMILES IDX 63 99 66 100 64 101
REMARK H PARENT 22 7 11 22 29 35 88 54 56 65
REMARK Flexibility Score: inf
ROOT
ATOM      1  C   UNL A   1      34.059  22.652  23.685  1.00  0.00     0.002 C 
ENDROOT
BRANCH   1   2
ATOM      2  C   UNL A   1      33.018  23.285  22.749  1.00  0.00     0.021 C 
BRANCH   2   3
ATOM      3  C   UNL A   1      31.724  23.871  23.329  1.00  0.00     0.116 C 
BRANCH   3   4
ATOM      4  N   UNL A   1      31.293  23.361  24.619  1.00  0.00    -0.351 N 
ATOM      5  C   UNL A   1      30.637  24.036  25.627  1.00  0.00     0.267 C 
ATOM      6  O   UNL A   1      30.455  23.477  26.710  1.00  0.00    -0.268 OA
ATOM      7  H   UNL A   1      31.494  22.412  24.796  1.00  0.00     0.163 HD
BRANCH   5   8
ATOM      8  C   UNL A   1      30.217  25.485  25.414  1.00  0.00     0.107 C 
ATOM      9  C   UNL A   1      29.689  25.762  24.199  1.00  0.00     0.040 C 
BRANCH   9  10
ATOM     10  C   UNL A   1      29.119  27.007  23.615  1.00  0.00    -0.023 A 
ATOM     11  C   UNL A   1      27.951  29.473  22.829  1.00  0.00     0.119 A 
ATOM     12  C   UNL A   1      29.294  29.220  22.590  1.00  0.00     0.047 A 
ATOM     13  C   UNL A   1      27.163  28.476  23.387  1.00  0.00     0.047 A 
ATOM     14  C   UNL A   1      29.874  28.016  23.004  1.00  0.00     0.012 A 
ATOM     15  C   UNL A   1      27.744  27.257  23.781  1.00  0.00     0.012 A 
BRANCH  11  16
ATOM     16  O   UNL A   1      27.479  30.679  22.406  1.00  0.00    -0.491 OA
BRANCH  16  17
ATOM     17  C   UNL A   1      28.420  31.632  21.881  1.00  0.00     0.167 C 
ATOM     18  C   UNL A   1      28.052  32.064  20.467  1.00  0.00     0.052 C 
ATOM     19  C   UNL A   1      28.748  32.814  22.796  1.00  0.00     0.052 C 
ENDBRANCH  16  17
ENDBRANCH  11  16
ENDBRANCH   9  10
BRANCH   8  20
ATOM     20  N   UNL A   1      30.350  26.429  26.408  1.00  0.00    -0.317 N 
ATOM     21  C   UNL A   1      31.321  27.364  26.664  1.00  0.00     0.255 C 
ATOM     22  H   UNL A   1      29.608  26.436  27.056  1.00  0.00     0.170 HD
ATOM     23  O   UNL A   1      31.357  27.926  27.757  1.00  0.00    -0.269 OA
BRANCH  21  24
ATOM     24  C   UNL A   1      32.333  27.672  25.642  1.00  0.00     0.040 A 
ATOM     25  C   UNL A   1      33.159  26.630  25.233  1.00  0.00     0.014 A 
ATOM     26  C   UNL A   1      32.395  28.915  25.014  1.00  0.00     0.014 A 
ATOM     27  C   UNL A   1      33.918  26.767  24.073  1.00  0.00     0.001 A 
ATOM     28  C   UNL A   1      33.186  29.060  23.875  1.00  0.00     0.001 A 
ATOM     29  C   UNL A   1      33.907  27.972  23.379  1.00  0.00     0.000 A 
ENDBRANCH  21  24
ENDBRANCH   8  20
ENDBRANCH   5   8
ENDBRANCH   3   4
ENDBRANCH   2   3
ENDBRANCH   1   2
BRANCH   1  30
ATOM     30  C   UNL A   1      35.408  23.337  23.885  1.00  0.00     0.002 C 
BRANCH  30  31
ATOM     31  C   UNL A   1      36.635  22.475  24.143  1.00  0.00     0.021 C 
BRANCH  31  32
ATOM     32  C   UNL A   1      37.092  22.466  25.593  1.00  0.00     0.116 C 
BRANCH  32  33
ATOM     33  N   UNL A   1      37.949  21.322  25.902  1.00  0.00    -0.352 N 
ATOM     34  C   UNL A   1      39.262  21.276  26.316  1.00  0.00     0.251 C 
ATOM     35  H   UNL A   1      37.519  20.442  25.797  1.00  0.00     0.163 HD
ATOM     36  O   UNL A   1      39.890  20.230  26.291  1.00  0.00    -0.269 OA
BRANCH  34  37
ATOM     37  C   UNL A   1      39.903  22.518  26.793  1.00  0.00     0.039 A 
ATOM     38  C   UNL A   1      40.893  22.468  27.778  1.00  0.00     0.014 A 
ATOM     39  C   UNL A   1      39.528  23.735  26.229  1.00  0.00     0.014 A 
ATOM     40  C   UNL A   1      41.565  23.642  28.130  1.00  0.00     0.010 A 
ATOM     41  C   UNL A   1      40.295  24.860  26.464  1.00  0.00     0.010 A 
ATOM     42  C   UNL A   1      41.300  24.837  27.441  1.00  0.00    -0.014 A 
BRANCH  42  43
ATOM     43  C   UNL A   1      42.008  26.104  27.740  1.00  0.00     0.031 A 
ATOM     44  C   UNL A   1      41.293  27.172  28.525  1.00  0.00     0.074 A 
ATOM     45  C   UNL A   1      43.228  26.331  27.218  1.00  0.00     0.049 A 
ATOM     46  N   UNL A   1      41.654  28.406  28.769  1.00  0.00    -0.248 NA
ATOM     47  C   UNL A   1      39.962  26.827  29.057  1.00  0.00     0.031 C 
ATOM     48  C   UNL A   1      43.982  25.397  26.380  1.00  0.00     0.029 A 
ATOM     49  N   UNL A   1      44.044  27.431  27.304  1.00  0.00    -0.354 N 
ATOM     50  C   UNL A   1      40.584  28.981  29.443  1.00  0.00     0.074 A 
ATOM     51  C   UNL A   1      39.528  27.998  29.491  1.00  0.00     0.031 C 
ATOM     52  C   UNL A   1      45.165  25.945  26.063  1.00  0.00     0.029 A 
ATOM     53  C   UNL A   1      45.233  27.287  26.631  1.00  0.00     0.049 A 
ATOM     54  H   UNL A   1      43.801  28.245  27.801  1.00  0.00     0.167 HD
ATOM     55  C   UNL A   1      40.505  30.207  30.010  1.00  0.00     0.037 A 
ATOM     56  C   UNL A   1      46.255  28.151  26.487  1.00  0.00     0.037 A 
ATOM     57  C   UNL A   1      41.585  31.153  30.000  1.00  0.00     0.049 A 
ATOM     58  C   UNL A   1      46.154  29.501  27.144  1.00  0.00     0.074 A 
ATOM     59  C   UNL A   1      41.655  32.392  30.609  1.00  0.00     0.029 A 
ATOM     60  N   UNL A   1      42.795  30.955  29.347  1.00  0.00    -0.354 N 
ATOM     61  N   UNL A   1      45.172  30.008  27.851  1.00  0.00    -0.248 NA
ATOM     62  C   UNL A   1      47.306  30.399  26.991  1.00  0.00     0.031 C 
ATOM     63  C   UNL A   1      42.885  32.968  30.278  1.00  0.00     0.029 A 
ATOM     64  C   UNL A   1      43.608  32.062  29.517  1.00  0.00     0.049 A 
ATOM     65  H   UNL A   1      43.037  30.149  28.838  1.00  0.00     0.167 HD
ATOM     66  C   UNL A   1      45.596  31.267  28.251  1.00  0.00     0.074 A 
ATOM     67  C   UNL A   1      46.934  31.440  27.722  1.00  0.00     0.031 C 
ATOM     68  C   UNL A   1      44.941  32.199  28.987  1.00  0.00     0.037 A 
BRANCH  55  69
ATOM     69  C   UNL A   1      39.220  30.578  30.696  1.00  0.00     0.064 A 
ATOM     70  C   UNL A   1      38.126  31.101  29.987  1.00  0.00     0.173 A 
ATOM     71  C   UNL A   1      39.074  30.396  32.079  1.00  0.00     0.173 A 
ATOM     72  F   UNL A   1      38.214  31.311  28.665  1.00  0.00    -0.203 F 
ATOM     73  C   UNL A   1      36.952  31.463  30.643  1.00  0.00     0.198 A 
ATOM     74  C   UNL A   1      37.884  30.722  32.725  1.00  0.00     0.198 A 
ATOM     75  F   UNL A   1      40.085  29.899  32.808  1.00  0.00    -0.203 F 
ATOM     76  F   UNL A   1      35.948  32.023  29.953  1.00  0.00    -0.200 F 
ATOM     77  C   UNL A   1      36.828  31.266  32.009  1.00  0.00     0.200 A 
ATOM     78  F   UNL A   1      37.761  30.519  34.044  1.00  0.00    -0.200 F 
ATOM     79  F   UNL A   1      35.695  31.608  32.637  1.00  0.00    -0.200 F 
ENDBRANCH  55  69
BRANCH  56  80
ATOM     80  C   UNL A   1      47.469  27.754  25.723  1.00  0.00     0.064 A 
ATOM     81  C   UNL A   1      47.487  27.810  24.322  1.00  0.00     0.173 A 
ATOM     82  C   UNL A   1      48.633  27.314  26.370  1.00  0.00     0.173 A 
ATOM     83  F   UNL A   1      46.394  28.210  23.654  1.00  0.00    -0.203 F 
ATOM     84  C   UNL A   1      48.610  27.417  23.597  1.00  0.00     0.198 A 
ATOM     85  C   UNL A   1      49.768  26.951  25.646  1.00  0.00     0.198 A 
ATOM     86  F   UNL A   1      48.674  27.249  27.709  1.00  0.00    -0.203 F 
ATOM     87  F   UNL A   1      48.580  27.433  22.258  1.00  0.00    -0.200 F 
ATOM     88  C   UNL A   1      49.751  26.993  24.260  1.00  0.00     0.200 A 
ATOM     89  F   UNL A   1      50.874  26.558  26.291  1.00  0.00    -0.200 F 
ATOM     90  F   UNL A   1      50.834  26.618  23.563  1.00  0.00    -0.200 F 
ENDBRANCH  56  80
BRANCH  68  91
ATOM     91  C   UNL A   1      45.676  33.471  29.297  1.00  0.00     0.064 A 
ATOM     92  C   UNL A   1      45.574  34.600  28.473  1.00  0.00     0.173 A 
ATOM     93  C   UNL A   1      46.444  33.574  30.467  1.00  0.00     0.173 A 
ATOM     94  F   UNL A   1      44.861  34.547  27.338  1.00  0.00    -0.203 F 
ATOM     95  C   UNL A   1      46.238  35.779  28.796  1.00  0.00     0.198 A 
ATOM     96  C   UNL A   1      47.076  34.766  30.804  1.00  0.00     0.198 A 
ATOM     97  F   UNL A   1      46.564  32.523  31.294  1.00  0.00    -0.203 F 
ATOM     98  F   UNL A   1      46.168  36.832  27.968  1.00  0.00    -0.200 F 
ATOM     99  C   UNL A   1      46.980  35.865  29.965  1.00  0.00     0.200 A 
ATOM    100  F   UNL A   1      47.775  34.852  31.945  1.00  0.00    -0.200 F 
ATOM    101  F   UNL A   1      47.606  37.007  30.281  1.00  0.00    -0.200 F 
ENDBRANCH  68  91
ENDBRANCH  42  43
ENDBRANCH  34  37
ENDBRANCH  32  33
ENDBRANCH  31  32
ENDBRANCH  30  31
ENDBRANCH   1  30
TORSDOF 18
ENDMDL
