MODEL 1
REMARK VINA RESULT:     -10.5      0.000      0.000
REMARK SMILES CCCN(CC)S(=O)(=O)c1ccc(C(=O)NCCCCCCNC(=O)c2ccc(-c3c4nc(c(-c5c(F)c(F)c(F)c(F)c5F)c5ccc([nH]5)c(-c5c(F)c(F)c(F)c(F)c5F)c5nc(c(-c6c(F)c(F)c(F)c(F)c6F)c6ccc3[nH]6)C=C5)C=C4)cc2)o1
REMARK SMILES IDX 18 1 17 2 16 3 14 4 15 5 13 7 10 8 11 9 89 10 12 11 7 12
REMARK SMILES IDX 8 13 9 14 4 15 3 16 2 17 1 18 5 19 6 20 19 21 20 22 21 23
REMARK SMILES IDX 22 24 23 25 24 26 25 28 26 29 27 30 88 31 28 32 87 33 29 34
REMARK SMILES IDX 30 35 31 36 81 37 32 38 86 39 80 40 82 41 33 42 85 43 79 44
REMARK SMILES IDX 78 45 34 47 66 48 46 49 65 50 47 51 50 52 64 53 83 54 48 55
REMARK SMILES IDX 49 56 63 58 84 59 51 60 35 61 36 62 44 63 37 64 38 65 42 66
REMARK SMILES IDX 45 67 39 68 40 69 43 70 41 71 67 72 68 73 76 74 69 75 70 76
REMARK SMILES IDX 74 77 77 78 71 79 72 80 75 81 73 82 52 83 53 84 61 85 54 86
REMARK SMILES IDX 55 87 59 88 62 89 56 90 57 91 60 92 58 93
REMARK H PARENT 16 6 23 27 82 46 50 57
REMARK Flexibility Score: inf
ROOT
ATOM      1  C   UNL A   1      35.180  22.035  26.211  1.00  0.00     0.021 C 
ENDROOT
BRANCH   1   2
ATOM      2  C   UNL A   1      34.080  21.017  25.902  1.00  0.00     0.116 C 
BRANCH   2   3
ATOM      3  N   UNL A   1      32.764  21.561  26.168  1.00  0.00    -0.349 N 
ATOM      4  C   UNL A   1      31.920  22.301  25.372  1.00  0.00     0.287 C 
ATOM      5  O   UNL A   1      30.788  22.501  25.819  1.00  0.00    -0.266 OA
ATOM      6  H   UNL A   1      32.414  21.367  27.068  1.00  0.00     0.163 HD
BRANCH   4   7
ATOM      7  C   UNL A   1      32.350  22.802  24.078  1.00  0.00     0.193 A 
ATOM      8  C   UNL A   1      32.612  24.448  22.578  1.00  0.00     0.234 A 
ATOM      9  C   UNL A   1      33.141  23.286  22.032  1.00  0.00     0.065 A 
ATOM     10  O   UNL A   1      32.121  24.131  23.823  1.00  0.00    -0.438 OA
ATOM     11  C   UNL A   1      33.003  22.257  22.989  1.00  0.00     0.058 A 
BRANCH   8  12
ATOM     12  S   UNL A   1      32.522  26.101  21.876  1.00  0.00     0.276 S 
ATOM     13  O   UNL A   1      31.524  26.013  20.836  1.00  0.00    -0.204 OA
ATOM     14  O   UNL A   1      33.908  26.378  21.543  1.00  0.00    -0.204 OA
BRANCH  12  15
ATOM     15  N   UNL A   1      32.014  27.240  23.045  1.00  0.00    -0.195 NA
BRANCH  15  16
ATOM     16  C   UNL A   1      32.940  28.402  23.240  1.00  0.00     0.102 C 
BRANCH  16  17
ATOM     17  C   UNL A   1      33.437  28.530  24.681  1.00  0.00     0.013 C 
ATOM     18  C   UNL A   1      33.737  27.193  25.352  1.00  0.00     0.005 C 
ENDBRANCH  16  17
ENDBRANCH  15  16
BRANCH  15  19
ATOM     19  C   UNL A   1      30.583  27.669  23.012  1.00  0.00     0.099 C 
ATOM     20  C   UNL A   1      30.364  29.062  22.445  1.00  0.00     0.022 C 
ENDBRANCH  15  19
ENDBRANCH  12  15
ENDBRANCH   8  12
ENDBRANCH   4   7
ENDBRANCH   2   3
ENDBRANCH   1   2
BRANCH   1  21
ATOM     21  C   UNL A   1      36.478  21.806  25.426  1.00  0.00     0.002 C 
BRANCH  21  22
ATOM     22  C   UNL A   1      36.555  20.480  24.655  1.00  0.00     0.002 C 
BRANCH  22  23
ATOM     23  C   UNL A   1      37.636  19.502  25.127  1.00  0.00     0.021 C 
BRANCH  23  24
ATOM     24  C   UNL A   1      38.900  20.155  25.679  1.00  0.00     0.116 C 
BRANCH  24  25
ATOM     25  N   UNL A   1      39.978  19.196  25.856  1.00  0.00    -0.352 N 
ATOM     26  C   UNL A   1      41.310  19.407  26.100  1.00  0.00     0.251 C 
ATOM     27  H   UNL A   1      39.710  18.251  25.792  1.00  0.00     0.163 HD
ATOM     28  O   UNL A   1      42.101  18.470  26.026  1.00  0.00    -0.269 OA
BRANCH  26  29
ATOM     29  C   UNL A   1      41.810  20.757  26.441  1.00  0.00     0.039 A 
ATOM     30  C   UNL A   1      41.971  21.691  25.412  1.00  0.00     0.014 A 
ATOM     31  C   UNL A   1      42.172  21.089  27.750  1.00  0.00     0.014 A 
ATOM     32  C   UNL A   1      42.451  22.970  25.701  1.00  0.00     0.010 A 
ATOM     33  C   UNL A   1      42.602  22.383  28.045  1.00  0.00     0.010 A 
ATOM     34  C   UNL A   1      42.752  23.332  27.023  1.00  0.00    -0.014 A 
BRANCH  34  35
ATOM     35  C   UNL A   1      43.229  24.700  27.346  1.00  0.00     0.031 A 
ATOM     36  C   UNL A   1      42.292  25.713  27.937  1.00  0.00     0.074 A 
ATOM     37  C   UNL A   1      44.500  25.043  27.060  1.00  0.00     0.049 A 
ATOM     38  N   UNL A   1      42.517  26.962  28.257  1.00  0.00    -0.248 NA
ATOM     39  C   UNL A   1      40.909  25.271  28.180  1.00  0.00     0.031 C 
ATOM     40  C   UNL A   1      45.491  24.164  26.439  1.00  0.00     0.029 A 
ATOM     41  N   UNL A   1      45.172  26.224  27.248  1.00  0.00    -0.354 N 
ATOM     42  C   UNL A   1      41.308  27.458  28.724  1.00  0.00     0.074 A 
ATOM     43  C   UNL A   1      40.340  26.389  28.609  1.00  0.00     0.031 C 
ATOM     44  C   UNL A   1      46.650  24.829  26.314  1.00  0.00     0.029 A 
ATOM     45  C   UNL A   1      46.478  26.187  26.825  1.00  0.00     0.049 A 
ATOM     46  H   UNL A   1      44.758  27.022  27.647  1.00  0.00     0.167 HD
ATOM     47  C   UNL A   1      41.035  28.687  29.223  1.00  0.00     0.037 A 
ATOM     48  C   UNL A   1      47.428  27.139  26.850  1.00  0.00     0.037 A 
ATOM     49  C   UNL A   1      42.007  29.740  29.369  1.00  0.00     0.049 A 
ATOM     50  C   UNL A   1      47.107  28.486  27.434  1.00  0.00     0.074 A 
ATOM     51  C   UNL A   1      41.842  30.997  29.925  1.00  0.00     0.029 A 
ATOM     52  N   UNL A   1      43.327  29.655  28.956  1.00  0.00    -0.354 N 
ATOM     53  N   UNL A   1      45.977  28.921  27.936  1.00  0.00    -0.248 NA
ATOM     54  C   UNL A   1      48.196  29.472  27.464  1.00  0.00     0.031 C 
ATOM     55  C   UNL A   1      43.057  31.684  29.821  1.00  0.00     0.029 A 
ATOM     56  C   UNL A   1      43.986  30.843  29.231  1.00  0.00     0.049 A 
ATOM     57  H   UNL A   1      43.737  28.867  28.530  1.00  0.00     0.167 HD
ATOM     58  C   UNL A   1      46.223  30.219  28.361  1.00  0.00     0.074 A 
ATOM     59  C   UNL A   1      47.614  30.498  28.070  1.00  0.00     0.031 C 
ATOM     60  C   UNL A   1      45.372  31.100  28.939  1.00  0.00     0.037 A 
BRANCH  47  61
ATOM     61  C   UNL A   1      39.626  28.961  29.658  1.00  0.00     0.064 A 
ATOM     62  C   UNL A   1      38.672  29.477  28.769  1.00  0.00     0.173 A 
ATOM     63  C   UNL A   1      39.214  28.670  30.967  1.00  0.00     0.173 A 
ATOM     64  F   UNL A   1      39.019  29.782  27.509  1.00  0.00    -0.203 F 
ATOM     65  C   UNL A   1      37.364  29.715  29.181  1.00  0.00     0.198 A 
ATOM     66  C   UNL A   1      37.900  28.887  31.370  1.00  0.00     0.198 A 
ATOM     67  F   UNL A   1      40.088  28.171  31.855  1.00  0.00    -0.203 F 
ATOM     68  F   UNL A   1      36.480  30.248  28.326  1.00  0.00    -0.200 F 
ATOM     69  C   UNL A   1      36.977  29.415  30.478  1.00  0.00     0.200 A 
ATOM     70  F   UNL A   1      37.524  28.588  32.621  1.00  0.00    -0.200 F 
ATOM     71  F   UNL A   1      35.717  29.641  30.872  1.00  0.00    -0.200 F 
ENDBRANCH  47  61
BRANCH  48  72
ATOM     72  C   UNL A   1      48.788  26.836  26.339  1.00  0.00     0.064 A 
ATOM     73  C   UNL A   1      49.754  26.260  27.174  1.00  0.00     0.173 A 
ATOM     74  C   UNL A   1      49.144  27.103  25.010  1.00  0.00     0.173 A 
ATOM     75  F   UNL A   1      49.463  26.006  28.458  1.00  0.00    -0.203 F 
ATOM     76  C   UNL A   1      51.034  25.976  26.702  1.00  0.00     0.198 A 
ATOM     77  C   UNL A   1      50.418  26.798  24.534  1.00  0.00     0.198 A 
ATOM     78  F   UNL A   1      48.251  27.649  24.172  1.00  0.00    -0.203 F 
ATOM     79  F   UNL A   1      51.951  25.457  27.531  1.00  0.00    -0.200 F 
ATOM     80  C   UNL A   1      51.363  26.240  25.382  1.00  0.00     0.200 A 
ATOM     81  F   UNL A   1      50.729  27.043  23.254  1.00  0.00    -0.200 F 
ATOM     82  F   UNL A   1      52.592  25.961  24.927  1.00  0.00    -0.200 F 
ENDBRANCH  48  72
BRANCH  60  83
ATOM     83  C   UNL A   1      45.928  32.440  29.317  1.00  0.00     0.064 A 
ATOM     84  C   UNL A   1      46.522  32.659  30.568  1.00  0.00     0.173 A 
ATOM     85  C   UNL A   1      45.897  33.505  28.405  1.00  0.00     0.173 A 
ATOM     86  F   UNL A   1      46.559  31.675  31.478  1.00  0.00    -0.203 F 
ATOM     87  C   UNL A   1      47.048  33.904  30.901  1.00  0.00     0.198 A 
ATOM     88  C   UNL A   1      46.445  34.742  28.732  1.00  0.00     0.198 A 
ATOM     89  F   UNL A   1      45.344  33.343  27.195  1.00  0.00    -0.203 F 
ATOM     90  F   UNL A   1      47.575  34.104  32.116  1.00  0.00    -0.200 F 
ATOM     91  C   UNL A   1      47.014  34.943  29.981  1.00  0.00     0.200 A 
ATOM     92  F   UNL A   1      46.418  35.743  27.840  1.00  0.00    -0.200 F 
ATOM     93  F   UNL A   1      47.523  36.140  30.302  1.00  0.00    -0.200 F 
ENDBRANCH  60  83
ENDBRANCH  34  35
ENDBRANCH  26  29
ENDBRANCH  24  25
ENDBRANCH  23  24
ENDBRANCH  22  23
ENDBRANCH  21  22
ENDBRANCH   1  21
TORSDOF 18
ENDMDL
MODEL 2
REMARK VINA RESULT:     -10.3      2.216      7.897
REMARK SMILES CCCN(CC)S(=O)(=O)c1ccc(C(=O)NCCCCCCNC(=O)c2ccc(-c3c4nc(c(-c5c(F)c(F)c(F)c(F)c5F)c5ccc([nH]5)c(-c5c(F)c(F)c(F)c(F)c5F)c5nc(c(-c6c(F)c(F)c(F)c(F)c6F)c6ccc3[nH]6)C=C5)C=C4)cc2)o1
REMARK SMILES IDX 18 1 17 2 16 3 14 4 15 5 13 7 10 8 11 9 89 10 12 11 7 12
REMARK SMILES IDX 8 13 9 14 4 15 3 16 2 17 1 18 5 19 6 20 19 21 20 22 21 23
REMARK SMILES IDX 22 24 23 25 24 26 25 28 26 29 27 30 88 31 28 32 87 33 29 34
REMARK SMILES IDX 30 35 31 36 81 37 32 38 86 39 80 40 82 41 33 42 85 43 79 44
REMARK SMILES IDX 78 45 34 47 66 48 46 49 65 50 47 51 50 52 64 53 83 54 48 55
REMARK SMILES IDX 49 56 63 58 84 59 51 60 35 61 36 62 44 63 37 64 38 65 42 66
REMARK SMILES IDX 45 67 39 68 40 69 43 70 41 71 67 72 68 73 76 74 69 75 70 76
REMARK SMILES IDX 74 77 77 78 71 79 72 80 75 81 73 82 52 83 53 84 61 85 54 86
REMARK SMILES IDX 55 87 59 88 62 89 56 90 57 91 60 92 58 93
REMARK H PARENT 16 6 23 27 82 46 50 57
REMARK Flexibility Score: inf
ROOT
ATOM      1  C   UNL A   1      40.562  22.608  27.495  1.00  0.00     0.021 C 
ENDROOT
BRANCH   1   2
ATOM      2  C   UNL A   1      39.383  22.963  26.586  1.00  0.00     0.116 C 
BRANCH   2   3
ATOM      3  N   UNL A   1      38.909  21.805  25.855  1.00  0.00    -0.349 N 
ATOM      4  C   UNL A   1      37.692  21.551  25.266  1.00  0.00     0.287 C 
ATOM      5  O   UNL A   1      37.624  20.529  24.579  1.00  0.00    -0.266 OA
ATOM      6  H   UNL A   1      39.568  21.080  25.764  1.00  0.00     0.163 HD
BRANCH   4   7
ATOM      7  C   UNL A   1      36.565  22.451  25.442  1.00  0.00     0.193 A 
ATOM      8  C   UNL A   1      34.418  22.864  25.939  1.00  0.00     0.234 A 
ATOM      9  C   UNL A   1      35.035  24.079  25.674  1.00  0.00     0.065 A 
ATOM     10  O   UNL A   1      35.365  21.878  25.781  1.00  0.00    -0.438 OA
ATOM     11  C   UNL A   1      36.394  23.821  25.390  1.00  0.00     0.058 A 
BRANCH   8  12
ATOM     12  S   UNL A   1      32.713  22.525  26.400  1.00  0.00     0.276 S 
ATOM     13  O   UNL A   1      32.680  22.658  27.838  1.00  0.00    -0.204 OA
ATOM     14  O   UNL A   1      32.468  21.237  25.777  1.00  0.00    -0.204 OA
BRANCH  12  15
ATOM     15  N   UNL A   1      31.648  23.667  25.706  1.00  0.00    -0.195 NA
BRANCH  15  16
ATOM     16  C   UNL A   1      31.346  24.856  26.568  1.00  0.00     0.102 C 
BRANCH  16  17
ATOM     17  C   UNL A   1      32.087  26.117  26.121  1.00  0.00     0.013 C 
ATOM     18  C   UNL A   1      31.454  27.414  26.616  1.00  0.00     0.005 C 
ENDBRANCH  16  17
ENDBRANCH  15  16
BRANCH  15  19
ATOM     19  C   UNL A   1      31.890  24.060  24.284  1.00  0.00     0.099 C 
ATOM     20  C   UNL A   1      30.644  24.043  23.414  1.00  0.00     0.022 C 
ENDBRANCH  15  19
ENDBRANCH  12  15
ENDBRANCH   8  12
ENDBRANCH   4   7
ENDBRANCH   2   3
ENDBRANCH   1   2
BRANCH   1  21
ATOM     21  C   UNL A   1      40.822  21.101  27.616  1.00  0.00     0.002 C 
BRANCH  21  22
ATOM     22  C   UNL A   1      42.292  20.675  27.494  1.00  0.00     0.002 C 
BRANCH  22  23
ATOM     23  C   UNL A   1      42.535  19.321  26.819  1.00  0.00     0.021 C 
BRANCH  23  24
ATOM     24  C   UNL A   1      42.483  19.343  25.293  1.00  0.00     0.116 C 
BRANCH  24  25
ATOM     25  N   UNL A   1      43.741  18.920  24.699  1.00  0.00    -0.352 N 
ATOM     26  C   UNL A   1      44.849  19.658  24.372  1.00  0.00     0.251 C 
ATOM     27  H   UNL A   1      43.807  17.958  24.502  1.00  0.00     0.163 HD
ATOM     28  O   UNL A   1      45.743  19.153  23.697  1.00  0.00    -0.269 OA
BRANCH  26  29
ATOM     29  C   UNL A   1      44.977  21.065  24.813  1.00  0.00     0.039 A 
ATOM     30  C   UNL A   1      45.506  21.323  26.082  1.00  0.00     0.014 A 
ATOM     31  C   UNL A   1      44.531  22.121  24.013  1.00  0.00     0.014 A 
ATOM     32  C   UNL A   1      45.629  22.639  26.531  1.00  0.00     0.010 A 
ATOM     33  C   UNL A   1      44.702  23.437  24.440  1.00  0.00     0.010 A 
ATOM     34  C   UNL A   1      45.246  23.708  25.705  1.00  0.00    -0.014 A 
BRANCH  34  35
ATOM     35  C   UNL A   1      45.406  25.112  26.158  1.00  0.00     0.031 A 
ATOM     36  C   UNL A   1      46.745  25.788  26.085  1.00  0.00     0.074 A 
ATOM     37  C   UNL A   1      44.349  25.763  26.682  1.00  0.00     0.049 A 
ATOM     38  N   UNL A   1      47.085  26.996  26.459  1.00  0.00    -0.248 NA
ATOM     39  C   UNL A   1      47.857  24.994  25.538  1.00  0.00     0.031 C 
ATOM     40  C   UNL A   1      43.011  25.198  26.854  1.00  0.00     0.029 A 
ATOM     41  N   UNL A   1      44.239  27.040  27.173  1.00  0.00    -0.354 N 
ATOM     42  C   UNL A   1      48.446  27.101  26.208  1.00  0.00     0.074 A 
ATOM     43  C   UNL A   1      48.880  25.823  25.687  1.00  0.00     0.031 C 
ATOM     44  C   UNL A   1      42.208  26.129  27.393  1.00  0.00     0.029 A 
ATOM     45  C   UNL A   1      42.980  27.347  27.626  1.00  0.00     0.049 A 
ATOM     46  H   UNL A   1      44.990  27.675  27.199  1.00  0.00     0.167 HD
ATOM     47  C   UNL A   1      49.255  28.174  26.378  1.00  0.00     0.037 A 
ATOM     48  C   UNL A   1      42.502  28.484  28.164  1.00  0.00     0.037 A 
ATOM     49  C   UNL A   1      48.816  29.456  26.865  1.00  0.00     0.049 A 
ATOM     50  C   UNL A   1      43.415  29.669  28.316  1.00  0.00     0.074 A 
ATOM     51  C   UNL A   1      49.547  30.622  27.009  1.00  0.00     0.029 A 
ATOM     52  N   UNL A   1      47.526  29.737  27.286  1.00  0.00    -0.354 N 
ATOM     53  N   UNL A   1      44.685  29.777  28.011  1.00  0.00    -0.248 NA
ATOM     54  C   UNL A   1      42.825  30.892  28.879  1.00  0.00     0.031 C 
ATOM     55  C   UNL A   1      48.705  31.603  27.546  1.00  0.00     0.029 A 
ATOM     56  C   UNL A   1      47.443  31.056  27.705  1.00  0.00     0.049 A 
ATOM     57  H   UNL A   1      46.779  29.095  27.288  1.00  0.00     0.167 HD
ATOM     58  C   UNL A   1      45.041  31.082  28.322  1.00  0.00     0.074 A 
ATOM     59  C   UNL A   1      43.849  31.732  28.828  1.00  0.00     0.031 C 
ATOM     60  C   UNL A   1      46.247  31.687  28.200  1.00  0.00     0.037 A 
BRANCH  47  61
ATOM     61  C   UNL A   1      50.704  28.010  26.026  1.00  0.00     0.064 A 
ATOM     62  C   UNL A   1      51.153  28.122  24.702  1.00  0.00     0.173 A 
ATOM     63  C   UNL A   1      51.659  27.775  27.026  1.00  0.00     0.173 A 
ATOM     64  F   UNL A   1      50.277  28.335  23.708  1.00  0.00    -0.203 F 
ATOM     65  C   UNL A   1      52.503  27.980  24.389  1.00  0.00     0.198 A 
ATOM     66  C   UNL A   1      53.010  27.657  26.713  1.00  0.00     0.198 A 
ATOM     67  F   UNL A   1      51.281  27.663  28.308  1.00  0.00    -0.203 F 
ATOM     68  F   UNL A   1      52.904  28.049  23.112  1.00  0.00    -0.200 F 
ATOM     69  C   UNL A   1      53.430  27.753  25.394  1.00  0.00     0.200 A 
ATOM     70  F   UNL A   1      53.908  27.448  27.686  1.00  0.00    -0.200 F 
ATOM     71  F   UNL A   1      54.728  27.621  25.092  1.00  0.00    -0.200 F 
ENDBRANCH  47  61
BRANCH  48  72
ATOM     72  C   UNL A   1      41.075  28.567  28.563  1.00  0.00     0.064 A 
ATOM     73  C   UNL A   1      40.669  28.200  29.853  1.00  0.00     0.173 A 
ATOM     74  C   UNL A   1      40.094  29.022  27.672  1.00  0.00     0.173 A 
ATOM     75  F   UNL A   1      41.571  27.739  30.732  1.00  0.00    -0.203 F 
ATOM     76  C   UNL A   1      39.331  28.271  30.233  1.00  0.00     0.198 A 
ATOM     77  C   UNL A   1      38.759  29.115  28.060  1.00  0.00     0.198 A 
ATOM     78  F   UNL A   1      40.435  29.390  26.428  1.00  0.00    -0.203 F 
ATOM     79  F   UNL A   1      38.964  27.882  31.462  1.00  0.00    -0.200 F 
ATOM     80  C   UNL A   1      38.378  28.734  29.339  1.00  0.00     0.200 A 
ATOM     81  F   UNL A   1      37.842  29.573  27.198  1.00  0.00    -0.200 F 
ATOM     82  F   UNL A   1      37.091  28.808  29.707  1.00  0.00    -0.200 F 
ENDBRANCH  48  72
BRANCH  60  83
ATOM     83  C   UNL A   1      46.332  33.129  28.599  1.00  0.00     0.064 A 
ATOM     84  C   UNL A   1      46.674  33.508  29.905  1.00  0.00     0.173 A 
ATOM     85  C   UNL A   1      46.102  34.142  27.656  1.00  0.00     0.173 A 
ATOM     86  F   UNL A   1      46.886  32.575  30.844  1.00  0.00    -0.203 F 
ATOM     87  C   UNL A   1      46.764  34.852  30.258  1.00  0.00     0.198 A 
ATOM     88  C   UNL A   1      46.216  35.483  28.007  1.00  0.00     0.198 A 
ATOM     89  F   UNL A   1      45.776  33.829  26.393  1.00  0.00    -0.203 F 
ATOM     90  F   UNL A   1      47.053  35.193  31.521  1.00  0.00    -0.200 F 
ATOM     91  C   UNL A   1      46.541  35.838  29.308  1.00  0.00     0.200 A 
ATOM     92  F   UNL A   1      46.007  36.436  27.086  1.00  0.00    -0.200 F 
ATOM     93  F   UNL A   1      46.630  37.130  29.649  1.00  0.00    -0.200 F 
ENDBRANCH  60  83
ENDBRANCH  34  35
ENDBRANCH  26  29
ENDBRANCH  24  25
ENDBRANCH  23  24
ENDBRANCH  22  23
ENDBRANCH  21  22
ENDBRANCH   1  21
TORSDOF 18
ENDMDL
MODEL 3
REMARK VINA RESULT:     -10.3      4.588      8.206
REMARK SMILES CCCN(CC)S(=O)(=O)c1ccc(C(=O)NCCCCCCNC(=O)c2ccc(-c3c4nc(c(-c5c(F)c(F)c(F)c(F)c5F)c5ccc([nH]5)c(-c5c(F)c(F)c(F)c(F)c5F)c5nc(c(-c6c(F)c(F)c(F)c(F)c6F)c6ccc3[nH]6)C=C5)C=C4)cc2)o1
REMARK SMILES IDX 18 1 17 2 16 3 14 4 15 5 13 7 10 8 11 9 89 10 12 11 7 12
REMARK SMILES IDX 8 13 9 14 4 15 3 16 2 17 1 18 5 19 6 20 19 21 20 22 21 23
REMARK SMILES IDX 22 24 23 25 24 26 25 28 26 29 27 30 88 31 28 32 87 33 29 34
REMARK SMILES IDX 30 35 31 36 81 37 32 38 86 39 80 40 82 41 33 42 85 43 79 44
REMARK SMILES IDX 78 45 34 47 66 48 46 49 65 50 47 51 50 52 64 53 83 54 48 55
REMARK SMILES IDX 49 56 63 58 84 59 51 60 35 61 36 62 44 63 37 64 38 65 42 66
REMARK SMILES IDX 45 67 39 68 40 69 43 70 41 71 67 72 68 73 76 74 69 75 70 76
REMARK SMILES IDX 74 77 77 78 71 79 72 80 75 81 73 82 52 83 53 84 61 85 54 86
REMARK SMILES IDX 55 87 59 88 62 89 56 90 57 91 60 92 58 93
REMARK H PARENT 16 6 23 27 82 46 50 57
REMARK Flexibility Score: inf
ROOT
ATOM      1  C   UNL A   1      32.925  24.995  25.254  1.00  0.00     0.021 C 
ENDROOT
BRANCH   1   2
ATOM      2  C   UNL A   1      31.865  23.926  25.528  1.00  0.00     0.116 C 
BRANCH   2   3
ATOM      3  N   UNL A   1      32.011  23.362  26.854  1.00  0.00    -0.349 N 
ATOM      4  C   UNL A   1      32.842  22.370  27.323  1.00  0.00     0.287 C 
ATOM      5  O   UNL A   1      32.849  22.200  28.544  1.00  0.00    -0.266 OA
ATOM      6  H   UNL A   1      31.417  23.754  27.534  1.00  0.00     0.163 HD
BRANCH   4   7
ATOM      7  C   UNL A   1      33.666  21.586  26.418  1.00  0.00     0.193 A 
ATOM      8  C   UNL A   1      35.595  21.166  25.356  1.00  0.00     0.234 A 
ATOM      9  C   UNL A   1      34.695  20.166  25.015  1.00  0.00     0.065 A 
ATOM     10  O   UNL A   1      34.946  22.033  26.205  1.00  0.00    -0.438 OA
ATOM     11  C   UNL A   1      33.490  20.414  25.708  1.00  0.00     0.058 A 
BRANCH   8  12
ATOM     12  S   UNL A   1      37.302  21.391  24.838  1.00  0.00     0.276 S 
ATOM     13  O   UNL A   1      37.230  22.220  23.658  1.00  0.00    -0.204 OA
ATOM     14  O   UNL A   1      37.787  20.026  24.748  1.00  0.00    -0.204 OA
BRANCH  12  15
ATOM     15  N   UNL A   1      38.208  22.204  26.039  1.00  0.00    -0.195 NA
BRANCH  15  16
ATOM     16  C   UNL A   1      39.693  22.032  25.935  1.00  0.00     0.102 C 
BRANCH  16  17
ATOM     17  C   UNL A   1      40.250  21.046  26.963  1.00  0.00     0.013 C 
ATOM     18  C   UNL A   1      41.098  19.932  26.355  1.00  0.00     0.005 C 
ENDBRANCH  16  17
ENDBRANCH  15  16
BRANCH  15  19
ATOM     19  C   UNL A   1      37.833  23.618  26.346  1.00  0.00     0.099 C 
ATOM     20  C   UNL A   1      39.014  24.568  26.446  1.00  0.00     0.022 C 
ENDBRANCH  15  19
ENDBRANCH  12  15
ENDBRANCH   8  12
ENDBRANCH   4   7
ENDBRANCH   2   3
ENDBRANCH   1   2
BRANCH   1  21
ATOM     21  C   UNL A   1      32.351  26.407  25.072  1.00  0.00     0.002 C 
BRANCH  21  22
ATOM     22  C   UNL A   1      32.497  27.337  26.284  1.00  0.00     0.002 C 
BRANCH  22  23
ATOM     23  C   UNL A   1      32.123  28.803  26.042  1.00  0.00     0.021 C 
BRANCH  23  24
ATOM     24  C   UNL A   1      33.306  29.742  25.816  1.00  0.00     0.116 C 
BRANCH  24  25
ATOM     25  N   UNL A   1      33.006  31.105  26.223  1.00  0.00    -0.352 N 
ATOM     26  C   UNL A   1      33.550  31.859  27.231  1.00  0.00     0.251 C 
ATOM     27  H   UNL A   1      32.308  31.554  25.695  1.00  0.00     0.163 HD
ATOM     28  O   UNL A   1      33.028  32.926  27.545  1.00  0.00    -0.269 OA
BRANCH  26  29
ATOM     29  C   UNL A   1      34.754  31.397  27.955  1.00  0.00     0.039 A 
ATOM     30  C   UNL A   1      35.836  32.274  28.083  1.00  0.00     0.014 A 
ATOM     31  C   UNL A   1      34.846  30.095  28.456  1.00  0.00     0.014 A 
ATOM     32  C   UNL A   1      36.991  31.862  28.751  1.00  0.00     0.010 A 
ATOM     33  C   UNL A   1      35.978  29.703  29.169  1.00  0.00     0.010 A 
ATOM     34  C   UNL A   1      37.063  30.580  29.317  1.00  0.00    -0.014 A 
BRANCH  34  35
ATOM     35  C   UNL A   1      38.272  30.145  30.060  1.00  0.00     0.031 A 
ATOM     36  C   UNL A   1      38.502  30.601  31.472  1.00  0.00     0.074 A 
ATOM     37  C   UNL A   1      39.188  29.375  29.442  1.00  0.00     0.049 A 
ATOM     38  N   UNL A   1      39.510  30.351  32.270  1.00  0.00    -0.248 NA
ATOM     39  C   UNL A   1      37.474  31.474  32.061  1.00  0.00     0.031 C 
ATOM     40  C   UNL A   1      39.103  28.909  28.058  1.00  0.00     0.029 A 
ATOM     41  N   UNL A   1      40.373  28.855  29.898  1.00  0.00    -0.354 N 
ATOM     42  C   UNL A   1      39.246  31.044  33.444  1.00  0.00     0.074 A 
ATOM     43  C   UNL A   1      38.003  31.758  33.242  1.00  0.00     0.031 C 
ATOM     44  C   UNL A   1      40.180  28.157  27.782  1.00  0.00     0.029 A 
ATOM     45  C   UNL A   1      41.041  28.106  28.960  1.00  0.00     0.049 A 
ATOM     46  H   UNL A   1      40.714  29.005  30.809  1.00  0.00     0.167 HD
ATOM     47  C   UNL A   1      39.964  31.065  34.591  1.00  0.00     0.037 A 
ATOM     48  C   UNL A   1      42.213  27.451  29.044  1.00  0.00     0.037 A 
ATOM     49  C   UNL A   1      41.182  30.327  34.803  1.00  0.00     0.049 A 
ATOM     50  C   UNL A   1      42.977  27.467  30.339  1.00  0.00     0.074 A 
ATOM     51  C   UNL A   1      41.946  30.233  35.953  1.00  0.00     0.029 A 
ATOM     52  N   UNL A   1      41.812  29.555  33.839  1.00  0.00    -0.354 N 
ATOM     53  N   UNL A   1      42.682  28.071  31.464  1.00  0.00    -0.248 NA
ATOM     54  C   UNL A   1      44.232  26.704  30.378  1.00  0.00     0.031 C 
ATOM     55  C   UNL A   1      43.056  29.426  35.676  1.00  0.00     0.029 A 
ATOM     56  C   UNL A   1      42.965  28.993  34.364  1.00  0.00     0.049 A 
ATOM     57  H   UNL A   1      41.488  29.427  32.918  1.00  0.00     0.167 HD
ATOM     58  C   UNL A   1      43.698  27.744  32.350  1.00  0.00     0.074 A 
ATOM     59  C   UNL A   1      44.613  26.878  31.635  1.00  0.00     0.031 C 
ATOM     60  C   UNL A   1      43.860  28.128  33.639  1.00  0.00     0.037 A 
BRANCH  47  61
ATOM     61  C   UNL A   1      39.445  31.910  35.717  1.00  0.00     0.064 A 
ATOM     62  C   UNL A   1      38.515  31.410  36.640  1.00  0.00     0.173 A 
ATOM     63  C   UNL A   1      39.908  33.222  35.896  1.00  0.00     0.173 A 
ATOM     64  F   UNL A   1      38.033  30.165  36.506  1.00  0.00    -0.203 F 
ATOM     65  C   UNL A   1      38.050  32.201  37.688  1.00  0.00     0.198 A 
ATOM     66  C   UNL A   1      39.459  34.002  36.958  1.00  0.00     0.198 A 
ATOM     67  F   UNL A   1      40.801  33.746  35.042  1.00  0.00    -0.203 F 
ATOM     68  F   UNL A   1      37.131  31.716  38.534  1.00  0.00    -0.200 F 
ATOM     69  C   UNL A   1      38.526  33.493  37.849  1.00  0.00     0.200 A 
ATOM     70  F   UNL A   1      39.927  35.248  37.119  1.00  0.00    -0.200 F 
ATOM     71  F   UNL A   1      38.081  34.251  38.860  1.00  0.00    -0.200 F 
ENDBRANCH  47  61
BRANCH  48  72
ATOM     72  C   UNL A   1      42.716  26.688  27.875  1.00  0.00     0.064 A 
ATOM     73  C   UNL A   1      42.452  25.318  27.746  1.00  0.00     0.173 A 
ATOM     74  C   UNL A   1      43.456  27.311  26.861  1.00  0.00     0.173 A 
ATOM     75  F   UNL A   1      41.763  24.677  28.702  1.00  0.00    -0.203 F 
ATOM     76  C   UNL A   1      42.923  24.595  26.653  1.00  0.00     0.198 A 
ATOM     77  C   UNL A   1      43.909  26.591  25.757  1.00  0.00     0.198 A 
ATOM     78  F   UNL A   1      43.729  28.622  26.937  1.00  0.00    -0.203 F 
ATOM     79  F   UNL A   1      42.686  23.278  26.570  1.00  0.00    -0.200 F 
ATOM     80  C   UNL A   1      43.646  25.233  25.656  1.00  0.00     0.200 A 
ATOM     81  F   UNL A   1      44.597  27.213  24.790  1.00  0.00    -0.200 F 
ATOM     82  F   UNL A   1      44.095  24.538  24.602  1.00  0.00    -0.200 F 
ENDBRANCH  48  72
BRANCH  60  83
ATOM     83  C   UNL A   1      45.057  27.595  34.366  1.00  0.00     0.064 A 
ATOM     84  C   UNL A   1      46.268  28.301  34.397  1.00  0.00     0.173 A 
ATOM     85  C   UNL A   1      44.981  26.383  35.068  1.00  0.00     0.173 A 
ATOM     86  F   UNL A   1      46.393  29.457  33.727  1.00  0.00    -0.203 F 
ATOM     87  C   UNL A   1      47.368  27.802  35.089  1.00  0.00     0.198 A 
ATOM     88  C   UNL A   1      46.076  25.899  35.777  1.00  0.00     0.198 A 
ATOM     89  F   UNL A   1      43.843  25.674  35.071  1.00  0.00    -0.203 F 
ATOM     90  F   UNL A   1      48.528  28.472  35.072  1.00  0.00    -0.200 F 
ATOM     91  C   UNL A   1      47.270  26.605  35.783  1.00  0.00     0.200 A 
ATOM     92  F   UNL A   1      45.978  24.745  36.454  1.00  0.00    -0.200 F 
ATOM     93  F   UNL A   1      48.329  26.127  36.450  1.00  0.00    -0.200 F 
ENDBRANCH  60  83
ENDBRANCH  34  35
ENDBRANCH  26  29
ENDBRANCH  24  25
ENDBRANCH  23  24
ENDBRANCH  22  23
ENDBRANCH  21  22
ENDBRANCH   1  21
TORSDOF 18
ENDMDL
