MODEL 1
REMARK VINA RESULT:     -11.4      0.000      0.000
REMARK SMILES C/C=C/C[C@H](Cc1cccc(F)c1)C(=O)NCCCCCCNC(=O)c1ccc(-c2c3nc(c(-c4c(F)c(F)c(F)c(F)c4F)c4ccc([nH]4)c(-c4c(F)c(F)c(F)c(F)c4F)c4nc(c(-c5c(F)c(F)c(F)c(F)c5F)c5ccc2[nH]5)C=C4)C=C3)cc1
REMARK SMILES IDX 19 1 18 2 17 3 16 4 14 5 15 6 5 8 4 9 3 10 1 11 2 12 6 13
REMARK SMILES IDX 7 14 8 15 13 16 9 17 11 18 10 19 12 20 20 21 21 22 22 23
REMARK SMILES IDX 23 24 24 25 25 27 26 28 27 29 88 30 28 31 87 32 29 33 30 34
REMARK SMILES IDX 31 35 81 36 32 37 86 38 80 39 82 40 33 41 85 42 79 43 78 44
REMARK SMILES IDX 34 46 66 47 46 48 65 49 47 50 50 51 64 52 83 53 48 54 49 55
REMARK SMILES IDX 63 57 84 58 51 59 35 60 36 61 44 62 37 63 38 64 42 65 45 66
REMARK SMILES IDX 39 67 40 68 43 69 41 70 67 71 68 72 76 73 69 74 70 75 74 76
REMARK SMILES IDX 77 77 71 78 72 79 75 80 73 81 52 82 53 83 61 84 54 85 55 86
REMARK SMILES IDX 59 87 62 88 56 89 57 90 60 91 58 92
REMARK H PARENT 16 7 23 26 82 45 50 56
REMARK Flexibility Score: inf
ROOT
ATOM      1  C   UNL A   1      32.286  29.788  26.867  1.00  0.00     0.002 C 
ENDROOT
BRANCH   1   2
ATOM      2  C   UNL A   1      31.749  28.354  26.833  1.00  0.00     0.021 C 
BRANCH   2   3
ATOM      3  C   UNL A   1      32.714  27.329  26.247  1.00  0.00     0.116 C 
BRANCH   3   4
ATOM      4  N   UNL A   1      33.655  27.925  25.320  1.00  0.00    -0.356 N 
ATOM      5  C   UNL A   1      33.563  28.118  23.975  1.00  0.00     0.223 C 
ATOM      6  O   UNL A   1      34.487  28.721  23.422  1.00  0.00    -0.275 OA
ATOM      7  H   UNL A   1      34.493  28.240  25.728  1.00  0.00     0.163 HD
BRANCH   5   8
ATOM      8  C   UNL A   1      32.362  27.630  23.166  1.00  0.00     0.086 C 
BRANCH   8   9
ATOM      9  C   UNL A   1      32.818  26.621  22.072  1.00  0.00     0.040 C 
BRANCH   9  10
ATOM     10  C   UNL A   1      32.372  25.194  22.249  1.00  0.00    -0.031 C 
ATOM     11  C   UNL A   1      31.146  23.351  23.418  1.00  0.00     0.035 C 
ATOM     12  C   UNL A   1      31.509  24.782  23.191  1.00  0.00    -0.035 C 
ENDBRANCH   9  10
ENDBRANCH   8   9
BRANCH   8  13
ATOM     13  C   UNL A   1      31.473  28.808  22.706  1.00  0.00     0.049 C 
BRANCH  13  14
ATOM     14  C   UNL A   1      29.986  28.754  23.002  1.00  0.00    -0.044 A 
ATOM     15  C   UNL A   1      29.182  29.837  22.598  1.00  0.00     0.004 A 
ATOM     16  C   UNL A   1      29.351  27.619  23.520  1.00  0.00     0.043 A 
ATOM     17  C   UNL A   1      27.790  29.790  22.714  1.00  0.00     0.003 A 
ATOM     18  C   UNL A   1      27.963  27.580  23.633  1.00  0.00     0.123 A 
ATOM     19  C   UNL A   1      27.178  28.653  23.232  1.00  0.00     0.039 A 
ATOM     20  F   UNL A   1      27.373  26.477  24.111  1.00  0.00    -0.207 F 
ENDBRANCH  13  14
ENDBRANCH   8  13
ENDBRANCH   5   8
ENDBRANCH   3   4
ENDBRANCH   2   3
ENDBRANCH   1   2
BRANCH   1  21
ATOM     21  C   UNL A   1      31.563  30.785  25.955  1.00  0.00     0.002 C 
BRANCH  21  22
ATOM     22  C   UNL A   1      31.349  32.183  26.542  1.00  0.00     0.021 C 
BRANCH  22  23
ATOM     23  C   UNL A   1      32.550  32.765  27.280  1.00  0.00     0.116 C 
BRANCH  23  24
ATOM     24  N   UNL A   1      32.362  34.163  27.631  1.00  0.00    -0.352 N 
ATOM     25  C   UNL A   1      33.003  34.916  28.580  1.00  0.00     0.251 C 
ATOM     26  H   UNL A   1      31.674  34.639  27.111  1.00  0.00     0.163 HD
ATOM     27  O   UNL A   1      32.595  36.046  28.851  1.00  0.00    -0.269 OA
BRANCH  25  28
ATOM     28  C   UNL A   1      34.171  34.370  29.301  1.00  0.00     0.039 A 
ATOM     29  C   UNL A   1      33.966  33.716  30.518  1.00  0.00     0.014 A 
ATOM     30  C   UNL A   1      35.465  34.515  28.792  1.00  0.00     0.014 A 
ATOM     31  C   UNL A   1      35.050  33.157  31.197  1.00  0.00     0.010 A 
ATOM     32  C   UNL A   1      36.537  33.899  29.435  1.00  0.00     0.010 A 
ATOM     33  C   UNL A   1      36.340  33.216  30.645  1.00  0.00    -0.014 A 
BRANCH  33  34
ATOM     34  C   UNL A   1      37.492  32.567  31.318  1.00  0.00     0.031 A 
ATOM     35  C   UNL A   1      38.232  31.448  30.642  1.00  0.00     0.074 A 
ATOM     36  C   UNL A   1      37.838  32.950  32.562  1.00  0.00     0.049 A 
ATOM     37  N   UNL A   1      39.217  30.714  31.096  1.00  0.00    -0.248 NA
ATOM     38  C   UNL A   1      37.792  31.086  29.285  1.00  0.00     0.031 C 
ATOM     39  C   UNL A   1      37.175  33.999  33.336  1.00  0.00     0.029 A 
ATOM     40  N   UNL A   1      38.831  32.499  33.397  1.00  0.00    -0.354 N 
ATOM     41  C   UNL A   1      39.507  29.804  30.089  1.00  0.00     0.074 A 
ATOM     42  C   UNL A   1      38.563  30.041  29.019  1.00  0.00     0.031 C 
ATOM     43  C   UNL A   1      37.794  34.131  34.520  1.00  0.00     0.029 A 
ATOM     44  C   UNL A   1      38.872  33.151  34.606  1.00  0.00     0.049 A 
ATOM     45  H   UNL A   1      39.454  31.776  33.152  1.00  0.00     0.167 HD
ATOM     46  C   UNL A   1      40.488  28.874  30.051  1.00  0.00     0.037 A 
ATOM     47  C   UNL A   1      39.685  32.975  35.665  1.00  0.00     0.037 A 
ATOM     48  C   UNL A   1      41.445  28.661  31.104  1.00  0.00     0.049 A 
ATOM     49  C   UNL A   1      40.760  31.925  35.603  1.00  0.00     0.074 A 
ATOM     50  C   UNL A   1      42.510  27.779  31.134  1.00  0.00     0.029 A 
ATOM     51  N   UNL A   1      41.456  29.343  32.313  1.00  0.00    -0.354 N 
ATOM     52  N   UNL A   1      41.055  31.103  34.626  1.00  0.00    -0.248 NA
ATOM     53  C   UNL A   1      41.619  31.781  36.787  1.00  0.00     0.031 C 
ATOM     54  C   UNL A   1      43.139  27.893  32.378  1.00  0.00     0.029 A 
ATOM     55  C   UNL A   1      42.497  28.885  33.104  1.00  0.00     0.049 A 
ATOM     56  H   UNL A   1      40.818  30.048  32.570  1.00  0.00     0.167 HD
ATOM     57  C   UNL A   1      42.142  30.361  35.064  1.00  0.00     0.074 A 
ATOM     58  C   UNL A   1      42.465  30.838  36.392  1.00  0.00     0.031 C 
ATOM     59  C   UNL A   1      42.811  29.373  34.422  1.00  0.00     0.037 A 
BRANCH  46  60
ATOM     60  C   UNL A   1      40.595  28.016  28.824  1.00  0.00     0.064 A 
ATOM     61  C   UNL A   1      41.354  28.439  27.722  1.00  0.00     0.173 A 
ATOM     62  C   UNL A   1      39.886  26.812  28.709  1.00  0.00     0.173 A 
ATOM     63  F   UNL A   1      42.047  29.587  27.778  1.00  0.00    -0.203 F 
ATOM     64  C   UNL A   1      41.390  27.692  26.547  1.00  0.00     0.198 A 
ATOM     65  C   UNL A   1      39.946  26.053  27.543  1.00  0.00     0.198 A 
ATOM     66  F   UNL A   1      39.154  26.359  29.737  1.00  0.00    -0.203 F 
ATOM     67  F   UNL A   1      42.096  28.132  25.497  1.00  0.00    -0.200 F 
ATOM     68  C   UNL A   1      40.689  26.499  26.460  1.00  0.00     0.200 A 
ATOM     69  F   UNL A   1      39.288  24.888  27.468  1.00  0.00    -0.200 F 
ATOM     70  F   UNL A   1      40.731  25.777  25.332  1.00  0.00    -0.200 F 
ENDBRANCH  46  60
BRANCH  47  71
ATOM     71  C   UNL A   1      39.527  33.842  36.861  1.00  0.00     0.064 A 
ATOM     72  C   UNL A   1      38.760  33.437  37.964  1.00  0.00     0.173 A 
ATOM     73  C   UNL A   1      40.119  35.112  36.909  1.00  0.00     0.173 A 
ATOM     74  F   UNL A   1      38.168  32.233  37.965  1.00  0.00    -0.203 F 
ATOM     75  C   UNL A   1      38.574  34.279  39.058  1.00  0.00     0.198 A 
ATOM     76  C   UNL A   1      39.953  35.942  38.015  1.00  0.00     0.198 A 
ATOM     77  F   UNL A   1      40.878  35.534  35.887  1.00  0.00    -0.203 F 
ATOM     78  F   UNL A   1      37.806  33.883  40.082  1.00  0.00    -0.200 F 
ATOM     79  C   UNL A   1      39.174  35.528  39.085  1.00  0.00     0.200 A 
ATOM     80  F   UNL A   1      40.555  37.139  38.047  1.00  0.00    -0.200 F 
ATOM     81  F   UNL A   1      39.003  36.334  40.142  1.00  0.00    -0.200 F 
ENDBRANCH  47  71
BRANCH  59  82
ATOM     82  C   UNL A   1      43.976  28.746  35.128  1.00  0.00     0.064 A 
ATOM     83  C   UNL A   1      43.783  27.647  35.979  1.00  0.00     0.173 A 
ATOM     84  C   UNL A   1      45.267  29.284  35.030  1.00  0.00     0.173 A 
ATOM     85  F   UNL A   1      42.565  27.102  36.115  1.00  0.00    -0.203 F 
ATOM     86  C   UNL A   1      44.837  27.123  36.723  1.00  0.00     0.198 A 
ATOM     87  C   UNL A   1      46.326  28.739  35.752  1.00  0.00     0.198 A 
ATOM     88  F   UNL A   1      45.504  30.326  34.219  1.00  0.00    -0.203 F 
ATOM     89  F   UNL A   1      44.622  26.098  37.558  1.00  0.00    -0.200 F 
ATOM     90  C   UNL A   1      46.107  27.667  36.606  1.00  0.00     0.200 A 
ATOM     91  F   UNL A   1      47.557  29.251  35.622  1.00  0.00    -0.200 F 
ATOM     92  F   UNL A   1      47.123  27.157  37.316  1.00  0.00    -0.200 F 
ENDBRANCH  59  82
ENDBRANCH  33  34
ENDBRANCH  25  28
ENDBRANCH  23  24
ENDBRANCH  22  23
ENDBRANCH  21  22
ENDBRANCH   1  21
TORSDOF 17
ENDMDL
MODEL 2
REMARK VINA RESULT:     -11.3      6.084     11.517
REMARK SMILES C/C=C/C[C@H](Cc1cccc(F)c1)C(=O)NCCCCCCNC(=O)c1ccc(-c2c3nc(c(-c4c(F)c(F)c(F)c(F)c4F)c4ccc([nH]4)c(-c4c(F)c(F)c(F)c(F)c4F)c4nc(c(-c5c(F)c(F)c(F)c(F)c5F)c5ccc2[nH]5)C=C4)C=C3)cc1
REMARK SMILES IDX 19 1 18 2 17 3 16 4 14 5 15 6 5 8 4 9 3 10 1 11 2 12 6 13
REMARK SMILES IDX 7 14 8 15 13 16 9 17 11 18 10 19 12 20 20 21 21 22 22 23
REMARK SMILES IDX 23 24 24 25 25 27 26 28 27 29 88 30 28 31 87 32 29 33 30 34
REMARK SMILES IDX 31 35 81 36 32 37 86 38 80 39 82 40 33 41 85 42 79 43 78 44
REMARK SMILES IDX 34 46 66 47 46 48 65 49 47 50 50 51 64 52 83 53 48 54 49 55
REMARK SMILES IDX 63 57 84 58 51 59 35 60 36 61 44 62 37 63 38 64 42 65 45 66
REMARK SMILES IDX 39 67 40 68 43 69 41 70 67 71 68 72 76 73 69 74 70 75 74 76
REMARK SMILES IDX 77 77 71 78 72 79 75 80 73 81 52 82 53 83 61 84 54 85 55 86
REMARK SMILES IDX 59 87 62 88 56 89 57 90 60 91 58 92
REMARK H PARENT 16 7 23 26 82 45 50 56
REMARK Flexibility Score: inf
ROOT
ATOM      1  C   UNL A   1      37.071  21.986  24.754  1.00  0.00     0.002 C 
ENDROOT
BRANCH   1   2
ATOM      2  C   UNL A   1      36.119  22.729  23.814  1.00  0.00     0.021 C 
BRANCH   2   3
ATOM      3  C   UNL A   1      35.236  23.768  24.497  1.00  0.00     0.116 C 
BRANCH   3   4
ATOM      4  N   UNL A   1      35.087  23.517  25.916  1.00  0.00    -0.356 N 
ATOM      5  C   UNL A   1      34.220  22.702  26.580  1.00  0.00     0.223 C 
ATOM      6  O   UNL A   1      34.347  22.612  27.804  1.00  0.00    -0.275 OA
ATOM      7  H   UNL A   1      35.712  24.014  26.491  1.00  0.00     0.163 HD
BRANCH   5   8
ATOM      8  C   UNL A   1      33.137  21.907  25.852  1.00  0.00     0.086 C 
BRANCH   8   9
ATOM      9  C   UNL A   1      31.727  22.466  26.199  1.00  0.00     0.040 C 
BRANCH   9  10
ATOM     10  C   UNL A   1      31.206  23.566  25.311  1.00  0.00    -0.031 C 
ATOM     11  C   UNL A   1      30.687  24.611  23.098  1.00  0.00     0.035 C 
ATOM     12  C   UNL A   1      31.116  23.481  23.975  1.00  0.00    -0.035 C 
ENDBRANCH   9  10
ENDBRANCH   8   9
BRANCH   8  13
ATOM     13  C   UNL A   1      33.346  20.384  26.016  1.00  0.00     0.049 C 
BRANCH  13  14
ATOM     14  C   UNL A   1      33.071  19.481  24.828  1.00  0.00    -0.044 A 
ATOM     15  C   UNL A   1      32.332  20.000  23.748  1.00  0.00     0.004 A 
ATOM     16  C   UNL A   1      33.643  18.210  24.687  1.00  0.00     0.043 A 
ATOM     17  C   UNL A   1      32.164  19.271  22.567  1.00  0.00     0.003 A 
ATOM     18  C   UNL A   1      33.469  17.490  23.507  1.00  0.00     0.123 A 
ATOM     19  C   UNL A   1      32.739  18.009  22.446  1.00  0.00     0.039 A 
ATOM     20  F   UNL A   1      34.041  16.286  23.382  1.00  0.00    -0.207 F 
ENDBRANCH  13  14
ENDBRANCH   8  13
ENDBRANCH   5   8
ENDBRANCH   3   4
ENDBRANCH   2   3
ENDBRANCH   1   2
BRANCH   1  21
ATOM     21  C   UNL A   1      36.765  20.498  24.962  1.00  0.00     0.002 C 
BRANCH  21  22
ATOM     22  C   UNL A   1      37.979  19.565  24.953  1.00  0.00     0.021 C 
BRANCH  22  23
ATOM     23  C   UNL A   1      39.207  20.092  25.688  1.00  0.00     0.116 C 
BRANCH  23  24
ATOM     24  N   UNL A   1      40.229  19.074  25.862  1.00  0.00    -0.352 N 
ATOM     25  C   UNL A   1      41.570  19.219  26.105  1.00  0.00     0.251 C 
ATOM     26  H   UNL A   1      39.912  18.144  25.798  1.00  0.00     0.163 HD
ATOM     27  O   UNL A   1      42.316  18.240  26.059  1.00  0.00    -0.269 OA
BRANCH  25  28
ATOM     28  C   UNL A   1      42.134  20.553  26.397  1.00  0.00     0.039 A 
ATOM     29  C   UNL A   1      42.508  21.375  25.331  1.00  0.00     0.014 A 
ATOM     30  C   UNL A   1      42.312  20.988  27.714  1.00  0.00     0.014 A 
ATOM     31  C   UNL A   1      43.005  22.655  25.583  1.00  0.00     0.010 A 
ATOM     32  C   UNL A   1      42.745  22.289  27.963  1.00  0.00     0.010 A 
ATOM     33  C   UNL A   1      43.098  23.134  26.900  1.00  0.00    -0.014 A 
BRANCH  33  34
ATOM     34  C   UNL A   1      43.559  24.516  27.182  1.00  0.00     0.031 A 
ATOM     35  C   UNL A   1      42.601  25.538  27.725  1.00  0.00     0.074 A 
ATOM     36  C   UNL A   1      44.828  24.865  26.897  1.00  0.00     0.049 A 
ATOM     37  N   UNL A   1      42.798  26.809  27.971  1.00  0.00    -0.248 NA
ATOM     38  C   UNL A   1      41.232  25.079  28.009  1.00  0.00     0.031 C 
ATOM     39  C   UNL A   1      45.842  23.974  26.333  1.00  0.00     0.029 A 
ATOM     40  N   UNL A   1      45.482  26.065  27.038  1.00  0.00    -0.354 N 
ATOM     41  C   UNL A   1      41.582  27.299  28.427  1.00  0.00     0.074 A 
ATOM     42  C   UNL A   1      40.638  26.205  28.377  1.00  0.00     0.031 C 
ATOM     43  C   UNL A   1      46.995  24.646  26.202  1.00  0.00     0.029 A 
ATOM     44  C   UNL A   1      46.795  26.027  26.634  1.00  0.00     0.049 A 
ATOM     45  H   UNL A   1      45.051  26.875  27.395  1.00  0.00     0.167 HD
ATOM     46  C   UNL A   1      41.289  28.543  28.871  1.00  0.00     0.037 A 
ATOM     47  C   UNL A   1      47.730  26.996  26.611  1.00  0.00     0.037 A 
ATOM     48  C   UNL A   1      42.238  29.622  28.948  1.00  0.00     0.049 A 
ATOM     49  C   UNL A   1      47.374  28.374  27.098  1.00  0.00     0.074 A 
ATOM     50  C   UNL A   1      42.048  30.903  29.435  1.00  0.00     0.029 A 
ATOM     51  N   UNL A   1      43.559  29.543  28.531  1.00  0.00    -0.354 N 
ATOM     52  N   UNL A   1      46.234  28.813  27.571  1.00  0.00    -0.248 NA
ATOM     53  C   UNL A   1      48.436  29.389  27.053  1.00  0.00     0.031 C 
ATOM     54  C   UNL A   1      43.240  31.615  29.271  1.00  0.00     0.029 A 
ATOM     55  C   UNL A   1      44.190  30.761  28.731  1.00  0.00     0.049 A 
ATOM     56  H   UNL A   1      43.986  28.742  28.150  1.00  0.00     0.167 HD
ATOM     57  C   UNL A   1      46.444  30.145  27.900  1.00  0.00     0.074 A 
ATOM     58  C   UNL A   1      47.825  30.441  27.584  1.00  0.00     0.031 C 
ATOM     59  C   UNL A   1      45.568  31.040  28.417  1.00  0.00     0.037 A 
BRANCH  46  60
ATOM     60  C   UNL A   1      39.884  28.813  29.326  1.00  0.00     0.064 A 
ATOM     61  C   UNL A   1      39.494  28.527  30.643  1.00  0.00     0.173 A 
ATOM     62  C   UNL A   1      38.905  29.283  28.439  1.00  0.00     0.173 A 
ATOM     63  F   UNL A   1      40.390  28.068  31.530  1.00  0.00    -0.203 F 
ATOM     64  C   UNL A   1      38.173  28.692  31.051  1.00  0.00     0.198 A 
ATOM     65  C   UNL A   1      37.591  29.475  28.857  1.00  0.00     0.198 A 
ATOM     66  F   UNL A   1      39.229  29.581  27.172  1.00  0.00    -0.203 F 
ATOM     67  F   UNL A   1      37.816  28.382  32.304  1.00  0.00    -0.200 F 
ATOM     68  C   UNL A   1      37.224  29.169  30.159  1.00  0.00     0.200 A 
ATOM     69  F   UNL A   1      36.680  29.958  28.002  1.00  0.00    -0.200 F 
ATOM     70  F   UNL A   1      35.955  29.335  30.555  1.00  0.00    -0.200 F 
ENDBRANCH  46  60
BRANCH  47  71
ATOM     71  C   UNL A   1      49.101  26.679  26.137  1.00  0.00     0.064 A 
ATOM     72  C   UNL A   1      50.068  26.140  26.999  1.00  0.00     0.173 A 
ATOM     73  C   UNL A   1      49.481  26.941  24.813  1.00  0.00     0.173 A 
ATOM     74  F   UNL A   1      49.757  25.877  28.277  1.00  0.00    -0.203 F 
ATOM     75  C   UNL A   1      51.367  25.896  26.560  1.00  0.00     0.198 A 
ATOM     76  C   UNL A   1      50.773  26.672  24.369  1.00  0.00     0.198 A 
ATOM     77  F   UNL A   1      48.585  27.437  23.947  1.00  0.00    -0.203 F 
ATOM     78  F   UNL A   1      52.282  25.416  27.413  1.00  0.00    -0.200 F 
ATOM     79  C   UNL A   1      51.718  26.159  25.244  1.00  0.00     0.200 A 
ATOM     80  F   UNL A   1      51.101  26.905  23.090  1.00  0.00    -0.200 F 
ATOM     81  F   UNL A   1      52.965  25.915  24.819  1.00  0.00    -0.200 F 
ENDBRANCH  47  71
BRANCH  59  82
ATOM     82  C   UNL A   1      46.070  32.425  28.699  1.00  0.00     0.064 A 
ATOM     83  C   UNL A   1      46.014  33.416  27.707  1.00  0.00     0.173 A 
ATOM     84  C   UNL A   1      46.684  32.747  29.917  1.00  0.00     0.173 A 
ATOM     85  F   UNL A   1      45.445  33.155  26.520  1.00  0.00    -0.203 F 
ATOM     86  C   UNL A   1      46.572  34.674  27.918  1.00  0.00     0.198 A 
ATOM     87  C   UNL A   1      47.216  34.015  30.137  1.00  0.00     0.198 A 
ATOM     88  F   UNL A   1      46.750  31.837  30.901  1.00  0.00    -0.203 F 
ATOM     89  F   UNL A   1      46.541  35.593  26.944  1.00  0.00    -0.200 F 
ATOM     90  C   UNL A   1      47.170  34.973  29.134  1.00  0.00     0.200 A 
ATOM     91  F   UNL A   1      47.773  34.310  31.319  1.00  0.00    -0.200 F 
ATOM     92  F   UNL A   1      47.701  36.186  29.339  1.00  0.00    -0.200 F 
ENDBRANCH  59  82
ENDBRANCH  33  34
ENDBRANCH  25  28
ENDBRANCH  23  24
ENDBRANCH  22  23
ENDBRANCH  21  22
ENDBRANCH   1  21
TORSDOF 17
ENDMDL
MODEL 3
REMARK VINA RESULT:     -11.2      0.665      2.113
REMARK SMILES C/C=C/C[C@H](Cc1cccc(F)c1)C(=O)NCCCCCCNC(=O)c1ccc(-c2c3nc(c(-c4c(F)c(F)c(F)c(F)c4F)c4ccc([nH]4)c(-c4c(F)c(F)c(F)c(F)c4F)c4nc(c(-c5c(F)c(F)c(F)c(F)c5F)c5ccc2[nH]5)C=C4)C=C3)cc1
REMARK SMILES IDX 19 1 18 2 17 3 16 4 14 5 15 6 5 8 4 9 3 10 1 11 2 12 6 13
REMARK SMILES IDX 7 14 8 15 13 16 9 17 11 18 10 19 12 20 20 21 21 22 22 23
REMARK SMILES IDX 23 24 24 25 25 27 26 28 27 29 88 30 28 31 87 32 29 33 30 34
REMARK SMILES IDX 31 35 81 36 32 37 86 38 80 39 82 40 33 41 85 42 79 43 78 44
REMARK SMILES IDX 34 46 66 47 46 48 65 49 47 50 50 51 64 52 83 53 48 54 49 55
REMARK SMILES IDX 63 57 84 58 51 59 35 60 36 61 44 62 37 63 38 64 42 65 45 66
REMARK SMILES IDX 39 67 40 68 43 69 41 70 67 71 68 72 76 73 69 74 70 75 74 76
REMARK SMILES IDX 77 77 71 78 72 79 75 80 73 81 52 82 53 83 61 84 54 85 55 86
REMARK SMILES IDX 59 87 62 88 56 89 57 90 60 91 58 92
REMARK H PARENT 16 7 23 26 82 45 50 56
REMARK Flexibility Score: inf
ROOT
ATOM      1  C   UNL A   1      32.552  29.997  26.541  1.00  0.00     0.002 C 
ENDROOT
BRANCH   1   2
ATOM      2  C   UNL A   1      32.118  28.606  27.010  1.00  0.00     0.021 C 
BRANCH   2   3
ATOM      3  C   UNL A   1      33.042  27.473  26.576  1.00  0.00     0.116 C 
BRANCH   3   4
ATOM      4  N   UNL A   1      33.651  27.724  25.285  1.00  0.00    -0.356 N 
ATOM      5  C   UNL A   1      33.119  27.656  24.032  1.00  0.00     0.223 C 
ATOM      6  O   UNL A   1      33.841  27.990  23.089  1.00  0.00    -0.275 OA
ATOM      7  H   UNL A   1      34.599  27.984  25.320  1.00  0.00     0.163 HD
BRANCH   5   8
ATOM      8  C   UNL A   1      31.681  27.203  23.785  1.00  0.00     0.086 C 
BRANCH   8   9
ATOM      9  C   UNL A   1      31.605  25.650  23.719  1.00  0.00     0.040 C 
BRANCH   9  10
ATOM     10  C   UNL A   1      30.791  24.974  24.791  1.00  0.00    -0.031 C 
ATOM     11  C   UNL A   1      30.456  23.370  26.683  1.00  0.00     0.035 C 
ATOM     12  C   UNL A   1      31.289  24.107  25.686  1.00  0.00    -0.035 C 
ENDBRANCH   9  10
ENDBRANCH   8   9
BRANCH   8  13
ATOM     13  C   UNL A   1      31.033  27.986  22.621  1.00  0.00     0.049 C 
BRANCH  13  14
ATOM     14  C   UNL A   1      29.750  28.752  22.886  1.00  0.00    -0.044 A 
ATOM     15  C   UNL A   1      29.744  30.144  22.677  1.00  0.00     0.004 A 
ATOM     16  C   UNL A   1      28.534  28.124  23.183  1.00  0.00     0.043 A 
ATOM     17  C   UNL A   1      28.562  30.886  22.767  1.00  0.00     0.003 A 
ATOM     18  C   UNL A   1      27.361  28.871  23.272  1.00  0.00     0.123 A 
ATOM     19  C   UNL A   1      27.364  30.244  23.064  1.00  0.00     0.039 A 
ATOM     20  F   UNL A   1      26.205  28.250  23.535  1.00  0.00    -0.207 F 
ENDBRANCH  13  14
ENDBRANCH   8  13
ENDBRANCH   5   8
ENDBRANCH   3   4
ENDBRANCH   2   3
ENDBRANCH   1   2
BRANCH   1  21
ATOM     21  C   UNL A   1      31.455  30.845  25.887  1.00  0.00     0.002 C 
BRANCH  21  22
ATOM     22  C   UNL A   1      31.248  32.237  26.488  1.00  0.00     0.021 C 
BRANCH  22  23
ATOM     23  C   UNL A   1      32.453  32.809  27.227  1.00  0.00     0.116 C 
BRANCH  23  24
ATOM     24  N   UNL A   1      32.277  34.209  27.578  1.00  0.00    -0.352 N 
ATOM     25  C   UNL A   1      32.939  34.963  28.511  1.00  0.00     0.251 C 
ATOM     26  H   UNL A   1      31.581  34.686  27.070  1.00  0.00     0.163 HD
ATOM     27  O   UNL A   1      32.540  36.096  28.786  1.00  0.00    -0.269 OA
BRANCH  25  28
ATOM     28  C   UNL A   1      34.119  34.415  29.211  1.00  0.00     0.039 A 
ATOM     29  C   UNL A   1      33.936  33.769  30.435  1.00  0.00     0.014 A 
ATOM     30  C   UNL A   1      35.403  34.550  28.674  1.00  0.00     0.014 A 
ATOM     31  C   UNL A   1      35.031  33.208  31.095  1.00  0.00     0.010 A 
ATOM     32  C   UNL A   1      36.484  33.933  29.299  1.00  0.00     0.010 A 
ATOM     33  C   UNL A   1      36.310  33.257  30.516  1.00  0.00    -0.014 A 
BRANCH  33  34
ATOM     34  C   UNL A   1      37.472  32.606  31.169  1.00  0.00     0.031 A 
ATOM     35  C   UNL A   1      38.194  31.481  30.483  1.00  0.00     0.074 A 
ATOM     36  C   UNL A   1      37.844  32.993  32.404  1.00  0.00     0.049 A 
ATOM     37  N   UNL A   1      39.185  30.745  30.920  1.00  0.00    -0.248 NA
ATOM     38  C   UNL A   1      37.727  31.117  29.136  1.00  0.00     0.031 C 
ATOM     39  C   UNL A   1      37.200  34.047  33.188  1.00  0.00     0.029 A 
ATOM     40  N   UNL A   1      38.851  32.541  33.222  1.00  0.00    -0.354 N 
ATOM     41  C   UNL A   1      39.451  29.831  29.911  1.00  0.00     0.074 A 
ATOM     42  C   UNL A   1      38.487  30.068  28.859  1.00  0.00     0.031 C 
ATOM     43  C   UNL A   1      37.842  34.181  34.358  1.00  0.00     0.029 A 
ATOM     44  C   UNL A   1      38.918  33.196  34.427  1.00  0.00     0.049 A 
ATOM     45  H   UNL A   1      39.466  31.815  32.968  1.00  0.00     0.167 HD
ATOM     46  C   UNL A   1      40.428  28.896  29.857  1.00  0.00     0.037 A 
ATOM     47  C   UNL A   1      39.751  33.021  35.471  1.00  0.00     0.037 A 
ATOM     48  C   UNL A   1      41.405  28.684  30.893  1.00  0.00     0.049 A 
ATOM     49  C   UNL A   1      40.821  31.967  35.391  1.00  0.00     0.074 A 
ATOM     50  C   UNL A   1      42.467  27.797  30.905  1.00  0.00     0.029 A 
ATOM     51  N   UNL A   1      41.441  29.370  32.098  1.00  0.00    -0.354 N 
ATOM     52  N   UNL A   1      41.093  31.140  34.412  1.00  0.00    -0.248 NA
ATOM     53  C   UNL A   1      41.702  31.824  36.559  1.00  0.00     0.031 C 
ATOM     54  C   UNL A   1      43.120  27.913  32.136  1.00  0.00     0.029 A 
ATOM     55  C   UNL A   1      42.496  28.910  32.870  1.00  0.00     0.049 A 
ATOM     56  H   UNL A   1      40.812  30.078  32.365  1.00  0.00     0.167 HD
ATOM     57  C   UNL A   1      42.186  30.396  34.832  1.00  0.00     0.074 A 
ATOM     58  C   UNL A   1      42.536  30.876  36.152  1.00  0.00     0.031 C 
ATOM     59  C   UNL A   1      42.838  29.402  34.181  1.00  0.00     0.037 A 
BRANCH  46  60
ATOM     60  C   UNL A   1      40.508  28.034  28.632  1.00  0.00     0.064 A 
ATOM     61  C   UNL A   1      39.872  26.784  28.597  1.00  0.00     0.173 A 
ATOM     62  C   UNL A   1      41.275  28.411  27.519  1.00  0.00     0.173 A 
ATOM     63  F   UNL A   1      39.130  26.372  29.637  1.00  0.00    -0.203 F 
ATOM     64  C   UNL A   1      40.010  25.939  27.499  1.00  0.00     0.198 A 
ATOM     65  C   UNL A   1      41.389  27.577  26.411  1.00  0.00     0.198 A 
ATOM     66  F   UNL A   1      41.894  29.600  27.499  1.00  0.00    -0.203 F 
ATOM     67  F   UNL A   1      39.420  24.736  27.501  1.00  0.00    -0.200 F 
ATOM     68  C   UNL A   1      40.766  26.338  26.406  1.00  0.00     0.200 A 
ATOM     69  F   UNL A   1      42.099  27.972  25.346  1.00  0.00    -0.200 F 
ATOM     70  F   UNL A   1      40.891  25.527  25.346  1.00  0.00    -0.200 F 
ENDBRANCH  46  60
BRANCH  47  71
ATOM     71  C   UNL A   1      39.620  33.893  36.666  1.00  0.00     0.064 A 
ATOM     72  C   UNL A   1      40.272  35.133  36.744  1.00  0.00     0.173 A 
ATOM     73  C   UNL A   1      38.862  33.484  37.772  1.00  0.00     0.173 A 
ATOM     74  F   UNL A   1      41.014  35.568  35.715  1.00  0.00    -0.203 F 
ATOM     75  C   UNL A   1      40.186  35.920  37.891  1.00  0.00     0.198 A 
ATOM     76  C   UNL A   1      38.756  34.283  38.908  1.00  0.00     0.198 A 
ATOM     77  F   UNL A   1      38.205  32.315  37.736  1.00  0.00    -0.203 F 
ATOM     78  F   UNL A   1      40.847  37.083  37.953  1.00  0.00    -0.200 F 
ATOM     79  C   UNL A   1      39.425  35.496  38.970  1.00  0.00     0.200 A 
ATOM     80  F   UNL A   1      38.001  33.881  39.939  1.00  0.00    -0.200 F 
ATOM     81  F   UNL A   1      39.335  36.257  40.069  1.00  0.00    -0.200 F 
ENDBRANCH  47  71
BRANCH  59  82
ATOM     82  C   UNL A   1      44.015  28.773  34.866  1.00  0.00     0.064 A 
ATOM     83  C   UNL A   1      45.309  29.270  34.651  1.00  0.00     0.173 A 
ATOM     84  C   UNL A   1      43.872  27.630  35.664  1.00  0.00     0.173 A 
ATOM     85  F   UNL A   1      45.500  30.356  33.887  1.00  0.00    -0.203 F 
ATOM     86  C   UNL A   1      46.421  28.631  35.195  1.00  0.00     0.198 A 
ATOM     87  C   UNL A   1      44.982  27.010  36.231  1.00  0.00     0.198 A 
ATOM     88  F   UNL A   1      42.653  27.126  35.910  1.00  0.00    -0.203 F 
ATOM     89  F   UNL A   1      47.651  29.100  34.945  1.00  0.00    -0.200 F 
ATOM     90  C   UNL A   1      46.256  27.504  35.986  1.00  0.00     0.200 A 
ATOM     91  F   UNL A   1      44.821  25.935  37.013  1.00  0.00    -0.200 F 
ATOM     92  F   UNL A   1      47.325  26.894  36.515  1.00  0.00    -0.200 F 
ENDBRANCH  59  82
ENDBRANCH  33  34
ENDBRANCH  25  28
ENDBRANCH  23  24
ENDBRANCH  22  23
ENDBRANCH  21  22
ENDBRANCH   1  21
TORSDOF 17
ENDMDL
