MODEL 1
REMARK VINA RESULT:     -11.7      0.000      0.000
REMARK SMILES Cc1noc(C)c1[C@@H](C)NC(=O)N[C@H](CO)C(=O)NCCCCCCNC(=O)c1ccc(-c2c3nc(c(-c4c(F)c(F)c(F)c(F)c4F)c4ccc([nH]4)c(-c4c(F)c(F)c(F)c(F)c4F)c4nc(c(-c5c(F)c(F)c(F)c(F)c5F)c5ccc2[nH]5)C=C4)C=C3)cc1
REMARK SMILES IDX 22 1 21 2 20 3 19 4 17 5 18 6 14 8 13 9 10 10 11 11 12 13
REMARK SMILES IDX 8 15 9 16 7 17 1 18 2 19 3 20 4 21 5 22 6 23 15 24 16 25
REMARK SMILES IDX 23 27 24 28 25 29 26 30 27 31 28 33 29 34 30 35 91 36 31 37
REMARK SMILES IDX 90 38 32 39 33 40 34 41 84 42 35 43 89 44 83 45 85 46 36 47
REMARK SMILES IDX 88 48 82 49 81 50 37 52 69 53 49 54 68 55 50 56 53 57 67 58
REMARK SMILES IDX 86 59 51 60 52 61 66 63 87 64 54 65 38 66 39 67 47 68 40 69
REMARK SMILES IDX 41 70 45 71 48 72 42 73 43 74 46 75 44 76 70 77 71 78 79 79
REMARK SMILES IDX 72 80 73 81 77 82 80 83 74 84 75 85 78 86 76 87 55 88 56 89
REMARK SMILES IDX 64 90 57 91 58 92 62 93 65 94 59 95 60 96 63 97 61 98
REMARK H PARENT 19 7 10 12 13 14 16 26 26 32 85 51 53 62
REMARK Flexibility Score: inf
ROOT
ATOM      1  C   UNL A   1      32.516  30.296  26.835  1.00  0.00     0.002 C 
ENDROOT
BRANCH   1   2
ATOM      2  C   UNL A   1      32.353  28.779  26.678  1.00  0.00     0.021 C 
BRANCH   2   3
ATOM      3  C   UNL A   1      33.595  28.006  26.228  1.00  0.00     0.116 C 
BRANCH   3   4
ATOM      4  N   UNL A   1      34.138  28.473  24.962  1.00  0.00    -0.354 N 
ATOM      5  C   UNL A   1      33.822  28.221  23.660  1.00  0.00     0.245 C 
ATOM      6  O   UNL A   1      34.386  28.938  22.822  1.00  0.00    -0.273 OA
ATOM      7  H   UNL A   1      34.889  29.100  25.067  1.00  0.00     0.163 HD
BRANCH   5   8
ATOM      8  C   UNL A   1      32.717  27.241  23.192  1.00  0.00     0.198 C 
BRANCH   8   9
ATOM      9  N   UNL A   1      33.062  26.085  22.369  1.00  0.00    -0.324 N 
ATOM     10  N   UNL A   1      33.584  24.243  23.763  1.00  0.00    -0.331 N 
ATOM     11  C   UNL A   1      33.388  24.814  22.580  1.00  0.00     0.315 C 
ATOM     12  H   UNL A   1      33.508  23.262  23.715  1.00  0.00     0.165 HD
ATOM     13  O   UNL A   1      33.449  24.090  21.583  1.00  0.00    -0.249 OA
ATOM     14  H   UNL A   1      33.052  26.305  21.409  1.00  0.00     0.166 HD
BRANCH  10  15
ATOM     15  C   UNL A   1      33.880  24.699  25.115  1.00  0.00     0.116 C 
ATOM     16  C   UNL A   1      35.324  24.311  25.431  1.00  0.00     0.036 C 
BRANCH  15  17
ATOM     17  C   UNL A   1      32.901  24.117  26.099  1.00  0.00     0.040 A 
ATOM     18  C   UNL A   1      30.712  25.554  25.775  1.00  0.00     0.071 C 
ATOM     19  C   UNL A   1      31.544  24.482  26.367  1.00  0.00     0.086 A 
ATOM     20  N   UNL A   1      31.001  23.712  27.317  1.00  0.00    -0.085 NA
ATOM     21  O   UNL A   1      31.978  22.822  27.686  1.00  0.00    -0.361 OA
ATOM     22  C   UNL A   1      33.102  23.047  26.961  1.00  0.00     0.139 A 
ATOM     23  C   UNL A   1      34.215  22.131  27.275  1.00  0.00     0.091 C 
ENDBRANCH  15  17
ENDBRANCH  10  15
ENDBRANCH   8   9
BRANCH   8  24
ATOM     24  C   UNL A   1      31.426  27.981  22.749  1.00  0.00     0.191 C 
BRANCH  24  25
ATOM     25  O   UNL A   1      31.396  29.356  23.139  1.00  0.00    -0.394 OA
ATOM     26  H   UNL A   1      30.514  29.722  22.968  1.00  0.00     0.210 HD
ENDBRANCH  24  25
ENDBRANCH   8  24
ENDBRANCH   5   8
ENDBRANCH   3   4
ENDBRANCH   2   3
ENDBRANCH   1   2
BRANCH   1  27
ATOM     27  C   UNL A   1      31.370  31.113  26.222  1.00  0.00     0.002 C 
BRANCH  27  28
ATOM     28  C   UNL A   1      31.362  32.617  26.540  1.00  0.00     0.021 C 
BRANCH  28  29
ATOM     29  C   UNL A   1      32.598  33.144  27.267  1.00  0.00     0.116 C 
BRANCH  29  30
ATOM     30  N   UNL A   1      32.419  34.500  27.759  1.00  0.00    -0.352 N 
ATOM     31  C   UNL A   1      33.011  35.145  28.816  1.00  0.00     0.251 C 
ATOM     32  H   UNL A   1      31.770  35.043  27.255  1.00  0.00     0.163 HD
ATOM     33  O   UNL A   1      32.574  36.231  29.198  1.00  0.00    -0.269 OA
BRANCH  31  34
ATOM     34  C   UNL A   1      34.160  34.542  29.524  1.00  0.00     0.039 A 
ATOM     35  C   UNL A   1      33.937  33.922  30.757  1.00  0.00     0.014 A 
ATOM     36  C   UNL A   1      35.458  34.622  29.011  1.00  0.00     0.014 A 
ATOM     37  C   UNL A   1      35.001  33.328  31.440  1.00  0.00     0.010 A 
ATOM     38  C   UNL A   1      36.507  33.967  29.659  1.00  0.00     0.010 A 
ATOM     39  C   UNL A   1      36.290  33.311  30.881  1.00  0.00    -0.014 A 
BRANCH  39  40
ATOM     40  C   UNL A   1      37.394  32.587  31.567  1.00  0.00     0.031 A 
ATOM     41  C   UNL A   1      38.086  31.426  30.911  1.00  0.00     0.074 A 
ATOM     42  C   UNL A   1      37.766  32.974  32.804  1.00  0.00     0.049 A 
ATOM     43  N   UNL A   1      39.097  30.712  31.345  1.00  0.00    -0.248 NA
ATOM     44  C   UNL A   1      37.564  30.992  29.607  1.00  0.00     0.031 C 
ATOM     45  C   UNL A   1      37.137  34.048  33.573  1.00  0.00     0.029 A 
ATOM     46  N   UNL A   1      38.763  32.515  33.629  1.00  0.00    -0.354 N 
ATOM     47  C   UNL A   1      39.329  29.750  30.369  1.00  0.00     0.074 A 
ATOM     48  C   UNL A   1      38.316  29.931  29.352  1.00  0.00     0.031 C 
ATOM     49  C   UNL A   1      37.785  34.193  34.739  1.00  0.00     0.029 A 
ATOM     50  C   UNL A   1      38.852  33.199  34.817  1.00  0.00     0.049 A 
ATOM     51  H   UNL A   1      39.357  31.766  33.392  1.00  0.00     0.167 HD
ATOM     52  C   UNL A   1      40.313  28.818  30.316  1.00  0.00     0.037 A 
ATOM     53  C   UNL A   1      39.699  33.048  35.853  1.00  0.00     0.037 A 
ATOM     54  C   UNL A   1      41.322  28.644  31.330  1.00  0.00     0.049 A 
ATOM     55  C   UNL A   1      40.776  32.000  35.774  1.00  0.00     0.074 A 
ATOM     56  C   UNL A   1      42.394  27.766  31.339  1.00  0.00     0.029 A 
ATOM     57  N   UNL A   1      41.378  29.352  32.522  1.00  0.00    -0.354 N 
ATOM     58  N   UNL A   1      41.040  31.155  34.808  1.00  0.00    -0.248 NA
ATOM     59  C   UNL A   1      41.681  31.894  36.926  1.00  0.00     0.031 C 
ATOM     60  C   UNL A   1      43.058  27.899  32.563  1.00  0.00     0.029 A 
ATOM     61  C   UNL A   1      42.445  28.908  33.289  1.00  0.00     0.049 A 
ATOM     62  H   UNL A   1      40.752  30.065  32.784  1.00  0.00     0.167 HD
ATOM     63  C   UNL A   1      42.153  30.436  35.222  1.00  0.00     0.074 A 
ATOM     64  C   UNL A   1      42.527  30.959  36.519  1.00  0.00     0.031 C 
ATOM     65  C   UNL A   1      42.807  29.432  34.583  1.00  0.00     0.037 A 
BRANCH  52  66
ATOM     66  C   UNL A   1      40.337  27.904  29.121  1.00  0.00     0.064 A 
ATOM     67  C   UNL A   1      41.118  28.188  27.989  1.00  0.00     0.173 A 
ATOM     68  C   UNL A   1      39.593  26.714  29.117  1.00  0.00     0.173 A 
ATOM     69  F   UNL A   1      41.845  29.315  27.934  1.00  0.00    -0.203 F 
ATOM     70  C   UNL A   1      41.120  27.338  26.885  1.00  0.00     0.198 A 
ATOM     71  C   UNL A   1      39.626  25.849  28.026  1.00  0.00     0.198 A 
ATOM     72  F   UNL A   1      38.836  26.385  30.175  1.00  0.00    -0.203 F 
ATOM     73  F   UNL A   1      41.827  27.663  25.793  1.00  0.00    -0.200 F 
ATOM     74  C   UNL A   1      40.380  26.167  26.907  1.00  0.00     0.200 A 
ATOM     75  F   UNL A   1      38.923  24.709  28.057  1.00  0.00    -0.200 F 
ATOM     76  F   UNL A   1      40.386  25.347  25.847  1.00  0.00    -0.200 F 
ENDBRANCH  52  66
BRANCH  53  77
ATOM     77  C   UNL A   1      39.579  33.934  37.041  1.00  0.00     0.064 A 
ATOM     78  C   UNL A   1      40.193  35.193  37.071  1.00  0.00     0.173 A 
ATOM     79  C   UNL A   1      38.837  33.545  38.166  1.00  0.00     0.173 A 
ATOM     80  F   UNL A   1      40.930  35.603  36.028  1.00  0.00    -0.203 F 
ATOM     81  C   UNL A   1      40.086  36.021  38.185  1.00  0.00     0.198 A 
ATOM     82  C   UNL A   1      38.702  34.388  39.267  1.00  0.00     0.198 A 
ATOM     83  F   UNL A   1      38.224  32.352  38.186  1.00  0.00    -0.203 F 
ATOM     84  F   UNL A   1      40.720  37.201  38.205  1.00  0.00    -0.200 F 
ATOM     85  C   UNL A   1      39.334  35.621  39.280  1.00  0.00     0.200 A 
ATOM     86  F   UNL A   1      37.961  34.003  40.315  1.00  0.00    -0.200 F 
ATOM     87  F   UNL A   1      39.222  36.422  40.348  1.00  0.00    -0.200 F 
ENDBRANCH  53  77
BRANCH  65  88
ATOM     88  C   UNL A   1      44.014  28.853  35.266  1.00  0.00     0.064 A 
ATOM     89  C   UNL A   1      45.304  29.363  35.050  1.00  0.00     0.173 A 
ATOM     90  C   UNL A   1      43.875  27.787  36.169  1.00  0.00     0.173 A 
ATOM     91  F   UNL A   1      45.495  30.372  34.187  1.00  0.00    -0.203 F 
ATOM     92  C   UNL A   1      46.411  28.805  35.683  1.00  0.00     0.198 A 
ATOM     93  C   UNL A   1      44.980  27.256  36.829  1.00  0.00     0.198 A 
ATOM     94  F   UNL A   1      42.665  27.266  36.419  1.00  0.00    -0.203 F 
ATOM     95  F   UNL A   1      47.639  29.268  35.415  1.00  0.00    -0.200 F 
ATOM     96  C   UNL A   1      46.248  27.757  36.578  1.00  0.00     0.200 A 
ATOM     97  F   UNL A   1      44.818  26.254  37.705  1.00  0.00    -0.200 F 
ATOM     98  F   UNL A   1      47.314  27.224  37.189  1.00  0.00    -0.200 F 
ENDBRANCH  65  88
ENDBRANCH  39  40
ENDBRANCH  31  34
ENDBRANCH  29  30
ENDBRANCH  28  29
ENDBRANCH  27  28
ENDBRANCH   1  27
TORSDOF 18
ENDMDL
MODEL 2
REMARK VINA RESULT:     -11.6      5.505      9.730
REMARK SMILES Cc1noc(C)c1[C@@H](C)NC(=O)N[C@H](CO)C(=O)NCCCCCCNC(=O)c1ccc(-c2c3nc(c(-c4c(F)c(F)c(F)c(F)c4F)c4ccc([nH]4)c(-c4c(F)c(F)c(F)c(F)c4F)c4nc(c(-c5c(F)c(F)c(F)c(F)c5F)c5ccc2[nH]5)C=C4)C=C3)cc1
REMARK SMILES IDX 22 1 21 2 20 3 19 4 17 5 18 6 14 8 13 9 10 10 11 11 12 13
REMARK SMILES IDX 8 15 9 16 7 17 1 18 2 19 3 20 4 21 5 22 6 23 15 24 16 25
REMARK SMILES IDX 23 27 24 28 25 29 26 30 27 31 28 33 29 34 30 35 91 36 31 37
REMARK SMILES IDX 90 38 32 39 33 40 34 41 84 42 35 43 89 44 83 45 85 46 36 47
REMARK SMILES IDX 88 48 82 49 81 50 37 52 69 53 49 54 68 55 50 56 53 57 67 58
REMARK SMILES IDX 86 59 51 60 52 61 66 63 87 64 54 65 38 66 39 67 47 68 40 69
REMARK SMILES IDX 41 70 45 71 48 72 42 73 43 74 46 75 44 76 70 77 71 78 79 79
REMARK SMILES IDX 72 80 73 81 77 82 80 83 74 84 75 85 78 86 76 87 55 88 56 89
REMARK SMILES IDX 64 90 57 91 58 92 62 93 65 94 59 95 60 96 63 97 61 98
REMARK H PARENT 19 7 10 12 13 14 16 26 26 32 85 51 53 62
REMARK Flexibility Score: inf
ROOT
ATOM      1  C   UNL A   1      36.541  21.738  24.314  1.00  0.00     0.002 C 
ENDROOT
BRANCH   1   2
ATOM      2  C   UNL A   1      35.880  22.840  25.151  1.00  0.00     0.021 C 
BRANCH   2   3
ATOM      3  C   UNL A   1      35.415  24.083  24.388  1.00  0.00     0.116 C 
BRANCH   3   4
ATOM      4  N   UNL A   1      34.921  23.790  23.051  1.00  0.00    -0.354 N 
ATOM      5  C   UNL A   1      33.732  23.323  22.576  1.00  0.00     0.245 C 
ATOM      6  O   UNL A   1      33.594  23.360  21.345  1.00  0.00    -0.273 OA
ATOM      7  H   UNL A   1      35.583  23.966  22.344  1.00  0.00     0.163 HD
BRANCH   5   8
ATOM      8  C   UNL A   1      32.525  22.918  23.458  1.00  0.00     0.198 C 
BRANCH   8   9
ATOM      9  N   UNL A   1      32.374  21.535  23.903  1.00  0.00    -0.324 N 
ATOM     10  N   UNL A   1      32.186  21.475  26.264  1.00  0.00    -0.331 N 
ATOM     11  C   UNL A   1      32.191  20.910  25.062  1.00  0.00     0.315 C 
ATOM     12  H   UNL A   1      31.737  20.910  26.934  1.00  0.00     0.165 HD
ATOM     13  O   UNL A   1      31.938  19.703  25.000  1.00  0.00    -0.249 OA
ATOM     14  H   UNL A   1      32.420  20.903  23.150  1.00  0.00     0.166 HD
BRANCH  10  15
ATOM     15  C   UNL A   1      32.676  22.720  26.842  1.00  0.00     0.116 C 
ATOM     16  C   UNL A   1      33.076  22.435  28.289  1.00  0.00     0.036 C 
BRANCH  15  17
ATOM     17  C   UNL A   1      31.633  23.800  26.737  1.00  0.00     0.040 A 
ATOM     18  C   UNL A   1      32.995  25.968  26.100  1.00  0.00     0.071 C 
ATOM     19  C   UNL A   1      31.777  25.185  26.410  1.00  0.00     0.086 A 
ATOM     20  N   UNL A   1      30.600  25.820  26.412  1.00  0.00    -0.085 NA
ATOM     21  O   UNL A   1      29.659  24.873  26.731  1.00  0.00    -0.361 OA
ATOM     22  C   UNL A   1      30.262  23.672  26.913  1.00  0.00     0.139 A 
ATOM     23  C   UNL A   1      29.332  22.577  27.249  1.00  0.00     0.091 C 
ENDBRANCH  15  17
ENDBRANCH  10  15
ENDBRANCH   8   9
BRANCH   8  24
ATOM     24  C   UNL A   1      31.206  23.589  22.991  1.00  0.00     0.191 C 
BRANCH  24  25
ATOM     25  O   UNL A   1      31.408  24.830  22.310  1.00  0.00    -0.394 OA
ATOM     26  H   UNL A   1      31.334  24.690  21.354  1.00  0.00     0.210 HD
ENDBRANCH  24  25
ENDBRANCH   8  24
ENDBRANCH   5   8
ENDBRANCH   3   4
ENDBRANCH   2   3
ENDBRANCH   1   2
BRANCH   1  27
ATOM     27  C   UNL A   1      36.568  20.365  25.001  1.00  0.00     0.002 C 
BRANCH  27  28
ATOM     28  C   UNL A   1      37.887  19.583  24.905  1.00  0.00     0.021 C 
BRANCH  28  29
ATOM     29  C   UNL A   1      39.037  20.123  25.754  1.00  0.00     0.116 C 
BRANCH  29  30
ATOM     30  N   UNL A   1      40.130  19.172  25.881  1.00  0.00    -0.352 N 
ATOM     31  C   UNL A   1      41.471  19.386  26.076  1.00  0.00     0.251 C 
ATOM     32  H   UNL A   1      39.867  18.226  25.817  1.00  0.00     0.163 HD
ATOM     33  O   UNL A   1      42.268  18.454  25.952  1.00  0.00    -0.269 OA
BRANCH  31  34
ATOM     34  C   UNL A   1      41.984  20.731  26.414  1.00  0.00     0.039 A 
ATOM     35  C   UNL A   1      42.220  21.638  25.377  1.00  0.00     0.014 A 
ATOM     36  C   UNL A   1      42.277  21.091  27.733  1.00  0.00     0.014 A 
ATOM     37  C   UNL A   1      42.686  22.921  25.668  1.00  0.00     0.010 A 
ATOM     38  C   UNL A   1      42.675  22.396  28.029  1.00  0.00     0.010 A 
ATOM     39  C   UNL A   1      42.884  23.327  26.999  1.00  0.00    -0.014 A 
BRANCH  39  40
ATOM     40  C   UNL A   1      43.282  24.728  27.304  1.00  0.00     0.031 A 
ATOM     41  C   UNL A   1      44.670  25.222  27.006  1.00  0.00     0.074 A 
ATOM     42  C   UNL A   1      42.385  25.558  27.871  1.00  0.00     0.049 A 
ATOM     43  N   UNL A   1      45.172  26.423  27.163  1.00  0.00    -0.248 NA
ATOM     44  C   UNL A   1      45.628  24.237  26.484  1.00  0.00     0.031 C 
ATOM     45  C   UNL A   1      41.026  25.186  28.262  1.00  0.00     0.029 A 
ATOM     46  N   UNL A   1      42.476  26.886  28.211  1.00  0.00    -0.354 N 
ATOM     47  C   UNL A   1      46.499  26.336  26.759  1.00  0.00     0.074 A 
ATOM     48  C   UNL A   1      46.741  24.953  26.411  1.00  0.00     0.031 C 
ATOM     49  C   UNL A   1      40.396  26.266  28.751  1.00  0.00     0.029 A 
ATOM     50  C   UNL A   1      41.318  27.398  28.743  1.00  0.00     0.049 A 
ATOM     51  H   UNL A   1      43.294  27.419  28.085  1.00  0.00     0.167 HD
ATOM     52  C   UNL A   1      47.423  27.324  26.666  1.00  0.00     0.037 A 
ATOM     53  C   UNL A   1      41.027  28.641  29.173  1.00  0.00     0.037 A 
ATOM     54  C   UNL A   1      47.176  28.702  27.011  1.00  0.00     0.049 A 
ATOM     55  C   UNL A   1      42.072  29.718  29.068  1.00  0.00     0.074 A 
ATOM     56  C   UNL A   1      48.029  29.787  26.896  1.00  0.00     0.029 A 
ATOM     57  N   UNL A   1      45.992  29.182  27.552  1.00  0.00    -0.354 N 
ATOM     58  N   UNL A   1      43.295  29.643  28.602  1.00  0.00    -0.248 NA
ATOM     59  C   UNL A   1      41.690  31.057  29.536  1.00  0.00     0.031 C 
ATOM     60  C   UNL A   1      47.384  30.909  27.427  1.00  0.00     0.029 A 
ATOM     61  C   UNL A   1      46.103  30.541  27.807  1.00  0.00     0.049 A 
ATOM     62  H   UNL A   1      45.190  28.639  27.727  1.00  0.00     0.167 HD
ATOM     63  C   UNL A   1      43.820  30.925  28.697  1.00  0.00     0.074 A 
ATOM     64  C   UNL A   1      42.774  31.762  29.246  1.00  0.00     0.031 C 
ATOM     65  C   UNL A   1      45.057  31.367  28.359  1.00  0.00     0.037 A 
BRANCH  52  66
ATOM     66  C   UNL A   1      48.794  26.947  26.177  1.00  0.00     0.064 A 
ATOM     67  C   UNL A   1      49.155  27.060  24.825  1.00  0.00     0.173 A 
ATOM     68  C   UNL A   1      49.772  26.492  27.076  1.00  0.00     0.173 A 
ATOM     69  F   UNL A   1      48.260  27.484  23.919  1.00  0.00    -0.203 F 
ATOM     70  C   UNL A   1      50.426  26.694  24.386  1.00  0.00     0.198 A 
ATOM     71  C   UNL A   1      51.052  26.161  26.639  1.00  0.00     0.198 A 
ATOM     72  F   UNL A   1      49.488  26.372  28.382  1.00  0.00    -0.203 F 
ATOM     73  F   UNL A   1      50.726  26.755  23.081  1.00  0.00    -0.200 F 
ATOM     74  C   UNL A   1      51.375  26.252  25.294  1.00  0.00     0.200 A 
ATOM     75  F   UNL A   1      51.973  25.750  27.521  1.00  0.00    -0.200 F 
ATOM     76  F   UNL A   1      52.599  25.905  24.872  1.00  0.00    -0.200 F 
ENDBRANCH  52  66
BRANCH  53  77
ATOM     77  C   UNL A   1      39.674  28.936  29.715  1.00  0.00     0.064 A 
ATOM     78  C   UNL A   1      39.371  28.717  31.066  1.00  0.00     0.173 A 
ATOM     79  C   UNL A   1      38.661  29.455  28.896  1.00  0.00     0.173 A 
ATOM     80  F   UNL A   1      40.299  28.203  31.886  1.00  0.00    -0.203 F 
ATOM     81  C   UNL A   1      38.102  28.988  31.572  1.00  0.00     0.198 A 
ATOM     82  C   UNL A   1      37.401  29.757  29.411  1.00  0.00     0.198 A 
ATOM     83  F   UNL A   1      38.900  29.689  27.597  1.00  0.00    -0.203 F 
ATOM     84  F   UNL A   1      37.825  28.727  32.857  1.00  0.00    -0.200 F 
ATOM     85  C   UNL A   1      37.120  29.515  30.746  1.00  0.00     0.200 A 
ATOM     86  F   UNL A   1      36.463  30.282  28.613  1.00  0.00    -0.200 F 
ATOM     87  F   UNL A   1      35.903  29.786  31.236  1.00  0.00    -0.200 F 
ENDBRANCH  53  77
BRANCH  65  88
ATOM     88  C   UNL A   1      45.339  32.832  28.546  1.00  0.00     0.064 A 
ATOM     89  C   UNL A   1      45.014  33.780  27.563  1.00  0.00     0.173 A 
ATOM     90  C   UNL A   1      45.922  33.296  29.736  1.00  0.00     0.173 A 
ATOM     91  F   UNL A   1      44.469  33.389  26.402  1.00  0.00    -0.203 F 
ATOM     92  C   UNL A   1      45.295  35.131  27.750  1.00  0.00     0.198 A 
ATOM     93  C   UNL A   1      46.167  34.652  29.934  1.00  0.00     0.198 A 
ATOM     94  F   UNL A   1      46.246  32.434  30.712  1.00  0.00    -0.203 F 
ATOM     95  F   UNL A   1      45.032  36.010  26.774  1.00  0.00    -0.200 F 
ATOM     96  C   UNL A   1      45.864  35.568  28.938  1.00  0.00     0.200 A 
ATOM     97  F   UNL A   1      46.702  35.073  31.089  1.00  0.00    -0.200 F 
ATOM     98  F   UNL A   1      46.129  36.868  29.118  1.00  0.00    -0.200 F 
ENDBRANCH  65  88
ENDBRANCH  39  40
ENDBRANCH  31  34
ENDBRANCH  29  30
ENDBRANCH  28  29
ENDBRANCH  27  28
ENDBRANCH   1  27
TORSDOF 18
ENDMDL
MODEL 3
REMARK VINA RESULT:     -11.6      5.363      9.944
REMARK SMILES Cc1noc(C)c1[C@@H](C)NC(=O)N[C@H](CO)C(=O)NCCCCCCNC(=O)c1ccc(-c2c3nc(c(-c4c(F)c(F)c(F)c(F)c4F)c4ccc([nH]4)c(-c4c(F)c(F)c(F)c(F)c4F)c4nc(c(-c5c(F)c(F)c(F)c(F)c5F)c5ccc2[nH]5)C=C4)C=C3)cc1
REMARK SMILES IDX 22 1 21 2 20 3 19 4 17 5 18 6 14 8 13 9 10 10 11 11 12 13
REMARK SMILES IDX 8 15 9 16 7 17 1 18 2 19 3 20 4 21 5 22 6 23 15 24 16 25
REMARK SMILES IDX 23 27 24 28 25 29 26 30 27 31 28 33 29 34 30 35 91 36 31 37
REMARK SMILES IDX 90 38 32 39 33 40 34 41 84 42 35 43 89 44 83 45 85 46 36 47
REMARK SMILES IDX 88 48 82 49 81 50 37 52 69 53 49 54 68 55 50 56 53 57 67 58
REMARK SMILES IDX 86 59 51 60 52 61 66 63 87 64 54 65 38 66 39 67 47 68 40 69
REMARK SMILES IDX 41 70 45 71 48 72 42 73 43 74 46 75 44 76 70 77 71 78 79 79
REMARK SMILES IDX 72 80 73 81 77 82 80 83 74 84 75 85 78 86 76 87 55 88 56 89
REMARK SMILES IDX 64 90 57 91 58 92 62 93 65 94 59 95 60 96 63 97 61 98
REMARK H PARENT 19 7 10 12 13 14 16 26 26 32 85 51 53 62
REMARK Flexibility Score: inf
ROOT
ATOM      1  C   UNL A   1      36.973  21.863  24.223  1.00  0.00     0.002 C 
ENDROOT
BRANCH   1   2
ATOM      2  C   UNL A   1      37.221  23.020  25.198  1.00  0.00     0.021 C 
BRANCH   2   3
ATOM      3  C   UNL A   1      35.981  23.764  25.699  1.00  0.00     0.116 C 
BRANCH   3   4
ATOM      4  N   UNL A   1      35.328  23.108  26.822  1.00  0.00    -0.354 N 
ATOM      5  C   UNL A   1      34.055  22.671  27.037  1.00  0.00     0.245 C 
ATOM      6  O   UNL A   1      33.887  21.987  28.057  1.00  0.00    -0.273 OA
ATOM      7  H   UNL A   1      35.930  22.946  27.584  1.00  0.00     0.163 HD
BRANCH   5   8
ATOM      8  C   UNL A   1      32.884  22.831  26.036  1.00  0.00     0.198 C 
BRANCH   8   9
ATOM      9  N   UNL A   1      31.706  23.612  26.405  1.00  0.00    -0.324 N 
ATOM     10  N   UNL A   1      31.924  25.821  25.580  1.00  0.00    -0.331 N 
ATOM     11  C   UNL A   1      31.262  24.847  26.194  1.00  0.00     0.315 C 
ATOM     12  H   UNL A   1      31.321  26.532  25.261  1.00  0.00     0.165 HD
ATOM     13  O   UNL A   1      30.104  25.082  26.547  1.00  0.00    -0.249 OA
ATOM     14  H   UNL A   1      31.078  23.087  26.953  1.00  0.00     0.166 HD
BRANCH  10  15
ATOM     15  C   UNL A   1      33.317  26.105  25.257  1.00  0.00     0.116 C 
ATOM     16  C   UNL A   1      33.754  27.305  26.097  1.00  0.00     0.036 C 
BRANCH  15  17
ATOM     17  C   UNL A   1      33.480  26.348  23.781  1.00  0.00     0.040 A 
ATOM     18  C   UNL A   1      33.614  23.932  22.729  1.00  0.00     0.071 C 
ATOM     19  C   UNL A   1      33.596  25.412  22.705  1.00  0.00     0.086 A 
ATOM     20  N   UNL A   1      33.719  26.028  21.523  1.00  0.00    -0.085 NA
ATOM     21  O   UNL A   1      33.676  27.372  21.790  1.00  0.00    -0.361 OA
ATOM     22  C   UNL A   1      33.523  27.570  23.124  1.00  0.00     0.139 A 
ATOM     23  C   UNL A   1      33.454  28.991  23.518  1.00  0.00     0.091 C 
ENDBRANCH  15  17
ENDBRANCH  10  15
ENDBRANCH   8   9
BRANCH   8  24
ATOM     24  C   UNL A   1      32.568  21.510  25.286  1.00  0.00     0.191 C 
BRANCH  24  25
ATOM     25  O   UNL A   1      31.380  20.862  25.750  1.00  0.00    -0.394 OA
ATOM     26  H   UNL A   1      30.788  21.518  26.149  1.00  0.00     0.210 HD
ENDBRANCH  24  25
ENDBRANCH   8  24
ENDBRANCH   5   8
ENDBRANCH   3   4
ENDBRANCH   2   3
ENDBRANCH   1   2
BRANCH   1  27
ATOM     27  C   UNL A   1      36.757  20.506  24.907  1.00  0.00     0.002 C 
BRANCH  27  28
ATOM     28  C   UNL A   1      37.980  19.578  24.978  1.00  0.00     0.021 C 
BRANCH  28  29
ATOM     29  C   UNL A   1      39.120  20.058  25.875  1.00  0.00     0.116 C 
BRANCH  29  30
ATOM     30  N   UNL A   1      40.233  19.124  25.910  1.00  0.00    -0.352 N 
ATOM     31  C   UNL A   1      41.578  19.353  26.054  1.00  0.00     0.251 C 
ATOM     32  H   UNL A   1      39.983  18.176  25.814  1.00  0.00     0.163 HD
ATOM     33  O   UNL A   1      42.383  18.443  25.851  1.00  0.00    -0.269 OA
BRANCH  31  34
ATOM     34  C   UNL A   1      42.084  20.690  26.429  1.00  0.00     0.039 A 
ATOM     35  C   UNL A   1      42.373  21.607  25.414  1.00  0.00     0.014 A 
ATOM     36  C   UNL A   1      42.319  21.035  27.764  1.00  0.00     0.014 A 
ATOM     37  C   UNL A   1      42.834  22.884  25.740  1.00  0.00     0.010 A 
ATOM     38  C   UNL A   1      42.711  22.334  28.092  1.00  0.00     0.010 A 
ATOM     39  C   UNL A   1      42.973  23.274  27.083  1.00  0.00    -0.014 A 
BRANCH  39  40
ATOM     40  C   UNL A   1      43.366  24.669  27.421  1.00  0.00     0.031 A 
ATOM     41  C   UNL A   1      44.769  25.156  27.192  1.00  0.00     0.074 A 
ATOM     42  C   UNL A   1      42.448  25.500  27.954  1.00  0.00     0.049 A 
ATOM     43  N   UNL A   1      45.272  26.352  27.386  1.00  0.00    -0.248 NA
ATOM     44  C   UNL A   1      45.744  24.170  26.705  1.00  0.00     0.031 C 
ATOM     45  C   UNL A   1      41.070  25.133  28.278  1.00  0.00     0.029 A 
ATOM     46  N   UNL A   1      42.533  26.823  28.312  1.00  0.00    -0.354 N 
ATOM     47  C   UNL A   1      46.615  26.260  27.043  1.00  0.00     0.074 A 
ATOM     48  C   UNL A   1      46.864  24.878  26.691  1.00  0.00     0.031 C 
ATOM     49  C   UNL A   1      40.426  26.212  28.749  1.00  0.00     0.029 A 
ATOM     50  C   UNL A   1      41.355  27.338  28.795  1.00  0.00     0.049 A 
ATOM     51  H   UNL A   1      43.359  27.352  28.230  1.00  0.00     0.167 HD
ATOM     52  C   UNL A   1      47.549  27.242  27.002  1.00  0.00     0.037 A 
ATOM     53  C   UNL A   1      41.052  28.578  29.225  1.00  0.00     0.037 A 
ATOM     54  C   UNL A   1      47.295  28.618  27.351  1.00  0.00     0.049 A 
ATOM     55  C   UNL A   1      42.108  29.649  29.180  1.00  0.00     0.074 A 
ATOM     56  C   UNL A   1      48.160  29.698  27.287  1.00  0.00     0.029 A 
ATOM     57  N   UNL A   1      46.091  29.101  27.841  1.00  0.00    -0.354 N 
ATOM     58  N   UNL A   1      43.351  29.570  28.771  1.00  0.00    -0.248 NA
ATOM     59  C   UNL A   1      41.714  30.986  29.644  1.00  0.00     0.031 C 
ATOM     60  C   UNL A   1      47.498  30.819  27.799  1.00  0.00     0.029 A 
ATOM     61  C   UNL A   1      46.199  30.457  28.116  1.00  0.00     0.049 A 
ATOM     62  H   UNL A   1      45.278  28.561  27.974  1.00  0.00     0.167 HD
ATOM     63  C   UNL A   1      43.879  30.847  28.904  1.00  0.00     0.074 A 
ATOM     64  C   UNL A   1      42.815  31.686  29.412  1.00  0.00     0.031 C 
ATOM     65  C   UNL A   1      45.134  31.284  28.628  1.00  0.00     0.037 A 
BRANCH  52  66
ATOM     66  C   UNL A   1      48.939  26.860  26.574  1.00  0.00     0.064 A 
ATOM     67  C   UNL A   1      49.890  26.382  27.490  1.00  0.00     0.173 A 
ATOM     68  C   UNL A   1      49.319  26.945  25.226  1.00  0.00     0.173 A 
ATOM     69  F   UNL A   1      49.584  26.284  28.793  1.00  0.00    -0.203 F 
ATOM     70  C   UNL A   1      51.178  26.043  27.079  1.00  0.00     0.198 A 
ATOM     71  C   UNL A   1      50.596  26.572  24.813  1.00  0.00     0.198 A 
ATOM     72  F   UNL A   1      48.449  27.386  24.304  1.00  0.00    -0.203 F 
ATOM     73  F   UNL A   1      52.085  25.647  27.983  1.00  0.00    -0.200 F 
ATOM     74  C   UNL A   1      51.527  26.133  25.741  1.00  0.00     0.200 A 
ATOM     75  F   UNL A   1      50.926  26.643  23.517  1.00  0.00    -0.200 F 
ATOM     76  F   UNL A   1      52.765  25.803  25.346  1.00  0.00    -0.200 F 
ENDBRANCH  52  66
BRANCH  53  77
ATOM     77  C   UNL A   1      39.678  28.878  29.707  1.00  0.00     0.064 A 
ATOM     78  C   UNL A   1      38.705  29.398  28.844  1.00  0.00     0.173 A 
ATOM     79  C   UNL A   1      39.307  28.638  31.039  1.00  0.00     0.173 A 
ATOM     80  F   UNL A   1      39.016  29.663  27.566  1.00  0.00    -0.203 F 
ATOM     81  C   UNL A   1      37.419  29.685  29.297  1.00  0.00     0.198 A 
ATOM     82  C   UNL A   1      38.010  28.895  31.483  1.00  0.00     0.198 A 
ATOM     83  F   UNL A   1      40.198  28.135  31.905  1.00  0.00    -0.203 F 
ATOM     84  F   UNL A   1      36.521  30.223  28.461  1.00  0.00    -0.200 F 
ATOM     85  C   UNL A   1      37.070  29.425  30.614  1.00  0.00     0.200 A 
ATOM     86  F   UNL A   1      37.675  28.626  32.751  1.00  0.00    -0.200 F 
ATOM     87  F   UNL A   1      35.830  29.691  31.047  1.00  0.00    -0.200 F 
ENDBRANCH  53  77
BRANCH  65  88
ATOM     88  C   UNL A   1      45.417  32.745  28.843  1.00  0.00     0.064 A 
ATOM     89  C   UNL A   1      45.971  33.224  30.040  1.00  0.00     0.173 A 
ATOM     90  C   UNL A   1      45.150  33.676  27.826  1.00  0.00     0.173 A 
ATOM     91  F   UNL A   1      46.231  32.380  31.048  1.00  0.00    -0.203 F 
ATOM     92  C   UNL A   1      46.213  34.583  30.224  1.00  0.00     0.198 A 
ATOM     93  C   UNL A   1      45.429  35.028  27.999  1.00  0.00     0.198 A 
ATOM     94  F   UNL A   1      44.628  33.271  26.658  1.00  0.00    -0.203 F 
ATOM     95  F   UNL A   1      46.686  35.025  31.397  1.00  0.00    -0.200 F 
ATOM     96  C   UNL A   1      45.950  35.483  29.201  1.00  0.00     0.200 A 
ATOM     97  F   UNL A   1      45.188  35.894  27.004  1.00  0.00    -0.200 F 
ATOM     98  F   UNL A   1      46.188  36.790  29.378  1.00  0.00    -0.200 F 
ENDBRANCH  65  88
ENDBRANCH  39  40
ENDBRANCH  31  34
ENDBRANCH  29  30
ENDBRANCH  28  29
ENDBRANCH  27  28
ENDBRANCH   1  27
TORSDOF 18
ENDMDL
