MODEL 1
REMARK VINA RESULT:     -13.8      0.000      0.000
REMARK SMILES Cc1ccc(-c2csc(NC(=O)[C@H]3[C@@H](C(=O)NCCCCCCNC(=O)c4ccc(-c5c6nc(c(-c7c(F)c(F)c(F)c(F)c7F)c7ccc([nH]7)c(-c7c(F)c(F)c(F)c(F)c7F)c7nc(c(-c8c(F)c(F)c(F)c(F)c8F)c8ccc5[nH]8)C=C7)C=C6)cc4)[C@H]4C=C[C@@H]3C4)c2C(=O)NC2CC2)cc1
REMARK SMILES IDX 19 1 18 2 17 3 15 4 16 5 14 7 13 8 93 9 90 10 92 11 94 12
REMARK SMILES IDX 91 13 11 14 10 15 12 17 9 18 6 19 7 20 95 21 8 22 5 23 1 24
REMARK SMILES IDX 2 25 3 26 103 27 4 28 102 29 96 30 97 31 98 32 99 34 100 35
REMARK SMILES IDX 101 36 20 37 21 38 22 39 23 40 24 41 25 42 26 44 27 45 28 46
REMARK SMILES IDX 89 47 29 48 88 49 30 50 31 51 32 52 82 53 33 54 87 55 81 56
REMARK SMILES IDX 83 57 34 58 86 59 80 60 79 61 35 63 67 64 47 65 66 66 48 67
REMARK SMILES IDX 51 68 65 69 84 70 49 71 50 72 64 74 85 75 52 76 36 77 37 78
REMARK SMILES IDX 45 79 38 80 39 81 43 82 46 83 40 84 41 85 44 86 42 87 68 88
REMARK SMILES IDX 69 89 77 90 70 91 71 92 75 93 78 94 72 95 73 96 76 97 74 98
REMARK SMILES IDX 53 99 54 100 62 101 55 102 56 103 60 104 63 105 57 106
REMARK SMILES IDX 58 107 61 108 59 109
REMARK H PARENT 17 6 10 16 98 33 24 43 83 62 51 73
REMARK Flexibility Score: inf
ROOT
ATOM      1  C   UNL A   1      33.387  29.080  23.204  1.00  0.00     0.021 C 
ENDROOT
BRANCH   1   2
ATOM      2  C   UNL A   1      33.931  27.827  22.517  1.00  0.00     0.116 C 
BRANCH   2   3
ATOM      3  N   UNL A   1      32.869  26.968  22.040  1.00  0.00    -0.356 N 
ATOM      4  C   UNL A   1      32.104  26.045  22.687  1.00  0.00     0.224 C 
ATOM      5  O   UNL A   1      31.258  25.455  22.013  1.00  0.00    -0.275 OA
ATOM      6  H   UNL A   1      32.664  27.068  21.082  1.00  0.00     0.163 HD
BRANCH   4   7
ATOM      7  C   UNL A   1      32.245  25.860  24.199  1.00  0.00     0.098 C 
ATOM      8  C   UNL A   1      31.784  24.488  24.836  1.00  0.00     0.099 C 
ATOM      9  C   UNL A   1      30.664  24.965  25.803  1.00  0.00     0.025 C 
ATOM     10  C   UNL A   1      31.366  26.906  24.949  1.00  0.00     0.025 C 
ATOM     11  C   UNL A   1      29.508  25.556  25.043  1.00  0.00    -0.027 C 
ATOM     12  C   UNL A   1      31.287  26.269  26.334  1.00  0.00     0.017 C 
ATOM     13  C   UNL A   1      29.914  26.739  24.563  1.00  0.00    -0.027 C 
BRANCH   8  14
ATOM     14  C   UNL A   1      31.517  23.376  23.819  1.00  0.00     0.229 C 
ATOM     15  N   UNL A   1      32.404  22.366  23.588  1.00  0.00    -0.317 N 
ATOM     16  H   UNL A   1      32.002  21.517  23.295  1.00  0.00     0.170 HD
ATOM     17  O   UNL A   1      30.496  23.401  23.122  1.00  0.00    -0.274 OA
BRANCH  15  18
ATOM     18  C   UNL A   1      33.780  22.353  23.702  1.00  0.00     0.108 A 
ATOM     19  C   UNL A   1      35.963  21.874  24.336  1.00  0.00     0.007 A 
ATOM     20  C   UNL A   1      36.120  22.978  23.512  1.00  0.00     0.076 A 
ATOM     21  C   UNL A   1      34.574  21.438  24.399  1.00  0.00     0.082 A 
ATOM     22  S   UNL A   1      34.680  23.427  22.739  1.00  0.00    -0.125 S 
BRANCH  19  23
ATOM     23  C   UNL A   1      37.172  21.342  24.953  1.00  0.00    -0.017 A 
ATOM     24  C   UNL A   1      41.072  20.134  26.296  1.00  0.00     0.044 C 
ATOM     25  C   UNL A   1      39.659  20.505  25.958  1.00  0.00    -0.051 A 
ATOM     26  C   UNL A   1      39.237  21.823  26.145  1.00  0.00     0.004 A 
ATOM     27  C   UNL A   1      38.791  19.589  25.343  1.00  0.00     0.004 A 
ATOM     28  C   UNL A   1      37.995  22.228  25.672  1.00  0.00     0.009 A 
ATOM     29  C   UNL A   1      37.549  20.004  24.838  1.00  0.00     0.009 A 
ENDBRANCH  19  23
BRANCH  21  30
ATOM     30  C   UNL A   1      33.911  20.419  25.220  1.00  0.00     0.255 C 
ATOM     31  O   UNL A   1      33.653  19.316  24.722  1.00  0.00    -0.269 OA
ATOM     32  N   UNL A   1      33.630  20.503  26.563  1.00  0.00    -0.349 N 
ATOM     33  H   UNL A   1      33.212  19.670  26.881  1.00  0.00     0.164 HD
BRANCH  32  34
ATOM     34  C   UNL A   1      33.763  21.433  27.628  1.00  0.00     0.082 C 
ATOM     35  C   UNL A   1      34.272  22.830  27.615  1.00  0.00     0.027 C 
ATOM     36  C   UNL A   1      32.791  22.577  27.669  1.00  0.00     0.027 C 
ENDBRANCH  32  34
ENDBRANCH  21  30
ENDBRANCH  15  18
ENDBRANCH   8  14
ENDBRANCH   4   7
ENDBRANCH   2   3
ENDBRANCH   1   2
BRANCH   1  37
ATOM     37  C   UNL A   1      33.763  29.250  24.683  1.00  0.00     0.002 C 
BRANCH  37  38
ATOM     38  C   UNL A   1      32.731  29.944  25.586  1.00  0.00     0.002 C 
BRANCH  38  39
ATOM     39  C   UNL A   1      32.807  29.626  27.081  1.00  0.00     0.021 C 
BRANCH  39  40
ATOM     40  C   UNL A   1      34.220  29.480  27.624  1.00  0.00     0.116 C 
BRANCH  40  41
ATOM     41  N   UNL A   1      34.664  30.581  28.469  1.00  0.00    -0.352 N 
ATOM     42  C   UNL A   1      35.873  30.721  29.136  1.00  0.00     0.251 C 
ATOM     43  H   UNL A   1      34.024  31.321  28.580  1.00  0.00     0.163 HD
ATOM     44  O   UNL A   1      36.093  31.688  29.842  1.00  0.00    -0.269 OA
BRANCH  42  45
ATOM     45  C   UNL A   1      36.941  29.727  28.869  1.00  0.00     0.039 A 
ATOM     46  C   UNL A   1      37.304  28.868  29.910  1.00  0.00     0.014 A 
ATOM     47  C   UNL A   1      37.718  29.811  27.716  1.00  0.00     0.014 A 
ATOM     48  C   UNL A   1      38.573  28.292  29.901  1.00  0.00     0.010 A 
ATOM     49  C   UNL A   1      39.007  29.316  27.745  1.00  0.00     0.010 A 
ATOM     50  C   UNL A   1      39.455  28.614  28.866  1.00  0.00    -0.014 A 
BRANCH  50  51
ATOM     51  C   UNL A   1      40.881  28.332  28.941  1.00  0.00     0.031 A 
ATOM     52  C   UNL A   1      41.428  27.105  28.333  1.00  0.00     0.074 A 
ATOM     53  C   UNL A   1      41.714  29.176  29.591  1.00  0.00     0.049 A 
ATOM     54  N   UNL A   1      42.391  26.421  28.855  1.00  0.00    -0.248 NA
ATOM     55  C   UNL A   1      40.911  26.537  27.093  1.00  0.00     0.031 C 
ATOM     56  C   UNL A   1      43.172  29.099  29.637  1.00  0.00     0.029 A 
ATOM     57  N   UNL A   1      41.384  30.173  30.523  1.00  0.00    -0.354 N 
ATOM     58  C   UNL A   1      42.787  25.499  27.919  1.00  0.00     0.074 A 
ATOM     59  C   UNL A   1      41.792  25.556  26.872  1.00  0.00     0.031 C 
ATOM     60  C   UNL A   1      43.601  29.749  30.730  1.00  0.00     0.029 A 
ATOM     61  C   UNL A   1      42.430  30.174  31.473  1.00  0.00     0.049 A 
ATOM     62  H   UNL A   1      40.587  30.752  30.515  1.00  0.00     0.167 HD
ATOM     63  C   UNL A   1      43.993  24.878  28.037  1.00  0.00     0.037 A 
ATOM     64  C   UNL A   1      42.204  29.929  32.794  1.00  0.00     0.037 A 
ATOM     65  C   UNL A   1      44.737  25.344  29.198  1.00  0.00     0.049 A 
ATOM     66  C   UNL A   1      42.959  28.741  33.334  1.00  0.00     0.074 A 
ATOM     67  C   UNL A   1      45.717  26.313  29.337  1.00  0.00     0.029 A 
ATOM     68  N   UNL A   1      44.281  25.060  30.480  1.00  0.00    -0.354 N 
ATOM     69  N   UNL A   1      43.475  27.811  32.581  1.00  0.00    -0.248 NA
ATOM     70  C   UNL A   1      43.165  28.485  34.757  1.00  0.00     0.031 C 
ATOM     71  C   UNL A   1      45.830  26.637  30.707  1.00  0.00     0.029 A 
ATOM     72  C   UNL A   1      44.930  25.853  31.407  1.00  0.00     0.049 A 
ATOM     73  H   UNL A   1      43.593  24.390  30.697  1.00  0.00     0.167 HD
ATOM     74  C   UNL A   1      44.054  26.850  33.371  1.00  0.00     0.074 A 
ATOM     75  C   UNL A   1      43.847  27.327  34.725  1.00  0.00     0.031 C 
ATOM     76  C   UNL A   1      44.653  25.747  32.831  1.00  0.00     0.037 A 
BRANCH  63  77
ATOM     77  C   UNL A   1      44.583  24.096  26.897  1.00  0.00     0.064 A 
ATOM     78  C   UNL A   1      44.277  22.735  26.696  1.00  0.00     0.173 A 
ATOM     79  C   UNL A   1      45.517  24.648  26.003  1.00  0.00     0.173 A 
ATOM     80  F   UNL A   1      43.359  22.105  27.438  1.00  0.00    -0.203 F 
ATOM     81  C   UNL A   1      44.932  21.961  25.736  1.00  0.00     0.198 A 
ATOM     82  C   UNL A   1      46.205  23.862  25.073  1.00  0.00     0.198 A 
ATOM     83  F   UNL A   1      45.789  25.962  26.023  1.00  0.00    -0.203 F 
ATOM     84  F   UNL A   1      44.618  20.665  25.601  1.00  0.00    -0.200 F 
ATOM     85  C   UNL A   1      45.920  22.516  24.948  1.00  0.00     0.200 A 
ATOM     86  F   UNL A   1      47.163  24.415  24.314  1.00  0.00    -0.200 F 
ATOM     87  F   UNL A   1      46.590  21.758  24.070  1.00  0.00    -0.200 F 
ENDBRANCH  63  77
BRANCH  64  88
ATOM     88  C   UNL A   1      40.877  30.401  33.257  1.00  0.00     0.064 A 
ATOM     89  C   UNL A   1      40.661  31.790  33.322  1.00  0.00     0.173 A 
ATOM     90  C   UNL A   1      39.752  29.569  33.241  1.00  0.00     0.173 A 
ATOM     91  F   UNL A   1      41.709  32.629  33.347  1.00  0.00    -0.203 F 
ATOM     92  C   UNL A   1      39.379  32.329  33.242  1.00  0.00     0.198 A 
ATOM     93  C   UNL A   1      38.467  30.113  33.178  1.00  0.00     0.198 A 
ATOM     94  F   UNL A   1      39.895  28.239  33.169  1.00  0.00    -0.203 F 
ATOM     95  F   UNL A   1      39.214  33.658  33.187  1.00  0.00    -0.200 F 
ATOM     96  C   UNL A   1      38.285  31.489  33.137  1.00  0.00     0.200 A 
ATOM     97  F   UNL A   1      37.405  29.301  33.078  1.00  0.00    -0.200 F 
ATOM     98  F   UNL A   1      37.059  32.004  32.963  1.00  0.00    -0.200 F 
ENDBRANCH  64  88
BRANCH  76  99
ATOM     99  C   UNL A   1      45.147  24.526  33.571  1.00  0.00     0.064 A 
ATOM    100  C   UNL A   1      44.390  23.359  33.764  1.00  0.00     0.173 A 
ATOM    101  C   UNL A   1      46.498  24.450  34.001  1.00  0.00     0.173 A 
ATOM    102  F   UNL A   1      43.139  23.255  33.303  1.00  0.00    -0.203 F 
ATOM    103  C   UNL A   1      44.923  22.228  34.392  1.00  0.00     0.198 A 
ATOM    104  C   UNL A   1      47.040  23.300  34.572  1.00  0.00     0.198 A 
ATOM    105  F   UNL A   1      47.342  25.482  33.856  1.00  0.00    -0.203 F 
ATOM    106  F   UNL A   1      44.146  21.154  34.589  1.00  0.00    -0.200 F 
ATOM    107  C   UNL A   1      46.249  22.194  34.783  1.00  0.00     0.200 A 
ATOM    108  F   UNL A   1      48.342  23.269  34.896  1.00  0.00    -0.200 F 
ATOM    109  F   UNL A   1      46.765  21.090  35.340  1.00  0.00    -0.200 F 
ENDBRANCH  76  99
ENDBRANCH  50  51
ENDBRANCH  42  45
ENDBRANCH  40  41
ENDBRANCH  39  40
ENDBRANCH  38  39
ENDBRANCH  37  38
ENDBRANCH   1  37
TORSDOF 18
ENDMDL
MODEL 2
REMARK VINA RESULT:     -13.4      3.047      4.992
REMARK SMILES Cc1ccc(-c2csc(NC(=O)[C@H]3[C@@H](C(=O)NCCCCCCNC(=O)c4ccc(-c5c6nc(c(-c7c(F)c(F)c(F)c(F)c7F)c7ccc([nH]7)c(-c7c(F)c(F)c(F)c(F)c7F)c7nc(c(-c8c(F)c(F)c(F)c(F)c8F)c8ccc5[nH]8)C=C7)C=C6)cc4)[C@H]4C=C[C@@H]3C4)c2C(=O)NC2CC2)cc1
REMARK SMILES IDX 19 1 18 2 17 3 15 4 16 5 14 7 13 8 93 9 90 10 92 11 94 12
REMARK SMILES IDX 91 13 11 14 10 15 12 17 9 18 6 19 7 20 95 21 8 22 5 23 1 24
REMARK SMILES IDX 2 25 3 26 103 27 4 28 102 29 96 30 97 31 98 32 99 34 100 35
REMARK SMILES IDX 101 36 20 37 21 38 22 39 23 40 24 41 25 42 26 44 27 45 28 46
REMARK SMILES IDX 89 47 29 48 88 49 30 50 31 51 32 52 82 53 33 54 87 55 81 56
REMARK SMILES IDX 83 57 34 58 86 59 80 60 79 61 35 63 67 64 47 65 66 66 48 67
REMARK SMILES IDX 51 68 65 69 84 70 49 71 50 72 64 74 85 75 52 76 36 77 37 78
REMARK SMILES IDX 45 79 38 80 39 81 43 82 46 83 40 84 41 85 44 86 42 87 68 88
REMARK SMILES IDX 69 89 77 90 70 91 71 92 75 93 78 94 72 95 73 96 76 97 74 98
REMARK SMILES IDX 53 99 54 100 62 101 55 102 56 103 60 104 63 105 57 106
REMARK SMILES IDX 58 107 61 108 59 109
REMARK H PARENT 17 6 10 16 98 33 24 43 83 62 51 73
REMARK Flexibility Score: inf
ROOT
ATOM      1  C   UNL A   1      32.974  30.676  27.249  1.00  0.00     0.021 C 
ENDROOT
BRANCH   1   2
ATOM      2  C   UNL A   1      31.799  30.319  26.338  1.00  0.00     0.116 C 
BRANCH   2   3
ATOM      3  N   UNL A   1      32.228  30.046  24.984  1.00  0.00    -0.356 N 
ATOM      4  C   UNL A   1      31.951  29.005  24.150  1.00  0.00     0.224 C 
ATOM      5  O   UNL A   1      32.464  29.039  23.030  1.00  0.00    -0.275 OA
ATOM      6  H   UNL A   1      32.822  30.729  24.599  1.00  0.00     0.163 HD
BRANCH   4   7
ATOM      7  C   UNL A   1      30.961  27.922  24.581  1.00  0.00     0.098 C 
ATOM      8  C   UNL A   1      31.533  26.538  25.090  1.00  0.00     0.099 C 
ATOM      9  C   UNL A   1      30.924  25.558  24.050  1.00  0.00     0.025 C 
ATOM     10  C   UNL A   1      30.066  27.505  23.374  1.00  0.00     0.025 C 
ATOM     11  C   UNL A   1      31.468  25.825  22.673  1.00  0.00    -0.027 C 
ATOM     12  C   UNL A   1      29.523  26.169  23.872  1.00  0.00     0.017 C 
ATOM     13  C   UNL A   1      30.924  26.974  22.249  1.00  0.00    -0.027 C 
BRANCH   8  14
ATOM     14  C   UNL A   1      33.036  26.541  25.377  1.00  0.00     0.229 C 
ATOM     15  N   UNL A   1      33.808  25.424  25.250  1.00  0.00    -0.317 N 
ATOM     16  H   UNL A   1      34.750  25.593  25.018  1.00  0.00     0.170 HD
ATOM     17  O   UNL A   1      33.588  27.564  25.799  1.00  0.00    -0.274 OA
BRANCH  15  18
ATOM     18  C   UNL A   1      33.471  24.093  25.397  1.00  0.00     0.108 A 
ATOM     19  C   UNL A   1      33.239  21.802  25.093  1.00  0.00     0.007 A 
ATOM     20  C   UNL A   1      32.399  22.054  26.166  1.00  0.00     0.076 A 
ATOM     21  C   UNL A   1      33.951  23.002  24.669  1.00  0.00     0.082 A 
ATOM     22  S   UNL A   1      32.524  23.644  26.736  1.00  0.00    -0.125 S 
BRANCH  19  23
ATOM     23  C   UNL A   1      33.287  20.428  24.607  1.00  0.00    -0.017 A 
ATOM     24  C   UNL A   1      33.973  16.582  22.814  1.00  0.00     0.044 C 
ATOM     25  C   UNL A   1      33.644  17.854  23.538  1.00  0.00    -0.051 A 
ATOM     26  C   UNL A   1      34.537  18.345  24.493  1.00  0.00     0.004 A 
ATOM     27  C   UNL A   1      32.525  18.625  23.187  1.00  0.00     0.004 A 
ATOM     28  C   UNL A   1      34.342  19.607  25.042  1.00  0.00     0.009 A 
ATOM     29  C   UNL A   1      32.344  19.912  23.717  1.00  0.00     0.009 A 
ENDBRANCH  19  23
BRANCH  21  30
ATOM     30  C   UNL A   1      34.829  23.256  23.522  1.00  0.00     0.255 C 
ATOM     31  O   UNL A   1      34.347  23.728  22.485  1.00  0.00    -0.269 OA
ATOM     32  N   UNL A   1      36.198  23.135  23.494  1.00  0.00    -0.349 N 
ATOM     33  H   UNL A   1      36.550  23.398  22.613  1.00  0.00     0.164 HD
BRANCH  32  34
ATOM     34  C   UNL A   1      37.256  22.743  24.358  1.00  0.00     0.082 C 
ATOM     35  C   UNL A   1      37.209  22.265  25.765  1.00  0.00     0.027 C 
ATOM     36  C   UNL A   1      37.400  21.276  24.648  1.00  0.00     0.027 C 
ENDBRANCH  32  34
ENDBRANCH  21  30
ENDBRANCH  15  18
ENDBRANCH   8  14
ENDBRANCH   4   7
ENDBRANCH   2   3
ENDBRANCH   1   2
BRANCH   1  37
ATOM     37  C   UNL A   1      33.284  32.173  27.387  1.00  0.00     0.002 C 
BRANCH  37  38
ATOM     38  C   UNL A   1      34.647  32.547  27.991  1.00  0.00     0.002 C 
BRANCH  38  39
ATOM     39  C   UNL A   1      34.664  32.888  29.482  1.00  0.00     0.021 C 
BRANCH  39  40
ATOM     40  C   UNL A   1      34.448  34.360  29.796  1.00  0.00     0.116 C 
BRANCH  40  41
ATOM     41  N   UNL A   1      33.550  34.619  30.913  1.00  0.00    -0.352 N 
ATOM     42  C   UNL A   1      33.769  34.391  32.265  1.00  0.00     0.251 C 
ATOM     43  H   UNL A   1      32.676  35.006  30.680  1.00  0.00     0.163 HD
ATOM     44  O   UNL A   1      32.905  34.626  33.090  1.00  0.00    -0.269 OA
BRANCH  42  45
ATOM     45  C   UNL A   1      35.126  33.974  32.695  1.00  0.00     0.039 A 
ATOM     46  C   UNL A   1      36.178  34.868  32.483  1.00  0.00     0.014 A 
ATOM     47  C   UNL A   1      35.381  32.655  33.065  1.00  0.00     0.014 A 
ATOM     48  C   UNL A   1      37.478  34.375  32.393  1.00  0.00     0.010 A 
ATOM     49  C   UNL A   1      36.653  32.148  32.887  1.00  0.00     0.010 A 
ATOM     50  C   UNL A   1      37.687  32.997  32.486  1.00  0.00    -0.014 A 
BRANCH  50  51
ATOM     51  C   UNL A   1      38.937  32.369  32.084  1.00  0.00     0.031 A 
ATOM     52  C   UNL A   1      38.924  31.192  31.195  1.00  0.00     0.074 A 
ATOM     53  C   UNL A   1      40.120  32.839  32.541  1.00  0.00     0.049 A 
ATOM     54  N   UNL A   1      39.749  30.205  31.309  1.00  0.00    -0.248 NA
ATOM     55  C   UNL A   1      37.956  31.026  30.116  1.00  0.00     0.031 C 
ATOM     56  C   UNL A   1      41.451  32.404  32.126  1.00  0.00     0.029 A 
ATOM     57  N   UNL A   1      40.351  33.680  33.641  1.00  0.00    -0.354 N 
ATOM     58  C   UNL A   1      39.599  29.420  30.194  1.00  0.00     0.074 A 
ATOM     59  C   UNL A   1      38.424  29.924  29.519  1.00  0.00     0.031 C 
ATOM     60  C   UNL A   1      42.323  32.700  33.102  1.00  0.00     0.029 A 
ATOM     61  C   UNL A   1      41.564  33.238  34.216  1.00  0.00     0.049 A 
ATOM     62  H   UNL A   1      39.785  34.425  33.949  1.00  0.00     0.167 HD
ATOM     63  C   UNL A   1      40.559  28.515  29.859  1.00  0.00     0.037 A 
ATOM     64  C   UNL A   1      41.634  32.798  35.502  1.00  0.00     0.037 A 
ATOM     65  C   UNL A   1      41.686  28.546  30.780  1.00  0.00     0.049 A 
ATOM     66  C   UNL A   1      42.126  31.379  35.638  1.00  0.00     0.074 A 
ATOM     67  C   UNL A   1      42.905  29.201  30.726  1.00  0.00     0.029 A 
ATOM     68  N   UNL A   1      41.522  28.132  32.097  1.00  0.00    -0.354 N 
ATOM     69  N   UNL A   1      42.133  30.521  34.657  1.00  0.00    -0.248 NA
ATOM     70  C   UNL A   1      42.617  30.803  36.887  1.00  0.00     0.031 C 
ATOM     71  C   UNL A   1      43.464  29.209  32.022  1.00  0.00     0.029 A 
ATOM     72  C   UNL A   1      42.594  28.543  32.867  1.00  0.00     0.049 A 
ATOM     73  H   UNL A   1      40.752  27.619  32.435  1.00  0.00     0.167 HD
ATOM     74  C   UNL A   1      42.596  29.311  35.109  1.00  0.00     0.074 A 
ATOM     75  C   UNL A   1      42.901  29.544  36.508  1.00  0.00     0.031 C 
ATOM     76  C   UNL A   1      42.683  28.226  34.283  1.00  0.00     0.037 A 
BRANCH  63  77
ATOM     77  C   UNL A   1      40.574  27.856  28.508  1.00  0.00     0.064 A 
ATOM     78  C   UNL A   1      39.915  26.634  28.273  1.00  0.00     0.173 A 
ATOM     79  C   UNL A   1      41.292  28.380  27.418  1.00  0.00     0.173 A 
ATOM     80  F   UNL A   1      39.148  26.060  29.207  1.00  0.00    -0.203 F 
ATOM     81  C   UNL A   1      40.047  25.939  27.070  1.00  0.00     0.198 A 
ATOM     82  C   UNL A   1      41.461  27.662  26.230  1.00  0.00     0.198 A 
ATOM     83  F   UNL A   1      41.854  29.596  27.490  1.00  0.00    -0.203 F 
ATOM     84  F   UNL A   1      39.415  24.768  26.906  1.00  0.00    -0.200 F 
ATOM     85  C   UNL A   1      40.847  26.436  26.061  1.00  0.00     0.200 A 
ATOM     86  F   UNL A   1      42.242  28.157  25.259  1.00  0.00    -0.200 F 
ATOM     87  F   UNL A   1      41.022  25.739  24.930  1.00  0.00    -0.200 F 
ENDBRANCH  63  77
BRANCH  64  88
ATOM     88  C   UNL A   1      40.673  33.475  36.405  1.00  0.00     0.064 A 
ATOM     89  C   UNL A   1      39.460  32.818  36.683  1.00  0.00     0.173 A 
ATOM     90  C   UNL A   1      41.071  34.497  37.273  1.00  0.00     0.173 A 
ATOM     91  F   UNL A   1      39.031  31.835  35.875  1.00  0.00    -0.203 F 
ATOM     92  C   UNL A   1      38.744  33.080  37.848  1.00  0.00     0.198 A 
ATOM     93  C   UNL A   1      40.341  34.770  38.432  1.00  0.00     0.198 A 
ATOM     94  F   UNL A   1      42.222  35.152  37.066  1.00  0.00    -0.203 F 
ATOM     95  F   UNL A   1      37.656  32.355  38.144  1.00  0.00    -0.200 F 
ATOM     96  C   UNL A   1      39.204  34.035  38.739  1.00  0.00     0.200 A 
ATOM     97  F   UNL A   1      40.784  35.695  39.296  1.00  0.00    -0.200 F 
ATOM     98  F   UNL A   1      38.571  34.222  39.906  1.00  0.00    -0.200 F 
ENDBRANCH  64  88
BRANCH  76  99
ATOM     99  C   UNL A   1      42.980  26.799  34.684  1.00  0.00     0.064 A 
ATOM    100  C   UNL A   1      42.120  26.001  35.454  1.00  0.00     0.173 A 
ATOM    101  C   UNL A   1      44.121  26.134  34.165  1.00  0.00     0.173 A 
ATOM    102  F   UNL A   1      40.952  26.470  35.908  1.00  0.00    -0.203 F 
ATOM    103  C   UNL A   1      42.407  24.660  35.734  1.00  0.00     0.198 A 
ATOM    104  C   UNL A   1      44.373  24.783  34.397  1.00  0.00     0.198 A 
ATOM    105  F   UNL A   1      45.015  26.768  33.392  1.00  0.00    -0.203 F 
ATOM    106  F   UNL A   1      41.574  23.952  36.508  1.00  0.00    -0.200 F 
ATOM    107  C   UNL A   1      43.525  24.049  35.196  1.00  0.00     0.200 A 
ATOM    108  F   UNL A   1      45.433  24.196  33.823  1.00  0.00    -0.200 F 
ATOM    109  F   UNL A   1      43.769  22.752  35.428  1.00  0.00    -0.200 F 
ENDBRANCH  76  99
ENDBRANCH  50  51
ENDBRANCH  42  45
ENDBRANCH  40  41
ENDBRANCH  39  40
ENDBRANCH  38  39
ENDBRANCH  37  38
ENDBRANCH   1  37
TORSDOF 18
ENDMDL
MODEL 3
REMARK VINA RESULT:     -13.2      1.741      4.622
REMARK SMILES Cc1ccc(-c2csc(NC(=O)[C@H]3[C@@H](C(=O)NCCCCCCNC(=O)c4ccc(-c5c6nc(c(-c7c(F)c(F)c(F)c(F)c7F)c7ccc([nH]7)c(-c7c(F)c(F)c(F)c(F)c7F)c7nc(c(-c8c(F)c(F)c(F)c(F)c8F)c8ccc5[nH]8)C=C7)C=C6)cc4)[C@H]4C=C[C@@H]3C4)c2C(=O)NC2CC2)cc1
REMARK SMILES IDX 19 1 18 2 17 3 15 4 16 5 14 7 13 8 93 9 90 10 92 11 94 12
REMARK SMILES IDX 91 13 11 14 10 15 12 17 9 18 6 19 7 20 95 21 8 22 5 23 1 24
REMARK SMILES IDX 2 25 3 26 103 27 4 28 102 29 96 30 97 31 98 32 99 34 100 35
REMARK SMILES IDX 101 36 20 37 21 38 22 39 23 40 24 41 25 42 26 44 27 45 28 46
REMARK SMILES IDX 89 47 29 48 88 49 30 50 31 51 32 52 82 53 33 54 87 55 81 56
REMARK SMILES IDX 83 57 34 58 86 59 80 60 79 61 35 63 67 64 47 65 66 66 48 67
REMARK SMILES IDX 51 68 65 69 84 70 49 71 50 72 64 74 85 75 52 76 36 77 37 78
REMARK SMILES IDX 45 79 38 80 39 81 43 82 46 83 40 84 41 85 44 86 42 87 68 88
REMARK SMILES IDX 69 89 77 90 70 91 71 92 75 93 78 94 72 95 73 96 76 97 74 98
REMARK SMILES IDX 53 99 54 100 62 101 55 102 56 103 60 104 63 105 57 106
REMARK SMILES IDX 58 107 61 108 59 109
REMARK H PARENT 17 6 10 16 98 33 24 43 83 62 51 73
REMARK Flexibility Score: inf
ROOT
ATOM      1  C   UNL A   1      33.412  28.274  24.251  1.00  0.00     0.021 C 
ENDROOT
BRANCH   1   2
ATOM      2  C   UNL A   1      34.241  26.996  24.124  1.00  0.00     0.116 C 
BRANCH   2   3
ATOM      3  N   UNL A   1      34.100  26.142  25.284  1.00  0.00    -0.356 N 
ATOM      4  C   UNL A   1      34.348  24.814  25.455  1.00  0.00     0.224 C 
ATOM      5  O   UNL A   1      34.133  24.348  26.575  1.00  0.00    -0.275 OA
ATOM      6  H   UNL A   1      33.766  26.601  26.089  1.00  0.00     0.163 HD
BRANCH   4   7
ATOM      7  C   UNL A   1      34.965  24.000  24.316  1.00  0.00     0.098 C 
ATOM      8  C   UNL A   1      34.470  22.513  24.099  1.00  0.00     0.099 C 
ATOM      9  C   UNL A   1      35.789  21.721  24.314  1.00  0.00     0.025 C 
ATOM     10  C   UNL A   1      36.496  23.825  24.553  1.00  0.00     0.025 C 
ATOM     11  C   UNL A   1      36.281  21.862  25.728  1.00  0.00    -0.027 C 
ATOM     12  C   UNL A   1      36.796  22.656  23.620  1.00  0.00     0.017 C 
ATOM     13  C   UNL A   1      36.742  23.113  25.863  1.00  0.00    -0.027 C 
BRANCH   8  14
ATOM     14  C   UNL A   1      33.203  22.148  24.876  1.00  0.00     0.229 C 
ATOM     15  N   UNL A   1      31.967  22.597  24.516  1.00  0.00    -0.317 N 
ATOM     16  H   UNL A   1      31.221  22.002  24.756  1.00  0.00     0.170 HD
ATOM     17  O   UNL A   1      33.279  21.472  25.909  1.00  0.00    -0.274 OA
BRANCH  15  18
ATOM     18  C   UNL A   1      31.602  23.759  23.865  1.00  0.00     0.108 A 
ATOM     19  C   UNL A   1      30.698  25.833  23.337  1.00  0.00     0.007 A 
ATOM     20  C   UNL A   1      31.200  25.400  22.119  1.00  0.00     0.076 A 
ATOM     21  C   UNL A   1      31.001  24.896  24.411  1.00  0.00     0.082 A 
ATOM     22  S   UNL A   1      32.103  23.973  22.254  1.00  0.00    -0.125 S 
BRANCH  19  23
ATOM     23  C   UNL A   1      30.005  27.116  23.339  1.00  0.00    -0.017 A 
ATOM     24  C   UNL A   1      27.719  30.705  22.735  1.00  0.00     0.044 C 
ATOM     25  C   UNL A   1      28.527  29.492  23.090  1.00  0.00    -0.051 A 
ATOM     26  C   UNL A   1      27.871  28.283  23.331  1.00  0.00     0.004 A 
ATOM     27  C   UNL A   1      29.930  29.516  23.061  1.00  0.00     0.004 A 
ATOM     28  C   UNL A   1      28.606  27.113  23.482  1.00  0.00     0.009 A 
ATOM     29  C   UNL A   1      30.671  28.331  23.184  1.00  0.00     0.009 A 
ENDBRANCH  19  23
BRANCH  21  30
ATOM     30  C   UNL A   1      30.577  24.857  25.815  1.00  0.00     0.255 C 
ATOM     31  O   UNL A   1      30.164  23.793  26.292  1.00  0.00    -0.269 OA
ATOM     32  N   UNL A   1      30.691  25.872  26.735  1.00  0.00    -0.349 N 
ATOM     33  H   UNL A   1      30.363  25.579  27.616  1.00  0.00     0.164 HD
BRANCH  32  34
ATOM     34  C   UNL A   1      31.142  27.218  26.793  1.00  0.00     0.082 C 
ATOM     35  C   UNL A   1      30.969  28.235  27.863  1.00  0.00     0.027 C 
ATOM     36  C   UNL A   1      32.285  27.522  27.719  1.00  0.00     0.027 C 
ENDBRANCH  32  34
ENDBRANCH  21  30
ENDBRANCH  15  18
ENDBRANCH   8  14
ENDBRANCH   4   7
ENDBRANCH   2   3
ENDBRANCH   1   2
BRANCH   1  37
ATOM     37  C   UNL A   1      33.919  29.304  25.270  1.00  0.00     0.002 C 
BRANCH  37  38
ATOM     38  C   UNL A   1      32.897  30.328  25.790  1.00  0.00     0.002 C 
BRANCH  38  39
ATOM     39  C   UNL A   1      33.282  31.095  27.056  1.00  0.00     0.021 C 
BRANCH  39  40
ATOM     40  C   UNL A   1      34.310  30.395  27.930  1.00  0.00     0.116 C 
BRANCH  40  41
ATOM     41  N   UNL A   1      35.002  31.265  28.871  1.00  0.00    -0.352 N 
ATOM     42  C   UNL A   1      36.215  31.051  29.511  1.00  0.00     0.251 C 
ATOM     43  H   UNL A   1      34.552  32.115  29.080  1.00  0.00     0.163 HD
ATOM     44  O   UNL A   1      36.658  31.859  30.307  1.00  0.00    -0.269 OA
BRANCH  42  45
ATOM     45  C   UNL A   1      37.023  29.875  29.107  1.00  0.00     0.039 A 
ATOM     46  C   UNL A   1      37.426  28.988  30.109  1.00  0.00     0.014 A 
ATOM     47  C   UNL A   1      37.566  29.791  27.827  1.00  0.00     0.014 A 
ATOM     48  C   UNL A   1      38.549  28.191  29.897  1.00  0.00     0.010 A 
ATOM     49  C   UNL A   1      38.730  29.071  27.644  1.00  0.00     0.010 A 
ATOM     50  C   UNL A   1      39.257  28.324  28.700  1.00  0.00    -0.014 A 
BRANCH  50  51
ATOM     51  C   UNL A   1      40.600  27.790  28.525  1.00  0.00     0.031 A 
ATOM     52  C   UNL A   1      40.796  26.365  28.203  1.00  0.00     0.074 A 
ATOM     53  C   UNL A   1      41.681  28.587  28.682  1.00  0.00     0.049 A 
ATOM     54  N   UNL A   1      41.771  25.658  28.669  1.00  0.00    -0.248 NA
ATOM     55  C   UNL A   1      39.886  25.615  27.344  1.00  0.00     0.031 C 
ATOM     56  C   UNL A   1      43.072  28.234  28.411  1.00  0.00     0.029 A 
ATOM     57  N   UNL A   1      41.753  29.835  29.322  1.00  0.00    -0.354 N 
ATOM     58  C   UNL A   1      41.770  24.467  27.988  1.00  0.00     0.074 A 
ATOM     59  C   UNL A   1      40.538  24.453  27.230  1.00  0.00     0.031 C 
ATOM     60  C   UNL A   1      43.868  29.042  29.129  1.00  0.00     0.029 A 
ATOM     61  C   UNL A   1      43.013  29.868  29.961  1.00  0.00     0.049 A 
ATOM     62  H   UNL A   1      41.066  30.541  29.326  1.00  0.00     0.167 HD
ATOM     63  C   UNL A   1      42.872  23.668  28.004  1.00  0.00     0.037 A 
ATOM     64  C   UNL A   1      43.135  30.020  31.309  1.00  0.00     0.037 A 
ATOM     65  C   UNL A   1      43.963  24.256  28.767  1.00  0.00     0.049 A 
ATOM     66  C   UNL A   1      43.853  28.883  31.991  1.00  0.00     0.074 A 
ATOM     67  C   UNL A   1      45.058  25.011  28.380  1.00  0.00     0.029 A 
ATOM     68  N   UNL A   1      43.849  24.407  30.144  1.00  0.00    -0.354 N 
ATOM     69  N   UNL A   1      44.017  27.707  31.453  1.00  0.00    -0.248 NA
ATOM     70  C   UNL A   1      44.412  28.964  33.336  1.00  0.00     0.031 C 
ATOM     71  C   UNL A   1      45.587  25.645  29.525  1.00  0.00     0.029 A 
ATOM     72  C   UNL A   1      44.826  25.263  30.615  1.00  0.00     0.049 A 
ATOM     73  H   UNL A   1      43.170  23.967  30.705  1.00  0.00     0.167 HD
ATOM     74  C   UNL A   1      44.666  26.884  32.337  1.00  0.00     0.074 A 
ATOM     75  C   UNL A   1      44.906  27.723  33.496  1.00  0.00     0.031 C 
ATOM     76  C   UNL A   1      44.945  25.582  32.030  1.00  0.00     0.037 A 
BRANCH  63  77
ATOM     77  C   UNL A   1      43.017  22.518  27.047  1.00  0.00     0.064 A 
ATOM     78  C   UNL A   1      42.298  21.318  27.216  1.00  0.00     0.173 A 
ATOM     79  C   UNL A   1      43.917  22.541  25.966  1.00  0.00     0.173 A 
ATOM     80  F   UNL A   1      41.367  21.187  28.168  1.00  0.00    -0.203 F 
ATOM     81  C   UNL A   1      42.535  20.193  26.425  1.00  0.00     0.198 A 
ATOM     82  C   UNL A   1      44.187  21.400  25.204  1.00  0.00     0.198 A 
ATOM     83  F   UNL A   1      44.561  23.671  25.636  1.00  0.00    -0.203 F 
ATOM     84  F   UNL A   1      41.839  19.068  26.643  1.00  0.00    -0.200 F 
ATOM     85  C   UNL A   1      43.504  20.223  25.441  1.00  0.00     0.200 A 
ATOM     86  F   UNL A   1      45.130  21.444  24.252  1.00  0.00    -0.200 F 
ATOM     87  F   UNL A   1      43.773  19.124  24.723  1.00  0.00    -0.200 F 
ENDBRANCH  63  77
BRANCH  64  88
ATOM     88  C   UNL A   1      42.060  30.851  31.902  1.00  0.00     0.064 A 
ATOM     89  C   UNL A   1      42.155  32.248  31.756  1.00  0.00     0.173 A 
ATOM     90  C   UNL A   1      40.809  30.316  32.228  1.00  0.00     0.173 A 
ATOM     91  F   UNL A   1      43.336  32.810  31.452  1.00  0.00    -0.203 F 
ATOM     92  C   UNL A   1      41.025  33.060  31.804  1.00  0.00     0.198 A 
ATOM     93  C   UNL A   1      39.680  31.136  32.292  1.00  0.00     0.198 A 
ATOM     94  F   UNL A   1      40.655  28.993  32.369  1.00  0.00    -0.203 F 
ATOM     95  F   UNL A   1      41.131  34.371  31.544  1.00  0.00    -0.200 F 
ATOM     96  C   UNL A   1      39.783  32.498  32.040  1.00  0.00     0.200 A 
ATOM     97  F   UNL A   1      38.476  30.594  32.521  1.00  0.00    -0.200 F 
ATOM     98  F   UNL A   1      38.682  33.261  31.991  1.00  0.00    -0.200 F 
ENDBRANCH  64  88
BRANCH  76  99
ATOM     99  C   UNL A   1      45.467  24.518  32.967  1.00  0.00     0.064 A 
ATOM    100  C   UNL A   1      46.729  24.557  33.581  1.00  0.00     0.173 A 
ATOM    101  C   UNL A   1      44.620  23.461  33.390  1.00  0.00     0.173 A 
ATOM    102  F   UNL A   1      47.581  25.564  33.360  1.00  0.00    -0.203 F 
ATOM    103  C   UNL A   1      47.134  23.584  34.501  1.00  0.00     0.198 A 
ATOM    104  C   UNL A   1      45.006  22.528  34.350  1.00  0.00     0.198 A 
ATOM    105  F   UNL A   1      43.378  23.316  32.904  1.00  0.00    -0.203 F 
ATOM    106  F   UNL A   1      48.364  23.644  35.029  1.00  0.00    -0.200 F 
ATOM    107  C   UNL A   1      46.270  22.578  34.894  1.00  0.00     0.200 A 
ATOM    108  F   UNL A   1      44.135  21.593  34.756  1.00  0.00    -0.200 F 
ATOM    109  F   UNL A   1      46.647  21.677  35.811  1.00  0.00    -0.200 F 
ENDBRANCH  76  99
ENDBRANCH  50  51
ENDBRANCH  42  45
ENDBRANCH  40  41
ENDBRANCH  39  40
ENDBRANCH  38  39
ENDBRANCH  37  38
ENDBRANCH   1  37
TORSDOF 18
ENDMDL
