MODEL 1
REMARK VINA RESULT:     -12.3      0.000      0.000
REMARK SMILES CC[C@@H](C)[C@@H](C(=O)NCCCCCCNC(=O)c1ccc(-c2c3nc(c(-c4c(F)c(F)c(F)c(F)c4F)c4ccc([nH]4)c(-c4c(F)c(F)c(F)c(F)c4F)c4nc(c(-c5c(F)c(F)c(F)c(F)c5F)c5ccc2[nH]5)C=C4)C=C3)cc1)N1C(=O)/C(=C/c2ccc(O)cc2)SC1=S
REMARK SMILES IDX 11 1 10 2 9 3 8 4 6 5 7 6 5 8 3 9 4 10 2 11 1 12 81 13 82 14
REMARK SMILES IDX 94 15 83 16 84 17 93 18 95 19 85 20 86 21 87 22 92 23 88 24
REMARK SMILES IDX 91 25 89 26 90 27 12 29 13 30 14 31 15 32 16 33 17 35 18 36
REMARK SMILES IDX 19 37 80 38 20 39 79 40 21 41 22 42 23 43 73 44 24 45 78 46
REMARK SMILES IDX 72 47 74 48 25 49 77 50 71 51 70 52 26 54 58 55 38 56 57 57
REMARK SMILES IDX 39 58 42 59 56 60 75 61 40 62 41 63 55 65 76 66 43 67 27 68
REMARK SMILES IDX 28 69 36 70 29 71 30 72 34 73 37 74 31 75 32 76 35 77 33 78
REMARK SMILES IDX 59 79 60 80 68 81 61 82 62 83 66 84 69 85 63 86 64 87 67 88
REMARK SMILES IDX 65 89 44 90 45 91 53 92 46 93 47 94 51 95 54 96 48 97 49 98
REMARK SMILES IDX 52 99 50 100
REMARK H PARENT 8 7 90 28 15 34 74 53 42 64
REMARK Flexibility Score: inf
ROOT
ATOM      1  C   UNL A   1      32.782  30.111  26.030  1.00  0.00     0.002 C 
ENDROOT
BRANCH   1   2
ATOM      2  C   UNL A   1      33.172  29.197  27.193  1.00  0.00     0.021 C 
BRANCH   2   3
ATOM      3  C   UNL A   1      32.573  27.786  27.125  1.00  0.00     0.116 C 
BRANCH   3   4
ATOM      4  N   UNL A   1      33.425  26.929  26.319  1.00  0.00    -0.354 N 
ATOM      5  C   UNL A   1      33.116  25.730  25.738  1.00  0.00     0.243 C 
ATOM      6  O   UNL A   1      34.007  24.877  25.686  1.00  0.00    -0.273 OA
ATOM      7  H   UNL A   1      34.343  27.252  26.172  1.00  0.00     0.163 HD
BRANCH   5   8
ATOM      8  C   UNL A   1      31.688  25.457  25.173  1.00  0.00     0.184 C 
BRANCH   8   9
ATOM      9  C   UNL A   1      31.771  23.998  24.543  1.00  0.00     0.018 C 
ATOM     10  C   UNL A   1      30.901  23.717  23.318  1.00  0.00     0.010 C 
BRANCH   9  11
ATOM     11  C   UNL A   1      31.479  22.951  25.648  1.00  0.00     0.002 C 
ATOM     12  C   UNL A   1      30.392  23.313  26.650  1.00  0.00     0.004 C 
ENDBRANCH   9  11
ENDBRANCH   8   9
BRANCH   8  13
ATOM     13  N   UNL A   1      31.226  26.515  24.213  1.00  0.00    -0.280 N 
ATOM     14  C   UNL A   1      29.902  26.916  24.108  1.00  0.00     0.266 C 
ATOM     15  C   UNL A   1      32.001  27.017  23.186  1.00  0.00     0.149 C 
ATOM     16  O   UNL A   1      28.905  26.283  24.420  1.00  0.00    -0.268 OA
ATOM     17  C   UNL A   1      29.796  28.181  23.325  1.00  0.00     0.081 C 
ATOM     18  S   UNL A   1      31.303  28.520  22.591  1.00  0.00    -0.054 SA
ATOM     19  S   UNL A   1      33.367  26.356  22.483  1.00  0.00    -0.052 S 
ATOM     20  C   UNL A   1      28.648  28.875  23.271  1.00  0.00     0.029 C 
BRANCH  20  21
ATOM     21  C   UNL A   1      28.401  30.164  22.608  1.00  0.00    -0.024 A 
ATOM     22  C   UNL A   1      28.063  30.160  21.247  1.00  0.00     0.012 A 
ATOM     23  C   UNL A   1      28.527  31.395  23.265  1.00  0.00     0.012 A 
ATOM     24  C   UNL A   1      27.801  31.355  20.573  1.00  0.00     0.047 A 
ATOM     25  C   UNL A   1      28.254  32.593  22.596  1.00  0.00     0.047 A 
ATOM     26  C   UNL A   1      27.884  32.561  21.257  1.00  0.00     0.115 A 
BRANCH  26  27
ATOM     27  O   UNL A   1      27.591  33.702  20.572  1.00  0.00    -0.508 OA
ATOM     28  H   UNL A   1      28.272  34.179  20.141  1.00  0.00     0.293 HD
ENDBRANCH  26  27
ENDBRANCH  20  21
ENDBRANCH   8  13
ENDBRANCH   5   8
ENDBRANCH   3   4
ENDBRANCH   2   3
ENDBRANCH   1   2
BRANCH   1  29
ATOM     29  C   UNL A   1      31.380  30.718  26.124  1.00  0.00     0.002 C 
BRANCH  29  30
ATOM     30  C   UNL A   1      31.314  32.192  26.538  1.00  0.00     0.021 C 
BRANCH  30  31
ATOM     31  C   UNL A   1      32.633  32.817  26.992  1.00  0.00     0.116 C 
BRANCH  31  32
ATOM     32  N   UNL A   1      32.451  34.115  27.616  1.00  0.00    -0.352 N 
ATOM     33  C   UNL A   1      33.105  34.679  28.683  1.00  0.00     0.251 C 
ATOM     34  H   UNL A   1      31.751  34.677  27.212  1.00  0.00     0.163 HD
ATOM     35  O   UNL A   1      32.699  35.734  29.162  1.00  0.00    -0.269 OA
BRANCH  33  36
ATOM     36  C   UNL A   1      34.288  34.019  29.280  1.00  0.00     0.039 A 
ATOM     37  C   UNL A   1      34.081  32.989  30.204  1.00  0.00     0.014 A 
ATOM     38  C   UNL A   1      35.588  34.437  28.982  1.00  0.00     0.014 A 
ATOM     39  C   UNL A   1      35.175  32.347  30.790  1.00  0.00     0.010 A 
ATOM     40  C   UNL A   1      36.680  33.762  29.527  1.00  0.00     0.010 A 
ATOM     41  C   UNL A   1      36.484  32.716  30.442  1.00  0.00    -0.014 A 
BRANCH  41  42
ATOM     42  C   UNL A   1      37.653  32.027  31.045  1.00  0.00     0.031 A 
ATOM     43  C   UNL A   1      38.117  32.392  32.428  1.00  0.00     0.074 A 
ATOM     44  C   UNL A   1      38.328  31.106  30.332  1.00  0.00     0.049 A 
ATOM     45  N   UNL A   1      39.142  31.940  33.105  1.00  0.00    -0.248 NA
ATOM     46  C   UNL A   1      37.335  33.419  33.135  1.00  0.00     0.031 C 
ATOM     47  C   UNL A   1      38.006  30.694  28.966  1.00  0.00     0.029 A 
ATOM     48  N   UNL A   1      39.431  30.356  30.655  1.00  0.00    -0.354 N 
ATOM     49  C   UNL A   1      39.141  32.637  34.305  1.00  0.00     0.074 A 
ATOM     50  C   UNL A   1      38.035  33.570  34.250  1.00  0.00     0.031 C 
ATOM     51  C   UNL A   1      38.881  29.754  28.573  1.00  0.00     0.029 A 
ATOM     52  C   UNL A   1      39.838  29.515  29.650  1.00  0.00     0.049 A 
ATOM     53  H   UNL A   1      39.887  30.417  31.526  1.00  0.00     0.167 HD
ATOM     54  C   UNL A   1      39.975  32.501  35.363  1.00  0.00     0.037 A 
ATOM     55  C   UNL A   1      40.868  28.647  29.604  1.00  0.00     0.037 A 
ATOM     56  C   UNL A   1      41.052  31.550  35.434  1.00  0.00     0.049 A 
ATOM     57  C   UNL A   1      41.758  28.491  30.805  1.00  0.00     0.074 A 
ATOM     58  C   UNL A   1      41.916  31.299  36.486  1.00  0.00     0.029 A 
ATOM     59  N   UNL A   1      41.410  30.687  34.409  1.00  0.00    -0.354 N 
ATOM     60  N   UNL A   1      41.713  29.117  31.955  1.00  0.00    -0.248 NA
ATOM     61  C   UNL A   1      42.838  27.499  30.705  1.00  0.00     0.031 C 
ATOM     62  C   UNL A   1      42.814  30.302  36.089  1.00  0.00     0.029 A 
ATOM     63  C   UNL A   1      42.487  29.909  34.801  1.00  0.00     0.049 A 
ATOM     64  H   UNL A   1      40.964  30.636  33.533  1.00  0.00     0.167 HD
ATOM     65  C   UNL A   1      42.737  28.581  32.722  1.00  0.00     0.074 A 
ATOM     66  C   UNL A   1      43.383  27.569  31.912  1.00  0.00     0.031 C 
ATOM     67  C   UNL A   1      43.109  28.899  33.986  1.00  0.00     0.037 A 
BRANCH  54  68
ATOM     68  C   UNL A   1      39.749  33.404  36.540  1.00  0.00     0.064 A 
ATOM     69  C   UNL A   1      40.379  34.653  36.637  1.00  0.00     0.173 A 
ATOM     70  C   UNL A   1      38.868  33.029  37.566  1.00  0.00     0.173 A 
ATOM     71  F   UNL A   1      41.239  35.050  35.687  1.00  0.00    -0.203 F 
ATOM     72  C   UNL A   1      40.155  35.483  37.731  1.00  0.00     0.198 A 
ATOM     73  C   UNL A   1      38.629  33.873  38.646  1.00  0.00     0.198 A 
ATOM     74  F   UNL A   1      38.238  31.846  37.517  1.00  0.00    -0.203 F 
ATOM     75  F   UNL A   1      40.801  36.654  37.825  1.00  0.00    -0.200 F 
ATOM     76  C   UNL A   1      39.277  35.096  38.732  1.00  0.00     0.200 A 
ATOM     77  F   UNL A   1      37.773  33.501  39.609  1.00  0.00    -0.200 F 
ATOM     78  F   UNL A   1      39.061  35.898  39.783  1.00  0.00    -0.200 F 
ENDBRANCH  54  68
BRANCH  55  79
ATOM     79  C   UNL A   1      41.087  27.829  28.386  1.00  0.00     0.064 A 
ATOM     80  C   UNL A   1      40.455  26.588  28.234  1.00  0.00     0.173 A 
ATOM     81  C   UNL A   1      41.927  28.269  27.353  1.00  0.00     0.173 A 
ATOM     82  F   UNL A   1      39.660  26.118  29.206  1.00  0.00    -0.203 F 
ATOM     83  C   UNL A   1      40.666  25.808  27.099  1.00  0.00     0.198 A 
ATOM     84  C   UNL A   1      42.120  27.498  26.208  1.00  0.00     0.198 A 
ATOM     85  F   UNL A   1      42.551  29.452  27.453  1.00  0.00    -0.203 F 
ATOM     86  F   UNL A   1      40.078  24.609  26.994  1.00  0.00    -0.200 F 
ATOM     87  C   UNL A   1      41.495  26.267  26.085  1.00  0.00     0.200 A 
ATOM     88  F   UNL A   1      42.913  27.947  25.227  1.00  0.00    -0.200 F 
ATOM     89  F   UNL A   1      41.694  25.518  24.991  1.00  0.00    -0.200 F 
ENDBRANCH  55  79
BRANCH  67  90
ATOM     90  C   UNL A   1      44.246  28.123  34.581  1.00  0.00     0.064 A 
ATOM     91  C   UNL A   1      45.572  28.559  34.459  1.00  0.00     0.173 A 
ATOM     92  C   UNL A   1      43.999  26.950  35.310  1.00  0.00     0.173 A 
ATOM     93  F   UNL A   1      45.858  29.666  33.757  1.00  0.00    -0.203 F 
ATOM     94  C   UNL A   1      46.616  27.836  35.030  1.00  0.00     0.198 A 
ATOM     95  C   UNL A   1      45.043  26.242  35.898  1.00  0.00     0.198 A 
ATOM     96  F   UNL A   1      42.747  26.497  35.457  1.00  0.00    -0.203 F 
ATOM     97  F   UNL A   1      47.881  28.249  34.869  1.00  0.00    -0.200 F 
ATOM     98  C   UNL A   1      46.350  26.682  35.754  1.00  0.00     0.200 A 
ATOM     99  F   UNL A   1      44.785  25.132  36.603  1.00  0.00    -0.200 F 
ATOM    100  F   UNL A   1      47.357  25.989  36.305  1.00  0.00    -0.200 F 
ENDBRANCH  67  90
ENDBRANCH  41  42
ENDBRANCH  33  36
ENDBRANCH  31  32
ENDBRANCH  30  31
ENDBRANCH  29  30
ENDBRANCH   1  29
TORSDOF 18
ENDMDL
MODEL 2
REMARK VINA RESULT:     -12.3      0.143      1.625
REMARK SMILES CC[C@@H](C)[C@@H](C(=O)NCCCCCCNC(=O)c1ccc(-c2c3nc(c(-c4c(F)c(F)c(F)c(F)c4F)c4ccc([nH]4)c(-c4c(F)c(F)c(F)c(F)c4F)c4nc(c(-c5c(F)c(F)c(F)c(F)c5F)c5ccc2[nH]5)C=C4)C=C3)cc1)N1C(=O)/C(=C/c2ccc(O)cc2)SC1=S
REMARK SMILES IDX 11 1 10 2 9 3 8 4 6 5 7 6 5 8 3 9 4 10 2 11 1 12 81 13 82 14
REMARK SMILES IDX 94 15 83 16 84 17 93 18 95 19 85 20 86 21 87 22 92 23 88 24
REMARK SMILES IDX 91 25 89 26 90 27 12 29 13 30 14 31 15 32 16 33 17 35 18 36
REMARK SMILES IDX 19 37 80 38 20 39 79 40 21 41 22 42 23 43 73 44 24 45 78 46
REMARK SMILES IDX 72 47 74 48 25 49 77 50 71 51 70 52 26 54 58 55 38 56 57 57
REMARK SMILES IDX 39 58 42 59 56 60 75 61 40 62 41 63 55 65 76 66 43 67 27 68
REMARK SMILES IDX 28 69 36 70 29 71 30 72 34 73 37 74 31 75 32 76 35 77 33 78
REMARK SMILES IDX 59 79 60 80 68 81 61 82 62 83 66 84 69 85 63 86 64 87 67 88
REMARK SMILES IDX 65 89 44 90 45 91 53 92 46 93 47 94 51 95 54 96 48 97 49 98
REMARK SMILES IDX 52 99 50 100
REMARK H PARENT 8 7 90 28 15 34 74 53 42 64
REMARK Flexibility Score: inf
ROOT
ATOM      1  C   UNL A   1      32.532  30.145  26.014  1.00  0.00     0.002 C 
ENDROOT
BRANCH   1   2
ATOM      2  C   UNL A   1      32.768  29.289  27.259  1.00  0.00     0.021 C 
BRANCH   2   3
ATOM      3  C   UNL A   1      32.187  27.871  27.179  1.00  0.00     0.116 C 
BRANCH   3   4
ATOM      4  N   UNL A   1      33.127  26.993  26.504  1.00  0.00    -0.354 N 
ATOM      5  C   UNL A   1      32.890  25.769  25.941  1.00  0.00     0.243 C 
ATOM      6  O   UNL A   1      33.788  24.925  26.019  1.00  0.00    -0.273 OA
ATOM      7  H   UNL A   1      34.053  27.320  26.444  1.00  0.00     0.163 HD
BRANCH   5   8
ATOM      8  C   UNL A   1      31.534  25.458  25.238  1.00  0.00     0.184 C 
BRANCH   8   9
ATOM      9  C   UNL A   1      31.738  24.029  24.569  1.00  0.00     0.018 C 
ATOM     10  C   UNL A   1      31.001  23.760  23.257  1.00  0.00     0.010 C 
BRANCH   9  11
ATOM     11  C   UNL A   1      31.388  22.930  25.605  1.00  0.00     0.002 C 
ATOM     12  C   UNL A   1      30.389  23.317  26.686  1.00  0.00     0.004 C 
ENDBRANCH   9  11
ENDBRANCH   8   9
BRANCH   8  13
ATOM     13  N   UNL A   1      31.115  26.532  24.275  1.00  0.00    -0.280 N 
ATOM     14  C   UNL A   1      29.791  26.898  24.078  1.00  0.00     0.266 C 
ATOM     15  C   UNL A   1      31.951  27.087  23.326  1.00  0.00     0.149 C 
ATOM     16  O   UNL A   1      28.793  26.227  24.293  1.00  0.00    -0.268 OA
ATOM     17  C   UNL A   1      29.706  28.183  23.325  1.00  0.00     0.081 C 
ATOM     18  S   UNL A   1      31.254  28.588  22.721  1.00  0.00    -0.054 SA
ATOM     19  S   UNL A   1      33.386  26.488  22.713  1.00  0.00    -0.052 S 
ATOM     20  C   UNL A   1      28.545  28.845  23.201  1.00  0.00     0.029 C 
BRANCH  20  21
ATOM     21  C   UNL A   1      28.310  30.146  22.558  1.00  0.00    -0.024 A 
ATOM     22  C   UNL A   1      28.088  30.175  21.174  1.00  0.00     0.012 A 
ATOM     23  C   UNL A   1      28.337  31.359  23.260  1.00  0.00     0.012 A 
ATOM     24  C   UNL A   1      27.842  31.383  20.516  1.00  0.00     0.047 A 
ATOM     25  C   UNL A   1      28.080  32.568  22.606  1.00  0.00     0.047 A 
ATOM     26  C   UNL A   1      27.826  32.567  21.240  1.00  0.00     0.115 A 
BRANCH  26  27
ATOM     27  O   UNL A   1      27.552  33.720  20.566  1.00  0.00    -0.508 OA
ATOM     28  H   UNL A   1      27.342  34.502  21.038  1.00  0.00     0.293 HD
ENDBRANCH  26  27
ENDBRANCH  20  21
ENDBRANCH   8  13
ENDBRANCH   5   8
ENDBRANCH   3   4
ENDBRANCH   2   3
ENDBRANCH   1   2
BRANCH   1  29
ATOM     29  C   UNL A   1      31.186  30.872  25.971  1.00  0.00     0.002 C 
BRANCH  29  30
ATOM     30  C   UNL A   1      31.196  32.326  26.457  1.00  0.00     0.021 C 
BRANCH  30  31
ATOM     31  C   UNL A   1      32.529  32.840  26.999  1.00  0.00     0.116 C 
BRANCH  31  32
ATOM     32  N   UNL A   1      32.425  34.170  27.572  1.00  0.00    -0.352 N 
ATOM     33  C   UNL A   1      33.112  34.736  28.616  1.00  0.00     0.251 C 
ATOM     34  H   UNL A   1      31.759  34.757  27.145  1.00  0.00     0.163 HD
ATOM     35  O   UNL A   1      32.769  35.831  29.052  1.00  0.00    -0.269 OA
BRANCH  33  36
ATOM     36  C   UNL A   1      34.254  34.031  29.241  1.00  0.00     0.039 A 
ATOM     37  C   UNL A   1      35.549  34.381  28.847  1.00  0.00     0.014 A 
ATOM     38  C   UNL A   1      34.061  32.999  30.163  1.00  0.00     0.014 A 
ATOM     39  C   UNL A   1      36.650  33.732  29.411  1.00  0.00     0.010 A 
ATOM     40  C   UNL A   1      35.160  32.387  30.765  1.00  0.00     0.010 A 
ATOM     41  C   UNL A   1      36.465  32.743  30.390  1.00  0.00    -0.014 A 
BRANCH  41  42
ATOM     42  C   UNL A   1      37.628  32.061  31.011  1.00  0.00     0.031 A 
ATOM     43  C   UNL A   1      38.078  32.440  32.395  1.00  0.00     0.074 A 
ATOM     44  C   UNL A   1      38.310  31.132  30.315  1.00  0.00     0.049 A 
ATOM     45  N   UNL A   1      39.096  31.995  33.087  1.00  0.00    -0.248 NA
ATOM     46  C   UNL A   1      37.290  33.474  33.083  1.00  0.00     0.031 C 
ATOM     47  C   UNL A   1      38.001  30.705  28.950  1.00  0.00     0.029 A 
ATOM     48  N   UNL A   1      39.410  30.385  30.657  1.00  0.00    -0.354 N 
ATOM     49  C   UNL A   1      39.083  32.704  34.279  1.00  0.00     0.074 A 
ATOM     50  C   UNL A   1      37.979  33.637  34.205  1.00  0.00     0.031 C 
ATOM     51  C   UNL A   1      38.881  29.761  28.576  1.00  0.00     0.029 A 
ATOM     52  C   UNL A   1      39.827  29.534  29.665  1.00  0.00     0.049 A 
ATOM     53  H   UNL A   1      39.857  30.455  31.532  1.00  0.00     0.167 HD
ATOM     54  C   UNL A   1      39.907  32.579  35.348  1.00  0.00     0.037 A 
ATOM     55  C   UNL A   1      40.856  28.665  29.639  1.00  0.00     0.037 A 
ATOM     56  C   UNL A   1      40.983  31.629  35.440  1.00  0.00     0.049 A 
ATOM     57  C   UNL A   1      41.735  28.522  30.850  1.00  0.00     0.074 A 
ATOM     58  C   UNL A   1      41.836  31.389  36.503  1.00  0.00     0.029 A 
ATOM     59  N   UNL A   1      41.351  30.756  34.427  1.00  0.00    -0.354 N 
ATOM     60  N   UNL A   1      41.678  29.159  31.993  1.00  0.00    -0.248 NA
ATOM     61  C   UNL A   1      42.815  27.528  30.771  1.00  0.00     0.031 C 
ATOM     62  C   UNL A   1      42.738  30.388  36.125  1.00  0.00     0.029 A 
ATOM     63  C   UNL A   1      42.424  29.981  34.838  1.00  0.00     0.049 A 
ATOM     64  H   UNL A   1      40.914  30.695  33.547  1.00  0.00     0.167 HD
ATOM     65  C   UNL A   1      42.694  28.632  32.776  1.00  0.00     0.074 A 
ATOM     66  C   UNL A   1      43.348  27.611  31.982  1.00  0.00     0.031 C 
ATOM     67  C   UNL A   1      43.054  28.962  34.040  1.00  0.00     0.037 A 
BRANCH  54  68
ATOM     68  C   UNL A   1      39.669  33.494  36.513  1.00  0.00     0.064 A 
ATOM     69  C   UNL A   1      38.809  33.137  37.561  1.00  0.00     0.173 A 
ATOM     70  C   UNL A   1      40.333  34.728  36.596  1.00  0.00     0.173 A 
ATOM     71  F   UNL A   1      38.142  31.974  37.520  1.00  0.00    -0.203 F 
ATOM     72  C   UNL A   1      38.602  33.993  38.639  1.00  0.00     0.198 A 
ATOM     73  C   UNL A   1      40.142  35.569  37.688  1.00  0.00     0.198 A 
ATOM     74  F   UNL A   1      41.169  35.113  35.621  1.00  0.00    -0.203 F 
ATOM     75  F   UNL A   1      37.743  33.651  39.609  1.00  0.00    -0.200 F 
ATOM     76  C   UNL A   1      39.272  35.205  38.705  1.00  0.00     0.200 A 
ATOM     77  F   UNL A   1      40.797  36.737  37.754  1.00  0.00    -0.200 F 
ATOM     78  F   UNL A   1      39.074  36.026  39.745  1.00  0.00    -0.200 F 
ENDBRANCH  54  68
BRANCH  55  79
ATOM     79  C   UNL A   1      41.088  27.834  28.431  1.00  0.00     0.064 A 
ATOM     80  C   UNL A   1      41.953  28.269  27.419  1.00  0.00     0.173 A 
ATOM     81  C   UNL A   1      40.454  26.595  28.266  1.00  0.00     0.173 A 
ATOM     82  F   UNL A   1      42.564  29.458  27.526  1.00  0.00    -0.203 F 
ATOM     83  C   UNL A   1      42.165  27.502  26.276  1.00  0.00     0.198 A 
ATOM     84  C   UNL A   1      40.684  25.818  27.132  1.00  0.00     0.198 A 
ATOM     85  F   UNL A   1      39.619  26.136  29.210  1.00  0.00    -0.203 F 
ATOM     86  F   UNL A   1      42.969  27.956  25.306  1.00  0.00    -0.200 F 
ATOM     87  C   UNL A   1      41.534  26.274  26.136  1.00  0.00     0.200 A 
ATOM     88  F   UNL A   1      40.081  24.629  27.004  1.00  0.00    -0.200 F 
ATOM     89  F   UNL A   1      41.742  25.533  25.038  1.00  0.00    -0.200 F 
ENDBRANCH  55  79
BRANCH  67  90
ATOM     90  C   UNL A   1      44.185  28.193  34.654  1.00  0.00     0.064 A 
ATOM     91  C   UNL A   1      45.512  28.628  34.542  1.00  0.00     0.173 A 
ATOM     92  C   UNL A   1      43.931  27.027  35.392  1.00  0.00     0.173 A 
ATOM     93  F   UNL A   1      45.805  29.729  33.833  1.00  0.00    -0.203 F 
ATOM     94  C   UNL A   1      46.550  27.911  35.131  1.00  0.00     0.198 A 
ATOM     95  C   UNL A   1      44.968  26.325  35.997  1.00  0.00     0.198 A 
ATOM     96  F   UNL A   1      42.677  26.574  35.530  1.00  0.00    -0.203 F 
ATOM     97  F   UNL A   1      47.817  28.323  34.980  1.00  0.00    -0.200 F 
ATOM     98  C   UNL A   1      46.277  26.764  35.863  1.00  0.00     0.200 A 
ATOM     99  F   UNL A   1      44.703  25.222  36.710  1.00  0.00    -0.200 F 
ATOM    100  F   UNL A   1      47.277  26.077  36.431  1.00  0.00    -0.200 F 
ENDBRANCH  67  90
ENDBRANCH  41  42
ENDBRANCH  33  36
ENDBRANCH  31  32
ENDBRANCH  30  31
ENDBRANCH  29  30
ENDBRANCH   1  29
TORSDOF 18
ENDMDL
MODEL 3
REMARK VINA RESULT:     -12.0      0.703      7.278
REMARK SMILES CC[C@@H](C)[C@@H](C(=O)NCCCCCCNC(=O)c1ccc(-c2c3nc(c(-c4c(F)c(F)c(F)c(F)c4F)c4ccc([nH]4)c(-c4c(F)c(F)c(F)c(F)c4F)c4nc(c(-c5c(F)c(F)c(F)c(F)c5F)c5ccc2[nH]5)C=C4)C=C3)cc1)N1C(=O)/C(=C/c2ccc(O)cc2)SC1=S
REMARK SMILES IDX 11 1 10 2 9 3 8 4 6 5 7 6 5 8 3 9 4 10 2 11 1 12 81 13 82 14
REMARK SMILES IDX 94 15 83 16 84 17 93 18 95 19 85 20 86 21 87 22 92 23 88 24
REMARK SMILES IDX 91 25 89 26 90 27 12 29 13 30 14 31 15 32 16 33 17 35 18 36
REMARK SMILES IDX 19 37 80 38 20 39 79 40 21 41 22 42 23 43 73 44 24 45 78 46
REMARK SMILES IDX 72 47 74 48 25 49 77 50 71 51 70 52 26 54 58 55 38 56 57 57
REMARK SMILES IDX 39 58 42 59 56 60 75 61 40 62 41 63 55 65 76 66 43 67 27 68
REMARK SMILES IDX 28 69 36 70 29 71 30 72 34 73 37 74 31 75 32 76 35 77 33 78
REMARK SMILES IDX 59 79 60 80 68 81 61 82 62 83 66 84 69 85 63 86 64 87 67 88
REMARK SMILES IDX 65 89 44 90 45 91 53 92 46 93 47 94 51 95 54 96 48 97 49 98
REMARK SMILES IDX 52 99 50 100
REMARK H PARENT 8 7 90 28 15 34 74 53 42 64
REMARK Flexibility Score: inf
ROOT
ATOM      1  C   UNL A   1      32.327  29.958  26.714  1.00  0.00     0.002 C 
ENDROOT
BRANCH   1   2
ATOM      2  C   UNL A   1      33.019  28.887  25.869  1.00  0.00     0.021 C 
BRANCH   2   3
ATOM      3  C   UNL A   1      33.367  27.600  26.630  1.00  0.00     0.116 C 
BRANCH   3   4
ATOM      4  N   UNL A   1      34.008  26.656  25.731  1.00  0.00    -0.354 N 
ATOM      5  C   UNL A   1      33.526  25.462  25.272  1.00  0.00     0.243 C 
ATOM      6  O   UNL A   1      34.339  24.547  25.107  1.00  0.00    -0.273 OA
ATOM      7  H   UNL A   1      34.904  26.909  25.413  1.00  0.00     0.163 HD
BRANCH   5   8
ATOM      8  C   UNL A   1      32.007  25.270  24.976  1.00  0.00     0.184 C 
BRANCH   8   9
ATOM      9  C   UNL A   1      31.888  23.792  24.399  1.00  0.00     0.018 C 
ATOM     10  C   UNL A   1      30.886  23.564  23.266  1.00  0.00     0.010 C 
BRANCH   9  11
ATOM     11  C   UNL A   1      31.594  22.814  25.566  1.00  0.00     0.002 C 
ATOM     12  C   UNL A   1      31.985  21.361  25.341  1.00  0.00     0.004 C 
ENDBRANCH   9  11
ENDBRANCH   8   9
BRANCH   8  13
ATOM     13  N   UNL A   1      31.449  26.330  24.071  1.00  0.00    -0.280 N 
ATOM     14  C   UNL A   1      30.144  26.794  24.164  1.00  0.00     0.266 C 
ATOM     15  C   UNL A   1      32.073  26.771  22.921  1.00  0.00     0.149 C 
ATOM     16  O   UNL A   1      29.181  26.218  24.645  1.00  0.00    -0.268 OA
ATOM     17  C   UNL A   1      29.973  28.046  23.372  1.00  0.00     0.081 C 
ATOM     18  S   UNL A   1      31.360  28.295  22.401  1.00  0.00    -0.054 SA
ATOM     19  S   UNL A   1      33.279  26.029  22.031  1.00  0.00    -0.052 S 
ATOM     20  C   UNL A   1      28.865  28.795  23.478  1.00  0.00     0.029 C 
BRANCH  20  21
ATOM     21  C   UNL A   1      28.576  30.081  22.826  1.00  0.00    -0.024 A 
ATOM     22  C   UNL A   1      28.261  30.079  21.459  1.00  0.00     0.012 A 
ATOM     23  C   UNL A   1      28.639  31.308  23.500  1.00  0.00     0.012 A 
ATOM     24  C   UNL A   1      27.960  31.271  20.796  1.00  0.00     0.047 A 
ATOM     25  C   UNL A   1      28.328  32.502  22.840  1.00  0.00     0.047 A 
ATOM     26  C   UNL A   1      27.982  32.470  21.495  1.00  0.00     0.115 A 
BRANCH  26  27
ATOM     27  O   UNL A   1      27.653  33.607  20.818  1.00  0.00    -0.508 OA
ATOM     28  H   UNL A   1      27.600  34.425  21.272  1.00  0.00     0.293 HD
ENDBRANCH  26  27
ENDBRANCH  20  21
ENDBRANCH   8  13
ENDBRANCH   5   8
ENDBRANCH   3   4
ENDBRANCH   2   3
ENDBRANCH   1   2
BRANCH   1  29
ATOM     29  C   UNL A   1      31.372  30.874  25.945  1.00  0.00     0.002 C 
BRANCH  29  30
ATOM     30  C   UNL A   1      31.368  32.347  26.372  1.00  0.00     0.021 C 
BRANCH  30  31
ATOM     31  C   UNL A   1      32.340  32.720  27.490  1.00  0.00     0.116 C 
BRANCH  31  32
ATOM     32  N   UNL A   1      32.451  34.155  27.681  1.00  0.00    -0.352 N 
ATOM     33  C   UNL A   1      33.290  34.875  28.494  1.00  0.00     0.251 C 
ATOM     34  H   UNL A   1      31.827  34.696  27.143  1.00  0.00     0.163 HD
ATOM     35  O   UNL A   1      33.123  36.083  28.630  1.00  0.00    -0.269 OA
BRANCH  33  36
ATOM     36  C   UNL A   1      34.386  34.206  29.230  1.00  0.00     0.039 A 
ATOM     37  C   UNL A   1      35.705  34.468  28.845  1.00  0.00     0.014 A 
ATOM     38  C   UNL A   1      34.128  33.287  30.251  1.00  0.00     0.014 A 
ATOM     39  C   UNL A   1      36.764  33.850  29.514  1.00  0.00     0.010 A 
ATOM     40  C   UNL A   1      35.186  32.710  30.954  1.00  0.00     0.010 A 
ATOM     41  C   UNL A   1      36.514  32.980  30.587  1.00  0.00    -0.014 A 
BRANCH  41  42
ATOM     42  C   UNL A   1      37.632  32.333  31.318  1.00  0.00     0.031 A 
ATOM     43  C   UNL A   1      38.375  31.181  30.699  1.00  0.00     0.074 A 
ATOM     44  C   UNL A   1      37.951  32.749  32.558  1.00  0.00     0.049 A 
ATOM     45  N   UNL A   1      39.346  30.457  31.198  1.00  0.00    -0.248 NA
ATOM     46  C   UNL A   1      37.956  30.777  29.349  1.00  0.00     0.031 C 
ATOM     47  C   UNL A   1      37.281  33.826  33.286  1.00  0.00     0.029 A 
ATOM     48  N   UNL A   1      38.916  32.308  33.429  1.00  0.00    -0.354 N 
ATOM     49  C   UNL A   1      39.639  29.503  30.234  1.00  0.00     0.074 A 
ATOM     50  C   UNL A   1      38.721  29.715  29.136  1.00  0.00     0.031 C 
ATOM     51  C   UNL A   1      37.864  33.974  34.486  1.00  0.00     0.029 A 
ATOM     52  C   UNL A   1      38.933  32.988  34.621  1.00  0.00     0.049 A 
ATOM     53  H   UNL A   1      39.537  31.574  33.218  1.00  0.00     0.167 HD
ATOM     54  C   UNL A   1      40.599  28.547  30.254  1.00  0.00     0.037 A 
ATOM     55  C   UNL A   1      39.724  32.834  35.701  1.00  0.00     0.037 A 
ATOM     56  C   UNL A   1      41.536  28.357  31.329  1.00  0.00     0.049 A 
ATOM     57  C   UNL A   1      40.803  31.788  35.684  1.00  0.00     0.074 A 
ATOM     58  C   UNL A   1      42.580  27.452  31.415  1.00  0.00     0.029 A 
ATOM     59  N   UNL A   1      41.546  29.091  32.505  1.00  0.00    -0.354 N 
ATOM     60  N   UNL A   1      41.106  30.928  34.744  1.00  0.00    -0.248 NA
ATOM     61  C   UNL A   1      41.657  31.698  36.877  1.00  0.00     0.031 C 
ATOM     62  C   UNL A   1      43.206  27.621  32.656  1.00  0.00     0.029 A 
ATOM     63  C   UNL A   1      42.571  28.654  33.327  1.00  0.00     0.049 A 
ATOM     64  H   UNL A   1      40.916  29.816  32.723  1.00  0.00     0.167 HD
ATOM     65  C   UNL A   1      42.197  30.213  35.218  1.00  0.00     0.074 A 
ATOM     66  C   UNL A   1      42.511  30.747  36.528  1.00  0.00     0.031 C 
ATOM     67  C   UNL A   1      42.877  29.205  34.621  1.00  0.00     0.037 A 
BRANCH  54  68
ATOM     68  C   UNL A   1      40.686  27.632  29.069  1.00  0.00     0.064 A 
ATOM     69  C   UNL A   1      39.828  26.532  28.928  1.00  0.00     0.173 A 
ATOM     70  C   UNL A   1      41.616  27.877  28.047  1.00  0.00     0.173 A 
ATOM     71  F   UNL A   1      38.931  26.249  29.884  1.00  0.00    -0.203 F 
ATOM     72  C   UNL A   1      39.916  25.694  27.820  1.00  0.00     0.198 A 
ATOM     73  C   UNL A   1      41.683  27.052  26.929  1.00  0.00     0.198 A 
ATOM     74  F   UNL A   1      42.455  28.920  28.133  1.00  0.00    -0.203 F 
ATOM     75  F   UNL A   1      39.116  24.623  27.726  1.00  0.00    -0.200 F 
ATOM     76  C   UNL A   1      40.839  25.957  26.818  1.00  0.00     0.200 A 
ATOM     77  F   UNL A   1      42.570  27.312  25.958  1.00  0.00    -0.200 F 
ATOM     78  F   UNL A   1      40.919  25.152  25.751  1.00  0.00    -0.200 F 
ENDBRANCH  54  68
BRANCH  55  79
ATOM     79  C   UNL A   1      39.546  33.723  36.876  1.00  0.00     0.064 A 
ATOM     80  C   UNL A   1      40.195  34.963  36.940  1.00  0.00     0.173 A 
ATOM     81  C   UNL A   1      38.729  33.353  37.953  1.00  0.00     0.173 A 
ATOM     82  F   UNL A   1      41.004  35.347  35.942  1.00  0.00    -0.203 F 
ATOM     83  C   UNL A   1      40.043  35.797  38.045  1.00  0.00     0.198 A 
ATOM     84  C   UNL A   1      38.560  34.198  39.048  1.00  0.00     0.198 A 
ATOM     85  F   UNL A   1      38.085  32.177  37.935  1.00  0.00    -0.203 F 
ATOM     86  F   UNL A   1      40.702  36.962  38.098  1.00  0.00    -0.200 F 
ATOM     87  C   UNL A   1      39.222  35.415  39.097  1.00  0.00     0.200 A 
ATOM     88  F   UNL A   1      37.760  33.831  40.058  1.00  0.00    -0.200 F 
ATOM     89  F   UNL A   1      39.074  36.220  40.159  1.00  0.00    -0.200 F 
ENDBRANCH  55  79
BRANCH  67  90
ATOM     90  C   UNL A   1      44.048  28.634  35.364  1.00  0.00     0.064 A 
ATOM     91  C   UNL A   1      43.898  27.559  36.251  1.00  0.00     0.173 A 
ATOM     92  C   UNL A   1      45.337  29.148  35.159  1.00  0.00     0.173 A 
ATOM     93  F   UNL A   1      42.682  27.045  36.490  1.00  0.00    -0.203 F 
ATOM     94  C   UNL A   1      44.997  27.029  36.922  1.00  0.00     0.198 A 
ATOM     95  C   UNL A   1      46.436  28.602  35.816  1.00  0.00     0.198 A 
ATOM     96  F   UNL A   1      45.530  30.174  34.318  1.00  0.00    -0.203 F 
ATOM     97  F   UNL A   1      44.828  26.026  37.794  1.00  0.00    -0.200 F 
ATOM     98  C   UNL A   1      46.265  27.547  36.699  1.00  0.00     0.200 A 
ATOM     99  F   UNL A   1      47.661  29.098  35.595  1.00  0.00    -0.200 F 
ATOM    100  F   UNL A   1      47.322  27.035  37.345  1.00  0.00    -0.200 F 
ENDBRANCH  67  90
ENDBRANCH  41  42
ENDBRANCH  33  36
ENDBRANCH  31  32
ENDBRANCH  30  31
ENDBRANCH  29  30
ENDBRANCH   1  29
TORSDOF 18
ENDMDL
