MODEL 1
REMARK VINA RESULT:     -12.1      0.000      0.000
REMARK SMILES C[C@@H]1[C@@H](C(=O)NCCCCCCNC(=O)c2ccc(-c3c4nc(c(-c5c(F)c(F)c(F)c(F)c5F)c5ccc([nH]5)c(-c5c(F)c(F)c(F)c(F)c5F)c5nc(c(-c6c(F)c(F)c(F)c(F)c6F)c6ccc3[nH]6)C=C5)C=C4)cc2)CCN1C(=O)C[NH2+]C1CCCC1
REMARK SMILES IDX 8 1 7 2 6 3 4 4 5 5 3 7 1 8 2 9 81 10 79 11 80 12 82 13
REMARK SMILES IDX 83 14 84 15 85 16 86 19 87 20 90 21 88 22 89 23 9 24 10 25
REMARK SMILES IDX 11 26 12 27 13 28 14 29 15 31 16 32 17 33 78 34 18 35 77 36
REMARK SMILES IDX 19 37 20 38 21 39 71 40 22 41 76 42 70 43 72 44 23 45 75 46
REMARK SMILES IDX 69 47 68 48 24 50 56 51 36 52 55 53 37 54 40 55 54 56 73 57
REMARK SMILES IDX 38 58 39 59 53 61 74 62 41 63 25 64 26 65 34 66 27 67 28 68
REMARK SMILES IDX 32 69 35 70 29 71 30 72 33 73 31 74 57 75 58 76 66 77 59 78
REMARK SMILES IDX 60 79 64 80 67 81 61 82 62 83 65 84 63 85 42 86 43 87 51 88
REMARK SMILES IDX 44 89 45 90 49 91 52 92 46 93 47 94 50 95 48 96
REMARK H PARENT 6 6 85 17 85 18 13 30 72 49 40 60
REMARK Flexibility Score: inf
ROOT
ATOM      1  C   UNL A   1      31.923  28.424  27.503  1.00  0.00     0.021 C 
ENDROOT
BRANCH   1   2
ATOM      2  C   UNL A   1      31.331  27.505  26.439  1.00  0.00     0.116 C 
BRANCH   2   3
ATOM      3  N   UNL A   1      31.098  26.160  26.917  1.00  0.00    -0.356 N 
ATOM      4  C   UNL A   1      31.664  24.984  26.522  1.00  0.00     0.225 C 
ATOM      5  O   UNL A   1      31.332  23.974  27.143  1.00  0.00    -0.275 OA
ATOM      6  H   UNL A   1      30.430  26.081  27.635  1.00  0.00     0.163 HD
BRANCH   4   7
ATOM      7  C   UNL A   1      32.602  24.954  25.314  1.00  0.00     0.102 C 
ATOM      8  C   UNL A   1      32.889  23.650  23.151  1.00  0.00     0.032 C 
ATOM      9  C   UNL A   1      32.617  23.552  24.655  1.00  0.00     0.094 C 
ATOM     10  N   UNL A   1      33.709  22.850  25.350  1.00  0.00    -0.334 N 
ATOM     11  C   UNL A   1      34.077  25.152  25.676  1.00  0.00     0.037 C 
ATOM     12  C   UNL A   1      34.524  23.771  26.114  1.00  0.00     0.121 C 
BRANCH  10  13
ATOM     13  C   UNL A   1      33.897  21.493  25.518  1.00  0.00     0.277 C 
ATOM     14  O   UNL A   1      35.016  21.036  25.781  1.00  0.00    -0.268 OA
BRANCH  13  15
ATOM     15  C   UNL A   1      32.713  20.539  25.335  1.00  0.00     0.362 C 
BRANCH  15  16
ATOM     16  N   UNL A   1      32.958  19.251  25.995  1.00  0.00    -0.336 N 
ATOM     17  H   UNL A   1      32.256  19.116  26.722  1.00  0.00     0.346 HD
ATOM     18  H   UNL A   1      33.900  19.276  26.388  1.00  0.00     0.346 HD
BRANCH  16  19
ATOM     19  C   UNL A   1      32.892  18.134  25.067  1.00  0.00     0.182 C 
ATOM     20  C   UNL A   1      34.119  17.973  24.172  1.00  0.00     0.065 C 
ATOM     21  C   UNL A   1      32.868  16.799  25.807  1.00  0.00     0.065 C 
ATOM     22  C   UNL A   1      33.987  16.546  23.650  1.00  0.00     0.006 C 
ATOM     23  C   UNL A   1      33.240  15.773  24.738  1.00  0.00     0.006 C 
ENDBRANCH  16  19
ENDBRANCH  15  16
ENDBRANCH  13  15
ENDBRANCH  10  13
ENDBRANCH   4   7
ENDBRANCH   2   3
ENDBRANCH   1   2
BRANCH   1  24
ATOM     24  C   UNL A   1      32.460  29.771  27.004  1.00  0.00     0.002 C 
BRANCH  24  25
ATOM     25  C   UNL A   1      31.509  30.614  26.151  1.00  0.00     0.002 C 
BRANCH  25  26
ATOM     26  C   UNL A   1      31.396  32.094  26.519  1.00  0.00     0.021 C 
BRANCH  26  27
ATOM     27  C   UNL A   1      32.635  32.728  27.144  1.00  0.00     0.116 C 
BRANCH  27  28
ATOM     28  N   UNL A   1      32.416  34.086  27.604  1.00  0.00    -0.352 N 
ATOM     29  C   UNL A   1      33.070  34.800  28.577  1.00  0.00     0.251 C 
ATOM     30  H   UNL A   1      31.690  34.570  27.148  1.00  0.00     0.163 HD
ATOM     31  O   UNL A   1      32.671  35.919  28.883  1.00  0.00    -0.269 OA
BRANCH  29  32
ATOM     32  C   UNL A   1      34.234  34.222  29.291  1.00  0.00     0.039 A 
ATOM     33  C   UNL A   1      33.993  33.449  30.431  1.00  0.00     0.014 A 
ATOM     34  C   UNL A   1      35.548  34.459  28.878  1.00  0.00     0.014 A 
ATOM     35  C   UNL A   1      35.060  32.872  31.124  1.00  0.00     0.010 A 
ATOM     36  C   UNL A   1      36.609  33.830  29.531  1.00  0.00     0.010 A 
ATOM     37  C   UNL A   1      36.377  33.036  30.664  1.00  0.00    -0.014 A 
BRANCH  37  38
ATOM     38  C   UNL A   1      37.514  32.392  31.371  1.00  0.00     0.031 A 
ATOM     39  C   UNL A   1      38.259  31.254  30.731  1.00  0.00     0.074 A 
ATOM     40  C   UNL A   1      37.852  32.807  32.606  1.00  0.00     0.049 A 
ATOM     41  N   UNL A   1      39.259  30.550  31.202  1.00  0.00    -0.248 NA
ATOM     42  C   UNL A   1      37.807  30.834  29.396  1.00  0.00     0.031 C 
ATOM     43  C   UNL A   1      37.179  33.870  33.354  1.00  0.00     0.029 A 
ATOM     44  N   UNL A   1      38.846  32.383  33.453  1.00  0.00    -0.354 N 
ATOM     45  C   UNL A   1      39.547  29.602  30.229  1.00  0.00     0.074 A 
ATOM     46  C   UNL A   1      38.585  29.786  29.163  1.00  0.00     0.031 C 
ATOM     47  C   UNL A   1      37.792  34.030  34.537  1.00  0.00     0.029 A 
ATOM     48  C   UNL A   1      38.883  33.064  34.644  1.00  0.00     0.049 A 
ATOM     49  H   UNL A   1      39.472  31.657  33.228  1.00  0.00     0.167 HD
ATOM     50  C   UNL A   1      40.537  28.678  30.214  1.00  0.00     0.037 A 
ATOM     51  C   UNL A   1      39.704  32.927  35.703  1.00  0.00     0.037 A 
ATOM     52  C   UNL A   1      41.513  28.515  31.260  1.00  0.00     0.049 A 
ATOM     53  C   UNL A   1      40.801  31.898  35.656  1.00  0.00     0.074 A 
ATOM     54  C   UNL A   1      42.592  27.650  31.306  1.00  0.00     0.029 A 
ATOM     55  N   UNL A   1      41.527  29.236  32.445  1.00  0.00    -0.354 N 
ATOM     56  N   UNL A   1      41.105  31.055  34.701  1.00  0.00    -0.248 NA
ATOM     57  C   UNL A   1      41.674  31.809  36.836  1.00  0.00     0.031 C 
ATOM     58  C   UNL A   1      43.238  27.821  32.536  1.00  0.00     0.029 A 
ATOM     59  C   UNL A   1      42.585  28.820  33.238  1.00  0.00     0.049 A 
ATOM     60  H   UNL A   1      40.880  29.937  32.687  1.00  0.00     0.167 HD
ATOM     61  C   UNL A   1      42.214  30.353  35.152  1.00  0.00     0.074 A 
ATOM     62  C   UNL A   1      42.541  30.879  36.460  1.00  0.00     0.031 C 
ATOM     63  C   UNL A   1      42.899  29.357  34.536  1.00  0.00     0.037 A 
BRANCH  50  64
ATOM     64  C   UNL A   1      40.621  27.772  29.020  1.00  0.00     0.064 A 
ATOM     65  C   UNL A   1      41.506  28.032  27.964  1.00  0.00     0.173 A 
ATOM     66  C   UNL A   1      39.836  26.612  28.948  1.00  0.00     0.173 A 
ATOM     67  F   UNL A   1      42.271  29.135  27.979  1.00  0.00    -0.203 F 
ATOM     68  C   UNL A   1      41.583  27.179  26.866  1.00  0.00     0.198 A 
ATOM     69  C   UNL A   1      39.935  25.746  27.863  1.00  0.00     0.198 A 
ATOM     70  F   UNL A   1      38.977  26.315  29.936  1.00  0.00    -0.203 F 
ATOM     71  F   UNL A   1      42.403  27.471  25.848  1.00  0.00    -0.200 F 
ATOM     72  C   UNL A   1      40.802  26.033  26.820  1.00  0.00     0.200 A 
ATOM     73  F   UNL A   1      39.187  24.635  27.825  1.00  0.00    -0.200 F 
ATOM     74  F   UNL A   1      40.881  25.209  25.767  1.00  0.00    -0.200 F 
ENDBRANCH  50  64
BRANCH  51  75
ATOM     75  C   UNL A   1      39.541  33.809  36.885  1.00  0.00     0.064 A 
ATOM     76  C   UNL A   1      38.795  33.391  37.996  1.00  0.00     0.173 A 
ATOM     77  C   UNL A   1      40.121  35.085  36.931  1.00  0.00     0.173 A 
ATOM     78  F   UNL A   1      38.204  32.187  37.990  1.00  0.00    -0.203 F 
ATOM     79  C   UNL A   1      38.620  34.222  39.101  1.00  0.00     0.198 A 
ATOM     80  C   UNL A   1      39.966  35.906  38.046  1.00  0.00     0.198 A 
ATOM     81  F   UNL A   1      40.846  35.530  35.895  1.00  0.00    -0.203 F 
ATOM     82  F   UNL A   1      37.867  33.814  40.131  1.00  0.00    -0.200 F 
ATOM     83  C   UNL A   1      39.210  35.477  39.126  1.00  0.00     0.200 A 
ATOM     84  F   UNL A   1      40.547  37.113  38.072  1.00  0.00    -0.200 F 
ATOM     85  F   UNL A   1      39.043  36.276  40.189  1.00  0.00    -0.200 F 
ENDBRANCH  51  75
BRANCH  63  86
ATOM     86  C   UNL A   1      44.084  28.791  35.261  1.00  0.00     0.064 A 
ATOM     87  C   UNL A   1      43.951  27.722  36.158  1.00  0.00     0.173 A 
ATOM     88  C   UNL A   1      45.369  29.301  35.030  1.00  0.00     0.173 A 
ATOM     89  F   UNL A   1      42.740  27.211  36.425  1.00  0.00    -0.203 F 
ATOM     90  C   UNL A   1      45.061  27.199  36.816  1.00  0.00     0.198 A 
ATOM     91  C   UNL A   1      46.481  28.759  35.668  1.00  0.00     0.198 A 
ATOM     92  F   UNL A   1      45.549  30.321  34.176  1.00  0.00    -0.203 F 
ATOM     93  F   UNL A   1      44.905  26.205  37.702  1.00  0.00    -0.200 F 
ATOM     94  C   UNL A   1      46.325  27.712  36.565  1.00  0.00     0.200 A 
ATOM     95  F   UNL A   1      47.703  29.248  35.418  1.00  0.00    -0.200 F 
ATOM     96  F   UNL A   1      47.393  27.205  37.196  1.00  0.00    -0.200 F 
ENDBRANCH  63  86
ENDBRANCH  37  38
ENDBRANCH  29  32
ENDBRANCH  27  28
ENDBRANCH  26  27
ENDBRANCH  25  26
ENDBRANCH  24  25
ENDBRANCH   1  24
TORSDOF 17
ENDMDL
MODEL 2
REMARK VINA RESULT:     -11.8      0.805      7.308
REMARK SMILES C[C@@H]1[C@@H](C(=O)NCCCCCCNC(=O)c2ccc(-c3c4nc(c(-c5c(F)c(F)c(F)c(F)c5F)c5ccc([nH]5)c(-c5c(F)c(F)c(F)c(F)c5F)c5nc(c(-c6c(F)c(F)c(F)c(F)c6F)c6ccc3[nH]6)C=C5)C=C4)cc2)CCN1C(=O)C[NH2+]C1CCCC1
REMARK SMILES IDX 8 1 7 2 6 3 4 4 5 5 3 7 1 8 2 9 81 10 79 11 80 12 82 13
REMARK SMILES IDX 83 14 84 15 85 16 86 19 87 20 90 21 88 22 89 23 9 24 10 25
REMARK SMILES IDX 11 26 12 27 13 28 14 29 15 31 16 32 17 33 78 34 18 35 77 36
REMARK SMILES IDX 19 37 20 38 21 39 71 40 22 41 76 42 70 43 72 44 23 45 75 46
REMARK SMILES IDX 69 47 68 48 24 50 56 51 36 52 55 53 37 54 40 55 54 56 73 57
REMARK SMILES IDX 38 58 39 59 53 61 74 62 41 63 25 64 26 65 34 66 27 67 28 68
REMARK SMILES IDX 32 69 35 70 29 71 30 72 33 73 31 74 57 75 58 76 66 77 59 78
REMARK SMILES IDX 60 79 64 80 67 81 61 82 62 83 65 84 63 85 42 86 43 87 51 88
REMARK SMILES IDX 44 89 45 90 49 91 52 92 46 93 47 94 50 95 48 96
REMARK H PARENT 6 6 85 17 85 18 13 30 72 49 40 60
REMARK Flexibility Score: inf
ROOT
ATOM      1  C   UNL A   1      32.259  28.658  27.198  1.00  0.00     0.021 C 
ENDROOT
BRANCH   1   2
ATOM      2  C   UNL A   1      31.448  27.702  26.329  1.00  0.00     0.116 C 
BRANCH   2   3
ATOM      3  N   UNL A   1      31.265  26.402  26.935  1.00  0.00    -0.356 N 
ATOM      4  C   UNL A   1      31.647  25.171  26.490  1.00  0.00     0.225 C 
ATOM      5  O   UNL A   1      31.423  24.218  27.237  1.00  0.00    -0.275 OA
ATOM      6  H   UNL A   1      30.795  26.406  27.800  1.00  0.00     0.163 HD
BRANCH   4   7
ATOM      7  C   UNL A   1      32.249  25.015  25.092  1.00  0.00     0.102 C 
ATOM      8  C   UNL A   1      32.427  23.246  23.275  1.00  0.00     0.032 C 
ATOM      9  C   UNL A   1      32.546  23.528  24.776  1.00  0.00     0.094 C 
ATOM     10  N   UNL A   1      33.930  23.342  25.245  1.00  0.00    -0.334 N 
ATOM     11  C   UNL A   1      33.631  25.657  24.944  1.00  0.00     0.037 C 
ATOM     12  C   UNL A   1      34.571  24.612  25.513  1.00  0.00     0.121 C 
BRANCH  10  13
ATOM     13  C   UNL A   1      34.562  22.179  25.636  1.00  0.00     0.277 C 
ATOM     14  O   UNL A   1      35.268  22.151  26.651  1.00  0.00    -0.268 OA
BRANCH  13  15
ATOM     15  C   UNL A   1      34.421  20.918  24.778  1.00  0.00     0.362 C 
BRANCH  15  16
ATOM     16  N   UNL A   1      34.095  19.746  25.599  1.00  0.00    -0.336 N 
ATOM     17  H   UNL A   1      33.462  20.035  26.345  1.00  0.00     0.346 HD
ATOM     18  H   UNL A   1      34.968  19.375  25.975  1.00  0.00     0.346 HD
BRANCH  16  19
ATOM     19  C   UNL A   1      33.459  18.691  24.828  1.00  0.00     0.182 C 
ATOM     20  C   UNL A   1      32.804  19.155  23.529  1.00  0.00     0.065 C 
ATOM     21  C   UNL A   1      34.485  17.682  24.318  1.00  0.00     0.065 C 
ATOM     22  C   UNL A   1      32.624  17.859  22.745  1.00  0.00     0.006 C 
ATOM     23  C   UNL A   1      33.752  16.934  23.206  1.00  0.00     0.006 C 
ENDBRANCH  16  19
ENDBRANCH  15  16
ENDBRANCH  13  15
ENDBRANCH  10  13
ENDBRANCH   4   7
ENDBRANCH   2   3
ENDBRANCH   1   2
BRANCH   1  24
ATOM     24  C   UNL A   1      32.592  30.018  26.570  1.00  0.00     0.002 C 
BRANCH  24  25
ATOM     25  C   UNL A   1      31.411  30.835  26.041  1.00  0.00     0.002 C 
BRANCH  25  26
ATOM     26  C   UNL A   1      31.291  32.270  26.557  1.00  0.00     0.021 C 
BRANCH  26  27
ATOM     27  C   UNL A   1      32.577  32.908  27.073  1.00  0.00     0.116 C 
BRANCH  27  28
ATOM     28  N   UNL A   1      32.371  34.214  27.670  1.00  0.00    -0.352 N 
ATOM     29  C   UNL A   1      33.056  34.833  28.685  1.00  0.00     0.251 C 
ATOM     30  H   UNL A   1      31.628  34.736  27.289  1.00  0.00     0.163 HD
ATOM     31  O   UNL A   1      32.666  35.916  29.112  1.00  0.00    -0.269 OA
BRANCH  29  32
ATOM     32  C   UNL A   1      34.246  34.196  29.300  1.00  0.00     0.039 A 
ATOM     33  C   UNL A   1      34.040  33.234  30.294  1.00  0.00     0.014 A 
ATOM     34  C   UNL A   1      35.547  34.553  28.938  1.00  0.00     0.014 A 
ATOM     35  C   UNL A   1      35.133  32.597  30.887  1.00  0.00     0.010 A 
ATOM     36  C   UNL A   1      36.636  33.872  29.484  1.00  0.00     0.010 A 
ATOM     37  C   UNL A   1      36.440  32.891  30.468  1.00  0.00    -0.014 A 
BRANCH  37  38
ATOM     38  C   UNL A   1      37.605  32.188  31.064  1.00  0.00     0.031 A 
ATOM     39  C   UNL A   1      38.084  32.544  32.444  1.00  0.00     0.074 A 
ATOM     40  C   UNL A   1      38.257  31.253  30.347  1.00  0.00     0.049 A 
ATOM     41  N   UNL A   1      39.096  32.061  33.120  1.00  0.00    -0.248 NA
ATOM     42  C   UNL A   1      37.342  33.601  33.149  1.00  0.00     0.031 C 
ATOM     43  C   UNL A   1      37.920  30.848  28.982  1.00  0.00     0.029 A 
ATOM     44  N   UNL A   1      39.342  30.474  30.667  1.00  0.00    -0.354 N 
ATOM     45  C   UNL A   1      39.119  32.759  34.320  1.00  0.00     0.074 A 
ATOM     46  C   UNL A   1      38.051  33.734  34.261  1.00  0.00     0.031 C 
ATOM     47  C   UNL A   1      38.765  29.882  28.589  1.00  0.00     0.029 A 
ATOM     48  C   UNL A   1      39.720  29.617  29.663  1.00  0.00     0.049 A 
ATOM     49  H   UNL A   1      39.806  30.526  31.534  1.00  0.00     0.167 HD
ATOM     50  C   UNL A   1      39.939  32.587  35.384  1.00  0.00     0.037 A 
ATOM     51  C   UNL A   1      40.722  28.719  29.613  1.00  0.00     0.037 A 
ATOM     52  C   UNL A   1      40.981  31.596  35.456  1.00  0.00     0.049 A 
ATOM     53  C   UNL A   1      41.613  28.543  30.813  1.00  0.00     0.074 A 
ATOM     54  C   UNL A   1      41.822  31.303  36.515  1.00  0.00     0.029 A 
ATOM     55  N   UNL A   1      41.324  30.736  34.423  1.00  0.00    -0.354 N 
ATOM     56  N   UNL A   1      41.580  29.161  31.967  1.00  0.00    -0.248 NA
ATOM     57  C   UNL A   1      42.678  27.534  30.702  1.00  0.00     0.031 C 
ATOM     58  C   UNL A   1      42.698  30.290  36.111  1.00  0.00     0.029 A 
ATOM     59  C   UNL A   1      42.377  29.925  34.814  1.00  0.00     0.049 A 
ATOM     60  H   UNL A   1      40.884  30.707  33.543  1.00  0.00     0.167 HD
ATOM     61  C   UNL A   1      42.599  28.605  32.727  1.00  0.00     0.074 A 
ATOM     62  C   UNL A   1      43.224  27.586  31.909  1.00  0.00     0.031 C 
ATOM     63  C   UNL A   1      42.985  28.913  33.990  1.00  0.00     0.037 A 
BRANCH  50  64
ATOM     64  C   UNL A   1      39.736  33.488  36.567  1.00  0.00     0.064 A 
ATOM     65  C   UNL A   1      38.835  33.162  37.591  1.00  0.00     0.173 A 
ATOM     66  C   UNL A   1      40.479  34.671  36.698  1.00  0.00     0.173 A 
ATOM     67  F   UNL A   1      38.093  32.047  37.508  1.00  0.00    -0.203 F 
ATOM     68  C   UNL A   1      38.664  34.001  38.689  1.00  0.00     0.198 A 
ATOM     69  C   UNL A   1      40.325  35.494  37.811  1.00  0.00     0.198 A 
ATOM     70  F   UNL A   1      41.358  35.026  35.749  1.00  0.00    -0.203 F 
ATOM     71  F   UNL A   1      37.764  33.691  39.633  1.00  0.00    -0.200 F 
ATOM     72  C   UNL A   1      39.414  35.162  38.801  1.00  0.00     0.200 A 
ATOM     73  F   UNL A   1      41.058  36.610  37.923  1.00  0.00    -0.200 F 
ATOM     74  F   UNL A   1      39.253  35.965  39.861  1.00  0.00    -0.200 F 
ENDBRANCH  50  64
BRANCH  51  75
ATOM     75  C   UNL A   1      40.917  27.893  28.395  1.00  0.00     0.064 A 
ATOM     76  C   UNL A   1      40.267  26.658  28.254  1.00  0.00     0.173 A 
ATOM     77  C   UNL A   1      41.754  28.314  27.353  1.00  0.00     0.173 A 
ATOM     78  F   UNL A   1      39.473  26.204  29.234  1.00  0.00    -0.203 F 
ATOM     79  C   UNL A   1      40.463  25.868  27.122  1.00  0.00     0.198 A 
ATOM     80  C   UNL A   1      41.930  27.535  26.212  1.00  0.00     0.198 A 
ATOM     81  F   UNL A   1      42.395  29.489  27.441  1.00  0.00    -0.203 F 
ATOM     82  F   UNL A   1      39.863  24.673  27.031  1.00  0.00    -0.200 F 
ATOM     83  C   UNL A   1      41.290  26.309  26.101  1.00  0.00     0.200 A 
ATOM     84  F   UNL A   1      42.721  27.970  25.221  1.00  0.00    -0.200 F 
ATOM     85  F   UNL A   1      41.476  25.551  25.012  1.00  0.00    -0.200 F 
ENDBRANCH  51  75
BRANCH  63  86
ATOM     86  C   UNL A   1      44.119  28.123  34.572  1.00  0.00     0.064 A 
ATOM     87  C   UNL A   1      43.900  26.907  35.236  1.00  0.00     0.173 A 
ATOM     88  C   UNL A   1      45.441  28.569  34.434  1.00  0.00     0.173 A 
ATOM     89  F   UNL A   1      42.652  26.447  35.408  1.00  0.00    -0.203 F 
ATOM     90  C   UNL A   1      44.963  26.178  35.762  1.00  0.00     0.198 A 
ATOM     91  C   UNL A   1      46.505  27.825  34.938  1.00  0.00     0.198 A 
ATOM     92  F   UNL A   1      45.703  29.724  33.802  1.00  0.00    -0.203 F 
ATOM     93  F   UNL A   1      44.728  25.041  36.431  1.00  0.00    -0.200 F 
ATOM     94  C   UNL A   1      46.265  26.634  35.607  1.00  0.00     0.200 A 
ATOM     95  F   UNL A   1      47.761  28.261  34.778  1.00  0.00    -0.200 F 
ATOM     96  F   UNL A   1      47.287  25.929  36.109  1.00  0.00    -0.200 F 
ENDBRANCH  63  86
ENDBRANCH  37  38
ENDBRANCH  29  32
ENDBRANCH  27  28
ENDBRANCH  26  27
ENDBRANCH  25  26
ENDBRANCH  24  25
ENDBRANCH   1  24
TORSDOF 17
ENDMDL
MODEL 3
REMARK VINA RESULT:     -11.8      0.742      7.404
REMARK SMILES C[C@@H]1[C@@H](C(=O)NCCCCCCNC(=O)c2ccc(-c3c4nc(c(-c5c(F)c(F)c(F)c(F)c5F)c5ccc([nH]5)c(-c5c(F)c(F)c(F)c(F)c5F)c5nc(c(-c6c(F)c(F)c(F)c(F)c6F)c6ccc3[nH]6)C=C5)C=C4)cc2)CCN1C(=O)C[NH2+]C1CCCC1
REMARK SMILES IDX 8 1 7 2 6 3 4 4 5 5 3 7 1 8 2 9 81 10 79 11 80 12 82 13
REMARK SMILES IDX 83 14 84 15 85 16 86 19 87 20 90 21 88 22 89 23 9 24 10 25
REMARK SMILES IDX 11 26 12 27 13 28 14 29 15 31 16 32 17 33 78 34 18 35 77 36
REMARK SMILES IDX 19 37 20 38 21 39 71 40 22 41 76 42 70 43 72 44 23 45 75 46
REMARK SMILES IDX 69 47 68 48 24 50 56 51 36 52 55 53 37 54 40 55 54 56 73 57
REMARK SMILES IDX 38 58 39 59 53 61 74 62 41 63 25 64 26 65 34 66 27 67 28 68
REMARK SMILES IDX 32 69 35 70 29 71 30 72 33 73 31 74 57 75 58 76 66 77 59 78
REMARK SMILES IDX 60 79 64 80 67 81 61 82 62 83 65 84 63 85 42 86 43 87 51 88
REMARK SMILES IDX 44 89 45 90 49 91 52 92 46 93 47 94 50 95 48 96
REMARK H PARENT 6 6 85 17 85 18 13 30 72 49 40 60
REMARK Flexibility Score: inf
ROOT
ATOM      1  C   UNL A   1      31.747  28.634  27.428  1.00  0.00     0.021 C 
ENDROOT
BRANCH   1   2
ATOM      2  C   UNL A   1      31.269  27.652  26.363  1.00  0.00     0.116 C 
BRANCH   2   3
ATOM      3  N   UNL A   1      31.104  26.306  26.865  1.00  0.00    -0.356 N 
ATOM      4  C   UNL A   1      31.722  25.152  26.484  1.00  0.00     0.225 C 
ATOM      5  O   UNL A   1      31.443  24.138  27.124  1.00  0.00    -0.275 OA
ATOM      6  H   UNL A   1      30.447  26.208  27.591  1.00  0.00     0.163 HD
BRANCH   4   7
ATOM      7  C   UNL A   1      32.649  25.145  25.267  1.00  0.00     0.102 C 
ATOM      8  C   UNL A   1      33.057  23.747  23.184  1.00  0.00     0.032 C 
ATOM      9  C   UNL A   1      32.807  23.715  24.695  1.00  0.00     0.094 C 
ATOM     10  N   UNL A   1      33.973  23.177  25.416  1.00  0.00    -0.334 N 
ATOM     11  C   UNL A   1      34.097  25.520  25.596  1.00  0.00     0.037 C 
ATOM     12  C   UNL A   1      34.691  24.223  26.112  1.00  0.00     0.121 C 
BRANCH  10  13
ATOM     13  C   UNL A   1      34.305  21.860  25.664  1.00  0.00     0.277 C 
ATOM     14  O   UNL A   1      35.294  21.574  26.349  1.00  0.00    -0.268 OA
BRANCH  13  15
ATOM     15  C   UNL A   1      33.462  20.739  25.048  1.00  0.00     0.362 C 
BRANCH  15  16
ATOM     16  N   UNL A   1      33.760  19.443  25.668  1.00  0.00    -0.336 N 
ATOM     17  H   UNL A   1      33.240  19.370  26.542  1.00  0.00     0.346 HD
ATOM     18  H   UNL A   1      34.767  19.399  25.830  1.00  0.00     0.346 HD
BRANCH  16  19
ATOM     19  C   UNL A   1      33.397  18.326  24.812  1.00  0.00     0.182 C 
ATOM     20  C   UNL A   1      32.638  18.711  23.545  1.00  0.00     0.065 C 
ATOM     21  C   UNL A   1      34.637  17.642  24.238  1.00  0.00     0.065 C 
ATOM     22  C   UNL A   1      32.776  17.473  22.664  1.00  0.00     0.006 C 
ATOM     23  C   UNL A   1      34.101  16.823  23.066  1.00  0.00     0.006 C 
ENDBRANCH  16  19
ENDBRANCH  15  16
ENDBRANCH  13  15
ENDBRANCH  10  13
ENDBRANCH   4   7
ENDBRANCH   2   3
ENDBRANCH   1   2
BRANCH   1  24
ATOM     24  C   UNL A   1      32.287  29.974  26.912  1.00  0.00     0.002 C 
BRANCH  24  25
ATOM     25  C   UNL A   1      31.312  30.845  26.116  1.00  0.00     0.002 C 
BRANCH  25  26
ATOM     26  C   UNL A   1      31.274  32.330  26.480  1.00  0.00     0.021 C 
BRANCH  26  27
ATOM     27  C   UNL A   1      32.589  32.939  26.955  1.00  0.00     0.116 C 
BRANCH  27  28
ATOM     28  N   UNL A   1      32.420  34.204  27.645  1.00  0.00    -0.352 N 
ATOM     29  C   UNL A   1      33.111  34.722  28.711  1.00  0.00     0.251 C 
ATOM     30  H   UNL A   1      31.702  34.779  27.295  1.00  0.00     0.163 HD
ATOM     31  O   UNL A   1      32.753  35.784  29.212  1.00  0.00    -0.269 OA
BRANCH  29  32
ATOM     32  C   UNL A   1      34.270  33.999  29.291  1.00  0.00     0.039 A 
ATOM     33  C   UNL A   1      35.556  34.423  28.939  1.00  0.00     0.014 A 
ATOM     34  C   UNL A   1      34.108  32.901  30.138  1.00  0.00     0.014 A 
ATOM     35  C   UNL A   1      36.674  33.781  29.476  1.00  0.00     0.010 A 
ATOM     36  C   UNL A   1      35.224  32.300  30.724  1.00  0.00     0.010 A 
ATOM     37  C   UNL A   1      36.518  32.730  30.394  1.00  0.00    -0.014 A 
BRANCH  37  38
ATOM     38  C   UNL A   1      37.702  32.069  31.001  1.00  0.00     0.031 A 
ATOM     39  C   UNL A   1      38.172  32.465  32.373  1.00  0.00     0.074 A 
ATOM     40  C   UNL A   1      38.378  31.139  30.300  1.00  0.00     0.049 A 
ATOM     41  N   UNL A   1      39.198  32.021  33.056  1.00  0.00    -0.248 NA
ATOM     42  C   UNL A   1      37.403  33.514  33.060  1.00  0.00     0.031 C 
ATOM     43  C   UNL A   1      38.050  30.700  28.944  1.00  0.00     0.029 A 
ATOM     44  N   UNL A   1      39.483  30.396  30.633  1.00  0.00    -0.354 N 
ATOM     45  C   UNL A   1      39.203  32.741  34.243  1.00  0.00     0.074 A 
ATOM     46  C   UNL A   1      38.110  33.687  34.168  1.00  0.00     0.031 C 
ATOM     47  C   UNL A   1      38.920  29.750  28.568  1.00  0.00     0.029 A 
ATOM     48  C   UNL A   1      39.883  29.531  29.644  1.00  0.00     0.049 A 
ATOM     49  H   UNL A   1      39.946  30.476  31.498  1.00  0.00     0.167 HD
ATOM     50  C   UNL A   1      40.029  32.611  35.310  1.00  0.00     0.037 A 
ATOM     51  C   UNL A   1      40.908  28.658  29.610  1.00  0.00     0.037 A 
ATOM     52  C   UNL A   1      41.097  31.650  35.398  1.00  0.00     0.049 A 
ATOM     53  C   UNL A   1      41.805  28.528  30.811  1.00  0.00     0.074 A 
ATOM     54  C   UNL A   1      41.946  31.399  36.461  1.00  0.00     0.029 A 
ATOM     55  N   UNL A   1      41.461  30.780  34.381  1.00  0.00    -0.354 N 
ATOM     56  N   UNL A   1      41.757  29.167  31.954  1.00  0.00    -0.248 NA
ATOM     57  C   UNL A   1      42.896  27.547  30.718  1.00  0.00     0.031 C 
ATOM     58  C   UNL A   1      42.849  30.402  36.074  1.00  0.00     0.029 A 
ATOM     59  C   UNL A   1      42.537  30.004  34.785  1.00  0.00     0.049 A 
ATOM     60  H   UNL A   1      41.022  30.723  33.502  1.00  0.00     0.167 HD
ATOM     61  C   UNL A   1      42.791  28.652  32.722  1.00  0.00     0.074 A 
ATOM     62  C   UNL A   1      43.442  27.635  31.923  1.00  0.00     0.031 C 
ATOM     63  C   UNL A   1      43.170  28.994  33.979  1.00  0.00     0.037 A 
BRANCH  50  64
ATOM     64  C   UNL A   1      39.804  33.528  36.476  1.00  0.00     0.064 A 
ATOM     65  C   UNL A   1      40.432  34.779  36.555  1.00  0.00     0.173 A 
ATOM     66  C   UNL A   1      38.923  33.169  37.506  1.00  0.00     0.173 A 
ATOM     67  F   UNL A   1      41.292  35.166  35.601  1.00  0.00    -0.203 F 
ATOM     68  C   UNL A   1      40.207  35.627  37.637  1.00  0.00     0.198 A 
ATOM     69  C   UNL A   1      38.678  34.030  38.573  1.00  0.00     0.198 A 
ATOM     70  F   UNL A   1      38.293  31.985  37.475  1.00  0.00    -0.203 F 
ATOM     71  F   UNL A   1      40.852  36.799  37.715  1.00  0.00    -0.200 F 
ATOM     72  C   UNL A   1      39.325  35.254  38.641  1.00  0.00     0.200 A 
ATOM     73  F   UNL A   1      37.819  33.673  39.537  1.00  0.00    -0.200 F 
ATOM     74  F   UNL A   1      39.105  36.073  39.679  1.00  0.00    -0.200 F 
ENDBRANCH  50  64
BRANCH  51  75
ATOM     75  C   UNL A   1      41.123  27.815  28.408  1.00  0.00     0.064 A 
ATOM     76  C   UNL A   1      41.981  28.235  27.380  1.00  0.00     0.173 A 
ATOM     77  C   UNL A   1      40.479  26.580  28.256  1.00  0.00     0.173 A 
ATOM     78  F   UNL A   1      42.603  29.420  27.471  1.00  0.00    -0.203 F 
ATOM     79  C   UNL A   1      42.171  27.459  26.239  1.00  0.00     0.198 A 
ATOM     80  C   UNL A   1      40.688  25.793  27.125  1.00  0.00     0.198 A 
ATOM     81  F   UNL A   1      39.651  26.133  29.212  1.00  0.00    -0.203 F 
ATOM     82  F   UNL A   1      42.963  27.903  25.254  1.00  0.00    -0.200 F 
ATOM     83  C   UNL A   1      41.528  26.237  26.115  1.00  0.00     0.200 A 
ATOM     84  F   UNL A   1      40.075  24.607  27.014  1.00  0.00    -0.200 F 
ATOM     85  F   UNL A   1      41.713  25.489  25.018  1.00  0.00    -0.200 F 
ENDBRANCH  51  75
BRANCH  63  86
ATOM     86  C   UNL A   1      44.326  28.245  34.574  1.00  0.00     0.064 A 
ATOM     87  C   UNL A   1      45.641  28.717  34.459  1.00  0.00     0.173 A 
ATOM     88  C   UNL A   1      44.111  27.062  35.294  1.00  0.00     0.173 A 
ATOM     89  F   UNL A   1      45.899  29.835  33.765  1.00  0.00    -0.203 F 
ATOM     90  C   UNL A   1      46.703  28.018  35.025  1.00  0.00     0.198 A 
ATOM     91  C   UNL A   1      45.172  26.379  35.883  1.00  0.00     0.198 A 
ATOM     92  F   UNL A   1      42.869  26.572  35.437  1.00  0.00    -0.203 F 
ATOM     93  F   UNL A   1      47.957  28.464  34.866  1.00  0.00    -0.200 F 
ATOM     94  C   UNL A   1      46.467  26.854  35.743  1.00  0.00     0.200 A 
ATOM     95  F   UNL A   1      44.942  25.261  36.584  1.00  0.00    -0.200 F 
ATOM     96  F   UNL A   1      47.490  26.184  36.291  1.00  0.00    -0.200 F 
ENDBRANCH  63  86
ENDBRANCH  37  38
ENDBRANCH  29  32
ENDBRANCH  27  28
ENDBRANCH  26  27
ENDBRANCH  25  26
ENDBRANCH  24  25
ENDBRANCH   1  24
TORSDOF 17
ENDMDL
