MODEL 1
REMARK VINA RESULT:     -11.5      0.000      0.000
REMARK SMILES C[C@H]1[C@@H](C(=O)NCCCCCCNC(=O)c2ccc(-c3c4nc(c(-c5c(F)c(F)c(F)c(F)c5F)c5ccc([nH]5)c(-c5c(F)c(F)c(F)c(F)c5F)c5nc(c(-c6c(F)c(F)c(F)c(F)c6F)c6ccc3[nH]6)C=C5)C=C4)cc2)CC[N@@H+]1CC1(O)CCCC1
REMARK SMILES IDX 9 1 8 2 7 3 6 4 4 5 5 6 3 8 1 9 2 10 81 11 79 12 80 13 82 15
REMARK SMILES IDX 83 16 85 17 88 18 86 19 87 20 84 21 10 23 11 24 12 25 13 26
REMARK SMILES IDX 14 27 15 29 16 30 17 31 78 32 18 33 77 34 19 35 20 36 21 37
REMARK SMILES IDX 71 38 22 39 76 40 70 41 72 42 23 43 75 44 69 45 68 46 24 48
REMARK SMILES IDX 56 49 36 50 55 51 37 52 40 53 54 54 73 55 38 56 39 57 53 59
REMARK SMILES IDX 74 60 41 61 25 62 26 63 34 64 27 65 28 66 32 67 35 68 29 69
REMARK SMILES IDX 30 70 33 71 31 72 57 73 58 74 66 75 59 76 60 77 64 78 67 79
REMARK SMILES IDX 61 80 62 81 65 82 63 83 42 84 43 85 51 86 44 87 45 88 49 89
REMARK SMILES IDX 52 90 46 91 47 92 50 93 48 94
REMARK H PARENT 6 7 81 14 84 22 13 28 72 47 40 58
REMARK Flexibility Score: inf
ROOT
ATOM      1  C   UNL A   1      34.394  32.571  28.990  1.00  0.00     0.002 C 
ENDROOT
BRANCH   1   2
ATOM      2  C   UNL A   1      34.755  31.778  27.734  1.00  0.00     0.021 C 
BRANCH   2   3
ATOM      3  C   UNL A   1      33.656  30.824  27.257  1.00  0.00     0.116 C 
BRANCH   3   4
ATOM      4  N   UNL A   1      34.288  29.698  26.610  1.00  0.00    -0.356 N 
ATOM      5  C   UNL A   1      33.721  28.733  25.831  1.00  0.00     0.229 C 
ATOM      6  O   UNL A   1      34.304  27.647  25.808  1.00  0.00    -0.275 OA
ATOM      7  H   UNL A   1      35.258  29.616  26.750  1.00  0.00     0.163 HD
BRANCH   5   8
ATOM      8  C   UNL A   1      32.545  29.064  24.908  1.00  0.00     0.142 C 
ATOM      9  C   UNL A   1      31.047  27.116  25.910  1.00  0.00     0.076 C 
ATOM     10  C   UNL A   1      31.205  28.292  24.957  1.00  0.00     0.193 C 
ATOM     11  N   UNL A   1      30.985  27.730  23.620  1.00  0.00    -0.330 N 
ATOM     12  C   UNL A   1      32.985  28.949  23.436  1.00  0.00     0.081 C 
ATOM     13  C   UNL A   1      32.257  27.729  22.916  1.00  0.00     0.263 C 
ATOM     14  H   UNL A   1      30.676  26.764  23.727  1.00  0.00     0.348 HD
BRANCH  11  15
ATOM     15  C   UNL A   1      29.813  28.207  22.877  1.00  0.00     0.297 C 
BRANCH  15  16
ATOM     16  C   UNL A   1      29.607  29.713  22.562  1.00  0.00     0.113 C 
ATOM     17  C   UNL A   1      29.528  30.645  23.774  1.00  0.00     0.041 C 
ATOM     18  C   UNL A   1      28.236  29.952  21.913  1.00  0.00     0.041 C 
ATOM     19  C   UNL A   1      28.806  31.894  23.267  1.00  0.00     0.003 C 
ATOM     20  C   UNL A   1      28.022  31.459  22.033  1.00  0.00     0.003 C 
BRANCH  16  21
ATOM     21  O   UNL A   1      30.604  30.149  21.633  1.00  0.00    -0.384 OA
ATOM     22  H   UNL A   1      31.417  30.374  22.112  1.00  0.00     0.211 HD
ENDBRANCH  16  21
ENDBRANCH  15  16
ENDBRANCH  11  15
ENDBRANCH   5   8
ENDBRANCH   3   4
ENDBRANCH   2   3
ENDBRANCH   1   2
BRANCH   1  23
ATOM     23  C   UNL A   1      34.493  34.087  28.822  1.00  0.00     0.002 C 
BRANCH  23  24
ATOM     24  C   UNL A   1      33.164  34.839  28.947  1.00  0.00     0.021 C 
BRANCH  24  25
ATOM     25  C   UNL A   1      33.281  36.258  29.500  1.00  0.00     0.116 C 
BRANCH  25  26
ATOM     26  N   UNL A   1      32.480  36.438  30.699  1.00  0.00    -0.352 N 
ATOM     27  C   UNL A   1      32.593  35.822  31.916  1.00  0.00     0.251 C 
ATOM     28  H   UNL A   1      31.752  37.096  30.626  1.00  0.00     0.163 HD
ATOM     29  O   UNL A   1      31.686  35.906  32.743  1.00  0.00    -0.269 OA
BRANCH  27  30
ATOM     30  C   UNL A   1      33.805  35.044  32.235  1.00  0.00     0.039 A 
ATOM     31  C   UNL A   1      35.051  35.670  32.160  1.00  0.00     0.014 A 
ATOM     32  C   UNL A   1      33.711  33.693  32.586  1.00  0.00     0.014 A 
ATOM     33  C   UNL A   1      36.203  34.953  32.484  1.00  0.00     0.010 A 
ATOM     34  C   UNL A   1      34.853  33.000  32.975  1.00  0.00     0.010 A 
ATOM     35  C   UNL A   1      36.110  33.620  32.919  1.00  0.00    -0.014 A 
BRANCH  35  36
ATOM     36  C   UNL A   1      37.322  32.856  33.307  1.00  0.00     0.031 A 
ATOM     37  C   UNL A   1      38.021  33.160  34.602  1.00  0.00     0.074 A 
ATOM     38  C   UNL A   1      37.822  31.933  32.465  1.00  0.00     0.049 A 
ATOM     39  N   UNL A   1      39.122  32.646  35.089  1.00  0.00    -0.248 NA
ATOM     40  C   UNL A   1      37.417  34.198  35.451  1.00  0.00     0.031 C 
ATOM     41  C   UNL A   1      37.258  31.583  31.162  1.00  0.00     0.029 A 
ATOM     42  N   UNL A   1      38.927  31.125  32.577  1.00  0.00    -0.354 N 
ATOM     43  C   UNL A   1      39.347  33.305  36.289  1.00  0.00     0.074 A 
ATOM     44  C   UNL A   1      38.301  34.294  36.433  1.00  0.00     0.031 C 
ATOM     45  C   UNL A   1      38.005  30.617  30.603  1.00  0.00     0.029 A 
ATOM     46  C   UNL A   1      39.120  30.305  31.493  1.00  0.00     0.049 A 
ATOM     47  H   UNL A   1      39.523  31.132  33.360  1.00  0.00     0.167 HD
ATOM     48  C   UNL A   1      40.325  33.089  37.202  1.00  0.00     0.037 A 
ATOM     49  C   UNL A   1      40.092  29.407  31.242  1.00  0.00     0.037 A 
ATOM     50  C   UNL A   1      41.350  32.087  37.065  1.00  0.00     0.049 A 
ATOM     51  C   UNL A   1      41.172  29.193  32.268  1.00  0.00     0.074 A 
ATOM     52  C   UNL A   1      42.349  31.746  37.960  1.00  0.00     0.029 A 
ATOM     53  N   UNL A   1      41.508  31.267  35.957  1.00  0.00    -0.354 N 
ATOM     54  N   UNL A   1      41.335  29.771  33.433  1.00  0.00    -0.248 NA
ATOM     55  C   UNL A   1      42.200  28.193  31.946  1.00  0.00     0.031 C 
ATOM     56  C   UNL A   1      43.140  30.752  37.374  1.00  0.00     0.029 A 
ATOM     57  C   UNL A   1      42.604  30.437  36.135  1.00  0.00     0.049 A 
ATOM     58  H   UNL A   1      40.927  31.273  35.161  1.00  0.00     0.167 HD
ATOM     59  C   UNL A   1      42.465  29.192  33.993  1.00  0.00     0.074 A 
ATOM     60  C   UNL A   1      42.937  28.202  33.047  1.00  0.00     0.031 C 
ATOM     61  C   UNL A   1      43.058  29.455  35.183  1.00  0.00     0.037 A 
BRANCH  48  62
ATOM     62  C   UNL A   1      40.330  33.950  38.431  1.00  0.00     0.064 A 
ATOM     63  C   UNL A   1      39.580  33.613  39.568  1.00  0.00     0.173 A 
ATOM     64  C   UNL A   1      41.117  35.109  38.486  1.00  0.00     0.173 A 
ATOM     65  F   UNL A   1      38.801  32.520  39.565  1.00  0.00    -0.203 F 
ATOM     66  C   UNL A   1      39.593  34.422  40.702  1.00  0.00     0.198 A 
ATOM     67  C   UNL A   1      41.152  35.899  39.632  1.00  0.00     0.198 A 
ATOM     68  F   UNL A   1      41.858  35.475  37.430  1.00  0.00    -0.203 F 
ATOM     69  F   UNL A   1      38.828  34.107  41.756  1.00  0.00    -0.200 F 
ATOM     70  C   UNL A   1      40.384  35.560  40.737  1.00  0.00     0.200 A 
ATOM     71  F   UNL A   1      41.928  36.992  39.668  1.00  0.00    -0.200 F 
ATOM     72  F   UNL A   1      40.401  36.334  41.830  1.00  0.00    -0.200 F 
ENDBRANCH  48  62
BRANCH  49  73
ATOM     73  C   UNL A   1      40.074  28.628  29.978  1.00  0.00     0.064 A 
ATOM     74  C   UNL A   1      39.460  27.369  29.920  1.00  0.00     0.173 A 
ATOM     75  C   UNL A   1      40.665  29.122  28.807  1.00  0.00     0.173 A 
ATOM     76  F   UNL A   1      38.898  26.847  31.020  1.00  0.00    -0.203 F 
ATOM     77  C   UNL A   1      39.455  26.625  28.742  1.00  0.00     0.198 A 
ATOM     78  C   UNL A   1      40.635  28.389  27.621  1.00  0.00     0.198 A 
ATOM     79  F   UNL A   1      41.260  30.324  28.808  1.00  0.00    -0.203 F 
ATOM     80  F   UNL A   1      38.900  25.405  28.725  1.00  0.00    -0.200 F 
ATOM     81  C   UNL A   1      40.037  27.137  27.592  1.00  0.00     0.200 A 
ATOM     82  F   UNL A   1      41.185  28.895  26.509  1.00  0.00    -0.200 F 
ATOM     83  F   UNL A   1      40.028  26.424  26.459  1.00  0.00    -0.200 F 
ENDBRANCH  49  73
BRANCH  61  84
ATOM     84  C   UNL A   1      44.268  28.643  35.542  1.00  0.00     0.064 A 
ATOM     85  C   UNL A   1      45.563  29.062  35.201  1.00  0.00     0.173 A 
ATOM     86  C   UNL A   1      44.133  27.451  36.269  1.00  0.00     0.173 A 
ATOM     87  F   UNL A   1      45.744  30.186  34.491  1.00  0.00    -0.203 F 
ATOM     88  C   UNL A   1      46.675  28.303  35.554  1.00  0.00     0.198 A 
ATOM     89  C   UNL A   1      45.249  26.711  36.647  1.00  0.00     0.198 A 
ATOM     90  F   UNL A   1      42.916  27.010  36.626  1.00  0.00    -0.203 F 
ATOM     91  F   UNL A   1      47.899  28.697  35.176  1.00  0.00    -0.200 F 
ATOM     92  C   UNL A   1      46.519  27.133  36.282  1.00  0.00     0.200 A 
ATOM     93  F   UNL A   1      45.097  25.588  37.363  1.00  0.00    -0.200 F 
ATOM     94  F   UNL A   1      47.592  26.408  36.628  1.00  0.00    -0.200 F 
ENDBRANCH  61  84
ENDBRANCH  35  36
ENDBRANCH  27  30
ENDBRANCH  25  26
ENDBRANCH  24  25
ENDBRANCH  23  24
ENDBRANCH   1  23
TORSDOF 16
ENDMDL
MODEL 2
REMARK VINA RESULT:     -11.4      1.704      2.822
REMARK SMILES C[C@H]1[C@@H](C(=O)NCCCCCCNC(=O)c2ccc(-c3c4nc(c(-c5c(F)c(F)c(F)c(F)c5F)c5ccc([nH]5)c(-c5c(F)c(F)c(F)c(F)c5F)c5nc(c(-c6c(F)c(F)c(F)c(F)c6F)c6ccc3[nH]6)C=C5)C=C4)cc2)CC[N@@H+]1CC1(O)CCCC1
REMARK SMILES IDX 9 1 8 2 7 3 6 4 4 5 5 6 3 8 1 9 2 10 81 11 79 12 80 13 82 15
REMARK SMILES IDX 83 16 85 17 88 18 86 19 87 20 84 21 10 23 11 24 12 25 13 26
REMARK SMILES IDX 14 27 15 29 16 30 17 31 78 32 18 33 77 34 19 35 20 36 21 37
REMARK SMILES IDX 71 38 22 39 76 40 70 41 72 42 23 43 75 44 69 45 68 46 24 48
REMARK SMILES IDX 56 49 36 50 55 51 37 52 40 53 54 54 73 55 38 56 39 57 53 59
REMARK SMILES IDX 74 60 41 61 25 62 26 63 34 64 27 65 28 66 32 67 35 68 29 69
REMARK SMILES IDX 30 70 33 71 31 72 57 73 58 74 66 75 59 76 60 77 64 78 67 79
REMARK SMILES IDX 61 80 62 81 65 82 63 83 42 84 43 85 51 86 44 87 45 88 49 89
REMARK SMILES IDX 52 90 46 91 47 92 50 93 48 94
REMARK H PARENT 6 7 81 14 84 22 13 28 72 47 40 58
REMARK Flexibility Score: inf
ROOT
ATOM      1  C   UNL A   1      35.024  33.157  28.953  1.00  0.00     0.002 C 
ENDROOT
BRANCH   1   2
ATOM      2  C   UNL A   1      35.618  32.143  27.976  1.00  0.00     0.021 C 
BRANCH   2   3
ATOM      3  C   UNL A   1      34.960  30.761  28.028  1.00  0.00     0.116 C 
BRANCH   3   4
ATOM      4  N   UNL A   1      33.559  30.918  27.721  1.00  0.00    -0.356 N 
ATOM      5  C   UNL A   1      32.717  30.042  27.102  1.00  0.00     0.229 C 
ATOM      6  O   UNL A   1      31.757  30.542  26.511  1.00  0.00    -0.275 OA
ATOM      7  H   UNL A   1      33.156  31.773  27.996  1.00  0.00     0.163 HD
BRANCH   5   8
ATOM      8  C   UNL A   1      32.872  28.532  27.304  1.00  0.00     0.142 C 
ATOM      9  C   UNL A   1      33.965  28.197  24.910  1.00  0.00     0.076 C 
ATOM     10  C   UNL A   1      33.516  27.612  26.241  1.00  0.00     0.193 C 
ATOM     11  N   UNL A   1      32.516  26.596  25.893  1.00  0.00    -0.330 N 
ATOM     12  C   UNL A   1      31.495  27.894  27.564  1.00  0.00     0.081 C 
ATOM     13  C   UNL A   1      31.214  27.081  26.320  1.00  0.00     0.263 C 
ATOM     14  H   UNL A   1      32.504  26.495  24.877  1.00  0.00     0.348 HD
BRANCH  11  15
ATOM     15  C   UNL A   1      32.842  25.200  26.203  1.00  0.00     0.297 C 
BRANCH  15  16
ATOM     16  C   UNL A   1      33.326  24.215  25.106  1.00  0.00     0.113 C 
ATOM     17  C   UNL A   1      34.794  24.344  24.690  1.00  0.00     0.041 C 
ATOM     18  C   UNL A   1      32.615  24.489  23.773  1.00  0.00     0.041 C 
ATOM     19  C   UNL A   1      34.872  23.705  23.303  1.00  0.00     0.003 C 
ATOM     20  C   UNL A   1      33.455  23.744  22.738  1.00  0.00     0.003 C 
BRANCH  16  21
ATOM     21  O   UNL A   1      33.011  22.873  25.493  1.00  0.00    -0.384 OA
ATOM     22  H   UNL A   1      33.262  22.263  24.782  1.00  0.00     0.211 HD
ENDBRANCH  16  21
ENDBRANCH  15  16
ENDBRANCH  11  15
ENDBRANCH   5   8
ENDBRANCH   3   4
ENDBRANCH   2   3
ENDBRANCH   1   2
BRANCH   1  23
ATOM     23  C   UNL A   1      34.532  34.446  28.293  1.00  0.00     0.002 C 
BRANCH  23  24
ATOM     24  C   UNL A   1      33.232  35.013  28.872  1.00  0.00     0.021 C 
BRANCH  24  25
ATOM     25  C   UNL A   1      33.403  36.270  29.722  1.00  0.00     0.116 C 
BRANCH  25  26
ATOM     26  N   UNL A   1      32.460  36.307  30.828  1.00  0.00    -0.352 N 
ATOM     27  C   UNL A   1      32.489  35.623  32.013  1.00  0.00     0.251 C 
ATOM     28  H   UNL A   1      31.691  36.909  30.706  1.00  0.00     0.163 HD
ATOM     29  O   UNL A   1      31.490  35.582  32.731  1.00  0.00    -0.269 OA
BRANCH  27  30
ATOM     30  C   UNL A   1      33.719  34.924  32.427  1.00  0.00     0.039 A 
ATOM     31  C   UNL A   1      33.631  33.599  32.860  1.00  0.00     0.014 A 
ATOM     32  C   UNL A   1      34.952  35.581  32.409  1.00  0.00     0.014 A 
ATOM     33  C   UNL A   1      34.790  32.916  33.231  1.00  0.00     0.010 A 
ATOM     34  C   UNL A   1      36.115  34.879  32.712  1.00  0.00     0.010 A 
ATOM     35  C   UNL A   1      36.043  33.544  33.135  1.00  0.00    -0.014 A 
BRANCH  35  36
ATOM     36  C   UNL A   1      37.289  32.819  33.485  1.00  0.00     0.031 A 
ATOM     37  C   UNL A   1      38.015  33.140  34.762  1.00  0.00     0.074 A 
ATOM     38  C   UNL A   1      37.796  31.915  32.626  1.00  0.00     0.049 A 
ATOM     39  N   UNL A   1      39.145  32.660  35.216  1.00  0.00    -0.248 NA
ATOM     40  C   UNL A   1      37.401  34.154  35.632  1.00  0.00     0.031 C 
ATOM     41  C   UNL A   1      37.207  31.552  31.337  1.00  0.00     0.029 A 
ATOM     42  N   UNL A   1      38.929  31.142  32.703  1.00  0.00    -0.354 N 
ATOM     43  C   UNL A   1      39.381  33.321  36.413  1.00  0.00     0.074 A 
ATOM     44  C   UNL A   1      38.308  34.275  36.590  1.00  0.00     0.031 C 
ATOM     45  C   UNL A   1      37.969  30.613  30.753  1.00  0.00     0.029 A 
ATOM     46  C   UNL A   1      39.118  30.334  31.610  1.00  0.00     0.049 A 
ATOM     47  H   UNL A   1      39.545  31.166  33.470  1.00  0.00     0.167 HD
ATOM     48  C   UNL A   1      40.391  33.132  37.297  1.00  0.00     0.037 A 
ATOM     49  C   UNL A   1      40.112  29.469  31.329  1.00  0.00     0.037 A 
ATOM     50  C   UNL A   1      41.443  32.165  37.127  1.00  0.00     0.049 A 
ATOM     51  C   UNL A   1      41.225  29.285  32.323  1.00  0.00     0.074 A 
ATOM     52  C   UNL A   1      42.477  31.852  37.992  1.00  0.00     0.029 A 
ATOM     53  N   UNL A   1      41.597  31.355  36.011  1.00  0.00    -0.354 N 
ATOM     54  N   UNL A   1      41.402  29.864  33.486  1.00  0.00    -0.248 NA
ATOM     55  C   UNL A   1      42.275  28.320  31.968  1.00  0.00     0.031 C 
ATOM     56  C   UNL A   1      43.283  30.887  37.380  1.00  0.00     0.029 A 
ATOM     57  C   UNL A   1      42.723  30.560  36.155  1.00  0.00     0.049 A 
ATOM     58  H   UNL A   1      40.994  31.346  35.232  1.00  0.00     0.167 HD
ATOM     59  C   UNL A   1      42.565  29.320  34.012  1.00  0.00     0.074 A 
ATOM     60  C   UNL A   1      43.043  28.349  33.048  1.00  0.00     0.031 C 
ATOM     61  C   UNL A   1      43.182  29.597  35.187  1.00  0.00     0.037 A 
BRANCH  48  62
ATOM     62  C   UNL A   1      40.402  33.989  38.530  1.00  0.00     0.064 A 
ATOM     63  C   UNL A   1      41.101  35.205  38.574  1.00  0.00     0.173 A 
ATOM     64  C   UNL A   1      39.682  33.605  39.671  1.00  0.00     0.173 A 
ATOM     65  F   UNL A   1      41.815  35.613  37.514  1.00  0.00    -0.203 F 
ATOM     66  C   UNL A   1      41.104  35.989  39.726  1.00  0.00     0.198 A 
ATOM     67  C   UNL A   1      39.662  34.407  40.809  1.00  0.00     0.198 A 
ATOM     68  F   UNL A   1      38.992  32.456  39.681  1.00  0.00    -0.203 F 
ATOM     69  F   UNL A   1      41.821  37.120  39.761  1.00  0.00    -0.200 F 
ATOM     70  C   UNL A   1      40.380  35.594  40.839  1.00  0.00     0.200 A 
ATOM     71  F   UNL A   1      38.950  34.030  41.881  1.00  0.00    -0.200 F 
ATOM     72  F   UNL A   1      40.378  36.352  41.944  1.00  0.00    -0.200 F 
ENDBRANCH  48  62
BRANCH  49  73
ATOM     73  C   UNL A   1      40.083  28.694  30.062  1.00  0.00     0.064 A 
ATOM     74  C   UNL A   1      39.484  27.429  30.008  1.00  0.00     0.173 A 
ATOM     75  C   UNL A   1      40.650  29.199  28.883  1.00  0.00     0.173 A 
ATOM     76  F   UNL A   1      38.945  26.895  31.114  1.00  0.00    -0.203 F 
ATOM     77  C   UNL A   1      39.470  26.689  28.827  1.00  0.00     0.198 A 
ATOM     78  C   UNL A   1      40.611  28.471  27.696  1.00  0.00     0.198 A 
ATOM     79  F   UNL A   1      41.231  30.408  28.881  1.00  0.00    -0.203 F 
ATOM     80  F   UNL A   1      38.929  25.463  28.814  1.00  0.00    -0.200 F 
ATOM     81  C   UNL A   1      40.027  27.213  27.671  1.00  0.00     0.200 A 
ATOM     82  F   UNL A   1      41.138  28.988  26.578  1.00  0.00    -0.200 F 
ATOM     83  F   UNL A   1      40.010  26.503  26.534  1.00  0.00    -0.200 F 
ENDBRANCH  49  73
BRANCH  61  84
ATOM     84  C   UNL A   1      44.427  28.823  35.507  1.00  0.00     0.064 A 
ATOM     85  C   UNL A   1      45.695  29.268  35.104  1.00  0.00     0.173 A 
ATOM     86  C   UNL A   1      44.354  27.642  36.261  1.00  0.00     0.173 A 
ATOM     87  F   UNL A   1      45.816  30.383  34.368  1.00  0.00    -0.203 F 
ATOM     88  C   UNL A   1      46.841  28.545  35.423  1.00  0.00     0.198 A 
ATOM     89  C   UNL A   1      45.505  26.938  36.605  1.00  0.00     0.198 A 
ATOM     90  F   UNL A   1      43.166  27.176  36.677  1.00  0.00    -0.203 F 
ATOM     91  F   UNL A   1      48.037  28.963  34.987  1.00  0.00    -0.200 F 
ATOM     92  C   UNL A   1      46.746  27.385  36.178  1.00  0.00     0.200 A 
ATOM     93  F   UNL A   1      45.412  25.825  37.346  1.00  0.00    -0.200 F 
ATOM     94  F   UNL A   1      47.852  26.695  36.491  1.00  0.00    -0.200 F 
ENDBRANCH  61  84
ENDBRANCH  35  36
ENDBRANCH  27  30
ENDBRANCH  25  26
ENDBRANCH  24  25
ENDBRANCH  23  24
ENDBRANCH   1  23
TORSDOF 16
ENDMDL
MODEL 3
REMARK VINA RESULT:     -11.4      6.258     10.758
REMARK SMILES C[C@H]1[C@@H](C(=O)NCCCCCCNC(=O)c2ccc(-c3c4nc(c(-c5c(F)c(F)c(F)c(F)c5F)c5ccc([nH]5)c(-c5c(F)c(F)c(F)c(F)c5F)c5nc(c(-c6c(F)c(F)c(F)c(F)c6F)c6ccc3[nH]6)C=C5)C=C4)cc2)CC[N@@H+]1CC1(O)CCCC1
REMARK SMILES IDX 9 1 8 2 7 3 6 4 4 5 5 6 3 8 1 9 2 10 81 11 79 12 80 13 82 15
REMARK SMILES IDX 83 16 85 17 88 18 86 19 87 20 84 21 10 23 11 24 12 25 13 26
REMARK SMILES IDX 14 27 15 29 16 30 17 31 78 32 18 33 77 34 19 35 20 36 21 37
REMARK SMILES IDX 71 38 22 39 76 40 70 41 72 42 23 43 75 44 69 45 68 46 24 48
REMARK SMILES IDX 56 49 36 50 55 51 37 52 40 53 54 54 73 55 38 56 39 57 53 59
REMARK SMILES IDX 74 60 41 61 25 62 26 63 34 64 27 65 28 66 32 67 35 68 29 69
REMARK SMILES IDX 30 70 33 71 31 72 57 73 58 74 66 75 59 76 60 77 64 78 67 79
REMARK SMILES IDX 61 80 62 81 65 82 63 83 42 84 43 85 51 86 44 87 45 88 49 89
REMARK SMILES IDX 52 90 46 91 47 92 50 93 48 94
REMARK H PARENT 6 7 81 14 84 22 13 28 72 47 40 58
REMARK Flexibility Score: inf
ROOT
ATOM      1  C   UNL A   1      36.959  21.970  24.874  1.00  0.00     0.002 C 
ENDROOT
BRANCH   1   2
ATOM      2  C   UNL A   1      36.234  22.677  23.730  1.00  0.00     0.021 C 
BRANCH   2   3
ATOM      3  C   UNL A   1      35.320  23.822  24.178  1.00  0.00     0.116 C 
BRANCH   3   4
ATOM      4  N   UNL A   1      34.099  23.248  24.691  1.00  0.00    -0.356 N 
ATOM      5  C   UNL A   1      32.850  23.794  24.731  1.00  0.00     0.229 C 
ATOM      6  O   UNL A   1      32.106  23.376  25.620  1.00  0.00    -0.275 OA
ATOM      7  H   UNL A   1      34.178  22.341  25.063  1.00  0.00     0.163 HD
BRANCH   5   8
ATOM      8  C   UNL A   1      32.368  24.726  23.615  1.00  0.00     0.142 C 
ATOM      9  C   UNL A   1      33.031  26.906  24.974  1.00  0.00     0.076 C 
ATOM     10  C   UNL A   1      32.479  26.266  23.708  1.00  0.00     0.193 C 
ATOM     11  N   UNL A   1      31.121  26.802  23.572  1.00  0.00    -0.330 N 
ATOM     12  C   UNL A   1      30.873  24.478  23.335  1.00  0.00     0.081 C 
ATOM     13  C   UNL A   1      30.182  25.725  23.839  1.00  0.00     0.263 C 
ATOM     14  H   UNL A   1      30.991  27.525  24.280  1.00  0.00     0.348 HD
BRANCH  11  15
ATOM     15  C   UNL A   1      30.849  27.650  22.406  1.00  0.00     0.297 C 
BRANCH  15  16
ATOM     16  C   UNL A   1      30.340  29.108  22.561  1.00  0.00     0.113 C 
ATOM     17  C   UNL A   1      30.497  29.727  23.953  1.00  0.00     0.041 C 
ATOM     18  C   UNL A   1      28.818  29.178  22.374  1.00  0.00     0.041 C 
ATOM     19  C   UNL A   1      29.482  30.870  23.995  1.00  0.00     0.003 C 
ATOM     20  C   UNL A   1      28.433  30.545  22.935  1.00  0.00     0.003 C 
BRANCH  16  21
ATOM     21  O   UNL A   1      30.936  29.933  21.554  1.00  0.00    -0.384 OA
ATOM     22  H   UNL A   1      31.466  30.627  21.976  1.00  0.00     0.211 HD
ENDBRANCH  16  21
ENDBRANCH  15  16
ENDBRANCH  11  15
ENDBRANCH   5   8
ENDBRANCH   3   4
ENDBRANCH   2   3
ENDBRANCH   1   2
BRANCH   1  23
ATOM     23  C   UNL A   1      36.679  20.468  24.959  1.00  0.00     0.002 C 
BRANCH  23  24
ATOM     24  C   UNL A   1      37.925  19.577  24.944  1.00  0.00     0.021 C 
BRANCH  24  25
ATOM     25  C   UNL A   1      39.120  20.134  25.714  1.00  0.00     0.116 C 
BRANCH  25  26
ATOM     26  N   UNL A   1      40.157  19.132  25.898  1.00  0.00    -0.352 N 
ATOM     27  C   UNL A   1      41.503  19.303  26.077  1.00  0.00     0.251 C 
ATOM     28  H   UNL A   1      39.847  18.198  25.893  1.00  0.00     0.163 HD
ATOM     29  O   UNL A   1      42.271  18.347  25.971  1.00  0.00    -0.269 OA
BRANCH  27  30
ATOM     30  C   UNL A   1      42.038  20.641  26.389  1.00  0.00     0.039 A 
ATOM     31  C   UNL A   1      42.367  21.500  25.338  1.00  0.00     0.014 A 
ATOM     32  C   UNL A   1      42.235  21.038  27.715  1.00  0.00     0.014 A 
ATOM     33  C   UNL A   1      42.851  22.779  25.619  1.00  0.00     0.010 A 
ATOM     34  C   UNL A   1      42.650  22.336  27.994  1.00  0.00     0.010 A 
ATOM     35  C   UNL A   1      42.971  23.215  26.949  1.00  0.00    -0.014 A 
BRANCH  35  36
ATOM     36  C   UNL A   1      43.444  24.586  27.263  1.00  0.00     0.031 A 
ATOM     37  C   UNL A   1      42.487  25.604  27.816  1.00  0.00     0.074 A 
ATOM     38  C   UNL A   1      44.718  24.927  26.995  1.00  0.00     0.049 A 
ATOM     39  N   UNL A   1      42.693  26.866  28.099  1.00  0.00    -0.248 NA
ATOM     40  C   UNL A   1      41.109  25.152  28.060  1.00  0.00     0.031 C 
ATOM     41  C   UNL A   1      45.726  24.039  26.415  1.00  0.00     0.029 A 
ATOM     42  N   UNL A   1      45.382  26.117  27.165  1.00  0.00    -0.354 N 
ATOM     43  C   UNL A   1      41.472  27.357  28.540  1.00  0.00     0.074 A 
ATOM     44  C   UNL A   1      40.517  26.276  28.436  1.00  0.00     0.031 C 
ATOM     45  C   UNL A   1      46.885  24.706  26.299  1.00  0.00     0.029 A 
ATOM     46  C   UNL A   1      46.693  26.078  26.761  1.00  0.00     0.049 A 
ATOM     47  H   UNL A   1      44.957  26.921  27.542  1.00  0.00     0.167 HD
ATOM     48  C   UNL A   1      41.179  28.593  29.012  1.00  0.00     0.037 A 
ATOM     49  C   UNL A   1      47.632  27.044  26.758  1.00  0.00     0.037 A 
ATOM     50  C   UNL A   1      42.139  29.659  29.135  1.00  0.00     0.049 A 
ATOM     51  C   UNL A   1      47.278  28.410  27.278  1.00  0.00     0.074 A 
ATOM     52  C   UNL A   1      41.959  30.928  29.658  1.00  0.00     0.029 A 
ATOM     53  N   UNL A   1      43.462  29.580  28.725  1.00  0.00    -0.354 N 
ATOM     54  N   UNL A   1      46.139  28.844  27.760  1.00  0.00    -0.248 NA
ATOM     55  C   UNL A   1      48.346  29.420  27.262  1.00  0.00     0.031 C 
ATOM     56  C   UNL A   1      43.160  31.632  29.522  1.00  0.00     0.029 A 
ATOM     57  C   UNL A   1      44.104  30.785  28.961  1.00  0.00     0.049 A 
ATOM     58  H   UNL A   1      43.884  28.784  28.326  1.00  0.00     0.167 HD
ATOM     59  C   UNL A   1      46.356  30.165  28.125  1.00  0.00     0.074 A 
ATOM     60  C   UNL A   1      47.743  30.457  27.826  1.00  0.00     0.031 C 
ATOM     61  C   UNL A   1      45.486  31.057  28.659  1.00  0.00     0.037 A 
BRANCH  48  62
ATOM     62  C   UNL A   1      39.763  28.858  29.433  1.00  0.00     0.064 A 
ATOM     63  C   UNL A   1      38.811  29.365  28.535  1.00  0.00     0.173 A 
ATOM     64  C   UNL A   1      39.343  28.573  30.740  1.00  0.00     0.173 A 
ATOM     65  F   UNL A   1      39.163  29.665  27.276  1.00  0.00    -0.203 F 
ATOM     66  C   UNL A   1      37.500  29.607  28.940  1.00  0.00     0.198 A 
ATOM     67  C   UNL A   1      38.024  28.786  31.133  1.00  0.00     0.198 A 
ATOM     68  F   UNL A   1      40.209  28.081  31.638  1.00  0.00    -0.203 F 
ATOM     69  F   UNL A   1      36.623  30.140  28.079  1.00  0.00    -0.200 F 
ATOM     70  C   UNL A   1      37.106  29.311  30.235  1.00  0.00     0.200 A 
ATOM     71  F   UNL A   1      37.641  28.487  32.382  1.00  0.00    -0.200 F 
ATOM     72  F   UNL A   1      35.843  29.538  30.621  1.00  0.00    -0.200 F 
ENDBRANCH  48  62
BRANCH  49  73
ATOM     73  C   UNL A   1      49.002  26.744  26.269  1.00  0.00     0.064 A 
ATOM     74  C   UNL A   1      49.973  26.217  27.131  1.00  0.00     0.173 A 
ATOM     75  C   UNL A   1      49.368  26.974  24.935  1.00  0.00     0.173 A 
ATOM     76  F   UNL A   1      49.675  25.997  28.420  1.00  0.00    -0.203 F 
ATOM     77  C   UNL A   1      51.265  25.950  26.683  1.00  0.00     0.198 A 
ATOM     78  C   UNL A   1      50.653  26.681  24.480  1.00  0.00     0.198 A 
ATOM     79  F   UNL A   1      48.474  27.472  24.068  1.00  0.00    -0.203 F 
ATOM     80  F   UNL A   1      52.187  25.488  27.539  1.00  0.00    -0.200 F 
ATOM     81  C   UNL A   1      51.602  26.176  25.357  1.00  0.00     0.200 A 
ATOM     82  F   UNL A   1      50.969  26.887  23.195  1.00  0.00    -0.200 F 
ATOM     83  F   UNL A   1      52.843  25.916  24.925  1.00  0.00    -0.200 F 
ENDBRANCH  49  73
BRANCH  61  84
ATOM     84  C   UNL A   1      46.015  32.424  28.980  1.00  0.00     0.064 A 
ATOM     85  C   UNL A   1      46.631  32.704  30.209  1.00  0.00     0.173 A 
ATOM     86  C   UNL A   1      45.941  33.455  28.032  1.00  0.00     0.173 A 
ATOM     87  F   UNL A   1      46.713  31.757  31.155  1.00  0.00    -0.203 F 
ATOM     88  C   UNL A   1      47.130  33.975  30.485  1.00  0.00     0.198 A 
ATOM     89  C   UNL A   1      46.469  34.715  28.299  1.00  0.00     0.198 A 
ATOM     90  F   UNL A   1      45.368  33.237  26.838  1.00  0.00    -0.203 F 
ATOM     91  F   UNL A   1      47.671  34.233  31.683  1.00  0.00    -0.200 F 
ATOM     92  C   UNL A   1      47.055  34.976  29.528  1.00  0.00     0.200 A 
ATOM     93  F   UNL A   1      46.408  35.678  27.369  1.00  0.00    -0.200 F 
ATOM     94  F   UNL A   1      47.543  36.196  29.794  1.00  0.00    -0.200 F 
ENDBRANCH  61  84
ENDBRANCH  35  36
ENDBRANCH  27  30
ENDBRANCH  25  26
ENDBRANCH  24  25
ENDBRANCH  23  24
ENDBRANCH   1  23
TORSDOF 16
ENDMDL
