MODEL 1
REMARK VINA RESULT:     -12.5      0.000      0.000
REMARK SMILES CC1=C2C(=O)N(C[C@H]3CCCO3)C(=O)N=C2S[C@@H]1C(=O)NCCCCCCNC(=O)c1ccc(-c2c3nc(c(-c4c(F)c(F)c(F)c(F)c4F)c4ccc([nH]4)c(-c4c(F)c(F)c(F)c(F)c4F)c4nc(c(-c5c(F)c(F)c(F)c(F)c5F)c5ccc2[nH]5)C=C4)C=C3)cc1
REMARK SMILES IDX 24 1 23 2 22 3 21 4 19 5 20 6 18 8 1 9 2 10 3 11 4 12 16 13
REMARK SMILES IDX 17 14 5 15 6 16 15 17 13 18 14 19 7 20 8 21 9 22 12 23 10 24
REMARK SMILES IDX 11 25 25 26 26 27 27 28 28 29 29 30 30 32 31 33 32 34 93 35
REMARK SMILES IDX 33 36 92 37 34 38 35 39 36 40 86 41 37 42 91 43 85 44 87 45
REMARK SMILES IDX 38 46 90 47 84 48 83 49 39 51 71 52 51 53 70 54 52 55 55 56
REMARK SMILES IDX 69 57 88 58 53 59 54 60 68 62 89 63 56 64 40 65 41 66 49 67
REMARK SMILES IDX 42 68 43 69 47 70 50 71 44 72 45 73 48 74 46 75 72 76 73 77
REMARK SMILES IDX 81 78 74 79 75 80 79 81 82 82 76 83 77 84 80 85 78 86 57 87
REMARK SMILES IDX 58 88 66 89 59 90 60 91 64 92 67 93 61 94 62 95 65 96 63 97
REMARK H PARENT 21 7 28 31 87 50 55 61
REMARK Flexibility Score: inf
ROOT
ATOM      1  C   UNL A   1      31.678  29.942  25.421  1.00  0.00     0.002 C 
ENDROOT
BRANCH   1   2
ATOM      2  C   UNL A   1      32.990  29.365  24.884  1.00  0.00     0.021 C 
BRANCH   2   3
ATOM      3  C   UNL A   1      32.942  28.987  23.407  1.00  0.00     0.116 C 
BRANCH   3   4
ATOM      4  N   UNL A   1      31.602  29.125  22.869  1.00  0.00    -0.355 N 
ATOM      5  C   UNL A   1      30.703  28.196  22.438  1.00  0.00     0.237 C 
ATOM      6  O   UNL A   1      29.619  28.619  22.019  1.00  0.00    -0.273 OA
ATOM      7  H   UNL A   1      31.285  30.055  22.805  1.00  0.00     0.163 HD
BRANCH   5   8
ATOM      8  C   UNL A   1      30.950  26.684  22.526  1.00  0.00     0.169 C 
ATOM      9  C   UNL A   1      30.546  26.523  25.065  1.00  0.00     0.042 C 
ATOM     10  C   UNL A   1      31.410  26.218  23.881  1.00  0.00    -0.035 C 
ATOM     11  C   UNL A   1      32.554  25.521  23.890  1.00  0.00     0.073 C 
ATOM     12  C   UNL A   1      33.308  24.961  25.007  1.00  0.00     0.264 C 
ATOM     13  C   UNL A   1      33.113  25.288  22.571  1.00  0.00     0.116 C 
ATOM     14  S   UNL A   1      32.211  26.116  21.334  1.00  0.00    -0.087 SA
ATOM     15  O   UNL A   1      33.292  25.490  26.110  1.00  0.00    -0.268 OA
ATOM     16  N   UNL A   1      34.074  23.889  24.627  1.00  0.00    -0.256 N 
ATOM     17  N   UNL A   1      34.143  24.570  22.328  1.00  0.00    -0.186 NA
ATOM     18  C   UNL A   1      34.699  23.859  23.371  1.00  0.00     0.351 C 
ATOM     19  O   UNL A   1      35.714  23.198  23.188  1.00  0.00    -0.246 OA
BRANCH  16  20
ATOM     20  C   UNL A   1      34.233  22.726  25.497  1.00  0.00     0.163 C 
BRANCH  20  21
ATOM     21  C   UNL A   1      33.018  21.904  25.975  1.00  0.00     0.138 C 
ATOM     22  C   UNL A   1      31.942  21.552  24.954  1.00  0.00     0.036 C 
ATOM     23  O   UNL A   1      33.544  20.594  26.335  1.00  0.00    -0.376 OA
ATOM     24  C   UNL A   1      32.552  20.417  24.177  1.00  0.00     0.031 C 
ATOM     25  C   UNL A   1      33.331  19.682  25.242  1.00  0.00     0.160 C 
ENDBRANCH  20  21
ENDBRANCH  16  20
ENDBRANCH   5   8
ENDBRANCH   3   4
ENDBRANCH   2   3
ENDBRANCH   1   2
BRANCH   1  26
ATOM     26  C   UNL A   1      31.769  30.587  26.809  1.00  0.00     0.002 C 
BRANCH  26  27
ATOM     27  C   UNL A   1      31.513  32.096  26.855  1.00  0.00     0.021 C 
BRANCH  27  28
ATOM     28  C   UNL A   1      32.763  32.961  26.994  1.00  0.00     0.116 C 
BRANCH  28  29
ATOM     29  N   UNL A   1      32.473  34.263  27.569  1.00  0.00    -0.352 N 
ATOM     30  C   UNL A   1      33.027  34.878  28.662  1.00  0.00     0.251 C 
ATOM     31  H   UNL A   1      31.775  34.781  27.105  1.00  0.00     0.163 HD
ATOM     32  O   UNL A   1      32.542  35.923  29.088  1.00  0.00    -0.269 OA
BRANCH  30  33
ATOM     33  C   UNL A   1      34.194  34.281  29.346  1.00  0.00     0.039 A 
ATOM     34  C   UNL A   1      33.967  33.428  30.430  1.00  0.00     0.014 A 
ATOM     35  C   UNL A   1      35.502  34.587  28.957  1.00  0.00     0.014 A 
ATOM     36  C   UNL A   1      35.048  32.847  31.096  1.00  0.00     0.010 A 
ATOM     37  C   UNL A   1      36.578  33.964  29.587  1.00  0.00     0.010 A 
ATOM     38  C   UNL A   1      36.361  33.095  30.667  1.00  0.00    -0.014 A 
BRANCH  38  39
ATOM     39  C   UNL A   1      37.519  32.469  31.352  1.00  0.00     0.031 A 
ATOM     40  C   UNL A   1      38.271  31.350  30.692  1.00  0.00     0.074 A 
ATOM     41  C   UNL A   1      37.858  32.874  32.590  1.00  0.00     0.049 A 
ATOM     42  N   UNL A   1      39.275  30.644  31.149  1.00  0.00    -0.248 NA
ATOM     43  C   UNL A   1      37.821  30.955  29.348  1.00  0.00     0.031 C 
ATOM     44  C   UNL A   1      37.180  33.923  33.353  1.00  0.00     0.029 A 
ATOM     45  N   UNL A   1      38.856  32.444  33.428  1.00  0.00    -0.354 N 
ATOM     46  C   UNL A   1      39.561  29.711  30.161  1.00  0.00     0.074 A 
ATOM     47  C   UNL A   1      38.603  29.915  29.096  1.00  0.00     0.031 C 
ATOM     48  C   UNL A   1      37.793  34.070  34.538  1.00  0.00     0.029 A 
ATOM     49  C   UNL A   1      38.888  33.108  34.630  1.00  0.00     0.049 A 
ATOM     50  H   UNL A   1      39.488  31.728  33.191  1.00  0.00     0.167 HD
ATOM     51  C   UNL A   1      40.545  28.780  30.137  1.00  0.00     0.037 A 
ATOM     52  C   UNL A   1      39.710  32.955  35.685  1.00  0.00     0.037 A 
ATOM     53  C   UNL A   1      41.521  28.603  31.180  1.00  0.00     0.049 A 
ATOM     54  C   UNL A   1      40.805  31.927  35.626  1.00  0.00     0.074 A 
ATOM     55  C   UNL A   1      42.600  27.737  31.215  1.00  0.00     0.029 A 
ATOM     56  N   UNL A   1      41.534  29.309  32.374  1.00  0.00    -0.354 N 
ATOM     57  N   UNL A   1      41.108  31.096  34.658  1.00  0.00    -0.248 NA
ATOM     58  C   UNL A   1      41.676  31.820  36.805  1.00  0.00     0.031 C 
ATOM     59  C   UNL A   1      43.249  27.897  32.445  1.00  0.00     0.029 A 
ATOM     60  C   UNL A   1      42.594  28.888  33.160  1.00  0.00     0.049 A 
ATOM     61  H   UNL A   1      40.886  30.006  32.625  1.00  0.00     0.167 HD
ATOM     62  C   UNL A   1      42.218  30.388  35.098  1.00  0.00     0.074 A 
ATOM     63  C   UNL A   1      42.542  30.893  36.416  1.00  0.00     0.031 C 
ATOM     64  C   UNL A   1      42.908  29.409  34.465  1.00  0.00     0.037 A 
BRANCH  51  65
ATOM     65  C   UNL A   1      40.614  27.880  28.940  1.00  0.00     0.064 A 
ATOM     66  C   UNL A   1      39.883  26.685  28.876  1.00  0.00     0.173 A 
ATOM     67  C   UNL A   1      41.401  28.229  27.832  1.00  0.00     0.173 A 
ATOM     68  F   UNL A   1      39.125  26.301  29.915  1.00  0.00    -0.203 F 
ATOM     69  C   UNL A   1      39.957  25.859  27.758  1.00  0.00     0.198 A 
ATOM     70  C   UNL A   1      41.453  27.413  26.706  1.00  0.00     0.198 A 
ATOM     71  F   UNL A   1      42.115  29.365  27.841  1.00  0.00    -0.203 F 
ATOM     72  F   UNL A   1      39.285  24.699  27.738  1.00  0.00    -0.200 F 
ATOM     73  C   UNL A   1      40.738  26.226  26.673  1.00  0.00     0.200 A 
ATOM     74  F   UNL A   1      42.200  27.773  25.653  1.00  0.00    -0.200 F 
ATOM     75  F   UNL A   1      40.807  25.430  25.596  1.00  0.00    -0.200 F 
ENDBRANCH  51  65
BRANCH  52  76
ATOM     76  C   UNL A   1      39.554  33.830  36.874  1.00  0.00     0.064 A 
ATOM     77  C   UNL A   1      40.202  35.072  36.936  1.00  0.00     0.173 A 
ATOM     78  C   UNL A   1      38.760  33.450  37.964  1.00  0.00     0.173 A 
ATOM     79  F   UNL A   1      40.989  35.468  35.924  1.00  0.00    -0.203 F 
ATOM     80  C   UNL A   1      40.072  35.895  38.052  1.00  0.00     0.198 A 
ATOM     81  C   UNL A   1      38.613  34.283  39.070  1.00  0.00     0.198 A 
ATOM     82  F   UNL A   1      38.119  32.272  37.948  1.00  0.00    -0.203 F 
ATOM     83  F   UNL A   1      40.729  37.062  38.101  1.00  0.00    -0.200 F 
ATOM     84  C   UNL A   1      39.273  35.503  39.116  1.00  0.00     0.200 A 
ATOM     85  F   UNL A   1      37.833  33.907  40.092  1.00  0.00    -0.200 F 
ATOM     86  F   UNL A   1      39.146  36.297  40.187  1.00  0.00    -0.200 F 
ENDBRANCH  52  76
BRANCH  64  87
ATOM     87  C   UNL A   1      44.101  28.845  35.174  1.00  0.00     0.064 A 
ATOM     88  C   UNL A   1      45.375  29.415  35.034  1.00  0.00     0.173 A 
ATOM     89  C   UNL A   1      43.962  27.741  36.028  1.00  0.00     0.173 A 
ATOM     90  F   UNL A   1      45.560  30.460  34.215  1.00  0.00    -0.203 F 
ATOM     91  C   UNL A   1      46.472  28.885  35.710  1.00  0.00     0.198 A 
ATOM     92  C   UNL A   1      45.056  27.229  36.720  1.00  0.00     0.198 A 
ATOM     93  F   UNL A   1      42.763  27.163  36.197  1.00  0.00    -0.203 F 
ATOM     94  F   UNL A   1      47.687  29.420  35.531  1.00  0.00    -0.200 F 
ATOM     95  C   UNL A   1      46.310  27.799  36.556  1.00  0.00     0.200 A 
ATOM     96  F   UNL A   1      44.898  26.185  37.544  1.00  0.00    -0.200 F 
ATOM     97  F   UNL A   1      47.366  27.293  37.208  1.00  0.00    -0.200 F 
ENDBRANCH  64  87
ENDBRANCH  38  39
ENDBRANCH  30  33
ENDBRANCH  28  29
ENDBRANCH  27  28
ENDBRANCH  26  27
ENDBRANCH   1  26
TORSDOF 15
ENDMDL
MODEL 2
REMARK VINA RESULT:     -12.4      0.642      7.168
REMARK SMILES CC1=C2C(=O)N(C[C@H]3CCCO3)C(=O)N=C2S[C@@H]1C(=O)NCCCCCCNC(=O)c1ccc(-c2c3nc(c(-c4c(F)c(F)c(F)c(F)c4F)c4ccc([nH]4)c(-c4c(F)c(F)c(F)c(F)c4F)c4nc(c(-c5c(F)c(F)c(F)c(F)c5F)c5ccc2[nH]5)C=C4)C=C3)cc1
REMARK SMILES IDX 24 1 23 2 22 3 21 4 19 5 20 6 18 8 1 9 2 10 3 11 4 12 16 13
REMARK SMILES IDX 17 14 5 15 6 16 15 17 13 18 14 19 7 20 8 21 9 22 12 23 10 24
REMARK SMILES IDX 11 25 25 26 26 27 27 28 28 29 29 30 30 32 31 33 32 34 93 35
REMARK SMILES IDX 33 36 92 37 34 38 35 39 36 40 86 41 37 42 91 43 85 44 87 45
REMARK SMILES IDX 38 46 90 47 84 48 83 49 39 51 71 52 51 53 70 54 52 55 55 56
REMARK SMILES IDX 69 57 88 58 53 59 54 60 68 62 89 63 56 64 40 65 41 66 49 67
REMARK SMILES IDX 42 68 43 69 47 70 50 71 44 72 45 73 48 74 46 75 72 76 73 77
REMARK SMILES IDX 81 78 74 79 75 80 79 81 82 82 76 83 77 84 80 85 78 86 57 87
REMARK SMILES IDX 58 88 66 89 59 90 60 91 64 92 67 93 61 94 62 95 65 96 63 97
REMARK H PARENT 21 7 28 31 87 50 55 61
REMARK Flexibility Score: inf
ROOT
ATOM      1  C   UNL A   1      31.700  30.005  25.363  1.00  0.00     0.002 C 
ENDROOT
BRANCH   1   2
ATOM      2  C   UNL A   1      32.979  29.344  24.842  1.00  0.00     0.021 C 
BRANCH   2   3
ATOM      3  C   UNL A   1      32.923  28.966  23.365  1.00  0.00     0.116 C 
BRANCH   3   4
ATOM      4  N   UNL A   1      31.579  29.093  22.837  1.00  0.00    -0.355 N 
ATOM      5  C   UNL A   1      30.677  28.155  22.428  1.00  0.00     0.237 C 
ATOM      6  O   UNL A   1      29.589  28.570  22.012  1.00  0.00    -0.273 OA
ATOM      7  H   UNL A   1      31.259  30.021  22.761  1.00  0.00     0.163 HD
BRANCH   5   8
ATOM      8  C   UNL A   1      30.928  26.646  22.539  1.00  0.00     0.169 C 
ATOM      9  C   UNL A   1      30.569  26.529  25.087  1.00  0.00     0.042 C 
ATOM     10  C   UNL A   1      31.412  26.204  23.893  1.00  0.00    -0.035 C 
ATOM     11  C   UNL A   1      32.557  25.509  23.894  1.00  0.00     0.073 C 
ATOM     12  C   UNL A   1      33.332  24.969  25.007  1.00  0.00     0.264 C 
ATOM     13  C   UNL A   1      33.094  25.253  22.569  1.00  0.00     0.116 C 
ATOM     14  S   UNL A   1      32.168  26.058  21.335  1.00  0.00    -0.087 SA
ATOM     15  O   UNL A   1      33.335  25.517  26.101  1.00  0.00    -0.268 OA
ATOM     16  N   UNL A   1      34.093  23.892  24.632  1.00  0.00    -0.256 N 
ATOM     17  N   UNL A   1      34.120  24.532  22.321  1.00  0.00    -0.186 NA
ATOM     18  C   UNL A   1      34.695  23.840  23.366  1.00  0.00     0.351 C 
ATOM     19  O   UNL A   1      35.708  23.177  23.177  1.00  0.00    -0.246 OA
BRANCH  16  20
ATOM     20  C   UNL A   1      34.269  22.744  25.520  1.00  0.00     0.163 C 
BRANCH  20  21
ATOM     21  C   UNL A   1      33.101  21.792  25.848  1.00  0.00     0.138 C 
ATOM     22  C   UNL A   1      32.001  21.616  24.807  1.00  0.00     0.036 C 
ATOM     23  O   UNL A   1      33.683  20.458  25.911  1.00  0.00    -0.376 OA
ATOM     24  C   UNL A   1      32.621  20.695  23.793  1.00  0.00     0.031 C 
ATOM     25  C   UNL A   1      33.462  19.785  24.657  1.00  0.00     0.160 C 
ENDBRANCH  20  21
ENDBRANCH  16  20
ENDBRANCH   5   8
ENDBRANCH   3   4
ENDBRANCH   2   3
ENDBRANCH   1   2
BRANCH   1  26
ATOM     26  C   UNL A   1      31.789  30.565  26.787  1.00  0.00     0.002 C 
BRANCH  26  27
ATOM     27  C   UNL A   1      31.498  32.062  26.929  1.00  0.00     0.021 C 
BRANCH  27  28
ATOM     28  C   UNL A   1      32.731  32.963  26.935  1.00  0.00     0.116 C 
BRANCH  28  29
ATOM     29  N   UNL A   1      32.489  34.224  27.615  1.00  0.00    -0.352 N 
ATOM     30  C   UNL A   1      33.093  34.745  28.730  1.00  0.00     0.251 C 
ATOM     31  H   UNL A   1      31.789  34.789  27.214  1.00  0.00     0.163 HD
ATOM     32  O   UNL A   1      32.647  35.764  29.249  1.00  0.00    -0.269 OA
BRANCH  30  33
ATOM     33  C   UNL A   1      34.269  34.074  29.327  1.00  0.00     0.039 A 
ATOM     34  C   UNL A   1      34.057  33.144  30.349  1.00  0.00     0.014 A 
ATOM     35  C   UNL A   1      35.570  34.385  28.921  1.00  0.00     0.014 A 
ATOM     36  C   UNL A   1      35.146  32.492  30.933  1.00  0.00     0.010 A 
ATOM     37  C   UNL A   1      36.652  33.695  29.465  1.00  0.00     0.010 A 
ATOM     38  C   UNL A   1      36.450  32.749  30.481  1.00  0.00    -0.014 A 
BRANCH  38  39
ATOM     39  C   UNL A   1      37.615  32.050  31.078  1.00  0.00     0.031 A 
ATOM     40  C   UNL A   1      38.085  32.409  32.458  1.00  0.00     0.074 A 
ATOM     41  C   UNL A   1      38.281  31.129  30.356  1.00  0.00     0.049 A 
ATOM     42  N   UNL A   1      39.110  31.949  33.130  1.00  0.00    -0.248 NA
ATOM     43  C   UNL A   1      37.313  33.441  33.169  1.00  0.00     0.031 C 
ATOM     44  C   UNL A   1      37.947  30.722  28.990  1.00  0.00     0.029 A 
ATOM     45  N   UNL A   1      39.383  30.374  30.669  1.00  0.00    -0.354 N 
ATOM     46  C   UNL A   1      39.119  32.648  34.330  1.00  0.00     0.074 A 
ATOM     47  C   UNL A   1      38.021  33.590  34.281  1.00  0.00     0.031 C 
ATOM     48  C   UNL A   1      38.813  29.778  28.590  1.00  0.00     0.029 A 
ATOM     49  C   UNL A   1      39.777  29.533  29.659  1.00  0.00     0.049 A 
ATOM     50  H   UNL A   1      39.846  30.431  31.536  1.00  0.00     0.167 HD
ATOM     51  C   UNL A   1      39.958  32.506  35.385  1.00  0.00     0.037 A 
ATOM     52  C   UNL A   1      40.803  28.662  29.604  1.00  0.00     0.037 A 
ATOM     53  C   UNL A   1      41.026  31.544  35.449  1.00  0.00     0.049 A 
ATOM     54  C   UNL A   1      41.708  28.510  30.795  1.00  0.00     0.074 A 
ATOM     55  C   UNL A   1      41.882  31.273  36.502  1.00  0.00     0.029 A 
ATOM     56  N   UNL A   1      41.382  30.693  34.413  1.00  0.00    -0.354 N 
ATOM     57  N   UNL A   1      41.666  29.129  31.950  1.00  0.00    -0.248 NA
ATOM     58  C   UNL A   1      42.800  27.534  30.675  1.00  0.00     0.031 C 
ATOM     59  C   UNL A   1      42.778  30.278  36.092  1.00  0.00     0.029 A 
ATOM     60  C   UNL A   1      42.456  29.906  34.796  1.00  0.00     0.049 A 
ATOM     61  H   UNL A   1      40.937  30.654  33.536  1.00  0.00     0.167 HD
ATOM     62  C   UNL A   1      42.704  28.600  32.703  1.00  0.00     0.074 A 
ATOM     63  C   UNL A   1      43.354  27.602  31.878  1.00  0.00     0.031 C 
ATOM     64  C   UNL A   1      43.083  28.911  33.966  1.00  0.00     0.037 A 
BRANCH  51  65
ATOM     65  C   UNL A   1      39.749  33.414  36.559  1.00  0.00     0.064 A 
ATOM     66  C   UNL A   1      38.873  33.077  37.602  1.00  0.00     0.173 A 
ATOM     67  C   UNL A   1      40.452  34.624  36.658  1.00  0.00     0.173 A 
ATOM     68  F   UNL A   1      38.167  31.937  37.549  1.00  0.00    -0.203 F 
ATOM     69  C   UNL A   1      38.688  33.930  38.686  1.00  0.00     0.198 A 
ATOM     70  C   UNL A   1      40.284  35.463  37.756  1.00  0.00     0.198 A 
ATOM     71  F   UNL A   1      41.307  34.990  35.690  1.00  0.00    -0.203 F 
ATOM     72  F   UNL A   1      37.811  33.608  39.648  1.00  0.00    -0.200 F 
ATOM     73  C   UNL A   1      39.397  35.119  38.764  1.00  0.00     0.200 A 
ATOM     74  F   UNL A   1      40.977  36.607  37.835  1.00  0.00    -0.200 F 
ATOM     75  F   UNL A   1      39.220  35.939  39.810  1.00  0.00    -0.200 F 
ENDBRANCH  51  65
BRANCH  52  76
ATOM     76  C   UNL A   1      41.003  27.834  28.389  1.00  0.00     0.064 A 
ATOM     77  C   UNL A   1      41.820  28.286  27.343  1.00  0.00     0.173 A 
ATOM     78  C   UNL A   1      40.391  26.581  28.247  1.00  0.00     0.173 A 
ATOM     79  F   UNL A   1      42.409  29.488  27.426  1.00  0.00    -0.203 F 
ATOM     80  C   UNL A   1      42.004  27.522  26.193  1.00  0.00     0.198 A 
ATOM     81  C   UNL A   1      40.594  25.808  27.108  1.00  0.00     0.198 A 
ATOM     82  F   UNL A   1      39.604  26.106  29.223  1.00  0.00    -0.203 F 
ATOM     83  F   UNL A   1      42.762  27.992  25.193  1.00  0.00    -0.200 F 
ATOM     84  C   UNL A   1      41.396  26.280  26.079  1.00  0.00     0.200 A 
ATOM     85  F   UNL A   1      40.013  24.605  27.003  1.00  0.00    -0.200 F 
ATOM     86  F   UNL A   1      41.577  25.544  24.974  1.00  0.00    -0.200 F 
ENDBRANCH  52  76
BRANCH  64  87
ATOM     87  C   UNL A   1      44.231  28.141  34.545  1.00  0.00     0.064 A 
ATOM     88  C   UNL A   1      44.035  26.922  35.211  1.00  0.00     0.173 A 
ATOM     89  C   UNL A   1      45.544  28.612  34.404  1.00  0.00     0.173 A 
ATOM     90  F   UNL A   1      42.796  26.440  35.386  1.00  0.00    -0.203 F 
ATOM     91  C   UNL A   1      45.114  26.213  35.733  1.00  0.00     0.198 A 
ATOM     92  C   UNL A   1      46.622  27.889  34.907  1.00  0.00     0.198 A 
ATOM     93  F   UNL A   1      45.782  29.771  33.773  1.00  0.00    -0.203 F 
ATOM     94  F   UNL A   1      44.902  25.070  36.400  1.00  0.00    -0.200 F 
ATOM     95  C   UNL A   1      46.405  26.693  35.574  1.00  0.00     0.200 A 
ATOM     96  F   UNL A   1      47.870  28.349  34.746  1.00  0.00    -0.200 F 
ATOM     97  F   UNL A   1      47.442  26.007  36.075  1.00  0.00    -0.200 F 
ENDBRANCH  64  87
ENDBRANCH  38  39
ENDBRANCH  30  33
ENDBRANCH  28  29
ENDBRANCH  27  28
ENDBRANCH  26  27
ENDBRANCH   1  26
TORSDOF 15
ENDMDL
MODEL 3
REMARK VINA RESULT:     -12.2      0.309      1.588
REMARK SMILES CC1=C2C(=O)N(C[C@H]3CCCO3)C(=O)N=C2S[C@@H]1C(=O)NCCCCCCNC(=O)c1ccc(-c2c3nc(c(-c4c(F)c(F)c(F)c(F)c4F)c4ccc([nH]4)c(-c4c(F)c(F)c(F)c(F)c4F)c4nc(c(-c5c(F)c(F)c(F)c(F)c5F)c5ccc2[nH]5)C=C4)C=C3)cc1
REMARK SMILES IDX 24 1 23 2 22 3 21 4 19 5 20 6 18 8 1 9 2 10 3 11 4 12 16 13
REMARK SMILES IDX 17 14 5 15 6 16 15 17 13 18 14 19 7 20 8 21 9 22 12 23 10 24
REMARK SMILES IDX 11 25 25 26 26 27 27 28 28 29 29 30 30 32 31 33 32 34 93 35
REMARK SMILES IDX 33 36 92 37 34 38 35 39 36 40 86 41 37 42 91 43 85 44 87 45
REMARK SMILES IDX 38 46 90 47 84 48 83 49 39 51 71 52 51 53 70 54 52 55 55 56
REMARK SMILES IDX 69 57 88 58 53 59 54 60 68 62 89 63 56 64 40 65 41 66 49 67
REMARK SMILES IDX 42 68 43 69 47 70 50 71 44 72 45 73 48 74 46 75 72 76 73 77
REMARK SMILES IDX 81 78 74 79 75 80 79 81 82 82 76 83 77 84 80 85 78 86 57 87
REMARK SMILES IDX 58 88 66 89 59 90 60 91 64 92 67 93 61 94 62 95 65 96 63 97
REMARK H PARENT 21 7 28 31 87 50 55 61
REMARK Flexibility Score: inf
ROOT
ATOM      1  C   UNL A   1      32.843  30.271  25.916  1.00  0.00     0.002 C 
ENDROOT
BRANCH   1   2
ATOM      2  C   UNL A   1      32.985  28.885  25.279  1.00  0.00     0.021 C 
BRANCH   2   3
ATOM      3  C   UNL A   1      33.147  28.915  23.762  1.00  0.00     0.116 C 
BRANCH   3   4
ATOM      4  N   UNL A   1      31.868  29.074  23.097  1.00  0.00    -0.355 N 
ATOM      5  C   UNL A   1      31.028  28.164  22.528  1.00  0.00     0.237 C 
ATOM      6  O   UNL A   1      29.988  28.603  22.022  1.00  0.00    -0.273 OA
ATOM      7  H   UNL A   1      31.550  30.004  23.047  1.00  0.00     0.163 HD
BRANCH   5   8
ATOM      8  C   UNL A   1      31.279  26.651  22.565  1.00  0.00     0.169 C 
ATOM      9  C   UNL A   1      30.447  26.328  24.981  1.00  0.00     0.042 C 
ATOM     10  C   UNL A   1      31.506  26.103  23.947  1.00  0.00    -0.035 C 
ATOM     11  C   UNL A   1      32.643  25.412  24.112  1.00  0.00     0.073 C 
ATOM     12  C   UNL A   1      33.202  24.787  25.306  1.00  0.00     0.264 C 
ATOM     13  C   UNL A   1      33.425  25.266  22.897  1.00  0.00     0.116 C 
ATOM     14  S   UNL A   1      32.736  26.165  21.576  1.00  0.00    -0.087 SA
ATOM     15  O   UNL A   1      32.988  25.244  26.419  1.00  0.00    -0.268 OA
ATOM     16  N   UNL A   1      34.040  23.745  24.998  1.00  0.00    -0.256 N 
ATOM     17  N   UNL A   1      34.492  24.570  22.792  1.00  0.00    -0.186 NA
ATOM     18  C   UNL A   1      34.871  23.797  23.870  1.00  0.00     0.351 C 
ATOM     19  O   UNL A   1      35.914  23.154  23.825  1.00  0.00    -0.246 OA
BRANCH  16  20
ATOM     20  C   UNL A   1      34.064  22.529  25.810  1.00  0.00     0.163 C 
BRANCH  20  21
ATOM     21  C   UNL A   1      32.826  21.618  25.936  1.00  0.00     0.138 C 
ATOM     22  C   UNL A   1      31.879  21.523  24.745  1.00  0.00     0.036 C 
ATOM     23  O   UNL A   1      33.343  20.259  26.030  1.00  0.00    -0.376 OA
ATOM     24  C   UNL A   1      32.600  20.608  23.794  1.00  0.00     0.031 C 
ATOM     25  C   UNL A   1      33.277  19.637  24.733  1.00  0.00     0.160 C 
ENDBRANCH  20  21
ENDBRANCH  16  20
ENDBRANCH   5   8
ENDBRANCH   3   4
ENDBRANCH   2   3
ENDBRANCH   1   2
BRANCH   1  26
ATOM     26  C   UNL A   1      31.406  30.794  26.023  1.00  0.00     0.002 C 
BRANCH  26  27
ATOM     27  C   UNL A   1      31.256  32.198  26.614  1.00  0.00     0.021 C 
BRANCH  27  28
ATOM     28  C   UNL A   1      32.558  32.851  27.071  1.00  0.00     0.116 C 
BRANCH  28  29
ATOM     29  N   UNL A   1      32.357  34.206  27.553  1.00  0.00    -0.352 N 
ATOM     30  C   UNL A   1      32.994  34.876  28.566  1.00  0.00     0.251 C 
ATOM     31  H   UNL A   1      31.661  34.721  27.083  1.00  0.00     0.163 HD
ATOM     32  O   UNL A   1      32.580  35.973  28.931  1.00  0.00    -0.269 OA
BRANCH  30  33
ATOM     33  C   UNL A   1      34.167  34.276  29.239  1.00  0.00     0.039 A 
ATOM     34  C   UNL A   1      33.949  33.443  30.340  1.00  0.00     0.014 A 
ATOM     35  C   UNL A   1      35.471  34.562  28.824  1.00  0.00     0.014 A 
ATOM     36  C   UNL A   1      35.035  32.860  30.997  1.00  0.00     0.010 A 
ATOM     37  C   UNL A   1      36.551  33.937  29.444  1.00  0.00     0.010 A 
ATOM     38  C   UNL A   1      36.343  33.087  30.542  1.00  0.00    -0.014 A 
BRANCH  38  39
ATOM     39  C   UNL A   1      37.505  32.459  31.217  1.00  0.00     0.031 A 
ATOM     40  C   UNL A   1      38.256  31.345  30.546  1.00  0.00     0.074 A 
ATOM     41  C   UNL A   1      37.851  32.857  32.456  1.00  0.00     0.049 A 
ATOM     42  N   UNL A   1      39.263  30.638  30.993  1.00  0.00    -0.248 NA
ATOM     43  C   UNL A   1      37.799  30.958  29.202  1.00  0.00     0.031 C 
ATOM     44  C   UNL A   1      37.175  33.900  33.228  1.00  0.00     0.029 A 
ATOM     45  N   UNL A   1      38.854  32.423  33.286  1.00  0.00    -0.354 N 
ATOM     46  C   UNL A   1      39.546  29.711  29.998  1.00  0.00     0.074 A 
ATOM     47  C   UNL A   1      38.581  29.920  28.939  1.00  0.00     0.031 C 
ATOM     48  C   UNL A   1      37.794  34.040  34.411  1.00  0.00     0.029 A 
ATOM     49  C   UNL A   1      38.891  33.080  34.491  1.00  0.00     0.049 A 
ATOM     50  H   UNL A   1      39.486  31.710  33.040  1.00  0.00     0.167 HD
ATOM     51  C   UNL A   1      40.531  28.782  29.963  1.00  0.00     0.037 A 
ATOM     52  C   UNL A   1      39.719  32.922  35.541  1.00  0.00     0.037 A 
ATOM     53  C   UNL A   1      41.513  28.600  31.000  1.00  0.00     0.049 A 
ATOM     54  C   UNL A   1      40.816  31.895  35.469  1.00  0.00     0.074 A 
ATOM     55  C   UNL A   1      42.593  27.736  31.023  1.00  0.00     0.029 A 
ATOM     56  N   UNL A   1      41.531  29.299  32.197  1.00  0.00    -0.354 N 
ATOM     57  N   UNL A   1      41.115  31.071  34.495  1.00  0.00    -0.248 NA
ATOM     58  C   UNL A   1      41.693  31.783  36.643  1.00  0.00     0.031 C 
ATOM     59  C   UNL A   1      43.249  27.890  32.250  1.00  0.00     0.029 A 
ATOM     60  C   UNL A   1      42.597  28.875  32.975  1.00  0.00     0.049 A 
ATOM     61  H   UNL A   1      40.884  29.994  32.456  1.00  0.00     0.167 HD
ATOM     62  C   UNL A   1      42.228  30.363  34.924  1.00  0.00     0.074 A 
ATOM     63  C   UNL A   1      42.558  30.860  36.244  1.00  0.00     0.031 C 
ATOM     64  C   UNL A   1      42.916  29.389  34.281  1.00  0.00     0.037 A 
BRANCH  51  65
ATOM     65  C   UNL A   1      40.595  27.890  28.760  1.00  0.00     0.064 A 
ATOM     66  C   UNL A   1      41.391  28.211  27.650  1.00  0.00     0.173 A 
ATOM     67  C   UNL A   1      39.873  26.687  28.725  1.00  0.00     0.173 A 
ATOM     68  F   UNL A   1      42.091  29.355  27.629  1.00  0.00    -0.203 F 
ATOM     69  C   UNL A   1      41.441  27.373  26.539  1.00  0.00     0.198 A 
ATOM     70  C   UNL A   1      39.946  25.841  27.623  1.00  0.00     0.198 A 
ATOM     71  F   UNL A   1      39.102  26.332  29.764  1.00  0.00    -0.203 F 
ATOM     72  F   UNL A   1      42.173  27.722  25.471  1.00  0.00    -0.200 F 
ATOM     73  C   UNL A   1      40.723  26.188  26.528  1.00  0.00     0.200 A 
ATOM     74  F   UNL A   1      39.259  24.690  27.618  1.00  0.00    -0.200 F 
ATOM     75  F   UNL A   1      40.773  25.381  25.459  1.00  0.00    -0.200 F 
ENDBRANCH  51  65
BRANCH  52  76
ATOM     76  C   UNL A   1      39.569  33.789  36.736  1.00  0.00     0.064 A 
ATOM     77  C   UNL A   1      38.794  33.371  37.827  1.00  0.00     0.173 A 
ATOM     78  C   UNL A   1      40.192  35.041  36.815  1.00  0.00     0.173 A 
ATOM     79  F   UNL A   1      38.162  32.189  37.787  1.00  0.00    -0.203 F 
ATOM     80  C   UNL A   1      38.637  34.183  38.948  1.00  0.00     0.198 A 
ATOM     81  C   UNL A   1      40.053  35.842  37.946  1.00  0.00     0.198 A 
ATOM     82  F   UNL A   1      40.946  35.481  35.797  1.00  0.00    -0.203 F 
ATOM     83  F   UNL A   1      37.863  33.776  39.964  1.00  0.00    -0.200 F 
ATOM     84  C   UNL A   1      39.271  35.416  39.010  1.00  0.00     0.200 A 
ATOM     85  F   UNL A   1      40.674  37.028  38.006  1.00  0.00    -0.200 F 
ATOM     86  F   UNL A   1      39.122  36.193  40.090  1.00  0.00    -0.200 F 
ENDBRANCH  52  76
BRANCH  64  87
ATOM     87  C   UNL A   1      44.115  28.822  34.980  1.00  0.00     0.064 A 
ATOM     88  C   UNL A   1      45.388  29.391  34.833  1.00  0.00     0.173 A 
ATOM     89  C   UNL A   1      43.981  27.717  35.833  1.00  0.00     0.173 A 
ATOM     90  F   UNL A   1      45.568  30.438  34.014  1.00  0.00    -0.203 F 
ATOM     91  C   UNL A   1      46.489  28.860  35.499  1.00  0.00     0.198 A 
ATOM     92  C   UNL A   1      45.079  27.203  36.516  1.00  0.00     0.198 A 
ATOM     93  F   UNL A   1      42.783  27.139  36.010  1.00  0.00    -0.203 F 
ATOM     94  F   UNL A   1      47.703  29.394  35.313  1.00  0.00    -0.200 F 
ATOM     95  C   UNL A   1      46.332  27.771  36.344  1.00  0.00     0.200 A 
ATOM     96  F   UNL A   1      44.926  26.156  37.339  1.00  0.00    -0.200 F 
ATOM     97  F   UNL A   1      47.393  27.264  36.987  1.00  0.00    -0.200 F 
ENDBRANCH  64  87
ENDBRANCH  38  39
ENDBRANCH  30  33
ENDBRANCH  28  29
ENDBRANCH  27  28
ENDBRANCH  26  27
ENDBRANCH   1  26
TORSDOF 15
ENDMDL
