MODEL 1
REMARK VINA RESULT:     -11.6      0.000      0.000
REMARK SMILES COc1ccc(F)cc1[C@@H](C(=O)NCCCCCCNC(=O)c1ccc(-c2c3nc(c(-c4c(F)c(F)c(F)c(F)c4F)c4ccc([nH]4)c(-c4c(F)c(F)c(F)c(F)c4F)c4nc(c(-c5c(F)c(F)c(F)c(F)c5F)c5ccc2[nH]5)C=C4)C=C3)cc1)[N@@H+](C)CCn1ccnc1C
REMARK SMILES IDX 15 1 14 2 13 3 11 4 12 5 10 7 9 8 3 9 4 10 5 11 8 12 6 13
REMARK SMILES IDX 7 14 2 15 1 16 86 17 87 18 88 20 89 21 90 22 91 23 94 24
REMARK SMILES IDX 92 25 93 26 95 27 16 28 17 29 18 30 19 31 20 32 21 33 22 35
REMARK SMILES IDX 23 36 24 37 85 38 25 39 84 40 26 41 27 42 28 43 78 44 29 45
REMARK SMILES IDX 83 46 77 47 79 48 30 49 82 50 76 51 75 52 31 54 63 55 43 56
REMARK SMILES IDX 62 57 44 58 47 59 61 60 80 61 45 62 46 63 60 65 81 66 48 67
REMARK SMILES IDX 32 68 33 69 41 70 34 71 35 72 39 73 42 74 36 75 37 76 40 77
REMARK SMILES IDX 38 78 64 79 65 80 73 81 66 82 67 83 71 84 74 85 68 86 69 87
REMARK SMILES IDX 72 88 70 89 49 90 50 91 58 92 51 93 52 94 56 95 59 96 53 97
REMARK SMILES IDX 54 98 57 99 55 100
REMARK H PARENT 13 6 86 19 20 34 79 53 47 64
REMARK Flexibility Score: inf
ROOT
ATOM      1  C   UNL A   1      36.221  22.963  26.008  1.00  0.00     0.021 C 
ENDROOT
BRANCH   1   2
ATOM      2  C   UNL A   1      35.372  24.040  25.344  1.00  0.00     0.116 C 
BRANCH   2   3
ATOM      3  N   UNL A   1      34.156  24.341  26.050  1.00  0.00    -0.351 N 
ATOM      4  C   UNL A   1      32.886  24.539  25.613  1.00  0.00     0.283 C 
ATOM      5  O   UNL A   1      32.025  24.325  26.483  1.00  0.00    -0.268 OA
ATOM      6  H   UNL A   1      34.263  24.415  27.026  1.00  0.00     0.163 HD
BRANCH   4   7
ATOM      7  C   UNL A   1      32.473  24.890  24.154  1.00  0.00     0.309 C 
BRANCH   7   8
ATOM      8  C   UNL A   1      31.419  25.984  23.905  1.00  0.00     0.064 A 
ATOM      9  C   UNL A   1      31.759  27.248  23.362  1.00  0.00     0.128 A 
ATOM     10  C   UNL A   1      30.766  28.194  23.047  1.00  0.00     0.050 A 
ATOM     11  C   UNL A   1      29.424  27.919  23.296  1.00  0.00     0.043 A 
ATOM     12  C   UNL A   1      30.067  25.781  24.210  1.00  0.00     0.053 A 
ATOM     13  C   UNL A   1      29.088  26.717  23.886  1.00  0.00     0.124 A 
ATOM     14  F   UNL A   1      27.804  26.443  24.149  1.00  0.00    -0.207 F 
BRANCH   9  15
ATOM     15  O   UNL A   1      33.090  27.532  23.176  1.00  0.00    -0.496 OA
ATOM     16  C   UNL A   1      33.389  28.926  23.055  1.00  0.00     0.278 C 
ENDBRANCH   9  15
ENDBRANCH   7   8
BRANCH   7  17
ATOM     17  N   UNL A   1      32.281  23.663  23.293  1.00  0.00    -0.322 N 
ATOM     18  C   UNL A   1      33.210  23.601  22.160  1.00  0.00     0.333 C 
ATOM     19  H   UNL A   1      31.331  23.878  22.988  1.00  0.00     0.348 HD
BRANCH  17  20
ATOM     20  C   UNL A   1      32.043  22.330  23.874  1.00  0.00     0.285 C 
BRANCH  20  21
ATOM     21  C   UNL A   1      32.715  21.029  23.365  1.00  0.00     0.184 C 
BRANCH  21  22
ATOM     22  N   UNL A   1      32.582  19.812  24.141  1.00  0.00    -0.330 N 
ATOM     23  C   UNL A   1      32.862  19.736  25.484  1.00  0.00     0.107 A 
ATOM     24  C   UNL A   1      32.405  18.515  23.705  1.00  0.00     0.105 A 
ATOM     25  C   UNL A   1      32.656  18.430  25.833  1.00  0.00     0.131 A 
ATOM     26  N   UNL A   1      32.355  17.685  24.730  1.00  0.00    -0.242 NA
ATOM     27  C   UNL A   1      32.309  18.072  22.290  1.00  0.00     0.087 C 
ENDBRANCH  21  22
ENDBRANCH  20  21
ENDBRANCH  17  20
ENDBRANCH   7  17
ENDBRANCH   4   7
ENDBRANCH   2   3
ENDBRANCH   1   2
BRANCH   1  28
ATOM     28  C   UNL A   1      36.116  21.567  25.389  1.00  0.00     0.002 C 
BRANCH  28  29
ATOM     29  C   UNL A   1      37.286  21.129  24.506  1.00  0.00     0.002 C 
BRANCH  29  30
ATOM     30  C   UNL A   1      38.058  19.907  25.002  1.00  0.00     0.021 C 
BRANCH  30  31
ATOM     31  C   UNL A   1      39.235  20.223  25.915  1.00  0.00     0.116 C 
BRANCH  31  32
ATOM     32  N   UNL A   1      40.247  19.180  25.900  1.00  0.00    -0.352 N 
ATOM     33  C   UNL A   1      41.607  19.292  26.066  1.00  0.00     0.251 C 
ATOM     34  H   UNL A   1      39.912  18.267  25.749  1.00  0.00     0.163 HD
ATOM     35  O   UNL A   1      42.342  18.336  25.865  1.00  0.00    -0.269 OA
BRANCH  33  36
ATOM     36  C   UNL A   1      42.180  20.594  26.466  1.00  0.00     0.039 A 
ATOM     37  C   UNL A   1      42.671  21.447  25.475  1.00  0.00     0.014 A 
ATOM     38  C   UNL A   1      42.216  20.977  27.810  1.00  0.00     0.014 A 
ATOM     39  C   UNL A   1      43.137  22.715  25.827  1.00  0.00     0.010 A 
ATOM     40  C   UNL A   1      42.615  22.265  28.151  1.00  0.00     0.010 A 
ATOM     41  C   UNL A   1      43.079  23.147  27.163  1.00  0.00    -0.014 A 
BRANCH  41  42
ATOM     42  C   UNL A   1      43.504  24.515  27.548  1.00  0.00     0.031 A 
ATOM     43  C   UNL A   1      42.472  25.549  27.902  1.00  0.00     0.074 A 
ATOM     44  C   UNL A   1      44.812  24.837  27.535  1.00  0.00     0.049 A 
ATOM     45  N   UNL A   1      42.637  26.815  28.190  1.00  0.00    -0.248 NA
ATOM     46  C   UNL A   1      41.069  25.108  27.913  1.00  0.00     0.031 C 
ATOM     47  C   UNL A   1      45.903  23.927  27.184  1.00  0.00     0.029 A 
ATOM     48  N   UNL A   1      45.446  26.021  27.822  1.00  0.00    -0.354 N 
ATOM     49  C   UNL A   1      41.362  27.319  28.413  1.00  0.00     0.074 A 
ATOM     50  C   UNL A   1      40.430  26.240  28.171  1.00  0.00     0.031 C 
ATOM     51  C   UNL A   1      47.073  24.574  27.314  1.00  0.00     0.029 A 
ATOM     52  C   UNL A   1      46.814  25.954  27.714  1.00  0.00     0.049 A 
ATOM     53  H   UNL A   1      44.967  26.839  28.082  1.00  0.00     0.167 HD
ATOM     54  C   UNL A   1      41.006  28.562  28.812  1.00  0.00     0.037 A 
ATOM     55  C   UNL A   1      47.752  26.900  27.914  1.00  0.00     0.037 A 
ATOM     56  C   UNL A   1      41.938  29.626  29.077  1.00  0.00     0.049 A 
ATOM     57  C   UNL A   1      47.323  28.282  28.326  1.00  0.00     0.074 A 
ATOM     58  C   UNL A   1      41.674  30.914  29.507  1.00  0.00     0.029 A 
ATOM     59  N   UNL A   1      43.315  29.520  28.948  1.00  0.00    -0.354 N 
ATOM     60  N   UNL A   1      46.118  28.739  28.557  1.00  0.00    -0.248 NA
ATOM     61  C   UNL A   1      48.387  29.281  28.504  1.00  0.00     0.031 C 
ATOM     62  C   UNL A   1      42.887  31.599  29.606  1.00  0.00     0.029 A 
ATOM     63  C   UNL A   1      43.911  30.723  29.281  1.00  0.00     0.049 A 
ATOM     64  H   UNL A   1      43.795  28.710  28.662  1.00  0.00     0.167 HD
ATOM     65  C   UNL A   1      46.278  30.064  28.937  1.00  0.00     0.074 A 
ATOM     66  C   UNL A   1      47.699  30.338  28.914  1.00  0.00     0.031 C 
ATOM     67  C   UNL A   1      45.330  30.972  29.273  1.00  0.00     0.037 A 
BRANCH  54  68
ATOM     68  C   UNL A   1      39.548  28.840  29.018  1.00  0.00     0.064 A 
ATOM     69  C   UNL A   1      38.759  29.342  27.971  1.00  0.00     0.173 A 
ATOM     70  C   UNL A   1      38.949  28.686  30.277  1.00  0.00     0.173 A 
ATOM     71  F   UNL A   1      39.285  29.512  26.749  1.00  0.00    -0.203 F 
ATOM     72  C   UNL A   1      37.429  29.695  28.184  1.00  0.00     0.198 A 
ATOM     73  C   UNL A   1      37.613  29.015  30.480  1.00  0.00     0.198 A 
ATOM     74  F   UNL A   1      39.658  28.197  31.305  1.00  0.00    -0.203 F 
ATOM     75  F   UNL A   1      36.704  30.207  27.180  1.00  0.00    -0.200 F 
ATOM     76  C   UNL A   1      36.857  29.530  29.438  1.00  0.00     0.200 A 
ATOM     77  F   UNL A   1      37.054  28.833  31.684  1.00  0.00    -0.200 F 
ATOM     78  F   UNL A   1      35.576  29.867  29.640  1.00  0.00    -0.200 F 
ENDBRANCH  54  68
BRANCH  55  79
ATOM     79  C   UNL A   1      49.192  26.562  27.768  1.00  0.00     0.064 A 
ATOM     80  C   UNL A   1      49.807  26.491  26.510  1.00  0.00     0.173 A 
ATOM     81  C   UNL A   1      49.981  26.299  28.896  1.00  0.00     0.173 A 
ATOM     82  F   UNL A   1      49.095  26.730  25.398  1.00  0.00    -0.203 F 
ATOM     83  C   UNL A   1      51.155  26.158  26.386  1.00  0.00     0.198 A 
ATOM     84  C   UNL A   1      51.336  25.993  28.773  1.00  0.00     0.198 A 
ATOM     85  F   UNL A   1      49.443  26.376  30.122  1.00  0.00    -0.203 F 
ATOM     86  F   UNL A   1      51.712  26.071  25.170  1.00  0.00    -0.200 F 
ATOM     87  C   UNL A   1      51.919  25.915  27.518  1.00  0.00     0.200 A 
ATOM     88  F   UNL A   1      52.076  25.786  29.870  1.00  0.00    -0.200 F 
ATOM     89  F   UNL A   1      53.220  25.615  27.398  1.00  0.00    -0.200 F 
ENDBRANCH  55  79
BRANCH  67  90
ATOM     90  C   UNL A   1      45.788  32.341  29.680  1.00  0.00     0.064 A 
ATOM     91  C   UNL A   1      45.968  33.343  28.716  1.00  0.00     0.173 A 
ATOM     92  C   UNL A   1      46.129  32.634  31.008  1.00  0.00     0.173 A 
ATOM     93  F   UNL A   1      45.663  33.108  27.430  1.00  0.00    -0.203 F 
ATOM     94  C   UNL A   1      46.491  34.585  29.064  1.00  0.00     0.198 A 
ATOM     95  C   UNL A   1      46.627  33.886  31.357  1.00  0.00     0.198 A 
ATOM     96  F   UNL A   1      45.964  31.711  31.967  1.00  0.00    -0.203 F 
ATOM     97  F   UNL A   1      46.689  35.516  28.119  1.00  0.00    -0.200 F 
ATOM     98  C   UNL A   1      46.817  34.856  30.383  1.00  0.00     0.200 A 
ATOM     99  F   UNL A   1      46.922  34.155  32.636  1.00  0.00    -0.200 F 
ATOM    100  F   UNL A   1      47.316  36.054  30.719  1.00  0.00    -0.200 F 
ENDBRANCH  67  90
ENDBRANCH  41  42
ENDBRANCH  33  36
ENDBRANCH  31  32
ENDBRANCH  30  31
ENDBRANCH  29  30
ENDBRANCH  28  29
ENDBRANCH   1  28
TORSDOF 19
ENDMDL
MODEL 2
REMARK VINA RESULT:     -11.4      5.577     10.260
REMARK SMILES COc1ccc(F)cc1[C@@H](C(=O)NCCCCCCNC(=O)c1ccc(-c2c3nc(c(-c4c(F)c(F)c(F)c(F)c4F)c4ccc([nH]4)c(-c4c(F)c(F)c(F)c(F)c4F)c4nc(c(-c5c(F)c(F)c(F)c(F)c5F)c5ccc2[nH]5)C=C4)C=C3)cc1)[N@@H+](C)CCn1ccnc1C
REMARK SMILES IDX 15 1 14 2 13 3 11 4 12 5 10 7 9 8 3 9 4 10 5 11 8 12 6 13
REMARK SMILES IDX 7 14 2 15 1 16 86 17 87 18 88 20 89 21 90 22 91 23 94 24
REMARK SMILES IDX 92 25 93 26 95 27 16 28 17 29 18 30 19 31 20 32 21 33 22 35
REMARK SMILES IDX 23 36 24 37 85 38 25 39 84 40 26 41 27 42 28 43 78 44 29 45
REMARK SMILES IDX 83 46 77 47 79 48 30 49 82 50 76 51 75 52 31 54 63 55 43 56
REMARK SMILES IDX 62 57 44 58 47 59 61 60 80 61 45 62 46 63 60 65 81 66 48 67
REMARK SMILES IDX 32 68 33 69 41 70 34 71 35 72 39 73 42 74 36 75 37 76 40 77
REMARK SMILES IDX 38 78 64 79 65 80 73 81 66 82 67 83 71 84 74 85 68 86 69 87
REMARK SMILES IDX 72 88 70 89 49 90 50 91 58 92 51 93 52 94 56 95 59 96 53 97
REMARK SMILES IDX 54 98 57 99 55 100
REMARK H PARENT 13 6 86 19 20 34 79 53 47 64
REMARK Flexibility Score: inf
ROOT
ATOM      1  C   UNL A   1      32.546  29.671  27.029  1.00  0.00     0.021 C 
ENDROOT
BRANCH   1   2
ATOM      2  C   UNL A   1      31.944  29.880  25.645  1.00  0.00     0.116 C 
BRANCH   2   3
ATOM      3  N   UNL A   1      32.856  29.609  24.566  1.00  0.00    -0.351 N 
ATOM      4  C   UNL A   1      32.766  28.774  23.499  1.00  0.00     0.283 C 
ATOM      5  O   UNL A   1      33.490  29.109  22.547  1.00  0.00    -0.268 OA
ATOM      6  H   UNL A   1      33.695  30.122  24.607  1.00  0.00     0.163 HD
BRANCH   4   7
ATOM      7  C   UNL A   1      31.792  27.566  23.372  1.00  0.00     0.309 C 
BRANCH   7   8
ATOM      8  C   UNL A   1      32.336  26.194  22.934  1.00  0.00     0.064 A 
ATOM      9  C   UNL A   1      32.667  25.181  23.869  1.00  0.00     0.128 A 
ATOM     10  C   UNL A   1      33.064  23.900  23.442  1.00  0.00     0.050 A 
ATOM     11  C   UNL A   1      33.175  23.611  22.085  1.00  0.00     0.043 A 
ATOM     12  C   UNL A   1      32.536  25.882  21.583  1.00  0.00     0.053 A 
ATOM     13  C   UNL A   1      32.920  24.610  21.167  1.00  0.00     0.124 A 
ATOM     14  F   UNL A   1      33.038  24.355  19.858  1.00  0.00    -0.207 F 
BRANCH   9  15
ATOM     15  O   UNL A   1      32.611  25.495  25.205  1.00  0.00    -0.496 OA
ATOM     16  C   UNL A   1      33.852  25.940  25.763  1.00  0.00     0.278 C 
ENDBRANCH   9  15
ENDBRANCH   7   8
BRANCH   7  17
ATOM     17  N   UNL A   1      30.489  27.937  22.702  1.00  0.00    -0.322 N 
ATOM     18  C   UNL A   1      29.310  27.431  23.412  1.00  0.00     0.333 C 
ATOM     19  H   UNL A   1      30.652  27.428  21.833  1.00  0.00     0.348 HD
BRANCH  17  20
ATOM     20  C   UNL A   1      30.252  29.280  22.145  1.00  0.00     0.285 C 
BRANCH  20  21
ATOM     21  C   UNL A   1      29.433  30.385  22.859  1.00  0.00     0.184 C 
BRANCH  21  22
ATOM     22  N   UNL A   1      28.714  31.362  22.065  1.00  0.00    -0.330 N 
ATOM     23  C   UNL A   1      28.197  31.093  20.821  1.00  0.00     0.107 A 
ATOM     24  C   UNL A   1      28.612  32.726  22.245  1.00  0.00     0.105 A 
ATOM     25  C   UNL A   1      27.638  32.264  20.391  1.00  0.00     0.131 A 
ATOM     26  N   UNL A   1      27.882  33.265  21.286  1.00  0.00    -0.242 NA
ATOM     27  C   UNL A   1      29.241  33.516  23.335  1.00  0.00     0.087 C 
ENDBRANCH  21  22
ENDBRANCH  20  21
ENDBRANCH  17  20
ENDBRANCH   7  17
ENDBRANCH   4   7
ENDBRANCH   2   3
ENDBRANCH   1   2
BRANCH   1  28
ATOM     28  C   UNL A   1      33.995  30.139  27.194  1.00  0.00     0.002 C 
BRANCH  28  29
ATOM     29  C   UNL A   1      34.200  31.442  27.968  1.00  0.00     0.002 C 
BRANCH  29  30
ATOM     30  C   UNL A   1      32.984  32.365  28.027  1.00  0.00     0.021 C 
BRANCH  30  31
ATOM     31  C   UNL A   1      33.144  33.681  27.280  1.00  0.00     0.116 C 
BRANCH  31  32
ATOM     32  N   UNL A   1      32.683  34.822  28.054  1.00  0.00    -0.352 N 
ATOM     33  C   UNL A   1      33.100  35.254  29.290  1.00  0.00     0.251 C 
ATOM     34  H   UNL A   1      31.973  35.359  27.635  1.00  0.00     0.163 HD
ATOM     35  O   UNL A   1      32.498  36.139  29.880  1.00  0.00    -0.269 OA
BRANCH  33  36
ATOM     36  C   UNL A   1      34.275  34.614  29.920  1.00  0.00     0.039 A 
ATOM     37  C   UNL A   1      34.095  33.881  31.094  1.00  0.00     0.014 A 
ATOM     38  C   UNL A   1      35.544  34.724  29.342  1.00  0.00     0.014 A 
ATOM     39  C   UNL A   1      35.178  33.201  31.654  1.00  0.00     0.010 A 
ATOM     40  C   UNL A   1      36.604  33.988  29.860  1.00  0.00     0.010 A 
ATOM     41  C   UNL A   1      36.432  33.220  31.021  1.00  0.00    -0.014 A 
BRANCH  41  42
ATOM     42  C   UNL A   1      37.578  32.447  31.561  1.00  0.00     0.031 A 
ATOM     43  C   UNL A   1      38.127  32.772  32.921  1.00  0.00     0.074 A 
ATOM     44  C   UNL A   1      38.150  31.487  30.809  1.00  0.00     0.049 A 
ATOM     45  N   UNL A   1      39.166  32.266  33.535  1.00  0.00    -0.248 NA
ATOM     46  C   UNL A   1      37.431  33.819  33.685  1.00  0.00     0.031 C 
ATOM     47  C   UNL A   1      37.722  31.098  29.464  1.00  0.00     0.029 A 
ATOM     48  N   UNL A   1      39.216  30.662  31.068  1.00  0.00    -0.354 N 
ATOM     49  C   UNL A   1      39.248  32.932  34.750  1.00  0.00     0.074 A 
ATOM     50  C   UNL A   1      38.191  33.920  34.765  1.00  0.00     0.031 C 
ATOM     51  C   UNL A   1      38.492  30.087  29.032  1.00  0.00     0.029 A 
ATOM     52  C   UNL A   1      39.495  29.784  30.049  1.00  0.00     0.049 A 
ATOM     53  H   UNL A   1      39.732  30.696  31.905  1.00  0.00     0.167 HD
ATOM     54  C   UNL A   1      40.108  32.719  35.772  1.00  0.00     0.037 A 
ATOM     55  C   UNL A   1      40.453  28.842  29.947  1.00  0.00     0.037 A 
ATOM     56  C   UNL A   1      41.142  31.718  35.764  1.00  0.00     0.049 A 
ATOM     57  C   UNL A   1      41.417  28.649  31.087  1.00  0.00     0.074 A 
ATOM     58  C   UNL A   1      42.051  31.411  36.762  1.00  0.00     0.029 A 
ATOM     59  N   UNL A   1      41.397  30.854  34.710  1.00  0.00    -0.354 N 
ATOM     60  N   UNL A   1      41.467  29.269  32.240  1.00  0.00    -0.248 NA
ATOM     61  C   UNL A   1      42.457  27.627  30.910  1.00  0.00     0.031 C 
ATOM     62  C   UNL A   1      42.877  30.385  36.300  1.00  0.00     0.029 A 
ATOM     63  C   UNL A   1      42.455  30.022  35.030  1.00  0.00     0.049 A 
ATOM     64  H   UNL A   1      40.900  30.837  33.861  1.00  0.00     0.167 HD
ATOM     65  C   UNL A   1      42.520  28.693  32.937  1.00  0.00     0.074 A 
ATOM     66  C   UNL A   1      43.078  27.667  32.082  1.00  0.00     0.031 C 
ATOM     67  C   UNL A   1      42.984  28.990  34.175  1.00  0.00     0.037 A 
BRANCH  54  68
ATOM     68  C   UNL A   1      39.957  33.561  37.003  1.00  0.00     0.064 A 
ATOM     69  C   UNL A   1      40.714  34.731  37.168  1.00  0.00     0.173 A 
ATOM     70  C   UNL A   1      39.120  33.165  38.056  1.00  0.00     0.173 A 
ATOM     71  F   UNL A   1      41.534  35.150  36.192  1.00  0.00    -0.203 F 
ATOM     72  C   UNL A   1      40.651  35.463  38.351  1.00  0.00     0.198 A 
ATOM     73  C   UNL A   1      39.039  33.913  39.227  1.00  0.00     0.198 A 
ATOM     74  F   UNL A   1      38.366  32.061  37.940  1.00  0.00    -0.203 F 
ATOM     75  F   UNL A   1      41.410  36.557  38.503  1.00  0.00    -0.200 F 
ATOM     76  C   UNL A   1      39.813  35.054  39.379  1.00  0.00     0.200 A 
ATOM     77  F   UNL A   1      38.212  33.530  40.209  1.00  0.00    -0.200 F 
ATOM     78  F   UNL A   1      39.750  35.761  40.515  1.00  0.00    -0.200 F 
ENDBRANCH  54  68
BRANCH  55  79
ATOM     79  C   UNL A   1      40.522  27.980  28.739  1.00  0.00     0.064 A 
ATOM     80  C   UNL A   1      41.299  28.335  27.626  1.00  0.00     0.173 A 
ATOM     81  C   UNL A   1      39.804  26.778  28.676  1.00  0.00     0.173 A 
ATOM     82  F   UNL A   1      42.003  29.476  27.633  1.00  0.00    -0.203 F 
ATOM     83  C   UNL A   1      41.344  27.525  26.492  1.00  0.00     0.198 A 
ATOM     84  C   UNL A   1      39.870  25.956  27.553  1.00  0.00     0.198 A 
ATOM     85  F   UNL A   1      39.064  26.386  29.724  1.00  0.00    -0.203 F 
ATOM     86  F   UNL A   1      42.073  27.900  25.432  1.00  0.00    -0.200 F 
ATOM     87  C   UNL A   1      40.634  26.333  26.459  1.00  0.00     0.200 A 
ATOM     88  F   UNL A   1      39.206  24.793  27.537  1.00  0.00    -0.200 F 
ATOM     89  F   UNL A   1      40.695  25.546  25.377  1.00  0.00    -0.200 F 
ENDBRANCH  55  79
BRANCH  67  90
ATOM     90  C   UNL A   1      44.128  28.179  34.706  1.00  0.00     0.064 A 
ATOM     91  C   UNL A   1      43.885  27.009  35.441  1.00  0.00     0.173 A 
ATOM     92  C   UNL A   1      45.456  28.603  34.560  1.00  0.00     0.173 A 
ATOM     93  F   UNL A   1      42.629  26.567  35.615  1.00  0.00    -0.203 F 
ATOM     94  C   UNL A   1      44.930  26.302  36.027  1.00  0.00     0.198 A 
ATOM     95  C   UNL A   1      46.501  27.879  35.125  1.00  0.00     0.198 A 
ATOM     96  F   UNL A   1      45.738  29.708  33.855  1.00  0.00    -0.203 F 
ATOM     97  F   UNL A   1      44.672  25.208  36.758  1.00  0.00    -0.200 F 
ATOM     98  C   UNL A   1      46.237  26.736  35.867  1.00  0.00     0.200 A 
ATOM     99  F   UNL A   1      47.767  28.286  34.952  1.00  0.00    -0.200 F 
ATOM    100  F   UNL A   1      47.244  26.053  36.428  1.00  0.00    -0.200 F 
ENDBRANCH  67  90
ENDBRANCH  41  42
ENDBRANCH  33  36
ENDBRANCH  31  32
ENDBRANCH  30  31
ENDBRANCH  29  30
ENDBRANCH  28  29
ENDBRANCH   1  28
TORSDOF 19
ENDMDL
MODEL 3
REMARK VINA RESULT:     -11.3      5.288      9.906
REMARK SMILES COc1ccc(F)cc1[C@@H](C(=O)NCCCCCCNC(=O)c1ccc(-c2c3nc(c(-c4c(F)c(F)c(F)c(F)c4F)c4ccc([nH]4)c(-c4c(F)c(F)c(F)c(F)c4F)c4nc(c(-c5c(F)c(F)c(F)c(F)c5F)c5ccc2[nH]5)C=C4)C=C3)cc1)[N@@H+](C)CCn1ccnc1C
REMARK SMILES IDX 15 1 14 2 13 3 11 4 12 5 10 7 9 8 3 9 4 10 5 11 8 12 6 13
REMARK SMILES IDX 7 14 2 15 1 16 86 17 87 18 88 20 89 21 90 22 91 23 94 24
REMARK SMILES IDX 92 25 93 26 95 27 16 28 17 29 18 30 19 31 20 32 21 33 22 35
REMARK SMILES IDX 23 36 24 37 85 38 25 39 84 40 26 41 27 42 28 43 78 44 29 45
REMARK SMILES IDX 83 46 77 47 79 48 30 49 82 50 76 51 75 52 31 54 63 55 43 56
REMARK SMILES IDX 62 57 44 58 47 59 61 60 80 61 45 62 46 63 60 65 81 66 48 67
REMARK SMILES IDX 32 68 33 69 41 70 34 71 35 72 39 73 42 74 36 75 37 76 40 77
REMARK SMILES IDX 38 78 64 79 65 80 73 81 66 82 67 83 71 84 74 85 68 86 69 87
REMARK SMILES IDX 72 88 70 89 49 90 50 91 58 92 51 93 52 94 56 95 59 96 53 97
REMARK SMILES IDX 54 98 57 99 55 100
REMARK H PARENT 13 6 86 19 20 34 79 53 47 64
REMARK Flexibility Score: inf
ROOT
ATOM      1  C   UNL A   1      32.640  29.359  27.187  1.00  0.00     0.021 C 
ENDROOT
BRANCH   1   2
ATOM      2  C   UNL A   1      32.062  29.182  25.789  1.00  0.00     0.116 C 
BRANCH   2   3
ATOM      3  N   UNL A   1      33.044  28.857  24.789  1.00  0.00    -0.351 N 
ATOM      4  C   UNL A   1      33.377  27.678  24.204  1.00  0.00     0.283 C 
ATOM      5  O   UNL A   1      33.918  27.813  23.094  1.00  0.00    -0.268 OA
ATOM      6  H   UNL A   1      33.567  29.628  24.471  1.00  0.00     0.163 HD
BRANCH   4   7
ATOM      7  C   UNL A   1      33.043  26.263  24.760  1.00  0.00     0.309 C 
BRANCH   7   8
ATOM      8  C   UNL A   1      34.018  25.099  24.511  1.00  0.00     0.064 A 
ATOM      9  C   UNL A   1      33.899  24.242  23.388  1.00  0.00     0.128 A 
ATOM     10  C   UNL A   1      34.861  23.250  23.125  1.00  0.00     0.050 A 
ATOM     11  C   UNL A   1      35.938  23.065  23.987  1.00  0.00     0.043 A 
ATOM     12  C   UNL A   1      35.074  24.826  25.391  1.00  0.00     0.053 A 
ATOM     13  C   UNL A   1      36.028  23.849  25.120  1.00  0.00     0.124 A 
ATOM     14  F   UNL A   1      37.048  23.673  25.969  1.00  0.00    -0.207 F 
BRANCH   9  15
ATOM     15  O   UNL A   1      32.800  24.395  22.576  1.00  0.00    -0.496 OA
ATOM     16  C   UNL A   1      33.090  24.917  21.276  1.00  0.00     0.278 C 
ENDBRANCH   9  15
ENDBRANCH   7   8
BRANCH   7  17
ATOM     17  N   UNL A   1      31.593  25.886  24.559  1.00  0.00    -0.322 N 
ATOM     18  C   UNL A   1      30.864  25.700  25.818  1.00  0.00     0.333 C 
ATOM     19  H   UNL A   1      31.765  24.997  24.089  1.00  0.00     0.348 HD
BRANCH  17  20
ATOM     20  C   UNL A   1      30.753  26.531  23.535  1.00  0.00     0.285 C 
BRANCH  20  21
ATOM     21  C   UNL A   1      29.482  27.360  23.851  1.00  0.00     0.184 C 
BRANCH  21  22
ATOM     22  N   UNL A   1      29.124  28.468  22.989  1.00  0.00    -0.330 N 
ATOM     23  C   UNL A   1      30.045  29.323  22.435  1.00  0.00     0.107 A 
ATOM     24  C   UNL A   1      27.882  29.022  22.751  1.00  0.00     0.105 A 
ATOM     25  C   UNL A   1      29.319  30.244  21.730  1.00  0.00     0.131 A 
ATOM     26  N   UNL A   1      27.983  30.039  21.916  1.00  0.00    -0.242 NA
ATOM     27  C   UNL A   1      26.597  28.583  23.353  1.00  0.00     0.087 C 
ENDBRANCH  21  22
ENDBRANCH  20  21
ENDBRANCH  17  20
ENDBRANCH   7  17
ENDBRANCH   4   7
ENDBRANCH   2   3
ENDBRANCH   1   2
BRANCH   1  28
ATOM     28  C   UNL A   1      34.087  29.856  27.244  1.00  0.00     0.002 C 
BRANCH  28  29
ATOM     29  C   UNL A   1      34.301  31.245  27.848  1.00  0.00     0.002 C 
BRANCH  29  30
ATOM     30  C   UNL A   1      33.058  32.132  27.904  1.00  0.00     0.021 C 
BRANCH  30  31
ATOM     31  C   UNL A   1      33.177  33.447  27.146  1.00  0.00     0.116 C 
BRANCH  31  32
ATOM     32  N   UNL A   1      32.716  34.583  27.927  1.00  0.00    -0.352 N 
ATOM     33  C   UNL A   1      33.128  35.004  29.169  1.00  0.00     0.251 C 
ATOM     34  H   UNL A   1      32.011  35.127  27.508  1.00  0.00     0.163 HD
ATOM     35  O   UNL A   1      32.526  35.887  29.761  1.00  0.00    -0.269 OA
BRANCH  33  36
ATOM     36  C   UNL A   1      34.296  34.354  29.800  1.00  0.00     0.039 A 
ATOM     37  C   UNL A   1      34.090  33.514  30.896  1.00  0.00     0.014 A 
ATOM     38  C   UNL A   1      35.585  34.560  29.300  1.00  0.00     0.014 A 
ATOM     39  C   UNL A   1      35.171  32.827  31.450  1.00  0.00     0.010 A 
ATOM     40  C   UNL A   1      36.649  33.820  29.807  1.00  0.00     0.010 A 
ATOM     41  C   UNL A   1      36.452  32.947  30.887  1.00  0.00    -0.014 A 
BRANCH  41  42
ATOM     42  C   UNL A   1      37.601  32.171  31.416  1.00  0.00     0.031 A 
ATOM     43  C   UNL A   1      38.126  32.456  32.795  1.00  0.00     0.074 A 
ATOM     44  C   UNL A   1      38.198  31.246  30.639  1.00  0.00     0.049 A 
ATOM     45  N   UNL A   1      39.163  31.942  33.406  1.00  0.00    -0.248 NA
ATOM     46  C   UNL A   1      37.404  33.465  33.585  1.00  0.00     0.031 C 
ATOM     47  C   UNL A   1      37.795  30.900  29.276  1.00  0.00     0.029 A 
ATOM     48  N   UNL A   1      39.272  30.428  30.885  1.00  0.00    -0.354 N 
ATOM     49  C   UNL A   1      39.218  32.567  34.645  1.00  0.00     0.074 A 
ATOM     50  C   UNL A   1      38.146  33.538  34.679  1.00  0.00     0.031 C 
ATOM     51  C   UNL A   1      38.586  29.915  28.820  1.00  0.00     0.029 A 
ATOM     52  C   UNL A   1      39.578  29.591  29.840  1.00  0.00     0.049 A 
ATOM     53  H   UNL A   1      39.775  30.439  31.731  1.00  0.00     0.167 HD
ATOM     54  C   UNL A   1      40.066  32.329  35.671  1.00  0.00     0.037 A 
ATOM     55  C   UNL A   1      40.550  28.666  29.720  1.00  0.00     0.037 A 
ATOM     56  C   UNL A   1      41.115  31.344  35.644  1.00  0.00     0.049 A 
ATOM     57  C   UNL A   1      41.500  28.446  30.866  1.00  0.00     0.074 A 
ATOM     58  C   UNL A   1      42.013  31.014  36.644  1.00  0.00     0.029 A 
ATOM     59  N   UNL A   1      41.397  30.521  34.563  1.00  0.00    -0.354 N 
ATOM     60  N   UNL A   1      41.525  29.026  32.041  1.00  0.00    -0.248 NA
ATOM     61  C   UNL A   1      42.558  27.445  30.669  1.00  0.00     0.031 C 
ATOM     62  C   UNL A   1      42.861  30.017  36.158  1.00  0.00     0.029 A 
ATOM     63  C   UNL A   1      42.462  29.693  34.870  1.00  0.00     0.049 A 
ATOM     64  H   UNL A   1      40.913  30.527  33.707  1.00  0.00     0.167 HD
ATOM     65  C   UNL A   1      42.576  28.440  32.733  1.00  0.00     0.074 A 
ATOM     66  C   UNL A   1      43.161  27.453  31.850  1.00  0.00     0.031 C 
ATOM     67  C   UNL A   1      43.018  28.699  33.987  1.00  0.00     0.037 A 
BRANCH  54  68
ATOM     68  C   UNL A   1      39.885  33.125  36.929  1.00  0.00     0.064 A 
ATOM     69  C   UNL A   1      38.901  32.772  37.864  1.00  0.00     0.173 A 
ATOM     70  C   UNL A   1      40.633  34.288  37.167  1.00  0.00     0.173 A 
ATOM     71  F   UNL A   1      38.156  31.672  37.680  1.00  0.00    -0.203 F 
ATOM     72  C   UNL A   1      38.662  33.565  38.984  1.00  0.00     0.198 A 
ATOM     73  C   UNL A   1      40.410  35.063  38.301  1.00  0.00     0.198 A 
ATOM     74  F   UNL A   1      41.594  34.659  36.308  1.00  0.00    -0.203 F 
ATOM     75  F   UNL A   1      37.693  33.229  39.847  1.00  0.00    -0.200 F 
ATOM     76  C   UNL A   1      39.417  34.708  39.202  1.00  0.00     0.200 A 
ATOM     77  F   UNL A   1      41.155  36.154  38.522  1.00  0.00    -0.200 F 
ATOM     78  F   UNL A   1      39.189  35.468  40.282  1.00  0.00    -0.200 F 
ENDBRANCH  54  68
BRANCH  55  79
ATOM     79  C   UNL A   1      40.650  27.848  28.482  1.00  0.00     0.064 A 
ATOM     80  C   UNL A   1      40.004  26.608  28.367  1.00  0.00     0.173 A 
ATOM     81  C   UNL A   1      41.401  28.298  27.388  1.00  0.00     0.173 A 
ATOM     82  F   UNL A   1      39.275  26.131  29.386  1.00  0.00    -0.203 F 
ATOM     83  C   UNL A   1      40.118  25.844  27.206  1.00  0.00     0.198 A 
ATOM     84  C   UNL A   1      41.492  27.545  26.218  1.00  0.00     0.198 A 
ATOM     85  F   UNL A   1      42.018  29.487  27.444  1.00  0.00    -0.203 F 
ATOM     86  F   UNL A   1      39.513  24.651  27.131  1.00  0.00    -0.200 F 
ATOM     87  C   UNL A   1      40.857  26.316  26.131  1.00  0.00     0.200 A 
ATOM     88  F   UNL A   1      42.184  28.018  25.173  1.00  0.00    -0.200 F 
ATOM     89  F   UNL A   1      40.948  25.589  25.009  1.00  0.00    -0.200 F 
ENDBRANCH  55  79
BRANCH  67  90
ATOM     90  C   UNL A   1      44.165  27.885  34.506  1.00  0.00     0.064 A 
ATOM     91  C   UNL A   1      43.929  26.681  35.185  1.00  0.00     0.173 A 
ATOM     92  C   UNL A   1      45.488  28.338  34.407  1.00  0.00     0.173 A 
ATOM     93  F   UNL A   1      42.679  26.210  35.313  1.00  0.00    -0.203 F 
ATOM     94  C   UNL A   1      44.975  25.968  35.762  1.00  0.00     0.198 A 
ATOM     95  C   UNL A   1      46.535  27.609  34.962  1.00  0.00     0.198 A 
ATOM     96  F   UNL A   1      45.764  29.479  33.757  1.00  0.00    -0.203 F 
ATOM     97  F   UNL A   1      44.722  24.838  36.439  1.00  0.00    -0.200 F 
ATOM     98  C   UNL A   1      46.277  26.430  35.648  1.00  0.00     0.200 A 
ATOM     99  F   UNL A   1      47.796  28.045  34.833  1.00  0.00    -0.200 F 
ATOM    100  F   UNL A   1      47.285  25.741  36.199  1.00  0.00    -0.200 F 
ENDBRANCH  67  90
ENDBRANCH  41  42
ENDBRANCH  33  36
ENDBRANCH  31  32
ENDBRANCH  30  31
ENDBRANCH  29  30
ENDBRANCH  28  29
ENDBRANCH   1  28
TORSDOF 19
ENDMDL
