MODEL 1
REMARK VINA RESULT:     -12.4      0.000      0.000
REMARK SMILES O=C(NCCCCCCNC(=O)[C@]1([NH2+]C2CC2)CCC[C@@H](n2cc(Br)cn2)C1)c1ccc(-c2c3nc(c(-c4c(F)c(F)c(F)c(F)c4F)c4ccc([nH]4)c(-c4c(F)c(F)c(F)c(F)c4F)c4nc(c(-c5c(F)c(F)c(F)c(F)c5F)c5ccc2[nH]5)C=C4)C=C3)cc1
REMARK SMILES IDX 6 1 5 2 4 3 3 4 1 5 2 6 29 8 30 9 91 10 31 11 90 12 32 13
REMARK SMILES IDX 33 14 34 15 84 16 35 17 89 18 83 19 85 20 36 21 88 22 82 23
REMARK SMILES IDX 81 24 37 26 69 27 49 28 68 29 50 30 53 31 67 32 86 33 51 34
REMARK SMILES IDX 52 35 66 37 87 38 54 39 38 40 39 41 47 42 40 43 41 44 45 45
REMARK SMILES IDX 48 46 42 47 43 48 46 49 44 50 70 51 71 52 79 53 72 54 73 55
REMARK SMILES IDX 77 56 80 57 74 58 75 59 78 60 76 61 55 62 56 63 64 64 57 65
REMARK SMILES IDX 58 66 62 67 65 68 59 69 60 70 63 71 61 72 7 73 8 74 9 75
REMARK SMILES IDX 10 76 11 77 12 79 13 80 18 81 28 82 19 83 21 84 20 85 14 86
REMARK SMILES IDX 15 89 16 90 17 91 22 92 23 93 27 94 24 95 26 96 25 97
REMARK H PARENT 3 7 85 25 53 36 10 78 14 87 14 88
REMARK Flexibility Score: inf
ROOT
ATOM      1  C   UNL A   1      37.742  23.388  26.048  1.00  0.00     0.002 C 
ENDROOT
BRANCH   1   2
ATOM      2  C   UNL A   1      38.473  22.070  25.757  1.00  0.00     0.021 C 
BRANCH   2   3
ATOM      3  C   UNL A   1      39.723  21.802  26.591  1.00  0.00     0.116 C 
BRANCH   3   4
ATOM      4  N   UNL A   1      40.968  22.062  25.901  1.00  0.00    -0.352 N 
ATOM      5  O   UNL A   1      42.900  22.866  25.204  1.00  0.00    -0.269 OA
ATOM      6  C   UNL A   1      41.901  23.055  25.909  1.00  0.00     0.251 C 
ATOM      7  H   UNL A   1      41.199  21.342  25.269  1.00  0.00     0.163 HD
BRANCH   6   8
ATOM      8  C   UNL A   1      41.791  24.344  26.640  1.00  0.00     0.039 A 
ATOM      9  C   UNL A   1      42.413  24.659  27.849  1.00  0.00     0.014 A 
ATOM     10  C   UNL A   1      40.997  25.328  26.019  1.00  0.00     0.014 A 
ATOM     11  C   UNL A   1      42.193  25.898  28.452  1.00  0.00     0.010 A 
ATOM     12  C   UNL A   1      40.787  26.569  26.606  1.00  0.00     0.010 A 
ATOM     13  C   UNL A   1      41.364  26.846  27.840  1.00  0.00    -0.014 A 
BRANCH  13  14
ATOM     14  C   UNL A   1      41.255  28.174  28.447  1.00  0.00     0.031 A 
ATOM     15  C   UNL A   1      42.314  29.148  28.037  1.00  0.00     0.074 A 
ATOM     16  C   UNL A   1      40.199  28.571  29.186  1.00  0.00     0.049 A 
ATOM     17  N   UNL A   1      43.119  29.831  28.788  1.00  0.00    -0.248 NA
ATOM     18  C   UNL A   1      42.549  29.330  26.595  1.00  0.00     0.031 C 
ATOM     19  C   UNL A   1      38.942  27.860  29.430  1.00  0.00     0.029 A 
ATOM     20  N   UNL A   1      39.998  29.768  29.809  1.00  0.00    -0.354 N 
ATOM     21  C   UNL A   1      43.871  30.633  27.927  1.00  0.00     0.074 A 
ATOM     22  C   UNL A   1      43.549  30.212  26.589  1.00  0.00     0.031 C 
ATOM     23  C   UNL A   1      38.040  28.715  29.965  1.00  0.00     0.029 A 
ATOM     24  C   UNL A   1      38.692  29.988  30.226  1.00  0.00     0.049 A 
ATOM     25  H   UNL A   1      40.720  30.423  29.951  1.00  0.00     0.167 HD
ATOM     26  C   UNL A   1      44.589  31.704  28.368  1.00  0.00     0.037 A 
ATOM     27  C   UNL A   1      38.174  31.149  30.698  1.00  0.00     0.037 A 
ATOM     28  C   UNL A   1      44.862  31.616  29.776  1.00  0.00     0.049 A 
ATOM     29  C   UNL A   1      39.303  32.002  31.139  1.00  0.00     0.074 A 
ATOM     30  C   UNL A   1      45.577  30.739  30.568  1.00  0.00     0.029 A 
ATOM     31  N   UNL A   1      44.088  32.343  30.644  1.00  0.00    -0.354 N 
ATOM     32  N   UNL A   1      40.057  31.743  32.170  1.00  0.00    -0.248 NA
ATOM     33  C   UNL A   1      39.863  32.931  30.170  1.00  0.00     0.031 C 
ATOM     34  C   UNL A   1      44.822  30.634  31.773  1.00  0.00     0.029 A 
ATOM     35  C   UNL A   1      43.729  31.493  31.659  1.00  0.00     0.049 A 
ATOM     36  H   UNL A   1      43.840  33.292  30.555  1.00  0.00     0.167 HD
ATOM     37  C   UNL A   1      41.331  32.119  31.774  1.00  0.00     0.074 A 
ATOM     38  C   UNL A   1      41.136  32.926  30.573  1.00  0.00     0.031 C 
ATOM     39  C   UNL A   1      42.436  31.517  32.299  1.00  0.00     0.037 A 
BRANCH  26  40
ATOM     40  C   UNL A   1      44.800  32.971  27.579  1.00  0.00     0.064 A 
ATOM     41  C   UNL A   1      45.982  33.147  26.832  1.00  0.00     0.173 A 
ATOM     42  C   UNL A   1      44.016  34.132  27.762  1.00  0.00     0.173 A 
ATOM     43  F   UNL A   1      46.817  32.119  26.619  1.00  0.00    -0.203 F 
ATOM     44  C   UNL A   1      46.376  34.402  26.356  1.00  0.00     0.198 A 
ATOM     45  C   UNL A   1      44.388  35.372  27.243  1.00  0.00     0.198 A 
ATOM     46  F   UNL A   1      42.926  34.133  28.537  1.00  0.00    -0.203 F 
ATOM     47  F   UNL A   1      47.562  34.542  25.749  1.00  0.00    -0.200 F 
ATOM     48  C   UNL A   1      45.580  35.514  26.566  1.00  0.00     0.200 A 
ATOM     49  F   UNL A   1      43.613  36.441  27.475  1.00  0.00    -0.200 F 
ATOM     50  F   UNL A   1      45.982  36.726  26.161  1.00  0.00    -0.200 F 
ENDBRANCH  26  40
BRANCH  27  51
ATOM     51  C   UNL A   1      36.811  31.698  30.504  1.00  0.00     0.064 A 
ATOM     52  C   UNL A   1      35.987  32.012  31.598  1.00  0.00     0.173 A 
ATOM     53  C   UNL A   1      36.406  32.197  29.251  1.00  0.00     0.173 A 
ATOM     54  F   UNL A   1      36.328  31.619  32.833  1.00  0.00    -0.203 F 
ATOM     55  C   UNL A   1      34.839  32.800  31.448  1.00  0.00     0.198 A 
ATOM     56  C   UNL A   1      35.258  32.976  29.103  1.00  0.00     0.198 A 
ATOM     57  F   UNL A   1      37.170  32.023  28.163  1.00  0.00    -0.203 F 
ATOM     58  F   UNL A   1      34.112  33.132  32.524  1.00  0.00    -0.200 F 
ATOM     59  C   UNL A   1      34.482  33.289  30.203  1.00  0.00     0.200 A 
ATOM     60  F   UNL A   1      34.947  33.478  27.899  1.00  0.00    -0.200 F 
ATOM     61  F   UNL A   1      33.419  34.095  30.070  1.00  0.00    -0.200 F 
ENDBRANCH  27  51
BRANCH  39  62
ATOM     62  C   UNL A   1      42.242  30.608  33.482  1.00  0.00     0.064 A 
ATOM     63  C   UNL A   1      42.248  31.048  34.819  1.00  0.00     0.173 A 
ATOM     64  C   UNL A   1      41.904  29.269  33.249  1.00  0.00     0.173 A 
ATOM     65  F   UNL A   1      42.454  32.335  35.121  1.00  0.00    -0.203 F 
ATOM     66  C   UNL A   1      41.977  30.175  35.871  1.00  0.00     0.198 A 
ATOM     67  C   UNL A   1      41.595  28.408  34.300  1.00  0.00     0.198 A 
ATOM     68  F   UNL A   1      41.823  28.805  31.993  1.00  0.00    -0.203 F 
ATOM     69  F   UNL A   1      42.002  30.619  37.137  1.00  0.00    -0.200 F 
ATOM     70  C   UNL A   1      41.644  28.856  35.610  1.00  0.00     0.200 A 
ATOM     71  F   UNL A   1      41.221  27.148  34.039  1.00  0.00    -0.200 F 
ATOM     72  F   UNL A   1      41.341  28.027  36.618  1.00  0.00    -0.200 F 
ENDBRANCH  39  62
ENDBRANCH  13  14
ENDBRANCH   6   8
ENDBRANCH   3   4
ENDBRANCH   2   3
ENDBRANCH   1   2
BRANCH   1  73
ATOM     73  C   UNL A   1      36.585  23.785  25.118  1.00  0.00     0.002 C 
BRANCH  73  74
ATOM     74  C   UNL A   1      35.165  23.483  25.598  1.00  0.00     0.021 C 
BRANCH  74  75
ATOM     75  C   UNL A   1      34.263  24.687  25.808  1.00  0.00     0.116 C 
BRANCH  75  76
ATOM     76  N   UNL A   1      33.926  25.449  24.630  1.00  0.00    -0.351 N 
ATOM     77  C   UNL A   1      33.203  26.606  24.512  1.00  0.00     0.281 C 
ATOM     78  H   UNL A   1      34.268  25.080  23.784  1.00  0.00     0.163 HD
ATOM     79  O   UNL A   1      33.384  27.224  23.453  1.00  0.00    -0.268 OA
BRANCH  77  80
ATOM     80  C   UNL A   1      32.144  27.115  25.573  1.00  0.00     0.177 C 
ATOM     81  C   UNL A   1      31.214  26.013  26.122  1.00  0.00     0.079 C 
ATOM     82  C   UNL A   1      31.209  28.155  24.850  1.00  0.00     0.106 C 
ATOM     83  C   UNL A   1      30.421  25.332  25.008  1.00  0.00     0.009 C 
ATOM     84  C   UNL A   1      30.294  27.549  23.760  1.00  0.00     0.114 C 
ATOM     85  C   UNL A   1      29.520  26.332  24.301  1.00  0.00     0.028 C 
BRANCH  80  86
ATOM     86  N   UNL A   1      32.782  27.930  26.654  1.00  0.00    -0.331 N 
ATOM     87  H   UNL A   1      33.474  27.331  27.105  1.00  0.00     0.347 HD
ATOM     88  H   UNL A   1      31.989  28.235  27.218  1.00  0.00     0.347 HD
BRANCH  86  89
ATOM     89  C   UNL A   1      33.458  29.179  26.319  1.00  0.00     0.183 C 
ATOM     90  C   UNL A   1      33.212  30.367  27.216  1.00  0.00     0.071 C 
ATOM     91  C   UNL A   1      34.553  29.709  27.206  1.00  0.00     0.071 C 
ENDBRANCH  86  89
ENDBRANCH  80  86
BRANCH  84  92
ATOM     92  N   UNL A   1      29.399  28.566  23.187  1.00  0.00    -0.268 N 
ATOM     93  C   UNL A   1      29.776  29.734  22.576  1.00  0.00     0.124 A 
ATOM     94  N   UNL A   1      28.057  28.379  23.172  1.00  0.00    -0.180 NA
ATOM     95  C   UNL A   1      28.614  30.320  22.150  1.00  0.00     0.055 A 
ATOM     96  C   UNL A   1      27.586  29.451  22.525  1.00  0.00     0.150 A 
ATOM     97  Br  UNL A   1      28.391  31.933  21.241  1.00  0.00    -0.047 Br
ENDBRANCH  84  92
ENDBRANCH  77  80
ENDBRANCH  75  76
ENDBRANCH  74  75
ENDBRANCH  73  74
ENDBRANCH   1  73
TORSDOF 16
ENDMDL
MODEL 2
REMARK VINA RESULT:     -12.4      4.170      9.560
REMARK SMILES O=C(NCCCCCCNC(=O)[C@]1([NH2+]C2CC2)CCC[C@@H](n2cc(Br)cn2)C1)c1ccc(-c2c3nc(c(-c4c(F)c(F)c(F)c(F)c4F)c4ccc([nH]4)c(-c4c(F)c(F)c(F)c(F)c4F)c4nc(c(-c5c(F)c(F)c(F)c(F)c5F)c5ccc2[nH]5)C=C4)C=C3)cc1
REMARK SMILES IDX 6 1 5 2 4 3 3 4 1 5 2 6 29 8 30 9 91 10 31 11 90 12 32 13
REMARK SMILES IDX 33 14 34 15 84 16 35 17 89 18 83 19 85 20 36 21 88 22 82 23
REMARK SMILES IDX 81 24 37 26 69 27 49 28 68 29 50 30 53 31 67 32 86 33 51 34
REMARK SMILES IDX 52 35 66 37 87 38 54 39 38 40 39 41 47 42 40 43 41 44 45 45
REMARK SMILES IDX 48 46 42 47 43 48 46 49 44 50 70 51 71 52 79 53 72 54 73 55
REMARK SMILES IDX 77 56 80 57 74 58 75 59 78 60 76 61 55 62 56 63 64 64 57 65
REMARK SMILES IDX 58 66 62 67 65 68 59 69 60 70 63 71 61 72 7 73 8 74 9 75
REMARK SMILES IDX 10 76 11 77 12 79 13 80 18 81 28 82 19 83 21 84 20 85 14 86
REMARK SMILES IDX 15 89 16 90 17 91 22 92 23 93 27 94 24 95 26 96 25 97
REMARK H PARENT 3 7 85 25 53 36 10 78 14 87 14 88
REMARK Flexibility Score: inf
ROOT
ATOM      1  C   UNL A   1      33.919  28.860  27.194  1.00  0.00     0.002 C 
ENDROOT
BRANCH   1   2
ATOM      2  C   UNL A   1      34.954  29.968  27.432  1.00  0.00     0.021 C 
BRANCH   2   3
ATOM      3  C   UNL A   1      34.392  31.369  27.657  1.00  0.00     0.116 C 
BRANCH   3   4
ATOM      4  N   UNL A   1      34.460  31.827  29.027  1.00  0.00    -0.352 N 
ATOM      5  O   UNL A   1      35.078  32.365  31.075  1.00  0.00    -0.269 OA
ATOM      6  C   UNL A   1      35.375  31.764  30.035  1.00  0.00     0.251 C 
ATOM      7  H   UNL A   1      33.642  32.303  29.300  1.00  0.00     0.163 HD
BRANCH   6   8
ATOM      8  C   UNL A   1      36.651  31.002  30.003  1.00  0.00     0.039 A 
ATOM      9  C   UNL A   1      37.903  31.511  29.652  1.00  0.00     0.014 A 
ATOM     10  C   UNL A   1      36.560  29.651  30.391  1.00  0.00     0.014 A 
ATOM     11  C   UNL A   1      39.019  30.673  29.625  1.00  0.00     0.010 A 
ATOM     12  C   UNL A   1      37.672  28.817  30.381  1.00  0.00     0.010 A 
ATOM     13  C   UNL A   1      38.900  29.322  29.970  1.00  0.00    -0.014 A 
BRANCH  13  14
ATOM     14  C   UNL A   1      40.115  28.509  30.042  1.00  0.00     0.031 A 
ATOM     15  C   UNL A   1      40.672  28.321  31.418  1.00  0.00     0.074 A 
ATOM     16  C   UNL A   1      40.620  27.829  28.993  1.00  0.00     0.049 A 
ATOM     17  N   UNL A   1      41.867  28.577  31.850  1.00  0.00    -0.248 NA
ATOM     18  C   UNL A   1      39.751  27.847  32.465  1.00  0.00     0.031 C 
ATOM     19  C   UNL A   1      40.039  27.652  27.660  1.00  0.00     0.029 A 
ATOM     20  N   UNL A   1      41.746  27.060  28.939  1.00  0.00    -0.354 N 
ATOM     21  C   UNL A   1      41.895  28.171  33.185  1.00  0.00     0.074 A 
ATOM     22  C   UNL A   1      40.544  27.824  33.537  1.00  0.00     0.031 C 
ATOM     23  C   UNL A   1      40.703  26.670  27.008  1.00  0.00     0.029 A 
ATOM     24  C   UNL A   1      41.833  26.245  27.818  1.00  0.00     0.049 A 
ATOM     25  H   UNL A   1      42.439  27.081  29.638  1.00  0.00     0.167 HD
ATOM     26  C   UNL A   1      43.061  27.993  33.868  1.00  0.00     0.037 A 
ATOM     27  C   UNL A   1      42.735  25.256  27.600  1.00  0.00     0.037 A 
ATOM     28  C   UNL A   1      44.151  28.698  33.253  1.00  0.00     0.049 A 
ATOM     29  C   UNL A   1      43.884  25.485  28.508  1.00  0.00     0.074 A 
ATOM     30  C   UNL A   1      44.429  30.030  33.017  1.00  0.00     0.029 A 
ATOM     31  N   UNL A   1      45.026  27.997  32.463  1.00  0.00    -0.354 N 
ATOM     32  N   UNL A   1      44.719  26.479  28.396  1.00  0.00    -0.248 NA
ATOM     33  C   UNL A   1      43.854  24.835  29.808  1.00  0.00     0.031 C 
ATOM     34  C   UNL A   1      45.072  30.050  31.744  1.00  0.00     0.029 A 
ATOM     35  C   UNL A   1      45.194  28.729  31.315  1.00  0.00     0.049 A 
ATOM     36  H   UNL A   1      45.452  27.136  32.679  1.00  0.00     0.167 HD
ATOM     37  C   UNL A   1      44.993  26.854  29.701  1.00  0.00     0.074 A 
ATOM     38  C   UNL A   1      44.506  25.752  30.527  1.00  0.00     0.031 C 
ATOM     39  C   UNL A   1      45.337  28.138  30.007  1.00  0.00     0.037 A 
BRANCH  26  40
ATOM     40  C   UNL A   1      43.271  26.947  34.935  1.00  0.00     0.064 A 
ATOM     41  C   UNL A   1      43.483  27.339  36.272  1.00  0.00     0.173 A 
ATOM     42  C   UNL A   1      43.557  25.596  34.643  1.00  0.00     0.173 A 
ATOM     43  F   UNL A   1      43.271  28.606  36.657  1.00  0.00    -0.203 F 
ATOM     44  C   UNL A   1      43.998  26.457  37.228  1.00  0.00     0.198 A 
ATOM     45  C   UNL A   1      44.023  24.706  35.611  1.00  0.00     0.198 A 
ATOM     46  F   UNL A   1      43.501  25.115  33.395  1.00  0.00    -0.203 F 
ATOM     47  F   UNL A   1      44.290  26.902  38.457  1.00  0.00    -0.200 F 
ATOM     48  C   UNL A   1      44.271  25.143  36.895  1.00  0.00     0.200 A 
ATOM     49  F   UNL A   1      44.301  23.442  35.263  1.00  0.00    -0.200 F 
ATOM     50  F   UNL A   1      44.817  24.311  37.792  1.00  0.00    -0.200 F 
ENDBRANCH  26  40
BRANCH  27  51
ATOM     51  C   UNL A   1      42.539  23.965  26.900  1.00  0.00     0.064 A 
ATOM     52  C   UNL A   1      43.456  23.508  25.939  1.00  0.00     0.173 A 
ATOM     53  C   UNL A   1      41.605  23.023  27.372  1.00  0.00     0.173 A 
ATOM     54  F   UNL A   1      44.411  24.326  25.474  1.00  0.00    -0.203 F 
ATOM     55  C   UNL A   1      43.453  22.180  25.496  1.00  0.00     0.198 A 
ATOM     56  C   UNL A   1      41.599  21.702  26.925  1.00  0.00     0.198 A 
ATOM     57  F   UNL A   1      40.745  23.341  28.350  1.00  0.00    -0.203 F 
ATOM     58  F   UNL A   1      44.383  21.762  24.626  1.00  0.00    -0.200 F 
ATOM     59  C   UNL A   1      42.531  21.276  25.997  1.00  0.00     0.200 A 
ATOM     60  F   UNL A   1      40.727  20.827  27.449  1.00  0.00    -0.200 F 
ATOM     61  F   UNL A   1      42.568  19.990  25.621  1.00  0.00    -0.200 F 
ENDBRANCH  27  51
BRANCH  39  62
ATOM     62  C   UNL A   1      45.643  29.070  28.865  1.00  0.00     0.064 A 
ATOM     63  C   UNL A   1      44.669  29.816  28.177  1.00  0.00     0.173 A 
ATOM     64  C   UNL A   1      46.984  29.319  28.547  1.00  0.00     0.173 A 
ATOM     65  F   UNL A   1      43.373  29.718  28.496  1.00  0.00    -0.203 F 
ATOM     66  C   UNL A   1      45.021  30.728  27.185  1.00  0.00     0.198 A 
ATOM     67  C   UNL A   1      47.336  30.259  27.581  1.00  0.00     0.198 A 
ATOM     68  F   UNL A   1      47.963  28.682  29.209  1.00  0.00    -0.203 F 
ATOM     69  F   UNL A   1      44.069  31.417  26.536  1.00  0.00    -0.200 F 
ATOM     70  C   UNL A   1      46.355  30.954  26.892  1.00  0.00     0.200 A 
ATOM     71  F   UNL A   1      48.629  30.514  27.340  1.00  0.00    -0.200 F 
ATOM     72  F   UNL A   1      46.697  31.863  25.967  1.00  0.00    -0.200 F 
ENDBRANCH  39  62
ENDBRANCH  13  14
ENDBRANCH   6   8
ENDBRANCH   3   4
ENDBRANCH   2   3
ENDBRANCH   1   2
BRANCH   1  73
ATOM     73  C   UNL A   1      33.718  28.366  25.753  1.00  0.00     0.002 C 
BRANCH  73  74
ATOM     74  C   UNL A   1      33.017  27.021  25.563  1.00  0.00     0.021 C 
BRANCH  74  75
ATOM     75  C   UNL A   1      33.917  25.797  25.545  1.00  0.00     0.116 C 
BRANCH  75  76
ATOM     76  N   UNL A   1      33.385  24.602  26.153  1.00  0.00    -0.351 N 
ATOM     77  C   UNL A   1      33.770  23.297  26.003  1.00  0.00     0.281 C 
ATOM     78  H   UNL A   1      32.631  24.748  26.770  1.00  0.00     0.163 HD
ATOM     79  O   UNL A   1      33.394  22.538  26.908  1.00  0.00    -0.268 OA
BRANCH  77  80
ATOM     80  C   UNL A   1      34.559  22.732  24.752  1.00  0.00     0.177 C 
ATOM     81  C   UNL A   1      33.863  22.978  23.397  1.00  0.00     0.079 C 
ATOM     82  C   UNL A   1      34.655  21.169  24.916  1.00  0.00     0.106 C 
ATOM     83  C   UNL A   1      32.471  22.352  23.352  1.00  0.00     0.009 C 
ATOM     84  C   UNL A   1      33.304  20.425  24.796  1.00  0.00     0.114 C 
ATOM     85  C   UNL A   1      32.554  20.843  23.516  1.00  0.00     0.028 C 
BRANCH  80  86
ATOM     86  N   UNL A   1      35.994  23.159  24.755  1.00  0.00    -0.331 N 
ATOM     87  H   UNL A   1      36.004  24.159  24.549  1.00  0.00     0.347 HD
ATOM     88  H   UNL A   1      36.427  22.538  24.072  1.00  0.00     0.347 HD
BRANCH  86  89
ATOM     89  C   UNL A   1      36.807  22.965  25.951  1.00  0.00     0.183 C 
ATOM     90  C   UNL A   1      38.153  22.305  25.779  1.00  0.00     0.071 C 
ATOM     91  C   UNL A   1      38.076  23.753  26.140  1.00  0.00     0.071 C 
ENDBRANCH  86  89
ENDBRANCH  80  86
BRANCH  84  92
ATOM     92  N   UNL A   1      33.486  18.968  24.882  1.00  0.00    -0.268 N 
ATOM     93  C   UNL A   1      32.617  18.069  25.445  1.00  0.00     0.124 A 
ATOM     94  N   UNL A   1      34.566  18.370  24.324  1.00  0.00    -0.180 NA
ATOM     95  C   UNL A   1      33.173  16.836  25.235  1.00  0.00     0.055 A 
ATOM     96  C   UNL A   1      34.360  17.065  24.534  1.00  0.00     0.150 A 
ATOM     97  Br  UNL A   1      32.520  15.165  25.741  1.00  0.00    -0.047 Br
ENDBRANCH  84  92
ENDBRANCH  77  80
ENDBRANCH  75  76
ENDBRANCH  74  75
ENDBRANCH  73  74
ENDBRANCH   1  73
TORSDOF 16
ENDMDL
MODEL 3
REMARK VINA RESULT:     -12.3      0.677      1.790
REMARK SMILES O=C(NCCCCCCNC(=O)[C@]1([NH2+]C2CC2)CCC[C@@H](n2cc(Br)cn2)C1)c1ccc(-c2c3nc(c(-c4c(F)c(F)c(F)c(F)c4F)c4ccc([nH]4)c(-c4c(F)c(F)c(F)c(F)c4F)c4nc(c(-c5c(F)c(F)c(F)c(F)c5F)c5ccc2[nH]5)C=C4)C=C3)cc1
REMARK SMILES IDX 6 1 5 2 4 3 3 4 1 5 2 6 29 8 30 9 91 10 31 11 90 12 32 13
REMARK SMILES IDX 33 14 34 15 84 16 35 17 89 18 83 19 85 20 36 21 88 22 82 23
REMARK SMILES IDX 81 24 37 26 69 27 49 28 68 29 50 30 53 31 67 32 86 33 51 34
REMARK SMILES IDX 52 35 66 37 87 38 54 39 38 40 39 41 47 42 40 43 41 44 45 45
REMARK SMILES IDX 48 46 42 47 43 48 46 49 44 50 70 51 71 52 79 53 72 54 73 55
REMARK SMILES IDX 77 56 80 57 74 58 75 59 78 60 76 61 55 62 56 63 64 64 57 65
REMARK SMILES IDX 58 66 62 67 65 68 59 69 60 70 63 71 61 72 7 73 8 74 9 75
REMARK SMILES IDX 10 76 11 77 12 79 13 80 18 81 28 82 19 83 21 84 20 85 14 86
REMARK SMILES IDX 15 89 16 90 17 91 22 92 23 93 27 94 24 95 26 96 25 97
REMARK H PARENT 3 7 85 25 53 36 10 78 14 87 14 88
REMARK Flexibility Score: inf
ROOT
ATOM      1  C   UNL A   1      36.439  21.176  25.323  1.00  0.00     0.002 C 
ENDROOT
BRANCH   1   2
ATOM      2  C   UNL A   1      37.838  21.728  25.013  1.00  0.00     0.021 C 
BRANCH   2   3
ATOM      3  C   UNL A   1      38.756  21.932  26.215  1.00  0.00     0.116 C 
BRANCH   3   4
ATOM      4  N   UNL A   1      40.167  21.901  25.900  1.00  0.00    -0.352 N 
ATOM      5  O   UNL A   1      42.331  22.294  25.734  1.00  0.00    -0.269 OA
ATOM      6  C   UNL A   1      41.232  22.729  26.098  1.00  0.00     0.251 C 
ATOM      7  H   UNL A   1      40.423  21.077  25.423  1.00  0.00     0.163 HD
BRANCH   6   8
ATOM      8  C   UNL A   1      41.170  24.104  26.659  1.00  0.00     0.039 A 
ATOM      9  C   UNL A   1      40.440  25.172  26.136  1.00  0.00     0.014 A 
ATOM     10  C   UNL A   1      41.908  24.310  27.840  1.00  0.00     0.014 A 
ATOM     11  C   UNL A   1      40.501  26.428  26.740  1.00  0.00     0.010 A 
ATOM     12  C   UNL A   1      41.960  25.555  28.456  1.00  0.00     0.010 A 
ATOM     13  C   UNL A   1      41.277  26.625  27.888  1.00  0.00    -0.014 A 
BRANCH  13  14
ATOM     14  C   UNL A   1      41.220  27.926  28.556  1.00  0.00     0.031 A 
ATOM     15  C   UNL A   1      42.347  28.855  28.235  1.00  0.00     0.074 A 
ATOM     16  C   UNL A   1      40.160  28.348  29.276  1.00  0.00     0.049 A 
ATOM     17  N   UNL A   1      43.160  29.453  29.047  1.00  0.00    -0.248 NA
ATOM     18  C   UNL A   1      42.648  29.092  26.813  1.00  0.00     0.031 C 
ATOM     19  C   UNL A   1      38.856  27.701  29.439  1.00  0.00     0.029 A 
ATOM     20  N   UNL A   1      40.004  29.523  29.952  1.00  0.00    -0.354 N 
ATOM     21  C   UNL A   1      43.989  30.250  28.255  1.00  0.00     0.074 A 
ATOM     22  C   UNL A   1      43.696  29.914  26.887  1.00  0.00     0.031 C 
ATOM     23  C   UNL A   1      37.984  28.581  29.984  1.00  0.00     0.029 A 
ATOM     24  C   UNL A   1      38.697  29.799  30.332  1.00  0.00     0.049 A 
ATOM     25  H   UNL A   1      40.756  30.127  30.152  1.00  0.00     0.167 HD
ATOM     26  C   UNL A   1      44.749  31.254  28.775  1.00  0.00     0.037 A 
ATOM     27  C   UNL A   1      38.228  30.964  30.843  1.00  0.00     0.037 A 
ATOM     28  C   UNL A   1      44.963  31.083  30.186  1.00  0.00     0.049 A 
ATOM     29  C   UNL A   1      39.386  31.727  31.367  1.00  0.00     0.074 A 
ATOM     30  C   UNL A   1      45.596  30.128  30.958  1.00  0.00     0.029 A 
ATOM     31  N   UNL A   1      44.198  31.811  31.061  1.00  0.00    -0.354 N 
ATOM     32  N   UNL A   1      40.083  31.375  32.410  1.00  0.00    -0.248 NA
ATOM     33  C   UNL A   1      40.035  32.668  30.467  1.00  0.00     0.031 C 
ATOM     34  C   UNL A   1      44.789  30.010  32.129  1.00  0.00     0.029 A 
ATOM     35  C   UNL A   1      43.753  30.936  32.018  1.00  0.00     0.049 A 
ATOM     36  H   UNL A   1      44.007  32.776  31.011  1.00  0.00     0.167 HD
ATOM     37  C   UNL A   1      41.390  31.695  32.079  1.00  0.00     0.074 A 
ATOM     38  C   UNL A   1      41.289  32.569  30.914  1.00  0.00     0.031 C 
ATOM     39  C   UNL A   1      42.439  31.004  32.612  1.00  0.00     0.037 A 
BRANCH  26  40
ATOM     40  C   UNL A   1      45.062  32.544  28.060  1.00  0.00     0.064 A 
ATOM     41  C   UNL A   1      44.042  33.492  27.838  1.00  0.00     0.173 A 
ATOM     42  C   UNL A   1      46.255  32.753  27.334  1.00  0.00     0.173 A 
ATOM     43  F   UNL A   1      42.855  33.377  28.453  1.00  0.00    -0.203 F 
ATOM     44  C   UNL A   1      44.188  34.534  26.916  1.00  0.00     0.198 A 
ATOM     45  C   UNL A   1      46.415  33.822  26.454  1.00  0.00     0.198 A 
ATOM     46  F   UNL A   1      47.264  31.875  27.367  1.00  0.00    -0.203 F 
ATOM     47  F   UNL A   1      43.153  35.343  26.655  1.00  0.00    -0.200 F 
ATOM     48  C   UNL A   1      45.373  34.695  26.222  1.00  0.00     0.200 A 
ATOM     49  F   UNL A   1      47.564  33.949  25.774  1.00  0.00    -0.200 F 
ATOM     50  F   UNL A   1      45.496  35.657  25.298  1.00  0.00    -0.200 F 
ENDBRANCH  26  40
BRANCH  27  51
ATOM     51  C   UNL A   1      36.907  31.601  30.628  1.00  0.00     0.064 A 
ATOM     52  C   UNL A   1      36.034  31.852  31.700  1.00  0.00     0.173 A 
ATOM     53  C   UNL A   1      36.602  32.238  29.411  1.00  0.00     0.173 A 
ATOM     54  F   UNL A   1      36.279  31.325  32.908  1.00  0.00    -0.203 F 
ATOM     55  C   UNL A   1      34.935  32.710  31.565  1.00  0.00     0.198 A 
ATOM     56  C   UNL A   1      35.504  33.088  29.276  1.00  0.00     0.198 A 
ATOM     57  F   UNL A   1      37.422  32.128  28.355  1.00  0.00    -0.203 F 
ATOM     58  F   UNL A   1      34.160  32.976  32.626  1.00  0.00    -0.200 F 
ATOM     59  C   UNL A   1      34.678  33.334  30.356  1.00  0.00     0.200 A 
ATOM     60  F   UNL A   1      35.291  33.718  28.112  1.00  0.00    -0.200 F 
ATOM     61  F   UNL A   1      33.665  34.204  30.244  1.00  0.00    -0.200 F 
ENDBRANCH  27  51
BRANCH  39  62
ATOM     62  C   UNL A   1      42.148  30.053  33.741  1.00  0.00     0.064 A 
ATOM     63  C   UNL A   1      41.710  28.729  33.558  1.00  0.00     0.173 A 
ATOM     64  C   UNL A   1      42.455  30.452  35.048  1.00  0.00     0.173 A 
ATOM     65  F   UNL A   1      41.501  28.234  32.333  1.00  0.00    -0.203 F 
ATOM     66  C   UNL A   1      41.539  27.865  34.639  1.00  0.00     0.198 A 
ATOM     67  C   UNL A   1      42.320  29.576  36.122  1.00  0.00     0.198 A 
ATOM     68  F   UNL A   1      42.934  31.684  35.280  1.00  0.00    -0.203 F 
ATOM     69  F   UNL A   1      41.107  26.611  34.437  1.00  0.00    -0.200 F 
ATOM     70  C   UNL A   1      41.851  28.288  35.920  1.00  0.00     0.200 A 
ATOM     71  F   UNL A   1      42.675  29.972  37.352  1.00  0.00    -0.200 F 
ATOM     72  F   UNL A   1      41.728  27.445  36.955  1.00  0.00    -0.200 F 
ENDBRANCH  39  62
ENDBRANCH  13  14
ENDBRANCH   6   8
ENDBRANCH   3   4
ENDBRANCH   2   3
ENDBRANCH   1   2
BRANCH   1  73
ATOM     73  C   UNL A   1      35.322  22.187  25.625  1.00  0.00     0.002 C 
BRANCH  73  74
ATOM     74  C   UNL A   1      35.590  23.652  25.284  1.00  0.00     0.021 C 
BRANCH  74  75
ATOM     75  C   UNL A   1      34.447  24.618  25.550  1.00  0.00     0.116 C 
BRANCH  75  76
ATOM     76  N   UNL A   1      34.177  25.589  24.518  1.00  0.00    -0.351 N 
ATOM     77  C   UNL A   1      33.534  26.795  24.597  1.00  0.00     0.281 C 
ATOM     78  H   UNL A   1      34.503  25.347  23.621  1.00  0.00     0.163 HD
ATOM     79  O   UNL A   1      33.768  27.570  23.658  1.00  0.00    -0.268 OA
BRANCH  77  80
ATOM     80  C   UNL A   1      32.498  27.188  25.728  1.00  0.00     0.177 C 
ATOM     81  C   UNL A   1      31.615  26.021  26.216  1.00  0.00     0.079 C 
ATOM     82  C   UNL A   1      31.513  28.256  25.122  1.00  0.00     0.106 C 
ATOM     83  C   UNL A   1      30.804  25.408  25.077  1.00  0.00     0.009 C 
ATOM     84  C   UNL A   1      30.577  27.713  24.016  1.00  0.00     0.114 C 
ATOM     85  C   UNL A   1      29.854  26.435  24.481  1.00  0.00     0.028 C 
BRANCH  80  86
ATOM     86  N   UNL A   1      33.151  27.933  26.851  1.00  0.00    -0.331 N 
ATOM     87  H   UNL A   1      33.519  27.232  27.495  1.00  0.00     0.347 HD
ATOM     88  H   UNL A   1      32.407  28.539  27.196  1.00  0.00     0.347 HD
BRANCH  86  89
ATOM     89  C   UNL A   1      34.241  28.862  26.570  1.00  0.00     0.183 C 
ATOM     90  C   UNL A   1      34.109  30.270  27.097  1.00  0.00     0.071 C 
ATOM     91  C   UNL A   1      35.128  29.349  27.685  1.00  0.00     0.071 C 
ENDBRANCH  86  89
ENDBRANCH  80  86
BRANCH  84  92
ATOM     92  N   UNL A   1      29.637  28.746  23.556  1.00  0.00    -0.268 N 
ATOM     93  C   UNL A   1      29.889  30.090  23.452  1.00  0.00     0.124 A 
ATOM     94  N   UNL A   1      28.399  28.413  23.119  1.00  0.00    -0.180 NA
ATOM     95  C   UNL A   1      28.752  30.640  22.923  1.00  0.00     0.055 A 
ATOM     96  C   UNL A   1      27.869  29.575  22.724  1.00  0.00     0.150 A 
ATOM     97  Br  UNL A   1      28.403  32.426  22.518  1.00  0.00    -0.047 Br
ENDBRANCH  84  92
ENDBRANCH  77  80
ENDBRANCH  75  76
ENDBRANCH  74  75
ENDBRANCH  73  74
ENDBRANCH   1  73
TORSDOF 16
ENDMDL
