MODEL 1
REMARK VINA RESULT:     -12.1      0.000      0.000
REMARK SMILES CC(=O)Nc1cnc(N(C)CCc2cn[nH]c2)c(C(=O)NCCCCCCNC(=O)c2ccc(-c3c4nc(c(-c5c(F)c(F)c(F)c(F)c5F)c5ccc([nH]5)c(-c5c(F)c(F)c(F)c(F)c5F)c5nc(c(-c6c(F)c(F)c(F)c(F)c6F)c6ccc3[nH]6)C=C5)C=C4)cc2)c1
REMARK SMILES IDX 23 1 22 2 21 3 19 4 20 5 18 7 5 8 6 9 94 10 7 11 8 12 4 13
REMARK SMILES IDX 1 14 2 15 3 16 9 18 10 19 11 20 12 21 13 22 14 23 17 24
REMARK SMILES IDX 15 25 16 26 24 28 25 29 26 30 27 31 28 32 29 33 30 35 31 36
REMARK SMILES IDX 32 37 93 38 33 39 92 40 34 41 35 42 36 43 86 44 37 45 91 46
REMARK SMILES IDX 85 47 87 48 38 49 90 50 84 51 83 52 39 54 71 55 51 56 70 57
REMARK SMILES IDX 52 58 55 59 69 60 88 61 53 62 54 63 68 65 89 66 56 67 40 68
REMARK SMILES IDX 41 69 49 70 42 71 43 72 47 73 50 74 44 75 45 76 48 77 46 78
REMARK SMILES IDX 72 79 73 80 81 81 74 82 75 83 79 84 82 85 76 86 77 87 80 88
REMARK SMILES IDX 78 89 57 90 58 91 66 92 59 93 60 94 64 95 67 96 61 97 62 98
REMARK SMILES IDX 65 99 63 100
REMARK H PARENT 21 6 4 17 16 27 28 34 87 53 55 64
REMARK Flexibility Score: inf
ROOT
ATOM      1  C   UNL A   1      36.875  23.142  24.631  1.00  0.00     0.021 C 
ENDROOT
BRANCH   1   2
ATOM      2  C   UNL A   1      36.214  23.890  25.788  1.00  0.00     0.116 C 
BRANCH   2   3
ATOM      3  N   UNL A   1      35.328  23.027  26.545  1.00  0.00    -0.352 N 
ATOM      4  C   UNL A   1      33.974  23.022  26.800  1.00  0.00     0.255 C 
ATOM      5  O   UNL A   1      33.655  22.384  27.806  1.00  0.00    -0.269 OA
ATOM      6  H   UNL A   1      35.801  22.276  26.973  1.00  0.00     0.163 HD
BRANCH   4   7
ATOM      7  C   UNL A   1      32.927  23.752  26.015  1.00  0.00     0.084 A 
ATOM      8  C   UNL A   1      31.494  25.724  25.838  1.00  0.00     0.060 A 
ATOM      9  C   UNL A   1      30.617  24.949  25.123  1.00  0.00     0.139 A 
ATOM     10  C   UNL A   1      32.632  25.092  26.320  1.00  0.00     0.045 A 
ATOM     11  N   UNL A   1      30.905  23.692  24.727  1.00  0.00    -0.236 NA
ATOM     12  C   UNL A   1      32.075  23.087  25.103  1.00  0.00     0.141 A 
BRANCH   8  13
ATOM     13  N   UNL A   1      31.183  27.051  26.172  1.00  0.00    -0.325 N 
ATOM     14  C   UNL A   1      32.051  28.101  24.101  1.00  0.00     0.114 C 
ATOM     15  C   UNL A   1      31.578  28.197  25.531  1.00  0.00     0.221 C 
ATOM     16  O   UNL A   1      31.468  29.286  26.095  1.00  0.00    -0.275 OA
ATOM     17  H   UNL A   1      30.609  27.174  26.963  1.00  0.00     0.169 HD
ENDBRANCH   8  13
BRANCH  12  18
ATOM     18  N   UNL A   1      32.312  21.882  24.465  1.00  0.00    -0.359 N 
ATOM     19  C   UNL A   1      32.710  21.912  23.058  1.00  0.00     0.145 C 
BRANCH  18  20
ATOM     20  C   UNL A   1      32.328  20.558  25.105  1.00  0.00     0.122 C 
BRANCH  20  21
ATOM     21  C   UNL A   1      33.619  19.757  24.896  1.00  0.00     0.060 C 
BRANCH  21  22
ATOM     22  C   UNL A   1      33.442  18.291  24.689  1.00  0.00    -0.008 A 
ATOM     23  C   UNL A   1      34.239  17.443  23.886  1.00  0.00     0.138 A 
ATOM     24  C   UNL A   1      32.483  17.449  25.212  1.00  0.00     0.108 A 
ATOM     25  N   UNL A   1      33.825  16.174  23.913  1.00  0.00    -0.184 NA
ATOM     26  N   UNL A   1      32.749  16.209  24.711  1.00  0.00    -0.285 N 
ATOM     27  H   UNL A   1      32.203  15.417  24.916  1.00  0.00     0.189 HD
ENDBRANCH  21  22
ENDBRANCH  20  21
ENDBRANCH  18  20
ENDBRANCH  12  18
ENDBRANCH   4   7
ENDBRANCH   2   3
ENDBRANCH   1   2
BRANCH   1  28
ATOM     28  C   UNL A   1      37.814  22.005  25.026  1.00  0.00     0.002 C 
BRANCH  28  29
ATOM     29  C   UNL A   1      37.348  20.596  24.652  1.00  0.00     0.002 C 
BRANCH  29  30
ATOM     30  C   UNL A   1      38.290  19.449  25.028  1.00  0.00     0.021 C 
BRANCH  30  31
ATOM     31  C   UNL A   1      39.479  19.816  25.909  1.00  0.00     0.116 C 
BRANCH  31  32
ATOM     32  N   UNL A   1      40.553  18.841  25.872  1.00  0.00    -0.352 N 
ATOM     33  C   UNL A   1      41.900  19.048  26.044  1.00  0.00     0.251 C 
ATOM     34  H   UNL A   1      40.282  17.911  25.700  1.00  0.00     0.163 HD
ATOM     35  O   UNL A   1      42.695  18.123  25.904  1.00  0.00    -0.269 OA
BRANCH  33  36
ATOM     36  C   UNL A   1      42.394  20.405  26.358  1.00  0.00     0.039 A 
ATOM     37  C   UNL A   1      42.836  21.214  25.309  1.00  0.00     0.014 A 
ATOM     38  C   UNL A   1      42.396  20.889  27.670  1.00  0.00     0.014 A 
ATOM     39  C   UNL A   1      43.225  22.529  25.567  1.00  0.00     0.010 A 
ATOM     40  C   UNL A   1      42.712  22.223  27.915  1.00  0.00     0.010 A 
ATOM     41  C   UNL A   1      43.133  23.055  26.866  1.00  0.00    -0.014 A 
BRANCH  41  42
ATOM     42  C   UNL A   1      43.483  24.472  27.142  1.00  0.00     0.031 A 
ATOM     43  C   UNL A   1      44.882  24.964  26.895  1.00  0.00     0.074 A 
ATOM     44  C   UNL A   1      42.552  25.304  27.651  1.00  0.00     0.049 A 
ATOM     45  N   UNL A   1      45.395  26.149  27.115  1.00  0.00    -0.248 NA
ATOM     46  C   UNL A   1      45.839  23.990  26.347  1.00  0.00     0.031 C 
ATOM     47  C   UNL A   1      41.171  24.934  27.967  1.00  0.00     0.029 A 
ATOM     48  N   UNL A   1      42.626  26.630  27.994  1.00  0.00    -0.354 N 
ATOM     49  C   UNL A   1      46.727  26.061  26.735  1.00  0.00     0.074 A 
ATOM     50  C   UNL A   1      46.963  24.691  26.332  1.00  0.00     0.031 C 
ATOM     51  C   UNL A   1      40.522  26.014  28.431  1.00  0.00     0.029 A 
ATOM     52  C   UNL A   1      41.448  27.140  28.485  1.00  0.00     0.049 A 
ATOM     53  H   UNL A   1      43.447  27.167  27.898  1.00  0.00     0.167 HD
ATOM     54  C   UNL A   1      47.662  27.039  26.697  1.00  0.00     0.037 A 
ATOM     55  C   UNL A   1      41.154  28.376  28.934  1.00  0.00     0.037 A 
ATOM     56  C   UNL A   1      47.421  28.403  27.086  1.00  0.00     0.049 A 
ATOM     57  C   UNL A   1      42.227  29.434  28.917  1.00  0.00     0.074 A 
ATOM     58  C   UNL A   1      48.293  29.478  27.055  1.00  0.00     0.029 A 
ATOM     59  N   UNL A   1      46.216  28.882  27.579  1.00  0.00    -0.354 N 
ATOM     60  N   UNL A   1      43.466  29.352  28.497  1.00  0.00    -0.248 NA
ATOM     61  C   UNL A   1      41.855  30.759  29.433  1.00  0.00     0.031 C 
ATOM     62  C   UNL A   1      47.630  30.595  27.573  1.00  0.00     0.029 A 
ATOM     63  C   UNL A   1      46.328  30.231  27.873  1.00  0.00     0.049 A 
ATOM     64  H   UNL A   1      45.401  28.342  27.701  1.00  0.00     0.167 HD
ATOM     65  C   UNL A   1      44.010  30.620  28.663  1.00  0.00     0.074 A 
ATOM     66  C   UNL A   1      42.959  31.455  29.205  1.00  0.00     0.031 C 
ATOM     67  C   UNL A   1      45.265  31.053  28.393  1.00  0.00     0.037 A 
BRANCH  54  68
ATOM     68  C   UNL A   1      49.033  26.674  26.202  1.00  0.00     0.064 A 
ATOM     69  C   UNL A   1      49.424  26.923  24.877  1.00  0.00     0.173 A 
ATOM     70  C   UNL A   1      49.981  26.113  27.070  1.00  0.00     0.173 A 
ATOM     71  F   UNL A   1      48.552  27.446  24.003  1.00  0.00    -0.203 F 
ATOM     72  C   UNL A   1      50.704  26.601  24.434  1.00  0.00     0.198 A 
ATOM     73  C   UNL A   1      51.271  25.822  26.632  1.00  0.00     0.198 A 
ATOM     74  F   UNL A   1      49.663  25.858  28.349  1.00  0.00    -0.203 F 
ATOM     75  F   UNL A   1      51.038  26.806  23.152  1.00  0.00    -0.200 F 
ATOM     76  C   UNL A   1      51.629  26.061  25.313  1.00  0.00     0.200 A 
ATOM     77  F   UNL A   1      52.169  25.313  27.487  1.00  0.00    -0.200 F 
ATOM     78  F   UNL A   1      52.865  25.763  24.889  1.00  0.00    -0.200 F 
ENDBRANCH  54  68
BRANCH  55  79
ATOM     79  C   UNL A   1      39.786  28.694  29.423  1.00  0.00     0.064 A 
ATOM     80  C   UNL A   1      39.423  28.451  30.756  1.00  0.00     0.173 A 
ATOM     81  C   UNL A   1      38.802  29.208  28.565  1.00  0.00     0.173 A 
ATOM     82  F   UNL A   1      40.321  27.942  31.612  1.00  0.00    -0.203 F 
ATOM     83  C   UNL A   1      38.122  28.676  31.203  1.00  0.00     0.198 A 
ATOM     84  C   UNL A   1      37.510  29.464  29.022  1.00  0.00     0.198 A 
ATOM     85  F   UNL A   1      39.095  29.463  27.283  1.00  0.00    -0.203 F 
ATOM     86  F   UNL A   1      37.788  28.374  32.465  1.00  0.00    -0.200 F 
ATOM     87  C   UNL A   1      37.167  29.184  30.336  1.00  0.00     0.200 A 
ATOM     88  F   UNL A   1      36.595  29.972  28.185  1.00  0.00    -0.200 F 
ATOM     89  F   UNL A   1      35.916  29.396  30.764  1.00  0.00    -0.200 F 
ENDBRANCH  55  79
BRANCH  67  90
ATOM     90  C   UNL A   1      45.558  32.507  28.631  1.00  0.00     0.064 A 
ATOM     91  C   UNL A   1      46.093  32.965  29.843  1.00  0.00     0.173 A 
ATOM     92  C   UNL A   1      45.334  33.449  27.614  1.00  0.00     0.173 A 
ATOM     93  F   UNL A   1      46.311  32.107  30.852  1.00  0.00    -0.203 F 
ATOM     94  C   UNL A   1      46.363  34.316  30.041  1.00  0.00     0.198 A 
ATOM     95  C   UNL A   1      45.638  34.793  27.803  1.00  0.00     0.198 A 
ATOM     96  F   UNL A   1      44.832  33.062  26.432  1.00  0.00    -0.203 F 
ATOM     97  F   UNL A   1      46.823  34.739  31.227  1.00  0.00    -0.200 F 
ATOM     98  C   UNL A   1      46.144  35.227  29.019  1.00  0.00     0.200 A 
ATOM     99  F   UNL A   1      45.441  35.670  26.808  1.00  0.00    -0.200 F 
ATOM    100  F   UNL A   1      46.412  36.526  29.208  1.00  0.00    -0.200 F 
ENDBRANCH  67  90
ENDBRANCH  41  42
ENDBRANCH  33  36
ENDBRANCH  31  32
ENDBRANCH  30  31
ENDBRANCH  29  30
ENDBRANCH  28  29
ENDBRANCH   1  28
TORSDOF 18
ENDMDL
MODEL 2
REMARK VINA RESULT:     -11.9      5.387     10.365
REMARK SMILES CC(=O)Nc1cnc(N(C)CCc2cn[nH]c2)c(C(=O)NCCCCCCNC(=O)c2ccc(-c3c4nc(c(-c5c(F)c(F)c(F)c(F)c5F)c5ccc([nH]5)c(-c5c(F)c(F)c(F)c(F)c5F)c5nc(c(-c6c(F)c(F)c(F)c(F)c6F)c6ccc3[nH]6)C=C5)C=C4)cc2)c1
REMARK SMILES IDX 23 1 22 2 21 3 19 4 20 5 18 7 5 8 6 9 94 10 7 11 8 12 4 13
REMARK SMILES IDX 1 14 2 15 3 16 9 18 10 19 11 20 12 21 13 22 14 23 17 24
REMARK SMILES IDX 15 25 16 26 24 28 25 29 26 30 27 31 28 32 29 33 30 35 31 36
REMARK SMILES IDX 32 37 93 38 33 39 92 40 34 41 35 42 36 43 86 44 37 45 91 46
REMARK SMILES IDX 85 47 87 48 38 49 90 50 84 51 83 52 39 54 71 55 51 56 70 57
REMARK SMILES IDX 52 58 55 59 69 60 88 61 53 62 54 63 68 65 89 66 56 67 40 68
REMARK SMILES IDX 41 69 49 70 42 71 43 72 47 73 50 74 44 75 45 76 48 77 46 78
REMARK SMILES IDX 72 79 73 80 81 81 74 82 75 83 79 84 82 85 76 86 77 87 80 88
REMARK SMILES IDX 78 89 57 90 58 91 66 92 59 93 60 94 64 95 67 96 61 97 62 98
REMARK SMILES IDX 65 99 63 100
REMARK H PARENT 21 6 4 17 16 27 28 34 87 53 55 64
REMARK Flexibility Score: inf
ROOT
ATOM      1  C   UNL A   1      31.572  28.373  27.081  1.00  0.00     0.021 C 
ENDROOT
BRANCH   1   2
ATOM      2  C   UNL A   1      32.274  27.048  26.785  1.00  0.00     0.116 C 
BRANCH   2   3
ATOM      3  N   UNL A   1      31.362  25.926  26.890  1.00  0.00    -0.352 N 
ATOM      4  C   UNL A   1      31.064  24.848  26.084  1.00  0.00     0.255 C 
ATOM      5  O   UNL A   1      29.961  24.343  26.308  1.00  0.00    -0.269 OA
ATOM      6  H   UNL A   1      30.839  25.935  27.724  1.00  0.00     0.163 HD
BRANCH   4   7
ATOM      7  C   UNL A   1      31.918  24.315  24.974  1.00  0.00     0.084 A 
ATOM      8  C   UNL A   1      33.476  22.586  24.230  1.00  0.00     0.060 A 
ATOM      9  C   UNL A   1      33.996  23.510  23.362  1.00  0.00     0.139 A 
ATOM     10  C   UNL A   1      32.459  23.021  25.068  1.00  0.00     0.045 A 
ATOM     11  N   UNL A   1      33.445  24.727  23.171  1.00  0.00    -0.236 NA
ATOM     12  C   UNL A   1      32.370  25.137  23.915  1.00  0.00     0.141 A 
BRANCH   8  13
ATOM     13  N   UNL A   1      34.040  21.306  24.348  1.00  0.00    -0.325 N 
ATOM     14  C   UNL A   1      35.679  21.854  26.124  1.00  0.00     0.114 C 
ATOM     15  C   UNL A   1      35.168  20.941  25.037  1.00  0.00     0.221 C 
ATOM     16  O   UNL A   1      35.695  19.850  24.819  1.00  0.00    -0.275 OA
ATOM     17  H   UNL A   1      33.566  20.580  23.880  1.00  0.00     0.169 HD
ENDBRANCH   8  13
BRANCH  12  18
ATOM     18  N   UNL A   1      31.803  26.319  23.475  1.00  0.00    -0.359 N 
ATOM     19  C   UNL A   1      32.697  27.398  23.052  1.00  0.00     0.145 C 
BRANCH  18  20
ATOM     20  C   UNL A   1      30.368  26.561  23.267  1.00  0.00     0.122 C 
BRANCH  20  21
ATOM     21  C   UNL A   1      29.841  27.870  23.870  1.00  0.00     0.060 C 
BRANCH  21  22
ATOM     22  C   UNL A   1      29.141  28.782  22.921  1.00  0.00    -0.008 A 
ATOM     23  C   UNL A   1      29.739  29.655  21.983  1.00  0.00     0.138 A 
ATOM     24  C   UNL A   1      27.788  28.985  22.748  1.00  0.00     0.108 A 
ATOM     25  N   UNL A   1      28.839  30.338  21.271  1.00  0.00    -0.184 NA
ATOM     26  N   UNL A   1      27.664  29.925  21.768  1.00  0.00    -0.285 N 
ATOM     27  H   UNL A   1      26.796  30.266  21.455  1.00  0.00     0.189 HD
ENDBRANCH  21  22
ENDBRANCH  20  21
ENDBRANCH  18  20
ENDBRANCH  12  18
ENDBRANCH   4   7
ENDBRANCH   2   3
ENDBRANCH   1   2
BRANCH   1  28
ATOM     28  C   UNL A   1      32.410  29.631  26.862  1.00  0.00     0.002 C 
BRANCH  28  29
ATOM     29  C   UNL A   1      31.749  30.735  26.033  1.00  0.00     0.002 C 
BRANCH  29  30
ATOM     30  C   UNL A   1      31.447  32.043  26.768  1.00  0.00     0.021 C 
BRANCH  30  31
ATOM     31  C   UNL A   1      32.654  32.825  27.276  1.00  0.00     0.116 C 
BRANCH  31  32
ATOM     32  N   UNL A   1      32.353  34.201  27.623  1.00  0.00    -0.352 N 
ATOM     33  C   UNL A   1      32.958  34.994  28.566  1.00  0.00     0.251 C 
ATOM     34  H   UNL A   1      31.619  34.619  27.118  1.00  0.00     0.163 HD
ATOM     35  O   UNL A   1      32.531  36.122  28.797  1.00  0.00    -0.269 OA
BRANCH  33  36
ATOM     36  C   UNL A   1      34.104  34.466  29.337  1.00  0.00     0.039 A 
ATOM     37  C   UNL A   1      33.845  33.719  30.488  1.00  0.00     0.014 A 
ATOM     38  C   UNL A   1      35.419  34.680  28.915  1.00  0.00     0.014 A 
ATOM     39  C   UNL A   1      34.905  33.136  31.185  1.00  0.00     0.010 A 
ATOM     40  C   UNL A   1      36.468  34.036  29.567  1.00  0.00     0.010 A 
ATOM     41  C   UNL A   1      36.221  33.260  30.710  1.00  0.00    -0.014 A 
BRANCH  41  42
ATOM     42  C   UNL A   1      37.350  32.591  31.406  1.00  0.00     0.031 A 
ATOM     43  C   UNL A   1      38.059  31.437  30.753  1.00  0.00     0.074 A 
ATOM     44  C   UNL A   1      37.711  32.998  32.639  1.00  0.00     0.049 A 
ATOM     45  N   UNL A   1      39.034  30.695  31.215  1.00  0.00    -0.248 NA
ATOM     46  C   UNL A   1      37.598  31.050  29.410  1.00  0.00     0.031 C 
ATOM     47  C   UNL A   1      37.076  34.082  33.391  1.00  0.00     0.029 A 
ATOM     48  N   UNL A   1      38.697  32.547  33.480  1.00  0.00    -0.354 N 
ATOM     49  C   UNL A   1      39.299  29.759  30.224  1.00  0.00     0.074 A 
ATOM     50  C   UNL A   1      38.341  29.982  29.163  1.00  0.00     0.031 C 
ATOM     51  C   UNL A   1      37.706  34.229  34.567  1.00  0.00     0.029 A 
ATOM     52  C   UNL A   1      38.760  33.226  34.673  1.00  0.00     0.049 A 
ATOM     53  H   UNL A   1      39.303  31.804  33.250  1.00  0.00     0.167 HD
ATOM     54  C   UNL A   1      40.272  28.818  30.189  1.00  0.00     0.037 A 
ATOM     55  C   UNL A   1      39.573  33.051  35.732  1.00  0.00     0.037 A 
ATOM     56  C   UNL A   1      41.232  28.607  31.240  1.00  0.00     0.049 A 
ATOM     57  C   UNL A   1      40.620  31.969  35.680  1.00  0.00     0.074 A 
ATOM     58  C   UNL A   1      42.276  27.700  31.287  1.00  0.00     0.029 A 
ATOM     59  N   UNL A   1      41.263  29.314  32.433  1.00  0.00    -0.354 N 
ATOM     60  N   UNL A   1      40.900  31.132  34.712  1.00  0.00    -0.248 NA
ATOM     61  C   UNL A   1      41.468  31.813  36.870  1.00  0.00     0.031 C 
ATOM     62  C   UNL A   1      42.910  27.826  32.528  1.00  0.00     0.029 A 
ATOM     63  C   UNL A   1      42.297  28.851  33.230  1.00  0.00     0.049 A 
ATOM     64  H   UNL A   1      40.642  30.038  32.677  1.00  0.00     0.167 HD
ATOM     65  C   UNL A   1      41.976  30.377  35.158  1.00  0.00     0.074 A 
ATOM     66  C   UNL A   1      42.310  30.868  36.478  1.00  0.00     0.031 C 
ATOM     67  C   UNL A   1      42.629  29.366  34.533  1.00  0.00     0.037 A 
BRANCH  54  68
ATOM     68  C   UNL A   1      40.358  27.952  28.965  1.00  0.00     0.064 A 
ATOM     69  C   UNL A   1      39.641  26.748  28.868  1.00  0.00     0.173 A 
ATOM     70  C   UNL A   1      41.125  28.348  27.859  1.00  0.00     0.173 A 
ATOM     71  F   UNL A   1      38.903  26.317  29.901  1.00  0.00    -0.203 F 
ATOM     72  C   UNL A   1      39.711  25.962  27.720  1.00  0.00     0.198 A 
ATOM     73  C   UNL A   1      41.166  27.575  26.700  1.00  0.00     0.198 A 
ATOM     74  F   UNL A   1      41.826  29.491  27.896  1.00  0.00    -0.203 F 
ATOM     75  F   UNL A   1      39.054  24.795  27.670  1.00  0.00    -0.200 F 
ATOM     76  C   UNL A   1      40.464  26.381  26.635  1.00  0.00     0.200 A 
ATOM     77  F   UNL A   1      41.883  27.988  25.647  1.00  0.00    -0.200 F 
ATOM     78  F   UNL A   1      40.520  25.630  25.526  1.00  0.00    -0.200 F 
ENDBRANCH  54  68
BRANCH  55  79
ATOM     79  C   UNL A   1      39.450  33.926  36.929  1.00  0.00     0.064 A 
ATOM     80  C   UNL A   1      40.106  35.165  36.987  1.00  0.00     0.173 A 
ATOM     81  C   UNL A   1      38.712  33.530  38.054  1.00  0.00     0.173 A 
ATOM     82  F   UNL A   1      40.841  35.581  35.945  1.00  0.00    -0.203 F 
ATOM     83  C   UNL A   1      40.058  35.955  38.133  1.00  0.00     0.198 A 
ATOM     84  C   UNL A   1      38.635  34.337  39.188  1.00  0.00     0.198 A 
ATOM     85  F   UNL A   1      38.061  32.359  38.052  1.00  0.00    -0.203 F 
ATOM     86  F   UNL A   1      40.747  37.104  38.182  1.00  0.00    -0.200 F 
ATOM     87  C   UNL A   1      39.320  35.542  39.232  1.00  0.00     0.200 A 
ATOM     88  F   UNL A   1      37.908  33.942  40.242  1.00  0.00    -0.200 F 
ATOM     89  F   UNL A   1      39.278  36.300  40.336  1.00  0.00    -0.200 F 
ENDBRANCH  55  79
BRANCH  67  90
ATOM     90  C   UNL A   1      43.802  28.758  35.248  1.00  0.00     0.064 A 
ATOM     91  C   UNL A   1      43.653  27.679  36.130  1.00  0.00     0.173 A 
ATOM     92  C   UNL A   1      45.099  29.242  35.015  1.00  0.00     0.173 A 
ATOM     93  F   UNL A   1      42.432  27.189  36.398  1.00  0.00    -0.203 F 
ATOM     94  C   UNL A   1      44.755  27.126  36.777  1.00  0.00     0.198 A 
ATOM     95  C   UNL A   1      46.202  28.665  35.637  1.00  0.00     0.198 A 
ATOM     96  F   UNL A   1      45.299  30.268  34.174  1.00  0.00    -0.203 F 
ATOM     97  F   UNL A   1      44.582  26.131  37.658  1.00  0.00    -0.200 F 
ATOM     98  C   UNL A   1      46.028  27.614  36.525  1.00  0.00     0.200 A 
ATOM     99  F   UNL A   1      47.433  29.126  35.379  1.00  0.00    -0.200 F 
ATOM    100  F   UNL A   1      47.088  27.075  37.142  1.00  0.00    -0.200 F 
ENDBRANCH  67  90
ENDBRANCH  41  42
ENDBRANCH  33  36
ENDBRANCH  31  32
ENDBRANCH  30  31
ENDBRANCH  29  30
ENDBRANCH  28  29
ENDBRANCH   1  28
TORSDOF 18
ENDMDL
MODEL 3
REMARK VINA RESULT:     -11.8      1.167      7.409
REMARK SMILES CC(=O)Nc1cnc(N(C)CCc2cn[nH]c2)c(C(=O)NCCCCCCNC(=O)c2ccc(-c3c4nc(c(-c5c(F)c(F)c(F)c(F)c5F)c5ccc([nH]5)c(-c5c(F)c(F)c(F)c(F)c5F)c5nc(c(-c6c(F)c(F)c(F)c(F)c6F)c6ccc3[nH]6)C=C5)C=C4)cc2)c1
REMARK SMILES IDX 23 1 22 2 21 3 19 4 20 5 18 7 5 8 6 9 94 10 7 11 8 12 4 13
REMARK SMILES IDX 1 14 2 15 3 16 9 18 10 19 11 20 12 21 13 22 14 23 17 24
REMARK SMILES IDX 15 25 16 26 24 28 25 29 26 30 27 31 28 32 29 33 30 35 31 36
REMARK SMILES IDX 32 37 93 38 33 39 92 40 34 41 35 42 36 43 86 44 37 45 91 46
REMARK SMILES IDX 85 47 87 48 38 49 90 50 84 51 83 52 39 54 71 55 51 56 70 57
REMARK SMILES IDX 52 58 55 59 69 60 88 61 53 62 54 63 68 65 89 66 56 67 40 68
REMARK SMILES IDX 41 69 49 70 42 71 43 72 47 73 50 74 44 75 45 76 48 77 46 78
REMARK SMILES IDX 72 79 73 80 81 81 74 82 75 83 79 84 82 85 76 86 77 87 80 88
REMARK SMILES IDX 78 89 57 90 58 91 66 92 59 93 60 94 64 95 67 96 61 97 62 98
REMARK SMILES IDX 65 99 63 100
REMARK H PARENT 21 6 4 17 16 27 28 34 87 53 55 64
REMARK Flexibility Score: inf
ROOT
ATOM      1  C   UNL A   1      36.962  23.660  25.087  1.00  0.00     0.021 C 
ENDROOT
BRANCH   1   2
ATOM      2  C   UNL A   1      35.473  23.999  25.070  1.00  0.00     0.116 C 
BRANCH   2   3
ATOM      3  N   UNL A   1      35.065  24.551  23.793  1.00  0.00    -0.352 N 
ATOM      4  C   UNL A   1      33.887  25.067  23.298  1.00  0.00     0.255 C 
ATOM      5  O   UNL A   1      33.809  25.052  22.067  1.00  0.00    -0.269 OA
ATOM      6  H   UNL A   1      35.794  24.559  23.130  1.00  0.00     0.163 HD
BRANCH   4   7
ATOM      7  C   UNL A   1      32.731  25.561  24.113  1.00  0.00     0.084 A 
ATOM      8  C   UNL A   1      31.768  27.396  25.409  1.00  0.00     0.060 A 
ATOM      9  C   UNL A   1      31.072  26.451  26.118  1.00  0.00     0.139 A 
ATOM     10  C   UNL A   1      32.635  26.927  24.432  1.00  0.00     0.045 A 
ATOM     11  N   UNL A   1      31.060  25.145  25.782  1.00  0.00    -0.236 NA
ATOM     12  C   UNL A   1      31.828  24.678  24.749  1.00  0.00     0.141 A 
BRANCH   8  13
ATOM     13  N   UNL A   1      31.699  28.756  25.752  1.00  0.00    -0.325 N 
ATOM     14  C   UNL A   1      33.616  28.776  27.323  1.00  0.00     0.114 C 
ATOM     15  C   UNL A   1      32.370  29.408  26.753  1.00  0.00     0.221 C 
ATOM     16  O   UNL A   1      31.999  30.526  27.115  1.00  0.00    -0.275 OA
ATOM     17  H   UNL A   1      31.095  29.309  25.205  1.00  0.00     0.169 HD
ENDBRANCH   8  13
BRANCH  12  18
ATOM     18  N   UNL A   1      31.565  23.364  24.405  1.00  0.00    -0.359 N 
ATOM     19  C   UNL A   1      30.692  23.112  23.258  1.00  0.00     0.145 C 
BRANCH  18  20
ATOM     20  C   UNL A   1      32.186  22.175  25.007  1.00  0.00     0.122 C 
BRANCH  20  21
ATOM     21  C   UNL A   1      32.873  21.232  24.010  1.00  0.00     0.060 C 
BRANCH  21  22
ATOM     22  C   UNL A   1      32.613  19.778  24.213  1.00  0.00    -0.008 A 
ATOM     23  C   UNL A   1      32.601  19.080  25.443  1.00  0.00     0.138 A 
ATOM     24  C   UNL A   1      32.341  18.804  23.276  1.00  0.00     0.108 A 
ATOM     25  N   UNL A   1      32.330  17.782  25.293  1.00  0.00    -0.184 NA
ATOM     26  N   UNL A   1      32.193  17.638  23.968  1.00  0.00    -0.285 N 
ATOM     27  H   UNL A   1      32.005  16.775  23.535  1.00  0.00     0.189 HD
ENDBRANCH  21  22
ENDBRANCH  20  21
ENDBRANCH  18  20
ENDBRANCH  12  18
ENDBRANCH   4   7
ENDBRANCH   2   3
ENDBRANCH   1   2
BRANCH   1  28
ATOM     28  C   UNL A   1      37.331  22.321  25.723  1.00  0.00     0.002 C 
BRANCH  28  29
ATOM     29  C   UNL A   1      37.078  21.082  24.861  1.00  0.00     0.002 C 
BRANCH  29  30
ATOM     30  C   UNL A   1      38.171  20.011  24.877  1.00  0.00     0.021 C 
BRANCH  30  31
ATOM     31  C   UNL A   1      39.247  20.162  25.947  1.00  0.00     0.116 C 
BRANCH  31  32
ATOM     32  N   UNL A   1      40.254  19.118  25.912  1.00  0.00    -0.352 N 
ATOM     33  C   UNL A   1      41.610  19.236  26.089  1.00  0.00     0.251 C 
ATOM     34  H   UNL A   1      39.922  18.208  25.739  1.00  0.00     0.163 HD
ATOM     35  O   UNL A   1      42.343  18.260  25.949  1.00  0.00    -0.269 OA
BRANCH  33  36
ATOM     36  C   UNL A   1      42.193  20.557  26.405  1.00  0.00     0.039 A 
ATOM     37  C   UNL A   1      42.490  21.425  25.352  1.00  0.00     0.014 A 
ATOM     38  C   UNL A   1      42.417  20.950  27.728  1.00  0.00     0.014 A 
ATOM     39  C   UNL A   1      42.958  22.710  25.628  1.00  0.00     0.010 A 
ATOM     40  C   UNL A   1      42.813  22.257  28.003  1.00  0.00     0.010 A 
ATOM     41  C   UNL A   1      43.090  23.149  26.955  1.00  0.00    -0.014 A 
BRANCH  41  42
ATOM     42  C   UNL A   1      43.526  24.536  27.262  1.00  0.00     0.031 A 
ATOM     43  C   UNL A   1      42.530  25.545  27.762  1.00  0.00     0.074 A 
ATOM     44  C   UNL A   1      44.808  24.894  27.054  1.00  0.00     0.049 A 
ATOM     45  N   UNL A   1      42.703  26.812  28.042  1.00  0.00    -0.248 NA
ATOM     46  C   UNL A   1      41.149  25.073  27.954  1.00  0.00     0.031 C 
ATOM     47  C   UNL A   1      45.859  24.015  26.539  1.00  0.00     0.029 A 
ATOM     48  N   UNL A   1      45.446  26.093  27.248  1.00  0.00    -0.354 N 
ATOM     49  C   UNL A   1      41.460  27.285  28.439  1.00  0.00     0.074 A 
ATOM     50  C   UNL A   1      40.525  26.189  28.303  1.00  0.00     0.031 C 
ATOM     51  C   UNL A   1      47.014  24.697  26.483  1.00  0.00     0.029 A 
ATOM     52  C   UNL A   1      46.780  26.069  26.919  1.00  0.00     0.049 A 
ATOM     53  H   UNL A   1      44.991  26.897  27.591  1.00  0.00     0.167 HD
ATOM     54  C   UNL A   1      41.132  28.514  28.904  1.00  0.00     0.037 A 
ATOM     55  C   UNL A   1      47.705  27.048  26.959  1.00  0.00     0.037 A 
ATOM     56  C   UNL A   1      42.066  29.598  29.051  1.00  0.00     0.049 A 
ATOM     57  C   UNL A   1      47.301  28.417  27.443  1.00  0.00     0.074 A 
ATOM     58  C   UNL A   1      41.840  30.873  29.542  1.00  0.00     0.029 A 
ATOM     59  N   UNL A   1      43.408  29.536  28.707  1.00  0.00    -0.354 N 
ATOM     60  N   UNL A   1      46.136  28.833  27.874  1.00  0.00    -0.248 NA
ATOM     61  C   UNL A   1      48.347  29.449  27.450  1.00  0.00     0.031 C 
ATOM     62  C   UNL A   1      43.034  31.595  29.451  1.00  0.00     0.029 A 
ATOM     63  C   UNL A   1      44.018  30.754  28.957  1.00  0.00     0.049 A 
ATOM     64  H   UNL A   1      43.860  28.743  28.339  1.00  0.00     0.167 HD
ATOM     65  C   UNL A   1      46.315  30.161  28.237  1.00  0.00     0.074 A 
ATOM     66  C   UNL A   1      47.707  30.475  27.993  1.00  0.00     0.031 C 
ATOM     67  C   UNL A   1      45.410  31.043  28.727  1.00  0.00     0.037 A 
BRANCH  54  68
ATOM     68  C   UNL A   1      39.703  28.749  29.303  1.00  0.00     0.064 A 
ATOM     69  C   UNL A   1      39.255  28.491  30.609  1.00  0.00     0.173 A 
ATOM     70  C   UNL A   1      38.782  29.280  28.388  1.00  0.00     0.173 A 
ATOM     71  F   UNL A   1      40.091  27.971  31.519  1.00  0.00    -0.203 F 
ATOM     72  C   UNL A   1      37.934  28.733  30.975  1.00  0.00     0.198 A 
ATOM     73  C   UNL A   1      37.469  29.552  28.768  1.00  0.00     0.198 A 
ATOM     74  F   UNL A   1      39.157  29.550  27.129  1.00  0.00    -0.203 F 
ATOM     75  F   UNL A   1      37.519  28.435  32.215  1.00  0.00    -0.200 F 
ATOM     76  C   UNL A   1      37.045  29.272  30.059  1.00  0.00     0.200 A 
ATOM     77  F   UNL A   1      36.614  30.085  27.885  1.00  0.00    -0.200 F 
ATOM     78  F   UNL A   1      35.777  29.515  30.416  1.00  0.00    -0.200 F 
ENDBRANCH  54  68
BRANCH  55  79
ATOM     79  C   UNL A   1      49.108  26.776  26.547  1.00  0.00     0.064 A 
ATOM     80  C   UNL A   1      49.506  26.912  25.208  1.00  0.00     0.173 A 
ATOM     81  C   UNL A   1      50.070  26.335  27.468  1.00  0.00     0.173 A 
ATOM     82  F   UNL A   1      48.619  27.312  24.285  1.00  0.00    -0.203 F 
ATOM     83  C   UNL A   1      50.798  26.586  24.802  1.00  0.00     0.198 A 
ATOM     84  C   UNL A   1      51.372  26.042  27.066  1.00  0.00     0.198 A 
ATOM     85  F   UNL A   1      49.747  26.192  28.760  1.00  0.00    -0.203 F 
ATOM     86  F   UNL A   1      51.130  26.666  23.505  1.00  0.00    -0.200 F 
ATOM     87  C   UNL A   1      51.731  26.154  25.731  1.00  0.00     0.200 A 
ATOM     88  F   UNL A   1      52.276  25.640  27.970  1.00  0.00    -0.200 F 
ATOM     89  F   UNL A   1      52.972  25.836  25.339  1.00  0.00    -0.200 F 
ENDBRANCH  55  79
BRANCH  67  90
ATOM     90  C   UNL A   1      45.907  32.416  29.080  1.00  0.00     0.064 A 
ATOM     91  C   UNL A   1      45.880  33.472  28.159  1.00  0.00     0.173 A 
ATOM     92  C   UNL A   1      46.382  32.685  30.374  1.00  0.00     0.173 A 
ATOM     93  F   UNL A   1      45.450  33.263  26.905  1.00  0.00    -0.203 F 
ATOM     94  C   UNL A   1      46.340  34.739  28.508  1.00  0.00     0.198 A 
ATOM     95  C   UNL A   1      46.808  33.961  30.730  1.00  0.00     0.198 A 
ATOM     96  F   UNL A   1      46.421  31.712  31.297  1.00  0.00    -0.203 F 
ATOM     97  F   UNL A   1      46.357  35.719  27.594  1.00  0.00    -0.200 F 
ATOM     98  C   UNL A   1      46.796  34.984  29.794  1.00  0.00     0.200 A 
ATOM     99  F   UNL A   1      47.232  34.200  31.979  1.00  0.00    -0.200 F 
ATOM    100  F   UNL A   1      47.230  36.206  30.132  1.00  0.00    -0.200 F 
ENDBRANCH  67  90
ENDBRANCH  41  42
ENDBRANCH  33  36
ENDBRANCH  31  32
ENDBRANCH  30  31
ENDBRANCH  29  30
ENDBRANCH  28  29
ENDBRANCH   1  28
TORSDOF 18
ENDMDL
