MODEL 1
REMARK VINA RESULT:     -12.4      0.000      0.000
REMARK SMILES Cc1cc(Br)c2ncc(C(=O)NCCCCCCNC(=O)c3ccc(-c4c5nc(c(-c6c(F)c(F)c(F)c(F)c6F)c6ccc([nH]6)c(-c6c(F)c(F)c(F)c(F)c6F)c6nc(c(-c7c(F)c(F)c(F)c(F)c7F)c7ccc4[nH]7)C=C6)C=C5)cc3)c(N)c2c1
REMARK SMILES IDX 16 1 15 2 14 3 13 4 12 5 10 6 11 7 9 9 1 10 2 11 3 12 88 13
REMARK SMILES IDX 4 14 87 15 5 16 6 17 85 18 7 19 8 20 86 21 17 24 18 25 19 26
REMARK SMILES IDX 20 27 21 29 22 30 23 31 84 32 24 33 83 34 25 35 26 36 27 37
REMARK SMILES IDX 77 38 28 39 82 40 76 41 78 42 29 43 81 44 75 45 74 46 30 48
REMARK SMILES IDX 62 49 42 50 61 51 43 52 46 53 60 54 79 55 44 56 45 57 59 59
REMARK SMILES IDX 80 60 47 61 31 62 32 63 40 64 33 65 34 66 38 67 41 68 35 69
REMARK SMILES IDX 36 70 39 71 37 72 63 73 64 74 72 75 65 76 66 77 70 78 73 79
REMARK SMILES IDX 67 80 68 81 71 82 69 83 48 84 49 85 57 86 50 87 51 88 55 89
REMARK SMILES IDX 58 90 52 91 53 92 56 93 54 94
REMARK H PARENT 12 8 86 22 86 23 19 28 78 47 46 58
REMARK Flexibility Score: inf
ROOT
ATOM      1  C   UNL A   1      31.642  30.472  25.749  1.00  0.00     0.002 C 
ENDROOT
BRANCH   1   2
ATOM      2  C   UNL A   1      32.224  29.355  26.627  1.00  0.00     0.002 C 
BRANCH   2   3
ATOM      3  C   UNL A   1      33.546  28.753  26.124  1.00  0.00     0.021 C 
BRANCH   3   4
ATOM      4  C   UNL A   1      33.550  27.222  26.113  1.00  0.00     0.116 C 
BRANCH   4   5
ATOM      5  N   UNL A   1      33.846  26.746  24.776  1.00  0.00    -0.352 N 
ATOM      6  C   UNL A   1      33.116  26.612  23.624  1.00  0.00     0.254 C 
ATOM      7  O   UNL A   1      33.694  26.056  22.685  1.00  0.00    -0.269 OA
ATOM      8  H   UNL A   1      34.781  26.454  24.672  1.00  0.00     0.163 HD
BRANCH   6   9
ATOM      9  C   UNL A   1      31.728  27.125  23.428  1.00  0.00     0.081 A 
ATOM     10  C   UNL A   1      28.298  31.843  21.121  1.00  0.00     0.044 C 
ATOM     11  C   UNL A   1      28.563  30.566  21.862  1.00  0.00    -0.049 A 
ATOM     12  C   UNL A   1      27.535  29.839  22.447  1.00  0.00     0.021 A 
ATOM     13  C   UNL A   1      29.870  30.079  21.973  1.00  0.00     0.016 A 
ATOM     14  C   UNL A   1      27.817  28.626  23.085  1.00  0.00     0.044 A 
ATOM     15  C   UNL A   1      30.174  28.851  22.616  1.00  0.00     0.025 A 
ATOM     16  Br  UNL A   1      26.340  27.705  23.870  1.00  0.00    -0.048 Br
ATOM     17  C   UNL A   1      29.113  28.094  23.161  1.00  0.00     0.086 A 
ATOM     18  C   UNL A   1      31.503  28.339  22.737  1.00  0.00     0.055 A 
ATOM     19  N   UNL A   1      29.337  26.889  23.728  1.00  0.00    -0.254 NA
ATOM     20  C   UNL A   1      30.606  26.428  23.820  1.00  0.00     0.127 A 
BRANCH  18  21
ATOM     21  N   UNL A   1      32.595  29.115  22.296  1.00  0.00    -0.397 N 
ATOM     22  H   UNL A   1      33.311  29.361  22.926  1.00  0.00     0.156 HD
ATOM     23  H   UNL A   1      32.643  29.411  21.358  1.00  0.00     0.156 HD
ENDBRANCH  18  21
ENDBRANCH   6   9
ENDBRANCH   4   5
ENDBRANCH   3   4
ENDBRANCH   2   3
ENDBRANCH   1   2
BRANCH   1  24
ATOM     24  C   UNL A   1      31.376  31.791  26.479  1.00  0.00     0.021 C 
BRANCH  24  25
ATOM     25  C   UNL A   1      32.614  32.409  27.119  1.00  0.00     0.116 C 
BRANCH  25  26
ATOM     26  N   UNL A   1      32.401  33.806  27.462  1.00  0.00    -0.352 N 
ATOM     27  C   UNL A   1      33.032  34.549  28.429  1.00  0.00     0.251 C 
ATOM     28  H   UNL A   1      31.718  34.279  26.934  1.00  0.00     0.163 HD
ATOM     29  O   UNL A   1      32.621  35.654  28.751  1.00  0.00    -0.269 OA
BRANCH  27  30
ATOM     30  C   UNL A   1      34.220  33.977  29.093  1.00  0.00     0.039 A 
ATOM     31  C   UNL A   1      34.044  33.018  30.092  1.00  0.00     0.014 A 
ATOM     32  C   UNL A   1      35.501  34.372  28.694  1.00  0.00     0.014 A 
ATOM     33  C   UNL A   1      35.165  32.412  30.660  1.00  0.00     0.010 A 
ATOM     34  C   UNL A   1      36.615  33.731  29.226  1.00  0.00     0.010 A 
ATOM     35  C   UNL A   1      36.454  32.750  30.216  1.00  0.00    -0.014 A 
BRANCH  35  36
ATOM     36  C   UNL A   1      37.646  32.095  30.802  1.00  0.00     0.031 A 
ATOM     37  C   UNL A   1      38.117  32.491  32.169  1.00  0.00     0.074 A 
ATOM     38  C   UNL A   1      38.311  31.164  30.093  1.00  0.00     0.049 A 
ATOM     39  N   UNL A   1      39.113  32.009  32.870  1.00  0.00    -0.248 NA
ATOM     40  C   UNL A   1      37.387  33.581  32.834  1.00  0.00     0.031 C 
ATOM     41  C   UNL A   1      37.969  30.734  28.737  1.00  0.00     0.029 A 
ATOM     42  N   UNL A   1      39.412  30.410  30.416  1.00  0.00    -0.354 N 
ATOM     43  C   UNL A   1      39.117  32.727  34.057  1.00  0.00     0.074 A 
ATOM     44  C   UNL A   1      38.071  33.721  33.960  1.00  0.00     0.031 C 
ATOM     45  C   UNL A   1      38.824  29.770  28.355  1.00  0.00     0.029 A 
ATOM     46  C   UNL A   1      39.782  29.529  29.431  1.00  0.00     0.049 A 
ATOM     47  H   UNL A   1      39.889  30.493  31.273  1.00  0.00     0.167 HD
ATOM     48  C   UNL A   1      39.903  32.549  35.144  1.00  0.00     0.037 A 
ATOM     49  C   UNL A   1      40.776  28.620  29.408  1.00  0.00     0.037 A 
ATOM     50  C   UNL A   1      40.932  31.549  35.242  1.00  0.00     0.049 A 
ATOM     51  C   UNL A   1      41.655  28.461  30.618  1.00  0.00     0.074 A 
ATOM     52  C   UNL A   1      41.745  31.254  36.320  1.00  0.00     0.029 A 
ATOM     53  N   UNL A   1      41.289  30.687  34.217  1.00  0.00    -0.354 N 
ATOM     54  N   UNL A   1      41.597  29.087  31.767  1.00  0.00    -0.248 NA
ATOM     55  C   UNL A   1      42.733  27.464  30.533  1.00  0.00     0.031 C 
ATOM     56  C   UNL A   1      42.622  30.234  35.936  1.00  0.00     0.029 A 
ATOM     57  C   UNL A   1      42.328  29.871  34.631  1.00  0.00     0.049 A 
ATOM     58  H   UNL A   1      40.867  30.658  33.328  1.00  0.00     0.167 HD
ATOM     59  C   UNL A   1      42.607  28.547  32.550  1.00  0.00     0.074 A 
ATOM     60  C   UNL A   1      43.262  27.535  31.747  1.00  0.00     0.031 C 
ATOM     61  C   UNL A   1      42.957  28.861  33.820  1.00  0.00     0.037 A 
BRANCH  48  62
ATOM     62  C   UNL A   1      39.660  33.434  36.327  1.00  0.00     0.064 A 
ATOM     63  C   UNL A   1      40.272  34.693  36.430  1.00  0.00     0.173 A 
ATOM     64  C   UNL A   1      38.773  33.049  37.342  1.00  0.00     0.173 A 
ATOM     65  F   UNL A   1      41.138  35.100  35.489  1.00  0.00    -0.203 F 
ATOM     66  C   UNL A   1      40.016  35.528  37.513  1.00  0.00     0.198 A 
ATOM     67  C   UNL A   1      38.499  33.897  38.412  1.00  0.00     0.198 A 
ATOM     68  F   UNL A   1      38.159  31.858  37.288  1.00  0.00    -0.203 F 
ATOM     69  F   UNL A   1      40.636  36.711  37.606  1.00  0.00    -0.200 F 
ATOM     70  C   UNL A   1      39.124  35.133  38.499  1.00  0.00     0.200 A 
ATOM     71  F   UNL A   1      37.631  33.519  39.360  1.00  0.00    -0.200 F 
ATOM     72  F   UNL A   1      38.870  35.942  39.536  1.00  0.00    -0.200 F 
ENDBRANCH  48  62
BRANCH  49  73
ATOM     73  C   UNL A   1      40.948  27.750  28.217  1.00  0.00     0.064 A 
ATOM     74  C   UNL A   1      41.752  28.159  27.143  1.00  0.00     0.173 A 
ATOM     75  C   UNL A   1      40.340  26.490  28.136  1.00  0.00     0.173 A 
ATOM     76  F   UNL A   1      42.339  29.364  27.170  1.00  0.00    -0.203 F 
ATOM     77  C   UNL A   1      41.934  27.342  26.030  1.00  0.00     0.198 A 
ATOM     78  C   UNL A   1      40.539  25.665  27.030  1.00  0.00     0.198 A 
ATOM     79  F   UNL A   1      39.565  26.052  29.139  1.00  0.00    -0.203 F 
ATOM     80  F   UNL A   1      42.687  27.768  25.005  1.00  0.00    -0.200 F 
ATOM     81  C   UNL A   1      41.333  26.093  25.977  1.00  0.00     0.200 A 
ATOM     82  F   UNL A   1      39.967  24.454  26.988  1.00  0.00    -0.200 F 
ATOM     83  F   UNL A   1      41.517  25.304  24.909  1.00  0.00    -0.200 F 
ENDBRANCH  49  73
BRANCH  61  84
ATOM     84  C   UNL A   1      44.088  28.098  34.443  1.00  0.00     0.064 A 
ATOM     85  C   UNL A   1      45.387  28.622  34.475  1.00  0.00     0.173 A 
ATOM     86  C   UNL A   1      43.845  26.887  35.107  1.00  0.00     0.173 A 
ATOM     87  F   UNL A   1      45.667  29.772  33.844  1.00  0.00    -0.203 F 
ATOM     88  C   UNL A   1      46.404  27.961  35.156  1.00  0.00     0.198 A 
ATOM     89  C   UNL A   1      44.859  26.239  35.804  1.00  0.00     0.198 A 
ATOM     90  F   UNL A   1      42.615  26.352  35.108  1.00  0.00    -0.203 F 
ATOM     91  F   UNL A   1      47.644  28.471  35.167  1.00  0.00    -0.200 F 
ATOM     92  C   UNL A   1      46.137  26.776  35.830  1.00  0.00     0.200 A 
ATOM     93  F   UNL A   1      44.597  25.103  36.466  1.00  0.00    -0.200 F 
ATOM     94  F   UNL A   1      47.113  26.155  36.506  1.00  0.00    -0.200 F 
ENDBRANCH  61  84
ENDBRANCH  35  36
ENDBRANCH  27  30
ENDBRANCH  25  26
ENDBRANCH  24  25
ENDBRANCH   1  24
TORSDOF 14
ENDMDL
MODEL 2
REMARK VINA RESULT:     -12.1      6.068     11.276
REMARK SMILES Cc1cc(Br)c2ncc(C(=O)NCCCCCCNC(=O)c3ccc(-c4c5nc(c(-c6c(F)c(F)c(F)c(F)c6F)c6ccc([nH]6)c(-c6c(F)c(F)c(F)c(F)c6F)c6nc(c(-c7c(F)c(F)c(F)c(F)c7F)c7ccc4[nH]7)C=C6)C=C5)cc3)c(N)c2c1
REMARK SMILES IDX 16 1 15 2 14 3 13 4 12 5 10 6 11 7 9 9 1 10 2 11 3 12 88 13
REMARK SMILES IDX 4 14 87 15 5 16 6 17 85 18 7 19 8 20 86 21 17 24 18 25 19 26
REMARK SMILES IDX 20 27 21 29 22 30 23 31 84 32 24 33 83 34 25 35 26 36 27 37
REMARK SMILES IDX 77 38 28 39 82 40 76 41 78 42 29 43 81 44 75 45 74 46 30 48
REMARK SMILES IDX 62 49 42 50 61 51 43 52 46 53 60 54 79 55 44 56 45 57 59 59
REMARK SMILES IDX 80 60 47 61 31 62 32 63 40 64 33 65 34 66 38 67 41 68 35 69
REMARK SMILES IDX 36 70 39 71 37 72 63 73 64 74 72 75 65 76 66 77 70 78 73 79
REMARK SMILES IDX 67 80 68 81 71 82 69 83 48 84 49 85 57 86 50 87 51 88 55 89
REMARK SMILES IDX 58 90 52 91 53 92 56 93 54 94
REMARK H PARENT 12 8 86 22 86 23 19 28 78 47 46 58
REMARK Flexibility Score: inf
ROOT
ATOM      1  C   UNL A   1      36.729  20.588  24.993  1.00  0.00     0.002 C 
ENDROOT
BRANCH   1   2
ATOM      2  C   UNL A   1      37.049  22.038  24.603  1.00  0.00     0.002 C 
BRANCH   2   3
ATOM      3  C   UNL A   1      36.638  23.097  25.639  1.00  0.00     0.021 C 
BRANCH   3   4
ATOM      4  C   UNL A   1      35.651  24.131  25.092  1.00  0.00     0.116 C 
BRANCH   4   5
ATOM      5  N   UNL A   1      34.486  24.195  25.953  1.00  0.00    -0.352 N 
ATOM      6  C   UNL A   1      33.328  23.468  26.054  1.00  0.00     0.254 C 
ATOM      7  O   UNL A   1      32.498  23.894  26.863  1.00  0.00    -0.269 OA
ATOM      8  H   UNL A   1      34.539  24.923  26.614  1.00  0.00     0.163 HD
BRANCH   6   9
ATOM      9  C   UNL A   1      33.042  22.209  25.305  1.00  0.00     0.081 A 
ATOM     10  C   UNL A   1      32.826  15.954  25.712  1.00  0.00     0.044 C 
ATOM     11  C   UNL A   1      32.776  17.293  25.039  1.00  0.00    -0.049 A 
ATOM     12  C   UNL A   1      32.519  17.414  23.680  1.00  0.00     0.021 A 
ATOM     13  C   UNL A   1      32.985  18.459  25.783  1.00  0.00     0.016 A 
ATOM     14  C   UNL A   1      32.429  18.684  23.099  1.00  0.00     0.044 A 
ATOM     15  C   UNL A   1      32.898  19.755  25.211  1.00  0.00     0.025 A 
ATOM     16  Br  UNL A   1      32.086  18.747  21.222  1.00  0.00    -0.048 Br
ATOM     17  C   UNL A   1      32.584  19.866  23.838  1.00  0.00     0.086 A 
ATOM     18  C   UNL A   1      33.109  20.956  25.957  1.00  0.00     0.055 A 
ATOM     19  N   UNL A   1      32.426  21.075  23.256  1.00  0.00    -0.254 NA
ATOM     20  C   UNL A   1      32.624  22.194  23.992  1.00  0.00     0.127 A 
BRANCH  18  21
ATOM     21  N   UNL A   1      33.524  20.880  27.304  1.00  0.00    -0.397 N 
ATOM     22  H   UNL A   1      33.960  20.064  27.639  1.00  0.00     0.156 HD
ATOM     23  H   UNL A   1      33.377  21.644  27.908  1.00  0.00     0.156 HD
ENDBRANCH  18  21
ENDBRANCH   6   9
ENDBRANCH   4   5
ENDBRANCH   3   4
ENDBRANCH   2   3
ENDBRANCH   1   2
BRANCH   1  24
ATOM     24  C   UNL A   1      37.927  19.636  24.972  1.00  0.00     0.021 C 
BRANCH  24  25
ATOM     25  C   UNL A   1      39.149  20.158  25.719  1.00  0.00     0.116 C 
BRANCH  25  26
ATOM     26  N   UNL A   1      40.168  19.131  25.864  1.00  0.00    -0.352 N 
ATOM     27  C   UNL A   1      41.515  19.296  26.080  1.00  0.00     0.251 C 
ATOM     28  H   UNL A   1      39.854  18.201  25.800  1.00  0.00     0.163 HD
ATOM     29  O   UNL A   1      42.294  18.358  25.982  1.00  0.00    -0.269 OA
BRANCH  27  30
ATOM     30  C   UNL A   1      42.014  20.642  26.419  1.00  0.00     0.039 A 
ATOM     31  C   UNL A   1      42.270  21.551  25.390  1.00  0.00     0.014 A 
ATOM     32  C   UNL A   1      42.192  21.006  27.758  1.00  0.00     0.014 A 
ATOM     33  C   UNL A   1      42.658  22.852  25.710  1.00  0.00     0.010 A 
ATOM     34  C   UNL A   1      42.531  22.316  28.076  1.00  0.00     0.010 A 
ATOM     35  C   UNL A   1      42.770  23.247  27.054  1.00  0.00    -0.014 A 
BRANCH  35  36
ATOM     36  C   UNL A   1      43.163  24.633  27.399  1.00  0.00     0.031 A 
ATOM     37  C   UNL A   1      44.570  25.092  27.156  1.00  0.00     0.074 A 
ATOM     38  C   UNL A   1      42.259  25.464  27.949  1.00  0.00     0.049 A 
ATOM     39  N   UNL A   1      45.098  26.273  27.353  1.00  0.00    -0.248 NA
ATOM     40  C   UNL A   1      45.514  24.090  26.638  1.00  0.00     0.031 C 
ATOM     41  C   UNL A   1      40.876  25.111  28.272  1.00  0.00     0.029 A 
ATOM     42  N   UNL A   1      42.367  26.777  28.333  1.00  0.00    -0.354 N 
ATOM     43  C   UNL A   1      46.426  26.158  26.972  1.00  0.00     0.074 A 
ATOM     44  C   UNL A   1      46.645  24.780  26.594  1.00  0.00     0.031 C 
ATOM     45  C   UNL A   1      40.255  26.190  28.776  1.00  0.00     0.029 A 
ATOM     46  C   UNL A   1      41.200  27.303  28.829  1.00  0.00     0.049 A 
ATOM     47  H   UNL A   1      43.202  27.293  28.258  1.00  0.00     0.167 HD
ATOM     48  C   UNL A   1      47.370  27.126  26.910  1.00  0.00     0.037 A 
ATOM     49  C   UNL A   1      40.924  28.548  29.263  1.00  0.00     0.037 A 
ATOM     50  C   UNL A   1      47.143  28.499  27.273  1.00  0.00     0.049 A 
ATOM     51  C   UNL A   1      41.999  29.599  29.212  1.00  0.00     0.074 A 
ATOM     52  C   UNL A   1      48.019  29.566  27.195  1.00  0.00     0.029 A 
ATOM     53  N   UNL A   1      45.953  28.989  27.787  1.00  0.00    -0.354 N 
ATOM     54  N   UNL A   1      43.228  29.501  28.771  1.00  0.00    -0.248 NA
ATOM     55  C   UNL A   1      41.646  30.937  29.712  1.00  0.00     0.031 C 
ATOM     56  C   UNL A   1      47.370  30.698  27.696  1.00  0.00     0.029 A 
ATOM     57  C   UNL A   1      46.078  30.343  28.052  1.00  0.00     0.049 A 
ATOM     58  H   UNL A   1      45.140  28.456  27.940  1.00  0.00     0.167 HD
ATOM     59  C   UNL A   1      43.788  30.762  28.913  1.00  0.00     0.074 A 
ATOM     60  C   UNL A   1      42.763  31.614  29.478  1.00  0.00     0.031 C 
ATOM     61  C   UNL A   1      45.040  31.175  28.602  1.00  0.00     0.037 A 
BRANCH  48  62
ATOM     62  C   UNL A   1      48.726  26.741  26.405  1.00  0.00     0.064 A 
ATOM     63  C   UNL A   1      49.078  26.922  25.059  1.00  0.00     0.173 A 
ATOM     64  C   UNL A   1      49.701  26.238  27.278  1.00  0.00     0.173 A 
ATOM     65  F   UNL A   1      48.175  27.390  24.183  1.00  0.00    -0.203 F 
ATOM     66  C   UNL A   1      50.351  26.597  24.602  1.00  0.00     0.198 A 
ATOM     67  C   UNL A   1      50.982  25.937  26.823  1.00  0.00     0.198 A 
ATOM     68  F   UNL A   1      49.416  26.051  28.576  1.00  0.00    -0.203 F 
ATOM     69  F   UNL A   1      50.654  26.747  23.305  1.00  0.00    -0.200 F 
ATOM     70  C   UNL A   1      51.304  26.112  25.485  1.00  0.00     0.200 A 
ATOM     71  F   UNL A   1      51.905  25.478  27.678  1.00  0.00    -0.200 F 
ATOM     72  F   UNL A   1      52.533  25.810  25.046  1.00  0.00    -0.200 F 
ENDBRANCH  48  62
BRANCH  49  73
ATOM     73  C   UNL A   1      39.552  28.877  29.725  1.00  0.00     0.064 A 
ATOM     74  C   UNL A   1      38.609  29.416  28.838  1.00  0.00     0.173 A 
ATOM     75  C   UNL A   1      39.148  28.640  31.046  1.00  0.00     0.173 A 
ATOM     76  F   UNL A   1      38.957  29.676  27.570  1.00  0.00    -0.203 F 
ATOM     77  C   UNL A   1      37.314  29.712  29.259  1.00  0.00     0.198 A 
ATOM     78  C   UNL A   1      37.846  28.918  31.460  1.00  0.00     0.198 A 
ATOM     79  F   UNL A   1      40.012  28.122  31.931  1.00  0.00    -0.203 F 
ATOM     80  F   UNL A   1      36.439  30.250  28.398  1.00  0.00    -0.200 F 
ATOM     81  C   UNL A   1      36.932  29.456  30.567  1.00  0.00     0.200 A 
ATOM     82  F   UNL A   1      37.476  28.658  32.722  1.00  0.00    -0.200 F 
ATOM     83  F   UNL A   1      35.682  29.732  30.968  1.00  0.00    -0.200 F 
ENDBRANCH  49  73
BRANCH  61  84
ATOM     84  C   UNL A   1      45.382  32.615  28.842  1.00  0.00     0.064 A 
ATOM     85  C   UNL A   1      46.044  33.020  30.008  1.00  0.00     0.173 A 
ATOM     86  C   UNL A   1      45.143  33.575  27.847  1.00  0.00     0.173 A 
ATOM     87  F   UNL A   1      46.282  32.138  30.990  1.00  0.00    -0.203 F 
ATOM     88  C   UNL A   1      46.459  34.339  30.169  1.00  0.00     0.198 A 
ATOM     89  C   UNL A   1      45.578  34.887  28.003  1.00  0.00     0.198 A 
ATOM     90  F   UNL A   1      44.519  33.231  26.711  1.00  0.00    -0.203 F 
ATOM     91  F   UNL A   1      47.080  34.711  31.298  1.00  0.00    -0.200 F 
ATOM     92  C   UNL A   1      46.236  35.268  29.163  1.00  0.00     0.200 A 
ATOM     93  F   UNL A   1      45.375  35.780  27.024  1.00  0.00    -0.200 F 
ATOM     94  F   UNL A   1      46.660  36.531  29.310  1.00  0.00    -0.200 F 
ENDBRANCH  61  84
ENDBRANCH  35  36
ENDBRANCH  27  30
ENDBRANCH  25  26
ENDBRANCH  24  25
ENDBRANCH   1  24
TORSDOF 14
ENDMDL
MODEL 3
REMARK VINA RESULT:     -12.0      1.877      3.217
REMARK SMILES Cc1cc(Br)c2ncc(C(=O)NCCCCCCNC(=O)c3ccc(-c4c5nc(c(-c6c(F)c(F)c(F)c(F)c6F)c6ccc([nH]6)c(-c6c(F)c(F)c(F)c(F)c6F)c6nc(c(-c7c(F)c(F)c(F)c(F)c7F)c7ccc4[nH]7)C=C6)C=C5)cc3)c(N)c2c1
REMARK SMILES IDX 16 1 15 2 14 3 13 4 12 5 10 6 11 7 9 9 1 10 2 11 3 12 88 13
REMARK SMILES IDX 4 14 87 15 5 16 6 17 85 18 7 19 8 20 86 21 17 24 18 25 19 26
REMARK SMILES IDX 20 27 21 29 22 30 23 31 84 32 24 33 83 34 25 35 26 36 27 37
REMARK SMILES IDX 77 38 28 39 82 40 76 41 78 42 29 43 81 44 75 45 74 46 30 48
REMARK SMILES IDX 62 49 42 50 61 51 43 52 46 53 60 54 79 55 44 56 45 57 59 59
REMARK SMILES IDX 80 60 47 61 31 62 32 63 40 64 33 65 34 66 38 67 41 68 35 69
REMARK SMILES IDX 36 70 39 71 37 72 63 73 64 74 72 75 65 76 66 77 70 78 73 79
REMARK SMILES IDX 67 80 68 81 71 82 69 83 48 84 49 85 57 86 50 87 51 88 55 89
REMARK SMILES IDX 58 90 52 91 53 92 56 93 54 94
REMARK H PARENT 12 8 86 22 86 23 19 28 78 47 46 58
REMARK Flexibility Score: inf
ROOT
ATOM      1  C   UNL A   1      31.410  30.945  26.316  1.00  0.00     0.002 C 
ENDROOT
BRANCH   1   2
ATOM      2  C   UNL A   1      32.748  30.263  26.635  1.00  0.00     0.002 C 
BRANCH   2   3
ATOM      3  C   UNL A   1      33.316  29.386  25.507  1.00  0.00     0.021 C 
BRANCH   3   4
ATOM      4  C   UNL A   1      32.254  28.914  24.510  1.00  0.00     0.116 C 
BRANCH   4   5
ATOM      5  N   UNL A   1      32.884  28.594  23.244  1.00  0.00    -0.352 N 
ATOM      6  C   UNL A   1      33.503  27.481  22.737  1.00  0.00     0.254 C 
ATOM      7  O   UNL A   1      34.025  27.619  21.626  1.00  0.00    -0.269 OA
ATOM      8  H   UNL A   1      32.862  29.344  22.605  1.00  0.00     0.163 HD
BRANCH   6   9
ATOM      9  C   UNL A   1      33.540  26.147  23.403  1.00  0.00     0.081 A 
ATOM     10  C   UNL A   1      32.152  20.064  22.751  1.00  0.00     0.044 C 
ATOM     11  C   UNL A   1      32.601  21.307  23.461  1.00  0.00    -0.049 A 
ATOM     12  C   UNL A   1      33.014  21.276  24.787  1.00  0.00     0.021 A 
ATOM     13  C   UNL A   1      32.615  22.533  22.788  1.00  0.00     0.016 A 
ATOM     14  C   UNL A   1      33.475  22.448  25.399  1.00  0.00     0.044 A 
ATOM     15  C   UNL A   1      33.078  23.730  23.393  1.00  0.00     0.025 A 
ATOM     16  Br  UNL A   1      34.008  22.309  27.227  1.00  0.00    -0.048 Br
ATOM     17  C   UNL A   1      33.545  23.676  24.725  1.00  0.00     0.086 A 
ATOM     18  C   UNL A   1      33.099  24.990  22.718  1.00  0.00     0.055 A 
ATOM     19  N   UNL A   1      34.057  24.771  25.328  1.00  0.00    -0.254 NA
ATOM     20  C   UNL A   1      34.071  25.948  24.659  1.00  0.00     0.127 A 
BRANCH  18  21
ATOM     21  N   UNL A   1      32.547  25.102  21.425  1.00  0.00    -0.397 N 
ATOM     22  H   UNL A   1      32.221  25.973  21.103  1.00  0.00     0.156 HD
ATOM     23  H   UNL A   1      32.486  24.309  20.845  1.00  0.00     0.156 HD
ENDBRANCH  18  21
ENDBRANCH   6   9
ENDBRANCH   4   5
ENDBRANCH   3   4
ENDBRANCH   2   3
ENDBRANCH   1   2
BRANCH   1  24
ATOM     24  C   UNL A   1      31.403  32.465  26.501  1.00  0.00     0.021 C 
BRANCH  24  25
ATOM     25  C   UNL A   1      32.599  33.002  27.279  1.00  0.00     0.116 C 
BRANCH  25  26
ATOM     26  N   UNL A   1      32.381  34.370  27.721  1.00  0.00    -0.352 N 
ATOM     27  C   UNL A   1      32.999  35.039  28.748  1.00  0.00     0.251 C 
ATOM     28  H   UNL A   1      31.705  34.881  27.220  1.00  0.00     0.163 HD
ATOM     29  O   UNL A   1      32.583  36.118  29.146  1.00  0.00    -0.269 OA
BRANCH  27  30
ATOM     30  C   UNL A   1      34.177  34.419  29.385  1.00  0.00     0.039 A 
ATOM     31  C   UNL A   1      34.004  33.670  30.550  1.00  0.00     0.014 A 
ATOM     32  C   UNL A   1      35.441  34.556  28.801  1.00  0.00     0.014 A 
ATOM     33  C   UNL A   1      35.100  33.010  31.106  1.00  0.00     0.010 A 
ATOM     34  C   UNL A   1      36.521  33.857  29.327  1.00  0.00     0.010 A 
ATOM     35  C   UNL A   1      36.359  33.083  30.487  1.00  0.00    -0.014 A 
BRANCH  35  36
ATOM     36  C   UNL A   1      37.522  32.368  31.062  1.00  0.00     0.031 A 
ATOM     37  C   UNL A   1      38.014  32.726  32.432  1.00  0.00     0.074 A 
ATOM     38  C   UNL A   1      38.142  31.417  30.340  1.00  0.00     0.049 A 
ATOM     39  N   UNL A   1      38.988  32.192  33.124  1.00  0.00    -0.248 NA
ATOM     40  C   UNL A   1      37.335  33.840  33.111  1.00  0.00     0.031 C 
ATOM     41  C   UNL A   1      37.778  31.018  28.980  1.00  0.00     0.029 A 
ATOM     42  N   UNL A   1      39.209  30.610  30.650  1.00  0.00    -0.354 N 
ATOM     43  C   UNL A   1      39.029  32.895  34.319  1.00  0.00     0.074 A 
ATOM     44  C   UNL A   1      38.028  33.936  34.236  1.00  0.00     0.031 C 
ATOM     45  C   UNL A   1      38.588  30.022  28.583  1.00  0.00     0.029 A 
ATOM     46  C   UNL A   1      39.537  29.725  29.654  1.00  0.00     0.049 A 
ATOM     47  H   UNL A   1      39.691  30.662  31.506  1.00  0.00     0.167 HD
ATOM     48  C   UNL A   1      39.808  32.669  35.401  1.00  0.00     0.037 A 
ATOM     49  C   UNL A   1      40.488  28.772  29.617  1.00  0.00     0.037 A 
ATOM     50  C   UNL A   1      40.791  31.623  35.484  1.00  0.00     0.049 A 
ATOM     51  C   UNL A   1      41.362  28.560  30.823  1.00  0.00     0.074 A 
ATOM     52  C   UNL A   1      41.593  31.278  36.556  1.00  0.00     0.029 A 
ATOM     53  N   UNL A   1      41.107  30.757  34.448  1.00  0.00    -0.354 N 
ATOM     54  N   UNL A   1      41.336  29.175  31.979  1.00  0.00    -0.248 NA
ATOM     55  C   UNL A   1      42.394  27.516  30.722  1.00  0.00     0.031 C 
ATOM     56  C   UNL A   1      42.422  30.225  36.158  1.00  0.00     0.029 A 
ATOM     57  C   UNL A   1      42.109  29.890  34.849  1.00  0.00     0.049 A 
ATOM     58  H   UNL A   1      40.681  30.758  33.560  1.00  0.00     0.167 HD
ATOM     59  C   UNL A   1      42.322  28.580  32.752  1.00  0.00     0.074 A 
ATOM     60  C   UNL A   1      42.929  27.549  31.935  1.00  0.00     0.031 C 
ATOM     61  C   UNL A   1      42.690  28.863  34.025  1.00  0.00     0.037 A 
BRANCH  48  62
ATOM     62  C   UNL A   1      39.609  33.550  36.596  1.00  0.00     0.064 A 
ATOM     63  C   UNL A   1      40.220  34.811  36.677  1.00  0.00     0.173 A 
ATOM     64  C   UNL A   1      38.763  33.160  37.643  1.00  0.00     0.173 A 
ATOM     65  F   UNL A   1      41.047  35.224  35.705  1.00  0.00    -0.203 F 
ATOM     66  C   UNL A   1      40.003  35.642  37.772  1.00  0.00     0.198 A 
ATOM     67  C   UNL A   1      38.528  34.004  38.725  1.00  0.00     0.198 A 
ATOM     68  F   UNL A   1      38.151  31.966  37.610  1.00  0.00    -0.203 F 
ATOM     69  F   UNL A   1      40.623  36.827  37.844  1.00  0.00    -0.200 F 
ATOM     70  C   UNL A   1      39.152  35.241  38.791  1.00  0.00     0.200 A 
ATOM     71  F   UNL A   1      37.698  33.620  39.705  1.00  0.00    -0.200 F 
ATOM     72  F   UNL A   1      38.936  36.046  39.839  1.00  0.00    -0.200 F 
ENDBRANCH  48  62
BRANCH  49  73
ATOM     73  C   UNL A   1      40.618  27.910  28.415  1.00  0.00     0.064 A 
ATOM     74  C   UNL A   1      39.951  26.679  28.343  1.00  0.00     0.173 A 
ATOM     75  C   UNL A   1      41.386  28.304  27.310  1.00  0.00     0.173 A 
ATOM     76  F   UNL A   1      39.220  26.254  29.383  1.00  0.00    -0.203 F 
ATOM     77  C   UNL A   1      40.053  25.871  27.213  1.00  0.00     0.198 A 
ATOM     78  C   UNL A   1      41.471  27.504  26.172  1.00  0.00     0.198 A 
ATOM     79  F   UNL A   1      42.040  29.475  27.330  1.00  0.00    -0.203 F 
ATOM     80  F   UNL A   1      39.426  24.687  27.179  1.00  0.00    -0.200 F 
ATOM     81  C   UNL A   1      40.808  26.287  26.126  1.00  0.00     0.200 A 
ATOM     82  F   UNL A   1      42.191  27.915  25.119  1.00  0.00    -0.200 F 
ATOM     83  F   UNL A   1      40.897  25.514  25.034  1.00  0.00    -0.200 F 
ENDBRANCH  49  73
BRANCH  61  84
ATOM     84  C   UNL A   1      43.786  28.043  34.635  1.00  0.00     0.064 A 
ATOM     85  C   UNL A   1      45.110  28.501  34.656  1.00  0.00     0.173 A 
ATOM     86  C   UNL A   1      43.489  26.843  35.299  1.00  0.00     0.173 A 
ATOM     87  F   UNL A   1      45.442  29.636  34.025  1.00  0.00    -0.203 F 
ATOM     88  C   UNL A   1      46.100  27.787  35.326  1.00  0.00     0.198 A 
ATOM     89  C   UNL A   1      44.476  26.144  35.985  1.00  0.00     0.198 A 
ATOM     90  F   UNL A   1      42.234  26.370  35.310  1.00  0.00    -0.203 F 
ATOM     91  F   UNL A   1      47.363  28.234  35.326  1.00  0.00    -0.200 F 
ATOM     92  C   UNL A   1      45.780  26.616  35.999  1.00  0.00     0.200 A 
ATOM     93  F   UNL A   1      44.163  25.020  36.647  1.00  0.00    -0.200 F 
ATOM     94  F   UNL A   1      46.729  25.944  36.665  1.00  0.00    -0.200 F 
ENDBRANCH  61  84
ENDBRANCH  35  36
ENDBRANCH  27  30
ENDBRANCH  25  26
ENDBRANCH  24  25
ENDBRANCH   1  24
TORSDOF 14
ENDMDL
