MODEL 1
REMARK VINA RESULT:     -12.4      0.000      0.000
REMARK SMILES CC1=C(C(=O)NCCCCCCNC(=O)c2ccc(-c3c4nc(c(-c5c(F)c(F)c(F)c(F)c5F)c5ccc([nH]5)c(-c5c(F)c(F)c(F)c(F)c5F)c5nc(c(-c6c(F)c(F)c(F)c(F)c6F)c6ccc3[nH]6)C=C5)C=C4)cc2)N2C(=O)[C@H](NC(=O)c3cc(C(F)(F)F)nn3C)[C@@H]2SC1
REMARK SMILES IDX 9 1 8 2 7 3 6 4 4 5 5 6 3 8 1 9 2 10 98 11 79 12 97 13 80 14
REMARK SMILES IDX 96 15 81 16 82 17 83 18 84 19 85 21 86 22 87 23 94 24 88 25
REMARK SMILES IDX 93 26 95 27 89 28 90 29 91 30 92 31 10 32 11 33 12 34 13 35
REMARK SMILES IDX 14 36 15 38 16 39 17 40 78 41 18 42 77 43 19 44 20 45 21 46
REMARK SMILES IDX 71 47 22 48 76 49 70 50 72 51 23 52 75 53 69 54 68 55 24 57
REMARK SMILES IDX 56 58 36 59 55 60 37 61 40 62 54 63 73 64 38 65 39 66 53 68
REMARK SMILES IDX 74 69 41 70 25 71 26 72 34 73 27 74 28 75 32 76 35 77 29 78
REMARK SMILES IDX 30 79 33 80 31 81 57 82 58 83 66 84 59 85 60 86 64 87 67 88
REMARK SMILES IDX 61 89 62 90 65 91 63 92 42 93 43 94 51 95 44 96 45 97 49 98
REMARK SMILES IDX 52 99 46 100 47 101 50 102 48 103
REMARK H PARENT 6 7 83 20 13 37 72 56 40 67
REMARK Flexibility Score: inf
ROOT
ATOM      1  C   UNL A   1      37.729  21.769  25.190  1.00  0.00     0.002 C 
ENDROOT
BRANCH   1   2
ATOM      2  C   UNL A   1      36.711  22.838  24.789  1.00  0.00     0.021 C 
BRANCH   2   3
ATOM      3  C   UNL A   1      36.047  23.558  25.974  1.00  0.00     0.116 C 
BRANCH   3   4
ATOM      4  N   UNL A   1      35.391  22.571  26.802  1.00  0.00    -0.351 N 
ATOM      5  C   UNL A   1      34.176  21.976  26.727  1.00  0.00     0.268 C 
ATOM      6  O   UNL A   1      33.746  21.441  27.755  1.00  0.00    -0.268 OA
ATOM      7  H   UNL A   1      35.931  22.272  27.568  1.00  0.00     0.163 HD
BRANCH   5   8
ATOM      8  C   UNL A   1      33.353  21.853  25.463  1.00  0.00     0.110 C 
ATOM      9  C   UNL A   1      34.129  19.584  24.626  1.00  0.00     0.043 C 
ATOM     10  C   UNL A   1      33.315  20.844  24.556  1.00  0.00    -0.034 C 
ATOM     11  C   UNL A   1      32.472  20.861  23.280  1.00  0.00     0.104 C 
ATOM     12  N   UNL A   1      32.718  23.013  25.139  1.00  0.00    -0.290 N 
ATOM     13  S   UNL A   1      31.398  22.297  23.024  1.00  0.00    -0.129 SA
ATOM     14  C   UNL A   1      32.268  24.123  25.757  1.00  0.00     0.253 C 
ATOM     15  C   UNL A   1      32.556  23.462  23.782  1.00  0.00     0.181 C 
ATOM     16  O   UNL A   1      32.102  24.415  26.916  1.00  0.00    -0.272 OA
ATOM     17  C   UNL A   1      31.980  24.784  24.371  1.00  0.00     0.206 C 
BRANCH  17  18
ATOM     18  N   UNL A   1      30.565  25.087  24.054  1.00  0.00    -0.336 N 
ATOM     19  C   UNL A   1      29.911  26.290  24.133  1.00  0.00     0.270 C 
ATOM     20  H   UNL A   1      30.022  24.324  23.748  1.00  0.00     0.164 HD
ATOM     21  O   UNL A   1      28.710  26.323  23.876  1.00  0.00    -0.268 OA
BRANCH  19  22
ATOM     22  C   UNL A   1      30.652  27.448  24.560  1.00  0.00     0.126 A 
ATOM     23  C   UNL A   1      31.273  27.733  25.764  1.00  0.00     0.069 A 
ATOM     24  N   UNL A   1      30.921  28.532  23.765  1.00  0.00    -0.262 N 
ATOM     25  C   UNL A   1      31.801  29.045  25.640  1.00  0.00     0.167 A 
ATOM     26  N   UNL A   1      31.574  29.525  24.404  1.00  0.00    -0.168 NA
ATOM     27  C   UNL A   1      30.516  28.760  22.394  1.00  0.00     0.174 C 
BRANCH  25  28
ATOM     28  C   UNL A   1      32.503  29.841  26.710  1.00  0.00     0.435 C 
ATOM     29  F   UNL A   1      31.718  30.813  27.247  1.00  0.00    -0.164 F 
ATOM     30  F   UNL A   1      32.938  29.063  27.736  1.00  0.00    -0.164 F 
ATOM     31  F   UNL A   1      33.607  30.470  26.216  1.00  0.00    -0.164 F 
ENDBRANCH  25  28
ENDBRANCH  19  22
ENDBRANCH  17  18
ENDBRANCH   5   8
ENDBRANCH   3   4
ENDBRANCH   2   3
ENDBRANCH   1   2
BRANCH   1  32
ATOM     32  C   UNL A   1      37.437  20.376  24.628  1.00  0.00     0.002 C 
BRANCH  32  33
ATOM     33  C   UNL A   1      38.417  19.279  25.061  1.00  0.00     0.021 C 
BRANCH  33  34
ATOM     34  C   UNL A   1      39.435  19.703  26.118  1.00  0.00     0.116 C 
BRANCH  34  35
ATOM     35  N   UNL A   1      40.597  18.830  26.127  1.00  0.00    -0.352 N 
ATOM     36  C   UNL A   1      41.930  19.144  26.072  1.00  0.00     0.251 C 
ATOM     37  H   UNL A   1      40.396  17.867  26.180  1.00  0.00     0.163 HD
ATOM     38  O   UNL A   1      42.756  18.267  25.831  1.00  0.00    -0.269 OA
BRANCH  36  39
ATOM     39  C   UNL A   1      42.386  20.532  26.303  1.00  0.00     0.039 A 
ATOM     40  C   UNL A   1      42.519  20.985  27.618  1.00  0.00     0.014 A 
ATOM     41  C   UNL A   1      42.619  21.405  25.235  1.00  0.00     0.014 A 
ATOM     42  C   UNL A   1      42.918  22.302  27.862  1.00  0.00     0.010 A 
ATOM     43  C   UNL A   1      43.083  22.696  25.480  1.00  0.00     0.010 A 
ATOM     44  C   UNL A   1      43.220  23.163  26.794  1.00  0.00    -0.014 A 
BRANCH  44  45
ATOM     45  C   UNL A   1      43.651  24.562  27.046  1.00  0.00     0.031 A 
ATOM     46  C   UNL A   1      42.665  25.580  27.552  1.00  0.00     0.074 A 
ATOM     47  C   UNL A   1      44.921  24.924  26.783  1.00  0.00     0.049 A 
ATOM     48  N   UNL A   1      42.846  26.850  27.813  1.00  0.00    -0.248 NA
ATOM     49  C   UNL A   1      41.285  25.115  27.767  1.00  0.00     0.031 C 
ATOM     50  C   UNL A   1      45.955  24.042  26.242  1.00  0.00     0.029 A 
ATOM     51  N   UNL A   1      45.556  26.130  26.935  1.00  0.00    -0.354 N 
ATOM     52  C   UNL A   1      41.607  27.334  28.211  1.00  0.00     0.074 A 
ATOM     53  C   UNL A   1      40.669  26.239  28.102  1.00  0.00     0.031 C 
ATOM     54  C   UNL A   1      47.104  24.729  26.132  1.00  0.00     0.029 A 
ATOM     55  C   UNL A   1      46.880  26.105  26.568  1.00  0.00     0.049 A 
ATOM     56  H   UNL A   1      45.107  26.937  27.275  1.00  0.00     0.167 HD
ATOM     57  C   UNL A   1      41.285  28.574  28.654  1.00  0.00     0.037 A 
ATOM     58  C   UNL A   1      47.807  27.080  26.585  1.00  0.00     0.037 A 
ATOM     59  C   UNL A   1      42.226  29.655  28.787  1.00  0.00     0.049 A 
ATOM     60  C   UNL A   1      47.426  28.444  27.094  1.00  0.00     0.074 A 
ATOM     61  C   UNL A   1      42.014  30.931  29.280  1.00  0.00     0.029 A 
ATOM     62  N   UNL A   1      43.563  29.587  28.423  1.00  0.00    -0.354 N 
ATOM     63  N   UNL A   1      46.268  28.871  27.535  1.00  0.00    -0.248 NA
ATOM     64  C   UNL A   1      48.489  29.459  27.117  1.00  0.00     0.031 C 
ATOM     65  C   UNL A   1      43.211  31.647  29.175  1.00  0.00     0.029 A 
ATOM     66  C   UNL A   1      44.183  30.803  28.661  1.00  0.00     0.049 A 
ATOM     67  H   UNL A   1      44.006  28.790  28.049  1.00  0.00     0.167 HD
ATOM     68  C   UNL A   1      46.467  30.193  27.911  1.00  0.00     0.074 A 
ATOM     69  C   UNL A   1      47.864  30.489  27.666  1.00  0.00     0.031 C 
ATOM     70  C   UNL A   1      45.574  31.082  28.411  1.00  0.00     0.037 A 
BRANCH  57  71
ATOM     71  C   UNL A   1      39.853  28.826  29.032  1.00  0.00     0.064 A 
ATOM     72  C   UNL A   1      39.393  28.632  30.344  1.00  0.00     0.173 A 
ATOM     73  C   UNL A   1      38.935  29.294  28.080  1.00  0.00     0.173 A 
ATOM     74  F   UNL A   1      40.228  28.173  31.291  1.00  0.00    -0.203 F 
ATOM     75  C   UNL A   1      38.063  28.866  30.681  1.00  0.00     0.198 A 
ATOM     76  C   UNL A   1      37.612  29.558  28.429  1.00  0.00     0.198 A 
ATOM     77  F   UNL A   1      39.321  29.502  26.812  1.00  0.00    -0.203 F 
ATOM     78  F   UNL A   1      37.636  28.623  31.928  1.00  0.00    -0.200 F 
ATOM     79  C   UNL A   1      37.175  29.335  29.726  1.00  0.00     0.200 A 
ATOM     80  F   UNL A   1      36.758  30.023  27.506  1.00  0.00    -0.200 F 
ATOM     81  F   UNL A   1      35.896  29.565  30.052  1.00  0.00    -0.200 F 
ENDBRANCH  57  71
BRANCH  58  82
ATOM     82  C   UNL A   1      49.195  26.793  26.139  1.00  0.00     0.064 A 
ATOM     83  C   UNL A   1      49.580  26.999  24.808  1.00  0.00     0.173 A 
ATOM     84  C   UNL A   1      50.161  26.300  27.029  1.00  0.00     0.173 A 
ATOM     85  F   UNL A   1      48.686  27.450  23.915  1.00  0.00    -0.203 F 
ATOM     86  C   UNL A   1      50.872  26.704  24.377  1.00  0.00     0.198 A 
ATOM     87  C   UNL A   1      51.461  26.032  26.604  1.00  0.00     0.198 A 
ATOM     88  F   UNL A   1      49.845  26.091  28.315  1.00  0.00    -0.203 F 
ATOM     89  F   UNL A   1      51.200  26.867  23.088  1.00  0.00    -0.200 F 
ATOM     90  C   UNL A   1      51.813  26.227  25.277  1.00  0.00     0.200 A 
ATOM     91  F   UNL A   1      52.371  25.585  27.481  1.00  0.00    -0.200 F 
ATOM     92  F   UNL A   1      53.056  25.945  24.864  1.00  0.00    -0.200 F 
ENDBRANCH  58  82
BRANCH  70  93
ATOM     93  C   UNL A   1      46.090  32.450  28.748  1.00  0.00     0.064 A 
ATOM     94  C   UNL A   1      46.063  33.498  27.816  1.00  0.00     0.173 A 
ATOM     95  C   UNL A   1      46.604  32.722  30.026  1.00  0.00     0.173 A 
ATOM     96  F   UNL A   1      45.597  33.286  26.575  1.00  0.00    -0.203 F 
ATOM     97  C   UNL A   1      46.564  34.756  28.137  1.00  0.00     0.198 A 
ATOM     98  C   UNL A   1      47.074  33.990  30.355  1.00  0.00     0.198 A 
ATOM     99  F   UNL A   1      46.645  31.758  30.957  1.00  0.00    -0.203 F 
ATOM    100  F   UNL A   1      46.583  35.724  27.211  1.00  0.00    -0.200 F 
ATOM    101  C   UNL A   1      47.063  35.003  29.407  1.00  0.00     0.200 A 
ATOM    102  F   UNL A   1      47.543  34.230  31.587  1.00  0.00    -0.200 F 
ATOM    103  F   UNL A   1      47.546  36.215  29.716  1.00  0.00    -0.200 F 
ENDBRANCH  70  93
ENDBRANCH  44  45
ENDBRANCH  36  39
ENDBRANCH  34  35
ENDBRANCH  33  34
ENDBRANCH  32  33
ENDBRANCH   1  32
TORSDOF 16
ENDMDL
MODEL 2
REMARK VINA RESULT:     -12.3      0.592      7.019
REMARK SMILES CC1=C(C(=O)NCCCCCCNC(=O)c2ccc(-c3c4nc(c(-c5c(F)c(F)c(F)c(F)c5F)c5ccc([nH]5)c(-c5c(F)c(F)c(F)c(F)c5F)c5nc(c(-c6c(F)c(F)c(F)c(F)c6F)c6ccc3[nH]6)C=C5)C=C4)cc2)N2C(=O)[C@H](NC(=O)c3cc(C(F)(F)F)nn3C)[C@@H]2SC1
REMARK SMILES IDX 9 1 8 2 7 3 6 4 4 5 5 6 3 8 1 9 2 10 98 11 79 12 97 13 80 14
REMARK SMILES IDX 96 15 81 16 82 17 83 18 84 19 85 21 86 22 87 23 94 24 88 25
REMARK SMILES IDX 93 26 95 27 89 28 90 29 91 30 92 31 10 32 11 33 12 34 13 35
REMARK SMILES IDX 14 36 15 38 16 39 17 40 78 41 18 42 77 43 19 44 20 45 21 46
REMARK SMILES IDX 71 47 22 48 76 49 70 50 72 51 23 52 75 53 69 54 68 55 24 57
REMARK SMILES IDX 56 58 36 59 55 60 37 61 40 62 54 63 73 64 38 65 39 66 53 68
REMARK SMILES IDX 74 69 41 70 25 71 26 72 34 73 27 74 28 75 32 76 35 77 29 78
REMARK SMILES IDX 30 79 33 80 31 81 57 82 58 83 66 84 59 85 60 86 64 87 67 88
REMARK SMILES IDX 61 89 62 90 65 91 63 92 42 93 43 94 51 95 44 96 45 97 49 98
REMARK SMILES IDX 52 99 46 100 47 101 50 102 48 103
REMARK H PARENT 6 7 83 20 13 37 72 56 40 67
REMARK Flexibility Score: inf
ROOT
ATOM      1  C   UNL A   1      37.782  21.952  25.281  1.00  0.00     0.002 C 
ENDROOT
BRANCH   1   2
ATOM      2  C   UNL A   1      36.968  23.145  24.777  1.00  0.00     0.021 C 
BRANCH   2   3
ATOM      3  C   UNL A   1      36.052  23.779  25.836  1.00  0.00     0.116 C 
BRANCH   3   4
ATOM      4  N   UNL A   1      35.533  22.729  26.683  1.00  0.00    -0.351 N 
ATOM      5  C   UNL A   1      34.374  22.027  26.664  1.00  0.00     0.268 C 
ATOM      6  O   UNL A   1      34.051  21.445  27.705  1.00  0.00    -0.268 OA
ATOM      7  H   UNL A   1      36.139  22.473  27.416  1.00  0.00     0.163 HD
BRANCH   5   8
ATOM      8  C   UNL A   1      33.499  21.842  25.444  1.00  0.00     0.110 C 
ATOM      9  C   UNL A   1      34.259  19.542  24.676  1.00  0.00     0.043 C 
ATOM     10  C   UNL A   1      33.431  20.793  24.585  1.00  0.00    -0.034 C 
ATOM     11  C   UNL A   1      32.534  20.746  23.347  1.00  0.00     0.104 C 
ATOM     12  N   UNL A   1      32.840  22.981  25.097  1.00  0.00    -0.290 N 
ATOM     13  S   UNL A   1      31.437  22.161  23.075  1.00  0.00    -0.129 SA
ATOM     14  C   UNL A   1      32.406  24.114  25.684  1.00  0.00     0.253 C 
ATOM     15  C   UNL A   1      32.616  23.367  23.730  1.00  0.00     0.181 C 
ATOM     16  O   UNL A   1      32.288  24.456  26.835  1.00  0.00    -0.272 OA
ATOM     17  C   UNL A   1      32.053  24.711  24.283  1.00  0.00     0.206 C 
BRANCH  17  18
ATOM     18  N   UNL A   1      30.623  24.988  24.016  1.00  0.00    -0.336 N 
ATOM     19  C   UNL A   1      29.947  26.176  24.135  1.00  0.00     0.270 C 
ATOM     20  H   UNL A   1      30.087  24.219  23.713  1.00  0.00     0.164 HD
ATOM     21  O   UNL A   1      28.739  26.187  23.915  1.00  0.00    -0.268 OA
BRANCH  19  22
ATOM     22  C   UNL A   1      30.677  27.342  24.560  1.00  0.00     0.126 A 
ATOM     23  C   UNL A   1      31.253  27.656  25.778  1.00  0.00     0.069 A 
ATOM     24  N   UNL A   1      30.982  28.404  23.746  1.00  0.00    -0.262 N 
ATOM     25  C   UNL A   1      31.792  28.963  25.640  1.00  0.00     0.167 A 
ATOM     26  N   UNL A   1      31.614  29.410  24.384  1.00  0.00    -0.168 NA
ATOM     27  C   UNL A   1      30.631  28.596  22.356  1.00  0.00     0.174 C 
BRANCH  25  28
ATOM     28  C   UNL A   1      32.456  29.785  26.715  1.00  0.00     0.435 C 
ATOM     29  F   UNL A   1      33.587  30.403  26.284  1.00  0.00    -0.164 F 
ATOM     30  F   UNL A   1      31.637  30.748  27.214  1.00  0.00    -0.164 F 
ATOM     31  F   UNL A   1      32.821  29.011  27.776  1.00  0.00    -0.164 F 
ENDBRANCH  25  28
ENDBRANCH  19  22
ENDBRANCH  17  18
ENDBRANCH   5   8
ENDBRANCH   3   4
ENDBRANCH   2   3
ENDBRANCH   1   2
BRANCH   1  32
ATOM     32  C   UNL A   1      37.517  20.644  24.531  1.00  0.00     0.002 C 
BRANCH  32  33
ATOM     33  C   UNL A   1      38.393  19.460  24.954  1.00  0.00     0.021 C 
BRANCH  33  34
ATOM     34  C   UNL A   1      39.339  19.740  26.120  1.00  0.00     0.116 C 
BRANCH  34  35
ATOM     35  N   UNL A   1      40.565  18.968  26.016  1.00  0.00    -0.352 N 
ATOM     36  C   UNL A   1      41.869  19.393  25.971  1.00  0.00     0.251 C 
ATOM     37  H   UNL A   1      40.443  17.992  25.969  1.00  0.00     0.163 HD
ATOM     38  O   UNL A   1      42.754  18.616  25.624  1.00  0.00    -0.269 OA
BRANCH  36  39
ATOM     39  C   UNL A   1      42.220  20.781  26.340  1.00  0.00     0.039 A 
ATOM     40  C   UNL A   1      42.335  21.737  25.327  1.00  0.00     0.014 A 
ATOM     41  C   UNL A   1      42.498  21.130  27.665  1.00  0.00     0.014 A 
ATOM     42  C   UNL A   1      42.696  23.048  25.647  1.00  0.00     0.010 A 
ATOM     43  C   UNL A   1      42.790  22.453  27.991  1.00  0.00     0.010 A 
ATOM     44  C   UNL A   1      42.909  23.421  26.984  1.00  0.00    -0.014 A 
BRANCH  44  45
ATOM     45  C   UNL A   1      43.287  24.815  27.333  1.00  0.00     0.031 A 
ATOM     46  C   UNL A   1      44.695  25.297  27.111  1.00  0.00     0.074 A 
ATOM     47  C   UNL A   1      42.371  25.634  27.882  1.00  0.00     0.049 A 
ATOM     48  N   UNL A   1      45.219  26.469  27.368  1.00  0.00    -0.248 NA
ATOM     49  C   UNL A   1      45.648  24.325  26.551  1.00  0.00     0.031 C 
ATOM     50  C   UNL A   1      40.989  25.268  28.194  1.00  0.00     0.029 A 
ATOM     51  N   UNL A   1      42.466  26.944  28.279  1.00  0.00    -0.354 N 
ATOM     52  C   UNL A   1      46.559  26.370  27.012  1.00  0.00     0.074 A 
ATOM     53  C   UNL A   1      46.781  25.009  26.577  1.00  0.00     0.031 C 
ATOM     54  C   UNL A   1      40.357  26.335  28.708  1.00  0.00     0.029 A 
ATOM     55  C   UNL A   1      41.296  27.451  28.789  1.00  0.00     0.049 A 
ATOM     56  H   UNL A   1      43.295  27.471  28.205  1.00  0.00     0.167 HD
ATOM     57  C   UNL A   1      47.511  27.335  27.023  1.00  0.00     0.037 A 
ATOM     58  C   UNL A   1      41.012  28.679  29.263  1.00  0.00     0.037 A 
ATOM     59  C   UNL A   1      47.279  28.695  27.433  1.00  0.00     0.049 A 
ATOM     60  C   UNL A   1      42.084  29.734  29.251  1.00  0.00     0.074 A 
ATOM     61  C   UNL A   1      48.161  29.763  27.425  1.00  0.00     0.029 A 
ATOM     62  N   UNL A   1      46.075  29.177  27.924  1.00  0.00    -0.354 N 
ATOM     63  N   UNL A   1      43.328  29.649  28.845  1.00  0.00    -0.248 NA
ATOM     64  C   UNL A   1      41.706  31.063  29.753  1.00  0.00     0.031 C 
ATOM     65  C   UNL A   1      47.503  30.879  27.952  1.00  0.00     0.029 A 
ATOM     66  C   UNL A   1      46.196  30.521  28.243  1.00  0.00     0.049 A 
ATOM     67  H   UNL A   1      45.255  28.642  28.033  1.00  0.00     0.167 HD
ATOM     68  C   UNL A   1      43.873  30.914  29.019  1.00  0.00     0.074 A 
ATOM     69  C   UNL A   1      42.817  31.754  29.546  1.00  0.00     0.031 C 
ATOM     70  C   UNL A   1      45.135  31.341  28.768  1.00  0.00     0.037 A 
BRANCH  57  71
ATOM     71  C   UNL A   1      48.891  26.952  26.573  1.00  0.00     0.064 A 
ATOM     72  C   UNL A   1      49.839  26.432  27.468  1.00  0.00     0.173 A 
ATOM     73  C   UNL A   1      49.265  27.078  25.226  1.00  0.00     0.173 A 
ATOM     74  F   UNL A   1      49.538  26.302  28.770  1.00  0.00    -0.203 F 
ATOM     75  C   UNL A   1      51.117  26.083  27.039  1.00  0.00     0.198 A 
ATOM     76  C   UNL A   1      50.533  26.699  24.795  1.00  0.00     0.198 A 
ATOM     77  F   UNL A   1      48.397  27.564  24.326  1.00  0.00    -0.203 F 
ATOM     78  F   UNL A   1      52.021  25.639  27.924  1.00  0.00    -0.200 F 
ATOM     79  C   UNL A   1      51.462  26.211  25.703  1.00  0.00     0.200 A 
ATOM     80  F   UNL A   1      50.861  26.811  23.500  1.00  0.00    -0.200 F 
ATOM     81  F   UNL A   1      52.690  25.870  25.290  1.00  0.00    -0.200 F 
ENDBRANCH  57  71
BRANCH  58  82
ATOM     82  C   UNL A   1      39.645  28.986  29.756  1.00  0.00     0.064 A 
ATOM     83  C   UNL A   1      39.293  28.756  31.093  1.00  0.00     0.173 A 
ATOM     84  C   UNL A   1      38.661  29.507  28.903  1.00  0.00     0.173 A 
ATOM     85  F   UNL A   1      40.194  28.239  31.942  1.00  0.00    -0.203 F 
ATOM     86  C   UNL A   1      38.004  29.014  31.554  1.00  0.00     0.198 A 
ATOM     87  C   UNL A   1      37.380  29.793  29.372  1.00  0.00     0.198 A 
ATOM     88  F   UNL A   1      38.947  29.751  27.616  1.00  0.00    -0.203 F 
ATOM     89  F   UNL A   1      37.683  28.741  32.826  1.00  0.00    -0.200 F 
ATOM     90  C   UNL A   1      37.051  29.538  30.695  1.00  0.00     0.200 A 
ATOM     91  F   UNL A   1      36.465  30.313  28.542  1.00  0.00    -0.200 F 
ATOM     92  F   UNL A   1      35.812  29.790  31.139  1.00  0.00    -0.200 F 
ENDBRANCH  58  82
BRANCH  70  93
ATOM     93  C   UNL A   1      45.431  32.788  29.038  1.00  0.00     0.064 A 
ATOM     94  C   UNL A   1      45.214  33.778  28.068  1.00  0.00     0.173 A 
ATOM     95  C   UNL A   1      45.922  33.192  30.289  1.00  0.00     0.173 A 
ATOM     96  F   UNL A   1      44.761  33.441  26.850  1.00  0.00    -0.203 F 
ATOM     97  C   UNL A   1      45.512  35.113  28.327  1.00  0.00     0.198 A 
ATOM     98  C   UNL A   1      46.187  34.532  30.556  1.00  0.00     0.198 A 
ATOM     99  F   UNL A   1      46.138  32.287  31.255  1.00  0.00    -0.203 F 
ATOM    100  F   UNL A   1      45.354  36.031  27.364  1.00  0.00    -0.200 F 
ATOM    101  C   UNL A   1      45.993  35.489  29.572  1.00  0.00     0.200 A 
ATOM    102  F   UNL A   1      46.639  34.896  31.764  1.00  0.00    -0.200 F 
ATOM    103  F   UNL A   1      46.280  36.775  29.820  1.00  0.00    -0.200 F 
ENDBRANCH  70  93
ENDBRANCH  44  45
ENDBRANCH  36  39
ENDBRANCH  34  35
ENDBRANCH  33  34
ENDBRANCH  32  33
ENDBRANCH   1  32
TORSDOF 16
ENDMDL
MODEL 3
REMARK VINA RESULT:     -12.3      5.183      9.813
REMARK SMILES CC1=C(C(=O)NCCCCCCNC(=O)c2ccc(-c3c4nc(c(-c5c(F)c(F)c(F)c(F)c5F)c5ccc([nH]5)c(-c5c(F)c(F)c(F)c(F)c5F)c5nc(c(-c6c(F)c(F)c(F)c(F)c6F)c6ccc3[nH]6)C=C5)C=C4)cc2)N2C(=O)[C@H](NC(=O)c3cc(C(F)(F)F)nn3C)[C@@H]2SC1
REMARK SMILES IDX 9 1 8 2 7 3 6 4 4 5 5 6 3 8 1 9 2 10 98 11 79 12 97 13 80 14
REMARK SMILES IDX 96 15 81 16 82 17 83 18 84 19 85 21 86 22 87 23 94 24 88 25
REMARK SMILES IDX 93 26 95 27 89 28 90 29 91 30 92 31 10 32 11 33 12 34 13 35
REMARK SMILES IDX 14 36 15 38 16 39 17 40 78 41 18 42 77 43 19 44 20 45 21 46
REMARK SMILES IDX 71 47 22 48 76 49 70 50 72 51 23 52 75 53 69 54 68 55 24 57
REMARK SMILES IDX 56 58 36 59 55 60 37 61 40 62 54 63 73 64 38 65 39 66 53 68
REMARK SMILES IDX 74 69 41 70 25 71 26 72 34 73 27 74 28 75 32 76 35 77 29 78
REMARK SMILES IDX 30 79 33 80 31 81 57 82 58 83 66 84 59 85 60 86 64 87 67 88
REMARK SMILES IDX 61 89 62 90 65 91 63 92 42 93 43 94 51 95 44 96 45 97 49 98
REMARK SMILES IDX 52 99 46 100 47 101 50 102 48 103
REMARK H PARENT 6 7 83 20 13 37 72 56 40 67
REMARK Flexibility Score: inf
ROOT
ATOM      1  C   UNL A   1      29.884  30.997  24.369  1.00  0.00     0.002 C 
ENDROOT
BRANCH   1   2
ATOM      2  C   UNL A   1      29.998  30.025  23.192  1.00  0.00     0.021 C 
BRANCH   2   3
ATOM      3  C   UNL A   1      29.365  28.647  23.445  1.00  0.00     0.116 C 
BRANCH   3   4
ATOM      4  N   UNL A   1      29.899  27.713  22.480  1.00  0.00    -0.351 N 
ATOM      5  C   UNL A   1      31.118  27.140  22.338  1.00  0.00     0.268 C 
ATOM      6  O   UNL A   1      31.391  26.661  21.231  1.00  0.00    -0.268 OA
ATOM      7  H   UNL A   1      29.250  27.439  21.791  1.00  0.00     0.163 HD
BRANCH   5   8
ATOM      8  C   UNL A   1      32.128  26.975  23.452  1.00  0.00     0.110 C 
ATOM      9  C   UNL A   1      33.588  29.017  23.057  1.00  0.00     0.043 C 
ATOM     10  C   UNL A   1      33.185  27.762  23.779  1.00  0.00    -0.034 C 
ATOM     11  C   UNL A   1      34.173  27.458  24.906  1.00  0.00     0.104 C 
ATOM     12  N   UNL A   1      32.032  25.766  24.069  1.00  0.00    -0.290 N 
ATOM     13  S   UNL A   1      33.844  25.989  25.912  1.00  0.00    -0.129 SA
ATOM     14  C   UNL A   1      31.103  24.812  24.279  1.00  0.00     0.253 C 
ATOM     15  C   UNL A   1      33.180  25.030  24.529  1.00  0.00     0.181 C 
ATOM     16  O   UNL A   1      29.905  24.778  24.136  1.00  0.00    -0.272 OA
ATOM     17  C   UNL A   1      32.202  23.861  24.854  1.00  0.00     0.206 C 
BRANCH  17  18
ATOM     18  N   UNL A   1      32.079  23.481  26.281  1.00  0.00    -0.336 N 
ATOM     19  C   UNL A   1      32.827  22.578  26.991  1.00  0.00     0.270 C 
ATOM     20  H   UNL A   1      31.366  23.936  26.784  1.00  0.00     0.164 HD
ATOM     21  O   UNL A   1      32.530  22.362  28.163  1.00  0.00    -0.268 OA
BRANCH  19  22
ATOM     22  C   UNL A   1      33.896  21.888  26.315  1.00  0.00     0.126 A 
ATOM     23  C   UNL A   1      35.250  22.165  26.244  1.00  0.00     0.069 A 
ATOM     24  N   UNL A   1      33.740  20.725  25.605  1.00  0.00    -0.262 N 
ATOM     25  C   UNL A   1      35.814  21.179  25.391  1.00  0.00     0.167 A 
ATOM     26  N   UNL A   1      34.872  20.302  25.004  1.00  0.00    -0.168 NA
ATOM     27  C   UNL A   1      32.524  19.981  25.362  1.00  0.00     0.174 C 
BRANCH  25  28
ATOM     28  C   UNL A   1      37.248  21.093  24.936  1.00  0.00     0.435 C 
ATOM     29  F   UNL A   1      37.652  19.817  24.697  1.00  0.00    -0.164 F 
ATOM     30  F   UNL A   1      37.477  21.806  23.801  1.00  0.00    -0.164 F 
ATOM     31  F   UNL A   1      38.099  21.594  25.877  1.00  0.00    -0.164 F 
ENDBRANCH  25  28
ENDBRANCH  19  22
ENDBRANCH  17  18
ENDBRANCH   5   8
ENDBRANCH   3   4
ENDBRANCH   2   3
ENDBRANCH   1   2
BRANCH   1  32
ATOM     32  C   UNL A   1      31.034  30.910  25.375  1.00  0.00     0.002 C 
BRANCH  32  33
ATOM     33  C   UNL A   1      31.029  31.986  26.466  1.00  0.00     0.021 C 
BRANCH  33  34
ATOM     34  C   UNL A   1      32.411  32.454  26.918  1.00  0.00     0.116 C 
BRANCH  34  35
ATOM     35  N   UNL A   1      32.393  33.840  27.357  1.00  0.00    -0.352 N 
ATOM     36  C   UNL A   1      33.105  34.453  28.356  1.00  0.00     0.251 C 
ATOM     37  H   UNL A   1      31.776  34.427  26.863  1.00  0.00     0.163 HD
ATOM     38  O   UNL A   1      32.770  35.566  28.750  1.00  0.00    -0.269 OA
BRANCH  36  39
ATOM     39  C   UNL A   1      34.276  33.784  28.963  1.00  0.00     0.039 A 
ATOM     40  C   UNL A   1      34.060  32.742  29.869  1.00  0.00     0.014 A 
ATOM     41  C   UNL A   1      35.578  34.219  28.696  1.00  0.00     0.014 A 
ATOM     42  C   UNL A   1      35.148  32.116  30.480  1.00  0.00     0.010 A 
ATOM     43  C   UNL A   1      36.664  33.548  29.253  1.00  0.00     0.010 A 
ATOM     44  C   UNL A   1      36.461  32.502  30.164  1.00  0.00    -0.014 A 
BRANCH  44  45
ATOM     45  C   UNL A   1      37.624  31.837  30.804  1.00  0.00     0.031 A 
ATOM     46  C   UNL A   1      38.048  32.223  32.195  1.00  0.00     0.074 A 
ATOM     47  C   UNL A   1      38.320  30.910  30.119  1.00  0.00     0.049 A 
ATOM     48  N   UNL A   1      39.044  31.771  32.913  1.00  0.00    -0.248 NA
ATOM     49  C   UNL A   1      37.264  33.278  32.857  1.00  0.00     0.031 C 
ATOM     50  C   UNL A   1      38.039  30.487  28.747  1.00  0.00     0.029 A 
ATOM     51  N   UNL A   1      39.409  30.158  30.484  1.00  0.00    -0.354 N 
ATOM     52  C   UNL A   1      39.012  32.490  34.101  1.00  0.00     0.074 A 
ATOM     53  C   UNL A   1      37.936  33.449  33.986  1.00  0.00     0.031 C 
ATOM     54  C   UNL A   1      38.915  29.532  28.394  1.00  0.00     0.029 A 
ATOM     55  C   UNL A   1      39.835  29.296  29.503  1.00  0.00     0.049 A 
ATOM     56  H   UNL A   1      39.842  30.230  31.365  1.00  0.00     0.167 HD
ATOM     57  C   UNL A   1      39.793  32.346  35.200  1.00  0.00     0.037 A 
ATOM     58  C   UNL A   1      40.851  28.412  29.502  1.00  0.00     0.037 A 
ATOM     59  C   UNL A   1      40.847  31.373  35.321  1.00  0.00     0.049 A 
ATOM     60  C   UNL A   1      41.693  28.264  30.740  1.00  0.00     0.074 A 
ATOM     61  C   UNL A   1      41.656  31.107  36.413  1.00  0.00     0.029 A 
ATOM     62  N   UNL A   1      41.237  30.503  34.314  1.00  0.00    -0.354 N 
ATOM     63  N   UNL A   1      41.608  28.900  31.883  1.00  0.00    -0.248 NA
ATOM     64  C   UNL A   1      42.768  27.262  30.689  1.00  0.00     0.031 C 
ATOM     65  C   UNL A   1      42.565  30.106  36.051  1.00  0.00     0.029 A 
ATOM     66  C   UNL A   1      42.290  29.714  34.751  1.00  0.00     0.049 A 
ATOM     67  H   UNL A   1      40.827  30.455  33.420  1.00  0.00     0.167 HD
ATOM     68  C   UNL A   1      42.598  28.362  32.694  1.00  0.00     0.074 A 
ATOM     69  C   UNL A   1      43.256  27.330  31.918  1.00  0.00     0.031 C 
ATOM     70  C   UNL A   1      42.934  28.692  33.965  1.00  0.00     0.037 A 
BRANCH  57  71
ATOM     71  C   UNL A   1      39.532  33.263  36.361  1.00  0.00     0.064 A 
ATOM     72  C   UNL A   1      40.139  34.525  36.453  1.00  0.00     0.173 A 
ATOM     73  C   UNL A   1      38.644  32.889  37.381  1.00  0.00     0.173 A 
ATOM     74  F   UNL A   1      41.007  34.927  35.510  1.00  0.00    -0.203 F 
ATOM     75  C   UNL A   1      39.892  35.364  37.536  1.00  0.00     0.198 A 
ATOM     76  C   UNL A   1      38.375  33.744  38.447  1.00  0.00     0.198 A 
ATOM     77  F   UNL A   1      38.032  31.695  37.342  1.00  0.00    -0.203 F 
ATOM     78  F   UNL A   1      40.524  36.542  37.627  1.00  0.00    -0.200 F 
ATOM     79  C   UNL A   1      39.005  34.976  38.529  1.00  0.00     0.200 A 
ATOM     80  F   UNL A   1      37.508  33.372  39.400  1.00  0.00    -0.200 F 
ATOM     81  F   UNL A   1      38.764  35.787  39.567  1.00  0.00    -0.200 F 
ENDBRANCH  57  71
BRANCH  58  82
ATOM     82  C   UNL A   1      41.104  27.575  28.302  1.00  0.00     0.064 A 
ATOM     83  C   UNL A   1      40.436  26.357  28.120  1.00  0.00     0.173 A 
ATOM     84  C   UNL A   1      42.021  27.969  27.316  1.00  0.00     0.173 A 
ATOM     85  F   UNL A   1      39.564  25.928  29.046  1.00  0.00    -0.203 F 
ATOM     86  C   UNL A   1      40.690  25.553  27.011  1.00  0.00     0.198 A 
ATOM     87  C   UNL A   1      42.254  27.178  26.193  1.00  0.00     0.198 A 
ATOM     88  F   UNL A   1      42.682  29.129  27.439  1.00  0.00    -0.203 F 
ATOM     89  F   UNL A   1      40.071  24.370  26.887  1.00  0.00    -0.200 F 
ATOM     90  C   UNL A   1      41.594  25.968  26.045  1.00  0.00     0.200 A 
ATOM     91  F   UNL A   1      43.117  27.590  25.254  1.00  0.00    -0.200 F 
ATOM     92  F   UNL A   1      41.837  25.196  24.977  1.00  0.00    -0.200 F 
ENDBRANCH  58  82
BRANCH  70  93
ATOM     93  C   UNL A   1      44.048  27.912  34.601  1.00  0.00     0.064 A 
ATOM     94  C   UNL A   1      43.803  26.733  35.320  1.00  0.00     0.173 A 
ATOM     95  C   UNL A   1      45.378  28.340  34.475  1.00  0.00     0.173 A 
ATOM     96  F   UNL A   1      42.547  26.290  35.483  1.00  0.00    -0.203 F 
ATOM     97  C   UNL A   1      44.844  26.031  35.921  1.00  0.00     0.198 A 
ATOM     98  C   UNL A   1      46.421  27.617  35.049  1.00  0.00     0.198 A 
ATOM     99  F   UNL A   1      45.668  29.456  33.790  1.00  0.00    -0.203 F 
ATOM    100  F   UNL A   1      44.580  24.941  36.653  1.00  0.00    -0.200 F 
ATOM    101  C   UNL A   1      46.152  26.470  35.780  1.00  0.00     0.200 A 
ATOM    102  F   UNL A   1      47.685  28.036  34.900  1.00  0.00    -0.200 F 
ATOM    103  F   UNL A   1      47.154  25.794  36.359  1.00  0.00    -0.200 F 
ENDBRANCH  70  93
ENDBRANCH  44  45
ENDBRANCH  36  39
ENDBRANCH  34  35
ENDBRANCH  33  34
ENDBRANCH  32  33
ENDBRANCH   1  32
TORSDOF 16
ENDMDL
