MODEL 1
REMARK VINA RESULT:     -13.8      0.000      0.000
REMARK SMILES O=C(NCCCCCCNC(=O)c1ccc(-c2c3nc(c(-c4c(F)c(F)c(F)c(F)c4F)c4ccc([nH]4)c(-c4c(F)c(F)c(F)c(F)c4F)c4nc(c(-c5c(F)c(F)c(F)c(F)c5F)c5ccc2[nH]5)C=C4)C=C3)cc1)c1ccc(NC(=O)[C@@H]2CC=CC[C@H]2C(=O)Nc2cccc([N+](=O)[O-])c2)cc1
REMARK SMILES IDX 5 1 4 2 3 3 1 4 2 5 76 7 77 8 102 9 78 10 101 11 79 12 80 13
REMARK SMILES IDX 81 14 82 16 83 17 84 18 88 19 85 20 87 21 86 22 89 23 90 24
REMARK SMILES IDX 91 25 92 27 93 28 100 29 94 30 96 31 95 32 97 33 98 34 99 35
REMARK SMILES IDX 6 36 7 37 8 38 9 39 10 40 11 41 12 43 13 44 14 45 75 46
REMARK SMILES IDX 15 47 74 48 16 49 17 50 18 51 68 52 19 53 73 54 67 55 69 56
REMARK SMILES IDX 20 57 72 58 66 59 65 60 21 62 53 63 33 64 52 65 34 66 37 67
REMARK SMILES IDX 51 68 70 69 35 70 36 71 50 73 71 74 38 75 22 76 23 77 31 78
REMARK SMILES IDX 24 79 25 80 29 81 32 82 26 83 27 84 30 85 28 86 54 87 55 88
REMARK SMILES IDX 63 89 56 90 57 91 61 92 64 93 58 94 59 95 62 96 60 97 39 98
REMARK SMILES IDX 40 99 48 100 41 101 42 102 46 103 49 104 43 105 44 106
REMARK SMILES IDX 47 107 45 108
REMARK H PARENT 3 6 80 15 91 26 10 42 69 61 37 72
REMARK Flexibility Score: inf
ROOT
ATOM      1  C   UNL A   1      33.004  29.511  26.996  1.00  0.00     0.021 C 
ENDROOT
BRANCH   1   2
ATOM      2  C   UNL A   1      32.950  29.408  25.480  1.00  0.00     0.116 C 
BRANCH   2   3
ATOM      3  N   UNL A   1      31.709  29.917  24.917  1.00  0.00    -0.352 N 
ATOM      4  O   UNL A   1      29.889  29.878  23.567  1.00  0.00    -0.269 OA
ATOM      5  C   UNL A   1      30.824  29.278  24.076  1.00  0.00     0.251 C 
ATOM      6  H   UNL A   1      31.468  30.837  25.171  1.00  0.00     0.163 HD
BRANCH   5   7
ATOM      7  C   UNL A   1      31.036  27.845  23.785  1.00  0.00     0.039 A 
ATOM      8  C   UNL A   1      31.742  27.476  22.646  1.00  0.00     0.016 A 
ATOM      9  C   UNL A   1      30.483  26.866  24.607  1.00  0.00     0.016 A 
ATOM     10  C   UNL A   1      31.769  26.145  22.252  1.00  0.00     0.027 A 
ATOM     11  C   UNL A   1      30.606  25.518  24.246  1.00  0.00     0.027 A 
ATOM     12  C   UNL A   1      31.253  25.143  23.058  1.00  0.00     0.041 A 
BRANCH  12  13
ATOM     13  N   UNL A   1      31.353  23.772  22.790  1.00  0.00    -0.326 N 
ATOM     14  C   UNL A   1      32.222  22.777  23.095  1.00  0.00     0.228 C 
ATOM     15  H   UNL A   1      30.602  23.448  22.242  1.00  0.00     0.169 HD
ATOM     16  O   UNL A   1      31.907  21.648  22.688  1.00  0.00    -0.274 OA
BRANCH  14  17
ATOM     17  C   UNL A   1      33.554  22.917  23.824  1.00  0.00     0.095 C 
ATOM     18  C   UNL A   1      34.625  23.770  23.127  1.00  0.00     0.041 C 
ATOM     19  C   UNL A   1      33.966  21.583  24.467  1.00  0.00     0.095 C 
ATOM     20  C   UNL A   1      36.043  23.338  23.368  1.00  0.00    -0.030 C 
ATOM     21  C   UNL A   1      35.431  21.472  24.919  1.00  0.00     0.041 C 
ATOM     22  C   UNL A   1      36.398  22.318  24.156  1.00  0.00    -0.030 C 
BRANCH  19  23
ATOM     23  C   UNL A   1      33.011  21.092  25.579  1.00  0.00     0.228 C 
ATOM     24  O   UNL A   1      32.624  21.908  26.426  1.00  0.00    -0.274 OA
ATOM     25  N   UNL A   1      32.445  19.842  25.624  1.00  0.00    -0.326 N 
ATOM     26  H   UNL A   1      31.758  19.727  26.319  1.00  0.00     0.169 HD
BRANCH  25  27
ATOM     27  C   UNL A   1      32.684  18.705  24.843  1.00  0.00     0.048 A 
ATOM     28  C   UNL A   1      32.547  18.800  23.456  1.00  0.00     0.026 A 
ATOM     29  C   UNL A   1      33.036  17.486  25.407  1.00  0.00     0.111 A 
ATOM     30  C   UNL A   1      32.942  17.736  22.638  1.00  0.00     0.009 A 
ATOM     31  C   UNL A   1      33.503  16.449  24.595  1.00  0.00     0.271 A 
ATOM     32  C   UNL A   1      33.466  16.571  23.203  1.00  0.00     0.086 A 
BRANCH  31  33
ATOM     33  N   UNL A   1      34.098  15.261  25.217  1.00  0.00     0.062 N 
ATOM     34  O   UNL A   1      35.334  15.209  25.293  1.00  0.00    -0.258 OA
ATOM     35  O   UNL A   1      33.331  14.397  25.664  1.00  0.00    -0.258 OA
ENDBRANCH  31  33
ENDBRANCH  25  27
ENDBRANCH  19  23
ENDBRANCH  14  17
ENDBRANCH  12  13
ENDBRANCH   5   7
ENDBRANCH   2   3
ENDBRANCH   1   2
BRANCH   1  36
ATOM     36  C   UNL A   1      34.356  29.943  27.558  1.00  0.00     0.002 C 
BRANCH  36  37
ATOM     37  C   UNL A   1      34.451  31.409  27.989  1.00  0.00     0.002 C 
BRANCH  37  38
ATOM     38  C   UNL A   1      33.165  32.229  27.849  1.00  0.00     0.021 C 
BRANCH  38  39
ATOM     39  C   UNL A   1      33.334  33.614  27.235  1.00  0.00     0.116 C 
BRANCH  39  40
ATOM     40  N   UNL A   1      32.791  34.672  28.071  1.00  0.00    -0.352 N 
ATOM     41  C   UNL A   1      33.170  35.078  29.325  1.00  0.00     0.251 C 
ATOM     42  H   UNL A   1      32.039  35.171  27.677  1.00  0.00     0.163 HD
ATOM     43  O   UNL A   1      32.507  35.917  29.927  1.00  0.00    -0.269 OA
BRANCH  41  44
ATOM     44  C   UNL A   1      34.360  34.485  29.970  1.00  0.00     0.039 A 
ATOM     45  C   UNL A   1      34.177  33.679  31.097  1.00  0.00     0.014 A 
ATOM     46  C   UNL A   1      35.648  34.731  29.485  1.00  0.00     0.014 A 
ATOM     47  C   UNL A   1      35.277  33.070  31.701  1.00  0.00     0.010 A 
ATOM     48  C   UNL A   1      36.739  34.075  30.050  1.00  0.00     0.010 A 
ATOM     49  C   UNL A   1      36.563  33.239  31.164  1.00  0.00    -0.014 A 
BRANCH  49  50
ATOM     50  C   UNL A   1      37.737  32.549  31.754  1.00  0.00     0.031 A 
ATOM     51  C   UNL A   1      38.389  31.409  31.026  1.00  0.00     0.074 A 
ATOM     52  C   UNL A   1      38.173  32.909  32.977  1.00  0.00     0.049 A 
ATOM     53  N   UNL A   1      39.371  30.634  31.413  1.00  0.00    -0.248 NA
ATOM     54  C   UNL A   1      37.848  31.080  29.699  1.00  0.00     0.031 C 
ATOM     55  C   UNL A   1      37.593  33.968  33.802  1.00  0.00     0.029 A 
ATOM     56  N   UNL A   1      39.196  32.411  33.744  1.00  0.00    -0.354 N 
ATOM     57  C   UNL A   1      39.556  29.720  30.384  1.00  0.00     0.074 A 
ATOM     58  C   UNL A   1      38.553  30.005  29.379  1.00  0.00     0.031 C 
ATOM     59  C   UNL A   1      38.273  34.047  34.957  1.00  0.00     0.029 A 
ATOM     60  C   UNL A   1      39.317  33.026  34.964  1.00  0.00     0.049 A 
ATOM     61  H   UNL A   1      39.787  31.681  33.446  1.00  0.00     0.167 HD
ATOM     62  C   UNL A   1      40.492  28.747  30.276  1.00  0.00     0.037 A 
ATOM     63  C   UNL A   1      40.168  32.788  35.979  1.00  0.00     0.037 A 
ATOM     64  C   UNL A   1      41.501  28.479  31.266  1.00  0.00     0.049 A 
ATOM     65  C   UNL A   1      41.206  31.709  35.833  1.00  0.00     0.074 A 
ATOM     66  C   UNL A   1      42.524  27.547  31.229  1.00  0.00     0.029 A 
ATOM     67  N   UNL A   1      41.614  29.147  32.478  1.00  0.00    -0.354 N 
ATOM     68  N   UNL A   1      41.407  30.887  34.832  1.00  0.00    -0.248 NA
ATOM     69  C   UNL A   1      42.140  31.531  36.953  1.00  0.00     0.031 C 
ATOM     70  C   UNL A   1      43.234  27.628  32.432  1.00  0.00     0.029 A 
ATOM     71  C   UNL A   1      42.681  28.637  33.202  1.00  0.00     0.049 A 
ATOM     72  H   UNL A   1      41.024  29.876  32.778  1.00  0.00     0.167 HD
ATOM     73  C   UNL A   1      42.499  30.110  35.190  1.00  0.00     0.074 A 
ATOM     74  C   UNL A   1      42.928  30.569  36.496  1.00  0.00     0.031 C 
ATOM     75  C   UNL A   1      43.093  29.106  34.500  1.00  0.00     0.037 A 
BRANCH  62  76
ATOM     76  C   UNL A   1      40.468  27.903  29.035  1.00  0.00     0.064 A 
ATOM     77  C   UNL A   1      41.218  28.247  27.900  1.00  0.00     0.173 A 
ATOM     78  C   UNL A   1      39.703  26.728  28.986  1.00  0.00     0.173 A 
ATOM     79  F   UNL A   1      41.955  29.368  27.893  1.00  0.00    -0.203 F 
ATOM     80  C   UNL A   1      41.179  27.462  26.751  1.00  0.00     0.198 A 
ATOM     81  C   UNL A   1      39.689  25.931  27.844  1.00  0.00     0.198 A 
ATOM     82  F   UNL A   1      38.972  26.351  30.045  1.00  0.00    -0.203 F 
ATOM     83  F   UNL A   1      41.863  27.838  25.661  1.00  0.00    -0.200 F 
ATOM     84  C   UNL A   1      40.419  26.303  26.725  1.00  0.00     0.200 A 
ATOM     85  F   UNL A   1      38.963  24.803  27.825  1.00  0.00    -0.200 F 
ATOM     86  F   UNL A   1      40.384  25.547  25.618  1.00  0.00    -0.200 F 
ENDBRANCH  62  76
BRANCH  63  87
ATOM     87  C   UNL A   1      40.086  33.606  37.215  1.00  0.00     0.064 A 
ATOM     88  C   UNL A   1      39.208  33.261  38.251  1.00  0.00     0.173 A 
ATOM     89  C   UNL A   1      40.895  34.739  37.392  1.00  0.00     0.173 A 
ATOM     90  F   UNL A   1      38.403  32.198  38.118  1.00  0.00    -0.203 F 
ATOM     91  C   UNL A   1      39.130  34.026  39.413  1.00  0.00     0.198 A 
ATOM     92  C   UNL A   1      40.833  35.489  38.564  1.00  0.00     0.198 A 
ATOM     93  F   UNL A   1      41.755  35.107  36.432  1.00  0.00    -0.203 F 
ATOM     94  F   UNL A   1      38.257  33.695  40.373  1.00  0.00    -0.200 F 
ATOM     95  C   UNL A   1      39.947  35.136  39.572  1.00  0.00     0.200 A 
ATOM     96  F   UNL A   1      41.633  36.553  38.719  1.00  0.00    -0.200 F 
ATOM     97  F   UNL A   1      39.878  35.867  40.691  1.00  0.00    -0.200 F 
ENDBRANCH  63  87
BRANCH  75  98
ATOM     98  C   UNL A   1      44.284  28.450  35.132  1.00  0.00     0.064 A 
ATOM     99  C   UNL A   1      44.146  27.337  35.975  1.00  0.00     0.173 A 
ATOM    100  C   UNL A   1      45.580  28.913  34.862  1.00  0.00     0.173 A 
ATOM    101  F   UNL A   1      42.926  26.866  36.277  1.00  0.00    -0.203 F 
ATOM    102  C   UNL A   1      45.261  26.726  36.541  1.00  0.00     0.198 A 
ATOM    103  C   UNL A   1      46.694  28.285  35.408  1.00  0.00     0.198 A 
ATOM    104  F   UNL A   1      45.764  29.973  34.058  1.00  0.00    -0.203 F 
ATOM    105  F   UNL A   1      45.104  25.690  37.376  1.00  0.00    -0.200 F 
ATOM    106  C   UNL A   1      46.534  27.196  36.251  1.00  0.00     0.200 A 
ATOM    107  F   UNL A   1      47.924  28.734  35.120  1.00  0.00    -0.200 F 
ATOM    108  F   UNL A   1      47.607  26.602  36.792  1.00  0.00    -0.200 F 
ENDBRANCH  75  98
ENDBRANCH  49  50
ENDBRANCH  41  44
ENDBRANCH  39  40
ENDBRANCH  38  39
ENDBRANCH  37  38
ENDBRANCH  36  37
ENDBRANCH   1  36
TORSDOF 18
ENDMDL
MODEL 2
REMARK VINA RESULT:     -13.4      0.705      6.780
REMARK SMILES O=C(NCCCCCCNC(=O)c1ccc(-c2c3nc(c(-c4c(F)c(F)c(F)c(F)c4F)c4ccc([nH]4)c(-c4c(F)c(F)c(F)c(F)c4F)c4nc(c(-c5c(F)c(F)c(F)c(F)c5F)c5ccc2[nH]5)C=C4)C=C3)cc1)c1ccc(NC(=O)[C@@H]2CC=CC[C@H]2C(=O)Nc2cccc([N+](=O)[O-])c2)cc1
REMARK SMILES IDX 5 1 4 2 3 3 1 4 2 5 76 7 77 8 102 9 78 10 101 11 79 12 80 13
REMARK SMILES IDX 81 14 82 16 83 17 84 18 88 19 85 20 87 21 86 22 89 23 90 24
REMARK SMILES IDX 91 25 92 27 93 28 100 29 94 30 96 31 95 32 97 33 98 34 99 35
REMARK SMILES IDX 6 36 7 37 8 38 9 39 10 40 11 41 12 43 13 44 14 45 75 46
REMARK SMILES IDX 15 47 74 48 16 49 17 50 18 51 68 52 19 53 73 54 67 55 69 56
REMARK SMILES IDX 20 57 72 58 66 59 65 60 21 62 53 63 33 64 52 65 34 66 37 67
REMARK SMILES IDX 51 68 70 69 35 70 36 71 50 73 71 74 38 75 22 76 23 77 31 78
REMARK SMILES IDX 24 79 25 80 29 81 32 82 26 83 27 84 30 85 28 86 54 87 55 88
REMARK SMILES IDX 63 89 56 90 57 91 61 92 64 93 58 94 59 95 62 96 60 97 39 98
REMARK SMILES IDX 40 99 48 100 41 101 42 102 46 103 49 104 43 105 44 106
REMARK SMILES IDX 47 107 45 108
REMARK H PARENT 3 6 80 15 91 26 10 42 69 61 37 72
REMARK Flexibility Score: inf
ROOT
ATOM      1  C   UNL A   1      32.676  29.737  26.751  1.00  0.00     0.021 C 
ENDROOT
BRANCH   1   2
ATOM      2  C   UNL A   1      32.597  29.125  25.362  1.00  0.00     0.116 C 
BRANCH   2   3
ATOM      3  N   UNL A   1      31.422  29.549  24.617  1.00  0.00    -0.352 N 
ATOM      4  O   UNL A   1      29.783  29.352  23.064  1.00  0.00    -0.269 OA
ATOM      5  C   UNL A   1      30.663  28.821  23.726  1.00  0.00     0.251 C 
ATOM      6  H   UNL A   1      31.130  30.477  24.769  1.00  0.00     0.163 HD
BRANCH   5   7
ATOM      7  C   UNL A   1      30.945  27.380  23.572  1.00  0.00     0.039 A 
ATOM      8  C   UNL A   1      31.759  26.950  22.530  1.00  0.00     0.016 A 
ATOM      9  C   UNL A   1      30.354  26.448  24.422  1.00  0.00     0.016 A 
ATOM     10  C   UNL A   1      31.862  25.593  22.250  1.00  0.00     0.027 A 
ATOM     11  C   UNL A   1      30.550  25.081  24.184  1.00  0.00     0.027 A 
ATOM     12  C   UNL A   1      31.309  24.639  23.089  1.00  0.00     0.041 A 
BRANCH  12  13
ATOM     13  N   UNL A   1      31.476  23.256  22.944  1.00  0.00    -0.326 N 
ATOM     14  C   UNL A   1      32.422  22.344  23.279  1.00  0.00     0.228 C 
ATOM     15  H   UNL A   1      30.712  22.840  22.481  1.00  0.00     0.169 HD
ATOM     16  O   UNL A   1      32.151  21.165  23.002  1.00  0.00    -0.274 OA
BRANCH  14  17
ATOM     17  C   UNL A   1      33.786  22.627  23.899  1.00  0.00     0.095 C 
ATOM     18  C   UNL A   1      34.766  23.442  23.042  1.00  0.00     0.041 C 
ATOM     19  C   UNL A   1      34.306  21.395  24.658  1.00  0.00     0.095 C 
ATOM     20  C   UNL A   1      36.217  23.105  23.235  1.00  0.00    -0.030 C 
ATOM     21  C   UNL A   1      35.799  21.403  25.021  1.00  0.00     0.041 C 
ATOM     22  C   UNL A   1      36.673  22.199  24.107  1.00  0.00    -0.030 C 
BRANCH  19  23
ATOM     23  C   UNL A   1      33.446  20.991  25.877  1.00  0.00     0.228 C 
ATOM     24  O   UNL A   1      33.142  21.866  26.699  1.00  0.00    -0.274 OA
ATOM     25  N   UNL A   1      32.876  19.755  26.053  1.00  0.00    -0.326 N 
ATOM     26  H   UNL A   1      32.251  19.695  26.811  1.00  0.00     0.169 HD
BRANCH  25  27
ATOM     27  C   UNL A   1      33.037  18.566  25.332  1.00  0.00     0.048 A 
ATOM     28  C   UNL A   1      33.669  18.615  24.087  1.00  0.00     0.026 A 
ATOM     29  C   UNL A   1      32.573  17.348  25.809  1.00  0.00     0.111 A 
ATOM     30  C   UNL A   1      33.997  17.429  23.421  1.00  0.00     0.009 A 
ATOM     31  C   UNL A   1      32.964  16.159  25.187  1.00  0.00     0.271 A 
ATOM     32  C   UNL A   1      33.687  16.193  23.991  1.00  0.00     0.086 A 
BRANCH  31  33
ATOM     33  N   UNL A   1      32.672  14.876  25.838  1.00  0.00     0.062 N 
ATOM     34  O   UNL A   1      33.326  13.887  25.480  1.00  0.00    -0.258 OA
ATOM     35  O   UNL A   1      31.816  14.865  26.734  1.00  0.00    -0.258 OA
ENDBRANCH  31  33
ENDBRANCH  25  27
ENDBRANCH  19  23
ENDBRANCH  14  17
ENDBRANCH  12  13
ENDBRANCH   5   7
ENDBRANCH   2   3
ENDBRANCH   1   2
BRANCH   1  36
ATOM     36  C   UNL A   1      34.093  30.014  27.247  1.00  0.00     0.002 C 
BRANCH  36  37
ATOM     37  C   UNL A   1      34.352  31.440  27.739  1.00  0.00     0.002 C 
BRANCH  37  38
ATOM     38  C   UNL A   1      33.141  32.377  27.728  1.00  0.00     0.021 C 
BRANCH  38  39
ATOM     39  C   UNL A   1      33.454  33.849  27.479  1.00  0.00     0.116 C 
BRANCH  39  40
ATOM     40  N   UNL A   1      32.871  34.727  28.480  1.00  0.00    -0.352 N 
ATOM     41  C   UNL A   1      33.215  34.903  29.796  1.00  0.00     0.251 C 
ATOM     42  H   UNL A   1      32.118  35.277  28.166  1.00  0.00     0.163 HD
ATOM     43  O   UNL A   1      32.522  35.606  30.524  1.00  0.00    -0.269 OA
BRANCH  41  44
ATOM     44  C   UNL A   1      34.403  34.222  30.351  1.00  0.00     0.039 A 
ATOM     45  C   UNL A   1      34.212  33.203  31.289  1.00  0.00     0.014 A 
ATOM     46  C   UNL A   1      35.697  34.591  29.969  1.00  0.00     0.014 A 
ATOM     47  C   UNL A   1      35.313  32.513  31.798  1.00  0.00     0.010 A 
ATOM     48  C   UNL A   1      36.790  33.861  30.430  1.00  0.00     0.010 A 
ATOM     49  C   UNL A   1      36.607  32.816  31.349  1.00  0.00    -0.014 A 
BRANCH  49  50
ATOM     50  C   UNL A   1      37.784  32.051  31.831  1.00  0.00     0.031 A 
ATOM     51  C   UNL A   1      38.395  32.365  33.166  1.00  0.00     0.074 A 
ATOM     52  C   UNL A   1      38.340  31.118  31.036  1.00  0.00     0.049 A 
ATOM     53  N   UNL A   1      39.468  31.862  33.725  1.00  0.00    -0.248 NA
ATOM     54  C   UNL A   1      37.727  33.400  33.969  1.00  0.00     0.031 C 
ATOM     55  C   UNL A   1      37.867  30.756  29.699  1.00  0.00     0.029 A 
ATOM     56  N   UNL A   1      39.435  30.313  31.230  1.00  0.00    -0.354 N 
ATOM     57  C   UNL A   1      39.609  32.527  34.934  1.00  0.00     0.074 A 
ATOM     58  C   UNL A   1      38.543  33.504  35.008  1.00  0.00     0.031 C 
ATOM     59  C   UNL A   1      38.660  29.796  29.197  1.00  0.00     0.029 A 
ATOM     60  C   UNL A   1      39.713  29.497  30.163  1.00  0.00     0.049 A 
ATOM     61  H   UNL A   1      39.969  30.322  32.057  1.00  0.00     0.167 HD
ATOM     62  C   UNL A   1      40.530  32.327  35.907  1.00  0.00     0.037 A 
ATOM     63  C   UNL A   1      40.711  28.612  29.980  1.00  0.00     0.037 A 
ATOM     64  C   UNL A   1      41.577  31.341  35.842  1.00  0.00     0.049 A 
ATOM     65  C   UNL A   1      41.717  28.398  31.078  1.00  0.00     0.074 A 
ATOM     66  C   UNL A   1      42.530  31.027  36.795  1.00  0.00     0.029 A 
ATOM     67  N   UNL A   1      41.807  30.507  34.757  1.00  0.00    -0.354 N 
ATOM     68  N   UNL A   1      41.808  28.994  32.241  1.00  0.00    -0.248 NA
ATOM     69  C   UNL A   1      42.752  27.383  30.840  1.00  0.00     0.031 C 
ATOM     70  C   UNL A   1      43.359  30.027  36.273  1.00  0.00     0.029 A 
ATOM     71  C   UNL A   1      42.897  29.689  35.012  1.00  0.00     0.049 A 
ATOM     72  H   UNL A   1      41.275  30.497  33.928  1.00  0.00     0.167 HD
ATOM     73  C   UNL A   1      42.894  28.415  32.882  1.00  0.00     0.074 A 
ATOM     74  C   UNL A   1      43.421  27.408  31.984  1.00  0.00     0.031 C 
ATOM     75  C   UNL A   1      43.408  28.692  34.105  1.00  0.00     0.037 A 
BRANCH  62  76
ATOM     76  C   UNL A   1      40.439  33.191  37.131  1.00  0.00     0.064 A 
ATOM     77  C   UNL A   1      41.287  34.294  37.313  1.00  0.00     0.173 A 
ATOM     78  C   UNL A   1      39.482  32.928  38.121  1.00  0.00     0.173 A 
ATOM     79  F   UNL A   1      42.228  34.581  36.401  1.00  0.00    -0.203 F 
ATOM     80  C   UNL A   1      41.201  35.082  38.457  1.00  0.00     0.198 A 
ATOM     81  C   UNL A   1      39.380  33.735  39.251  1.00  0.00     0.198 A 
ATOM     82  F   UNL A   1      38.643  31.888  37.993  1.00  0.00    -0.203 F 
ATOM     83  F   UNL A   1      42.056  36.100  38.635  1.00  0.00    -0.200 F 
ATOM     84  C   UNL A   1      40.245  34.806  39.423  1.00  0.00     0.200 A 
ATOM     85  F   UNL A   1      38.446  33.474  40.178  1.00  0.00    -0.200 F 
ATOM     86  F   UNL A   1      40.160  35.567  40.523  1.00  0.00    -0.200 F 
ENDBRANCH  62  76
BRANCH  63  87
ATOM     87  C   UNL A   1      40.792  27.847  28.710  1.00  0.00     0.064 A 
ATOM     88  C   UNL A   1      40.026  26.690  28.517  1.00  0.00     0.173 A 
ATOM     89  C   UNL A   1      41.622  28.266  27.660  1.00  0.00     0.173 A 
ATOM     90  F   UNL A   1      39.232  26.241  29.500  1.00  0.00    -0.203 F 
ATOM     91  C   UNL A   1      40.098  25.970  27.326  1.00  0.00     0.198 A 
ATOM     92  C   UNL A   1      41.675  27.559  26.461  1.00  0.00     0.198 A 
ATOM     93  F   UNL A   1      42.370  29.370  27.794  1.00  0.00    -0.203 F 
ATOM     94  F   UNL A   1      39.382  24.848  27.180  1.00  0.00    -0.200 F 
ATOM     95  C   UNL A   1      40.917  26.409  26.296  1.00  0.00     0.200 A 
ATOM     96  F   UNL A   1      42.458  27.994  25.464  1.00  0.00    -0.200 F 
ATOM     97  F   UNL A   1      40.981  25.722  25.149  1.00  0.00    -0.200 F 
ENDBRANCH  63  87
BRANCH  75  98
ATOM     98  C   UNL A   1      44.588  27.882  34.553  1.00  0.00     0.064 A 
ATOM     99  C   UNL A   1      44.427  26.666  35.232  1.00  0.00     0.173 A 
ATOM    100  C   UNL A   1      45.894  28.307  34.264  1.00  0.00     0.173 A 
ATOM    101  F   UNL A   1      43.198  26.226  35.546  1.00  0.00    -0.203 F 
ATOM    102  C   UNL A   1      45.531  25.915  35.626  1.00  0.00     0.198 A 
ATOM    103  C   UNL A   1      46.994  27.541  34.636  1.00  0.00     0.198 A 
ATOM    104  F   UNL A   1      46.099  29.462  33.611  1.00  0.00    -0.203 F 
ATOM    105  F   UNL A   1      45.355  24.777  36.310  1.00  0.00    -0.200 F 
ATOM    106  C   UNL A   1      46.813  26.350  35.321  1.00  0.00     0.200 A 
ATOM    107  F   UNL A   1      48.231  27.957  34.332  1.00  0.00    -0.200 F 
ATOM    108  F   UNL A   1      47.874  25.622  35.695  1.00  0.00    -0.200 F 
ENDBRANCH  75  98
ENDBRANCH  49  50
ENDBRANCH  41  44
ENDBRANCH  39  40
ENDBRANCH  38  39
ENDBRANCH  37  38
ENDBRANCH  36  37
ENDBRANCH   1  36
TORSDOF 18
ENDMDL
MODEL 3
REMARK VINA RESULT:     -13.4      5.787     10.689
REMARK SMILES O=C(NCCCCCCNC(=O)c1ccc(-c2c3nc(c(-c4c(F)c(F)c(F)c(F)c4F)c4ccc([nH]4)c(-c4c(F)c(F)c(F)c(F)c4F)c4nc(c(-c5c(F)c(F)c(F)c(F)c5F)c5ccc2[nH]5)C=C4)C=C3)cc1)c1ccc(NC(=O)[C@@H]2CC=CC[C@H]2C(=O)Nc2cccc([N+](=O)[O-])c2)cc1
REMARK SMILES IDX 5 1 4 2 3 3 1 4 2 5 76 7 77 8 102 9 78 10 101 11 79 12 80 13
REMARK SMILES IDX 81 14 82 16 83 17 84 18 88 19 85 20 87 21 86 22 89 23 90 24
REMARK SMILES IDX 91 25 92 27 93 28 100 29 94 30 96 31 95 32 97 33 98 34 99 35
REMARK SMILES IDX 6 36 7 37 8 38 9 39 10 40 11 41 12 43 13 44 14 45 75 46
REMARK SMILES IDX 15 47 74 48 16 49 17 50 18 51 68 52 19 53 73 54 67 55 69 56
REMARK SMILES IDX 20 57 72 58 66 59 65 60 21 62 53 63 33 64 52 65 34 66 37 67
REMARK SMILES IDX 51 68 70 69 35 70 36 71 50 73 71 74 38 75 22 76 23 77 31 78
REMARK SMILES IDX 24 79 25 80 29 81 32 82 26 83 27 84 30 85 28 86 54 87 55 88
REMARK SMILES IDX 63 89 56 90 57 91 61 92 64 93 58 94 59 95 62 96 60 97 39 98
REMARK SMILES IDX 40 99 48 100 41 101 42 102 46 103 49 104 43 105 44 106
REMARK SMILES IDX 47 107 45 108
REMARK H PARENT 3 6 80 15 91 26 10 42 69 61 37 72
REMARK Flexibility Score: inf
ROOT
ATOM      1  C   UNL A   1      38.769  21.586  25.919  1.00  0.00     0.021 C 
ENDROOT
BRANCH   1   2
ATOM      2  C   UNL A   1      37.537  22.475  25.862  1.00  0.00     0.116 C 
BRANCH   2   3
ATOM      3  N   UNL A   1      36.300  21.753  26.120  1.00  0.00    -0.352 N 
ATOM      4  O   UNL A   1      34.053  21.504  26.281  1.00  0.00    -0.269 OA
ATOM      5  C   UNL A   1      35.005  22.159  25.883  1.00  0.00     0.251 C 
ATOM      6  H   UNL A   1      36.401  20.857  26.516  1.00  0.00     0.163 HD
BRANCH   5   7
ATOM      7  C   UNL A   1      34.785  23.420  25.146  1.00  0.00     0.039 A 
ATOM      8  C   UNL A   1      34.511  24.586  25.851  1.00  0.00     0.016 A 
ATOM      9  C   UNL A   1      34.791  23.436  23.753  1.00  0.00     0.016 A 
ATOM     10  C   UNL A   1      34.099  25.724  25.170  1.00  0.00     0.027 A 
ATOM     11  C   UNL A   1      34.469  24.622  23.079  1.00  0.00     0.027 A 
ATOM     12  C   UNL A   1      34.117  25.783  23.786  1.00  0.00     0.041 A 
BRANCH  12  13
ATOM     13  N   UNL A   1      33.838  26.929  23.032  1.00  0.00    -0.326 N 
ATOM     14  C   UNL A   1      33.470  28.208  23.295  1.00  0.00     0.228 C 
ATOM     15  H   UNL A   1      33.932  26.767  22.065  1.00  0.00     0.169 HD
ATOM     16  O   UNL A   1      33.369  28.950  22.306  1.00  0.00    -0.274 OA
BRANCH  14  17
ATOM     17  C   UNL A   1      33.119  28.797  24.658  1.00  0.00     0.095 C 
ATOM     18  C   UNL A   1      34.300  29.279  25.515  1.00  0.00     0.041 C 
ATOM     19  C   UNL A   1      31.993  27.991  25.326  1.00  0.00     0.095 C 
ATOM     20  C   UNL A   1      34.112  29.138  26.998  1.00  0.00    -0.030 C 
ATOM     21  C   UNL A   1      31.784  28.236  26.829  1.00  0.00     0.041 C 
ATOM     22  C   UNL A   1      33.001  28.671  27.578  1.00  0.00    -0.030 C 
BRANCH  19  23
ATOM     23  C   UNL A   1      30.646  28.036  24.570  1.00  0.00     0.228 C 
ATOM     24  O   UNL A   1      30.184  29.140  24.255  1.00  0.00    -0.274 OA
ATOM     25  N   UNL A   1      29.981  26.932  24.097  1.00  0.00    -0.326 N 
ATOM     26  H   UNL A   1      29.207  27.133  23.524  1.00  0.00     0.169 HD
BRANCH  25  27
ATOM     27  C   UNL A   1      30.223  25.567  24.297  1.00  0.00     0.048 A 
ATOM     28  C   UNL A   1      30.616  24.787  23.207  1.00  0.00     0.026 A 
ATOM     29  C   UNL A   1      30.067  24.967  25.539  1.00  0.00     0.111 A 
ATOM     30  C   UNL A   1      31.028  23.465  23.404  1.00  0.00     0.009 A 
ATOM     31  C   UNL A   1      30.549  23.673  25.755  1.00  0.00     0.271 A 
ATOM     32  C   UNL A   1      31.041  22.916  24.688  1.00  0.00     0.086 A 
BRANCH  31  33
ATOM     33  N   UNL A   1      30.601  23.143  27.123  1.00  0.00     0.062 N 
ATOM     34  O   UNL A   1      29.525  22.882  27.680  1.00  0.00    -0.258 OA
ATOM     35  O   UNL A   1      31.716  22.952  27.626  1.00  0.00    -0.258 OA
ENDBRANCH  31  33
ENDBRANCH  25  27
ENDBRANCH  19  23
ENDBRANCH  14  17
ENDBRANCH  12  13
ENDBRANCH   5   7
ENDBRANCH   2   3
ENDBRANCH   1   2
BRANCH   1  36
ATOM     36  C   UNL A   1      40.017  22.262  26.482  1.00  0.00     0.002 C 
BRANCH  36  37
ATOM     37  C   UNL A   1      41.116  21.313  26.968  1.00  0.00     0.002 C 
BRANCH  37  38
ATOM     38  C   UNL A   1      41.290  20.026  26.157  1.00  0.00     0.021 C 
BRANCH  38  39
ATOM     39  C   UNL A   1      42.477  19.155  26.555  1.00  0.00     0.116 C 
BRANCH  39  40
ATOM     40  N   UNL A   1      43.286  18.751  25.418  1.00  0.00    -0.352 N 
ATOM     41  C   UNL A   1      44.143  19.493  24.645  1.00  0.00     0.251 C 
ATOM     42  H   UNL A   1      43.207  17.803  25.164  1.00  0.00     0.163 HD
ATOM     43  O   UNL A   1      44.650  19.001  23.643  1.00  0.00    -0.269 OA
BRANCH  41  44
ATOM     44  C   UNL A   1      44.436  20.897  25.000  1.00  0.00     0.039 A 
ATOM     45  C   UNL A   1      43.940  21.911  24.175  1.00  0.00     0.014 A 
ATOM     46  C   UNL A   1      45.206  21.218  26.122  1.00  0.00     0.014 A 
ATOM     47  C   UNL A   1      44.163  23.248  24.508  1.00  0.00     0.010 A 
ATOM     48  C   UNL A   1      45.376  22.551  26.487  1.00  0.00     0.010 A 
ATOM     49  C   UNL A   1      44.856  23.578  25.683  1.00  0.00    -0.014 A 
BRANCH  49  50
ATOM     50  C   UNL A   1      45.049  24.993  26.087  1.00  0.00     0.031 A 
ATOM     51  C   UNL A   1      46.405  25.630  25.988  1.00  0.00     0.074 A 
ATOM     52  C   UNL A   1      44.014  25.682  26.603  1.00  0.00     0.049 A 
ATOM     53  N   UNL A   1      46.788  26.825  26.363  1.00  0.00    -0.248 NA
ATOM     54  C   UNL A   1      47.479  24.806  25.416  1.00  0.00     0.031 C 
ATOM     55  C   UNL A   1      42.661  25.159  26.794  1.00  0.00     0.029 A 
ATOM     56  N   UNL A   1      43.943  26.968  27.078  1.00  0.00    -0.354 N 
ATOM     57  C   UNL A   1      48.145  26.890  26.085  1.00  0.00     0.074 A 
ATOM     58  C   UNL A   1      48.532  25.598  25.556  1.00  0.00     0.031 C 
ATOM     59  C   UNL A   1      41.891  26.116  27.336  1.00  0.00     0.029 A 
ATOM     60  C   UNL A   1      42.703  27.309  27.558  1.00  0.00     0.049 A 
ATOM     61  H   UNL A   1      44.709  27.587  27.073  1.00  0.00     0.167 HD
ATOM     62  C   UNL A   1      48.990  27.938  26.234  1.00  0.00     0.037 A 
ATOM     63  C   UNL A   1      42.272  28.453  28.123  1.00  0.00     0.037 A 
ATOM     64  C   UNL A   1      48.601  29.227  26.741  1.00  0.00     0.049 A 
ATOM     65  C   UNL A   1      43.225  29.607  28.269  1.00  0.00     0.074 A 
ATOM     66  C   UNL A   1      49.370  30.368  26.886  1.00  0.00     0.029 A 
ATOM     67  N   UNL A   1      47.326  29.547  27.187  1.00  0.00    -0.354 N 
ATOM     68  N   UNL A   1      44.494  29.675  27.951  1.00  0.00    -0.248 NA
ATOM     69  C   UNL A   1      42.683  30.846  28.845  1.00  0.00     0.031 C 
ATOM     70  C   UNL A   1      48.570  31.368  27.452  1.00  0.00     0.029 A 
ATOM     71  C   UNL A   1      47.292  30.863  27.621  1.00  0.00     0.049 A 
ATOM     72  H   UNL A   1      46.558  28.930  27.193  1.00  0.00     0.167 HD
ATOM     73  C   UNL A   1      44.898  30.965  28.267  1.00  0.00     0.074 A 
ATOM     74  C   UNL A   1      43.734  31.651  28.789  1.00  0.00     0.031 C 
ATOM     75  C   UNL A   1      46.124  31.529  28.137  1.00  0.00     0.037 A 
BRANCH  62  76
ATOM     76  C   UNL A   1      50.423  27.730  25.837  1.00  0.00     0.064 A 
ATOM     77  C   UNL A   1      50.837  27.842  24.502  1.00  0.00     0.173 A 
ATOM     78  C   UNL A   1      51.396  27.437  26.804  1.00  0.00     0.173 A 
ATOM     79  F   UNL A   1      49.942  28.109  23.538  1.00  0.00    -0.203 F 
ATOM     80  C   UNL A   1      52.166  27.637  24.143  1.00  0.00     0.198 A 
ATOM     81  C   UNL A   1      52.730  27.260  26.445  1.00  0.00     0.198 A 
ATOM     82  F   UNL A   1      51.055  27.324  28.096  1.00  0.00    -0.203 F 
ATOM     83  F   UNL A   1      52.528  27.698  22.854  1.00  0.00    -0.200 F 
ATOM     84  C   UNL A   1      53.112  27.350  25.115  1.00  0.00     0.200 A 
ATOM     85  F   UNL A   1      53.646  26.995  27.388  1.00  0.00    -0.200 F 
ATOM     86  F   UNL A   1      54.393  27.155  24.770  1.00  0.00    -0.200 F 
ENDBRANCH  62  76
BRANCH  63  87
ATOM     87  C   UNL A   1      40.861  28.565  28.570  1.00  0.00     0.064 A 
ATOM     88  C   UNL A   1      39.857  28.986  27.688  1.00  0.00     0.173 A 
ATOM     89  C   UNL A   1      40.486  28.238  29.881  1.00  0.00     0.173 A 
ATOM     90  F   UNL A   1      40.172  29.328  26.431  1.00  0.00    -0.203 F 
ATOM     91  C   UNL A   1      38.531  29.091  28.105  1.00  0.00     0.198 A 
ATOM     92  C   UNL A   1      39.157  28.320  30.290  1.00  0.00     0.198 A 
ATOM     93  F   UNL A   1      41.409  27.824  30.761  1.00  0.00    -0.203 F 
ATOM     94  F   UNL A   1      37.597  29.531  27.253  1.00  0.00    -0.200 F 
ATOM     95  C   UNL A   1      38.181  28.751  29.403  1.00  0.00     0.200 A 
ATOM     96  F   UNL A   1      38.821  27.978  31.541  1.00  0.00    -0.200 F 
ATOM     97  F   UNL A   1      36.906  28.845  29.802  1.00  0.00    -0.200 F 
ENDBRANCH  63  87
BRANCH  75  98
ATOM     98  C   UNL A   1      46.263  32.965  28.546  1.00  0.00     0.064 A 
ATOM     99  C   UNL A   1      46.042  34.011  27.638  1.00  0.00     0.173 A 
ATOM    100  C   UNL A   1      46.584  33.301  29.870  1.00  0.00     0.173 A 
ATOM    101  F   UNL A   1      45.749  33.740  26.356  1.00  0.00    -0.203 F 
ATOM    102  C   UNL A   1      46.157  35.340  28.036  1.00  0.00     0.198 A 
ATOM    103  C   UNL A   1      46.673  34.630  30.270  1.00  0.00     0.198 A 
ATOM    104  F   UNL A   1      46.801  32.336  30.777  1.00  0.00    -0.203 F 
ATOM    105  F   UNL A   1      45.981  36.322  27.141  1.00  0.00    -0.200 F 
ATOM    106  C   UNL A   1      46.465  35.648  29.352  1.00  0.00     0.200 A 
ATOM    107  F   UNL A   1      46.961  34.926  31.545  1.00  0.00    -0.200 F 
ATOM    108  F   UNL A   1      46.570  36.928  29.735  1.00  0.00    -0.200 F 
ENDBRANCH  75  98
ENDBRANCH  49  50
ENDBRANCH  41  44
ENDBRANCH  39  40
ENDBRANCH  38  39
ENDBRANCH  37  38
ENDBRANCH  36  37
ENDBRANCH   1  36
TORSDOF 18
ENDMDL
