MODEL 1
REMARK VINA RESULT:     -11.8      0.000      0.000
REMARK SMILES O=C(NCCCCCCNC(=O)c1ccc(-c2c3nc(c(-c4c(F)c(F)c(F)c(F)c4F)c4ccc([nH]4)c(-c4c(F)c(F)c(F)c(F)c4F)c4nc(c(-c5c(F)c(F)c(F)c(F)c5F)c5ccc2[nH]5)C=C4)C=C3)cc1)C1=Cc2cc(C(F)(F)F)ccc2O[C@@H]1C(F)(F)F
REMARK SMILES IDX 7 1 6 2 5 3 4 4 3 5 1 6 2 7 76 9 77 10 89 11 78 12 88 13
REMARK SMILES IDX 79 14 87 15 80 16 86 17 85 18 90 19 91 20 92 21 93 22 81 23
REMARK SMILES IDX 82 24 83 25 84 26 8 27 9 28 10 29 11 30 12 32 13 33 14 34
REMARK SMILES IDX 75 35 15 36 74 37 16 38 17 39 18 40 68 41 19 42 73 43 67 44
REMARK SMILES IDX 69 45 20 46 72 47 66 48 65 49 21 51 53 52 33 53 52 54 34 55
REMARK SMILES IDX 37 56 51 57 70 58 35 59 36 60 50 62 71 63 38 64 22 65 23 66
REMARK SMILES IDX 31 67 24 68 25 69 29 70 32 71 26 72 27 73 30 74 28 75 54 76
REMARK SMILES IDX 55 77 63 78 56 79 57 80 61 81 64 82 58 83 59 84 62 85 60 86
REMARK SMILES IDX 39 87 40 88 48 89 41 90 42 91 46 92 49 93 43 94 44 95 47 96
REMARK SMILES IDX 45 97
REMARK H PARENT 3 8 10 31 69 50 37 61
REMARK Flexibility Score: inf
ROOT
ATOM      1  C   UNL A   1      32.241  27.139  23.894  1.00  0.00     0.002 C 
ENDROOT
BRANCH   1   2
ATOM      2  C   UNL A   1      30.999  27.249  24.787  1.00  0.00     0.002 C 
BRANCH   2   3
ATOM      3  C   UNL A   1      31.026  26.474  26.102  1.00  0.00     0.021 C 
BRANCH   3   4
ATOM      4  C   UNL A   1      30.459  25.061  26.069  1.00  0.00     0.116 C 
BRANCH   4   5
ATOM      5  N   UNL A   1      31.161  24.081  26.876  1.00  0.00    -0.352 N 
ATOM      6  O   UNL A   1      32.848  22.746  27.512  1.00  0.00    -0.270 OA
ATOM      7  C   UNL A   1      32.349  23.447  26.632  1.00  0.00     0.251 C 
ATOM      8  H   UNL A   1      30.718  23.836  27.720  1.00  0.00     0.163 HD
BRANCH   7   9
ATOM      9  C   UNL A   1      33.121  23.637  25.366  1.00  0.00     0.067 C 
ATOM     10  C   UNL A   1      34.224  24.405  25.294  1.00  0.00     0.025 C 
ATOM     11  C   UNL A   1      32.998  22.459  24.423  1.00  0.00     0.314 C 
ATOM     12  C   UNL A   1      35.442  23.557  25.205  1.00  0.00     0.018 A 
ATOM     13  O   UNL A   1      34.164  21.591  24.513  1.00  0.00    -0.475 OA
ATOM     14  C   UNL A   1      36.644  24.078  25.698  1.00  0.00     0.025 A 
ATOM     15  C   UNL A   1      35.332  22.187  24.919  1.00  0.00     0.128 A 
ATOM     16  C   UNL A   1      37.698  23.216  26.033  1.00  0.00     0.056 A 
ATOM     17  C   UNL A   1      36.406  21.337  25.174  1.00  0.00     0.048 A 
ATOM     18  C   UNL A   1      37.573  21.845  25.751  1.00  0.00     0.017 A 
BRANCH  11  19
ATOM     19  C   UNL A   1      32.735  22.883  22.969  1.00  0.00     0.429 C 
ATOM     20  F   UNL A   1      33.891  23.166  22.323  1.00  0.00    -0.167 F 
ATOM     21  F   UNL A   1      32.118  21.905  22.265  1.00  0.00    -0.167 F 
ATOM     22  F   UNL A   1      31.952  23.986  22.888  1.00  0.00    -0.167 F 
ENDBRANCH  11  19
BRANCH  16  23
ATOM     23  C   UNL A   1      38.903  23.755  26.766  1.00  0.00     0.416 C 
ATOM     24  F   UNL A   1      39.652  24.598  26.011  1.00  0.00    -0.166 F 
ATOM     25  F   UNL A   1      38.555  24.453  27.886  1.00  0.00    -0.166 F 
ATOM     26  F   UNL A   1      39.744  22.776  27.204  1.00  0.00    -0.166 F 
ENDBRANCH  16  23
ENDBRANCH   7   9
ENDBRANCH   4   5
ENDBRANCH   3   4
ENDBRANCH   2   3
ENDBRANCH   1   2
BRANCH   1  27
ATOM     27  C   UNL A   1      33.142  28.374  23.799  1.00  0.00     0.021 C 
BRANCH  27  28
ATOM     28  C   UNL A   1      33.755  28.873  25.105  1.00  0.00     0.116 C 
BRANCH  28  29
ATOM     29  N   UNL A   1      33.115  30.073  25.614  1.00  0.00    -0.352 N 
ATOM     30  C   UNL A   1      33.405  30.834  26.720  1.00  0.00     0.251 C 
ATOM     31  H   UNL A   1      32.352  30.392  25.081  1.00  0.00     0.163 HD
ATOM     32  O   UNL A   1      32.651  31.746  27.043  1.00  0.00    -0.269 OA
BRANCH  30  33
ATOM     33  C   UNL A   1      34.602  30.552  27.546  1.00  0.00     0.039 A 
ATOM     34  C   UNL A   1      34.671  29.331  28.225  1.00  0.00     0.014 A 
ATOM     35  C   UNL A   1      35.633  31.484  27.689  1.00  0.00     0.014 A 
ATOM     36  C   UNL A   1      35.794  29.022  28.997  1.00  0.00     0.010 A 
ATOM     37  C   UNL A   1      36.785  31.145  28.398  1.00  0.00     0.010 A 
ATOM     38  C   UNL A   1      36.876  29.914  29.064  1.00  0.00    -0.014 A 
BRANCH  38  39
ATOM     39  C   UNL A   1      38.104  29.573  29.832  1.00  0.00     0.031 A 
ATOM     40  C   UNL A   1      38.326  30.149  31.204  1.00  0.00     0.074 A 
ATOM     41  C   UNL A   1      39.044  28.786  29.271  1.00  0.00     0.049 A 
ATOM     42  N   UNL A   1      39.352  30.010  32.005  1.00  0.00    -0.248 NA
ATOM     43  C   UNL A   1      37.264  31.015  31.738  1.00  0.00     0.031 C 
ATOM     44  C   UNL A   1      38.965  28.198  27.934  1.00  0.00     0.029 A 
ATOM     45  N   UNL A   1      40.253  28.350  29.754  1.00  0.00    -0.354 N 
ATOM     46  C   UNL A   1      39.068  30.784  33.123  1.00  0.00     0.074 A 
ATOM     47  C   UNL A   1      37.797  31.427  32.880  1.00  0.00     0.031 C 
ATOM     48  C   UNL A   1      40.062  27.456  27.713  1.00  0.00     0.029 A 
ATOM     49  C   UNL A   1      40.942  27.550  28.874  1.00  0.00     0.049 A 
ATOM     50  H   UNL A   1      40.594  28.587  30.646  1.00  0.00     0.167 HD
ATOM     51  C   UNL A   1      39.795  30.928  34.258  1.00  0.00     0.037 A 
ATOM     52  C   UNL A   1      42.149  26.964  28.989  1.00  0.00     0.037 A 
ATOM     53  C   UNL A   1      41.045  30.260  34.509  1.00  0.00     0.049 A 
ATOM     54  C   UNL A   1      42.939  27.154  30.257  1.00  0.00     0.074 A 
ATOM     55  C   UNL A   1      41.818  30.280  35.658  1.00  0.00     0.029 A 
ATOM     56  N   UNL A   1      41.708  29.454  33.596  1.00  0.00    -0.354 N 
ATOM     57  N   UNL A   1      42.623  27.823  31.339  1.00  0.00    -0.248 NA
ATOM     58  C   UNL A   1      44.256  26.503  30.319  1.00  0.00     0.031 C 
ATOM     59  C   UNL A   1      42.977  29.537  35.418  1.00  0.00     0.029 A 
ATOM     60  C   UNL A   1      42.898  29.000  34.144  1.00  0.00     0.049 A 
ATOM     61  H   UNL A   1      41.383  29.237  32.692  1.00  0.00     0.167 HD
ATOM     62  C   UNL A   1      43.680  27.643  32.222  1.00  0.00     0.074 A 
ATOM     63  C   UNL A   1      44.641  26.791  31.555  1.00  0.00     0.031 C 
ATOM     64  C   UNL A   1      43.839  28.140  33.473  1.00  0.00     0.037 A 
BRANCH  51  65
ATOM     65  C   UNL A   1      39.261  31.846  35.320  1.00  0.00     0.064 A 
ATOM     66  C   UNL A   1      38.472  31.374  36.380  1.00  0.00     0.173 A 
ATOM     67  C   UNL A   1      39.588  33.212  35.306  1.00  0.00     0.173 A 
ATOM     68  F   UNL A   1      38.123  30.080  36.437  1.00  0.00    -0.203 F 
ATOM     69  C   UNL A   1      38.010  32.238  37.370  1.00  0.00     0.198 A 
ATOM     70  C   UNL A   1      39.150  34.066  36.315  1.00  0.00     0.198 A 
ATOM     71  F   UNL A   1      40.345  33.716  34.319  1.00  0.00    -0.203 F 
ATOM     72  F   UNL A   1      37.219  31.771  38.347  1.00  0.00    -0.200 F 
ATOM     73  C   UNL A   1      38.356  33.580  37.342  1.00  0.00     0.200 A 
ATOM     74  F   UNL A   1      39.500  35.360  36.294  1.00  0.00    -0.200 F 
ATOM     75  F   UNL A   1      37.920  34.407  38.302  1.00  0.00    -0.200 F 
ENDBRANCH  51  65
BRANCH  52  76
ATOM     76  C   UNL A   1      42.683  26.123  27.884  1.00  0.00     0.064 A 
ATOM     77  C   UNL A   1      42.384  24.754  27.815  1.00  0.00     0.173 A 
ATOM     78  C   UNL A   1      43.519  26.657  26.894  1.00  0.00     0.173 A 
ATOM     79  F   UNL A   1      41.607  24.190  28.751  1.00  0.00    -0.203 F 
ATOM     80  C   UNL A   1      42.925  23.948  26.815  1.00  0.00     0.198 A 
ATOM     81  C   UNL A   1      44.032  25.856  25.875  1.00  0.00     0.198 A 
ATOM     82  F   UNL A   1      43.833  27.960  26.910  1.00  0.00    -0.203 F 
ATOM     83  F   UNL A   1      42.669  22.632  26.808  1.00  0.00    -0.200 F 
ATOM     84  C   UNL A   1      43.744  24.501  25.843  1.00  0.00     0.200 A 
ATOM     85  F   UNL A   1      44.812  26.397  24.929  1.00  0.00    -0.200 F 
ATOM     86  F   UNL A   1      44.265  23.725  24.883  1.00  0.00    -0.200 F 
ENDBRANCH  52  76
BRANCH  64  87
ATOM     87  C   UNL A   1      45.076  27.736  34.224  1.00  0.00     0.064 A 
ATOM     88  C   UNL A   1      46.250  28.504  34.182  1.00  0.00     0.173 A 
ATOM     89  C   UNL A   1      45.074  26.586  35.027  1.00  0.00     0.173 A 
ATOM     90  F   UNL A   1      46.309  29.605  33.417  1.00  0.00    -0.203 F 
ATOM     91  C   UNL A   1      47.383  28.118  34.894  1.00  0.00     0.198 A 
ATOM     92  C   UNL A   1      46.196  26.222  35.764  1.00  0.00     0.198 A 
ATOM     93  F   UNL A   1      43.975  25.820  35.108  1.00  0.00    -0.203 F 
ATOM     94  F   UNL A   1      48.509  28.838  34.797  1.00  0.00    -0.200 F 
ATOM     95  C   UNL A   1      47.353  26.984  35.690  1.00  0.00     0.200 A 
ATOM     96  F   UNL A   1      46.160  25.134  36.546  1.00  0.00    -0.200 F 
ATOM     97  F   UNL A   1      48.441  26.619  36.382  1.00  0.00    -0.200 F 
ENDBRANCH  64  87
ENDBRANCH  38  39
ENDBRANCH  30  33
ENDBRANCH  28  29
ENDBRANCH  27  28
ENDBRANCH   1  27
TORSDOF 15
ENDMDL
MODEL 2
REMARK VINA RESULT:     -11.7      2.535      8.346
REMARK SMILES O=C(NCCCCCCNC(=O)c1ccc(-c2c3nc(c(-c4c(F)c(F)c(F)c(F)c4F)c4ccc([nH]4)c(-c4c(F)c(F)c(F)c(F)c4F)c4nc(c(-c5c(F)c(F)c(F)c(F)c5F)c5ccc2[nH]5)C=C4)C=C3)cc1)C1=Cc2cc(C(F)(F)F)ccc2O[C@@H]1C(F)(F)F
REMARK SMILES IDX 7 1 6 2 5 3 4 4 3 5 1 6 2 7 76 9 77 10 89 11 78 12 88 13
REMARK SMILES IDX 79 14 87 15 80 16 86 17 85 18 90 19 91 20 92 21 93 22 81 23
REMARK SMILES IDX 82 24 83 25 84 26 8 27 9 28 10 29 11 30 12 32 13 33 14 34
REMARK SMILES IDX 75 35 15 36 74 37 16 38 17 39 18 40 68 41 19 42 73 43 67 44
REMARK SMILES IDX 69 45 20 46 72 47 66 48 65 49 21 51 53 52 33 53 52 54 34 55
REMARK SMILES IDX 37 56 51 57 70 58 35 59 36 60 50 62 71 63 38 64 22 65 23 66
REMARK SMILES IDX 31 67 24 68 25 69 29 70 32 71 26 72 27 73 30 74 28 75 54 76
REMARK SMILES IDX 55 77 63 78 56 79 57 80 61 81 64 82 58 83 59 84 62 85 60 86
REMARK SMILES IDX 39 87 40 88 48 89 41 90 42 91 46 92 49 93 43 94 44 95 47 96
REMARK SMILES IDX 45 97
REMARK H PARENT 3 8 10 31 69 50 37 61
REMARK Flexibility Score: inf
ROOT
ATOM      1  C   UNL A   1      31.408  30.820  25.971  1.00  0.00     0.002 C 
ENDROOT
BRANCH   1   2
ATOM      2  C   UNL A   1      32.785  30.153  26.082  1.00  0.00     0.002 C 
BRANCH   2   3
ATOM      3  C   UNL A   1      32.804  28.669  26.435  1.00  0.00     0.021 C 
BRANCH   3   4
ATOM      4  C   UNL A   1      31.468  27.940  26.383  1.00  0.00     0.116 C 
BRANCH   4   5
ATOM      5  N   UNL A   1      31.437  26.633  27.010  1.00  0.00    -0.352 N 
ATOM      6  O   UNL A   1      31.463  24.392  27.135  1.00  0.00    -0.270 OA
ATOM      7  C   UNL A   1      31.331  25.396  26.434  1.00  0.00     0.251 C 
ATOM      8  H   UNL A   1      31.500  26.636  27.992  1.00  0.00     0.163 HD
BRANCH   7   9
ATOM      9  C   UNL A   1      31.148  25.203  24.963  1.00  0.00     0.067 C 
ATOM     10  C   UNL A   1      29.997  25.491  24.329  1.00  0.00     0.025 C 
ATOM     11  C   UNL A   1      32.446  25.319  24.192  1.00  0.00     0.314 C 
ATOM     12  C   UNL A   1      30.136  26.745  23.541  1.00  0.00     0.018 A 
ATOM     13  O   UNL A   1      32.578  26.634  23.581  1.00  0.00    -0.475 OA
ATOM     14  C   UNL A   1      28.986  27.508  23.311  1.00  0.00     0.025 A 
ATOM     15  C   UNL A   1      31.406  27.292  23.301  1.00  0.00     0.128 A 
ATOM     16  C   UNL A   1      29.100  28.863  22.967  1.00  0.00     0.056 A 
ATOM     17  C   UNL A   1      31.523  28.614  22.880  1.00  0.00     0.048 A 
ATOM     18  C   UNL A   1      30.378  29.403  22.738  1.00  0.00     0.017 A 
BRANCH  11  19
ATOM     19  C   UNL A   1      32.621  24.204  23.148  1.00  0.00     0.429 C 
ATOM     20  F   UNL A   1      33.929  23.905  22.963  1.00  0.00    -0.167 F 
ATOM     21  F   UNL A   1      32.003  23.061  23.526  1.00  0.00    -0.167 F 
ATOM     22  F   UNL A   1      32.116  24.547  21.938  1.00  0.00    -0.167 F 
ENDBRANCH  11  19
BRANCH  16  23
ATOM     23  C   UNL A   1      27.868  29.735  22.936  1.00  0.00     0.416 C 
ATOM     24  F   UNL A   1      27.626  30.271  21.713  1.00  0.00    -0.166 F 
ATOM     25  F   UNL A   1      26.741  29.046  23.279  1.00  0.00    -0.166 F 
ATOM     26  F   UNL A   1      27.929  30.777  23.811  1.00  0.00    -0.166 F 
ENDBRANCH  16  23
ENDBRANCH   7   9
ENDBRANCH   4   5
ENDBRANCH   3   4
ENDBRANCH   2   3
ENDBRANCH   1   2
BRANCH   1  27
ATOM     27  C   UNL A   1      31.280  32.247  26.512  1.00  0.00     0.021 C 
BRANCH  27  28
ATOM     28  C   UNL A   1      32.518  32.836  27.182  1.00  0.00     0.116 C 
BRANCH  28  29
ATOM     29  N   UNL A   1      32.331  34.207  27.624  1.00  0.00    -0.352 N 
ATOM     30  C   UNL A   1      32.990  34.927  28.589  1.00  0.00     0.251 C 
ATOM     31  H   UNL A   1      31.617  34.698  27.157  1.00  0.00     0.163 HD
ATOM     32  O   UNL A   1      32.584  36.044  28.896  1.00  0.00    -0.269 OA
BRANCH  30  33
ATOM     33  C   UNL A   1      34.169  34.365  29.287  1.00  0.00     0.039 A 
ATOM     34  C   UNL A   1      33.967  33.662  30.478  1.00  0.00     0.014 A 
ATOM     35  C   UNL A   1      35.468  34.552  28.804  1.00  0.00     0.014 A 
ATOM     36  C   UNL A   1      35.054  33.100  31.153  1.00  0.00     0.010 A 
ATOM     37  C   UNL A   1      36.543  33.928  29.436  1.00  0.00     0.010 A 
ATOM     38  C   UNL A   1      36.350  33.201  30.620  1.00  0.00    -0.014 A 
BRANCH  38  39
ATOM     39  C   UNL A   1      37.508  32.556  31.294  1.00  0.00     0.031 A 
ATOM     40  C   UNL A   1      38.252  31.434  30.619  1.00  0.00     0.074 A 
ATOM     41  C   UNL A   1      37.858  32.945  32.536  1.00  0.00     0.049 A 
ATOM     42  N   UNL A   1      39.251  30.716  31.066  1.00  0.00    -0.248 NA
ATOM     43  C   UNL A   1      37.796  31.053  29.274  1.00  0.00     0.031 C 
ATOM     44  C   UNL A   1      37.194  33.992  33.312  1.00  0.00     0.029 A 
ATOM     45  N   UNL A   1      38.858  32.500  33.367  1.00  0.00    -0.354 N 
ATOM     46  C   UNL A   1      39.528  29.790  30.068  1.00  0.00     0.074 A 
ATOM     47  C   UNL A   1      38.564  30.005  29.012  1.00  0.00     0.031 C 
ATOM     48  C   UNL A   1      37.819  34.130  34.492  1.00  0.00     0.029 A 
ATOM     49  C   UNL A   1      38.900  33.153  34.576  1.00  0.00     0.049 A 
ATOM     50  H   UNL A   1      39.484  31.783  33.120  1.00  0.00     0.167 HD
ATOM     51  C   UNL A   1      40.512  28.859  30.029  1.00  0.00     0.037 A 
ATOM     52  C   UNL A   1      39.715  32.978  35.633  1.00  0.00     0.037 A 
ATOM     53  C   UNL A   1      41.491  28.670  31.068  1.00  0.00     0.049 A 
ATOM     54  C   UNL A   1      40.790  31.926  35.565  1.00  0.00     0.074 A 
ATOM     55  C   UNL A   1      42.572  27.807  31.087  1.00  0.00     0.029 A 
ATOM     56  N   UNL A   1      41.503  29.353  32.274  1.00  0.00    -0.354 N 
ATOM     57  N   UNL A   1      41.093  31.111  34.583  1.00  0.00    -0.248 NA
ATOM     58  C   UNL A   1      41.640  31.770  36.755  1.00  0.00     0.031 C 
ATOM     59  C   UNL A   1      43.203  27.924  32.329  1.00  0.00     0.029 A 
ATOM     60  C   UNL A   1      42.555  28.905  33.059  1.00  0.00     0.049 A 
ATOM     61  H   UNL A   1      40.861  30.052  32.536  1.00  0.00     0.167 HD
ATOM     62  C   UNL A   1      42.187  30.376  35.020  1.00  0.00     0.074 A 
ATOM     63  C   UNL A   1      42.504  30.850  36.351  1.00  0.00     0.031 C 
ATOM     64  C   UNL A   1      42.868  29.397  34.376  1.00  0.00     0.037 A 
BRANCH  51  65
ATOM     65  C   UNL A   1      40.582  27.965  28.824  1.00  0.00     0.064 A 
ATOM     66  C   UNL A   1      39.847  26.773  28.743  1.00  0.00     0.173 A 
ATOM     67  C   UNL A   1      41.356  28.333  27.712  1.00  0.00     0.173 A 
ATOM     68  F   UNL A   1      39.099  26.369  29.780  1.00  0.00    -0.203 F 
ATOM     69  C   UNL A   1      39.904  25.971  27.605  1.00  0.00     0.198 A 
ATOM     70  C   UNL A   1      41.386  27.545  26.564  1.00  0.00     0.198 A 
ATOM     71  F   UNL A   1      42.074  29.467  27.733  1.00  0.00    -0.203 F 
ATOM     72  F   UNL A   1      39.229  24.814  27.569  1.00  0.00    -0.200 F 
ATOM     73  C   UNL A   1      40.666  26.361  26.515  1.00  0.00     0.200 A 
ATOM     74  F   UNL A   1      42.110  27.933  25.505  1.00  0.00    -0.200 F 
ATOM     75  F   UNL A   1      40.710  25.595  25.416  1.00  0.00    -0.200 F 
ENDBRANCH  51  65
BRANCH  52  76
ATOM     76  C   UNL A   1      39.567  33.830  36.844  1.00  0.00     0.064 A 
ATOM     77  C   UNL A   1      38.819  33.388  37.946  1.00  0.00     0.173 A 
ATOM     78  C   UNL A   1      40.141  35.107  36.917  1.00  0.00     0.173 A 
ATOM     79  F   UNL A   1      38.231  32.183  37.916  1.00  0.00    -0.203 F 
ATOM     80  C   UNL A   1      38.629  34.203  39.061  1.00  0.00     0.198 A 
ATOM     81  C   UNL A   1      39.978  35.907  38.047  1.00  0.00     0.198 A 
ATOM     82  F   UNL A   1      40.869  35.577  35.894  1.00  0.00    -0.203 F 
ATOM     83  F   UNL A   1      37.862  33.777  40.075  1.00  0.00    -0.200 F 
ATOM     84  C   UNL A   1      39.213  35.458  39.112  1.00  0.00     0.200 A 
ATOM     85  F   UNL A   1      40.556  37.115  38.099  1.00  0.00    -0.200 F 
ATOM     86  F   UNL A   1      39.029  36.241  40.184  1.00  0.00    -0.200 F 
ENDBRANCH  52  76
BRANCH  64  87
ATOM     87  C   UNL A   1      44.054  28.802  35.081  1.00  0.00     0.064 A 
ATOM     88  C   UNL A   1      45.346  29.327  34.924  1.00  0.00     0.173 A 
ATOM     89  C   UNL A   1      43.889  27.718  35.955  1.00  0.00     0.173 A 
ATOM     90  F   UNL A   1      45.561  30.355  34.089  1.00  0.00    -0.203 F 
ATOM     91  C   UNL A   1      46.431  28.769  35.595  1.00  0.00     0.198 A 
ATOM     92  C   UNL A   1      44.969  27.184  36.650  1.00  0.00     0.198 A 
ATOM     93  F   UNL A   1      42.673  27.183  36.147  1.00  0.00    -0.203 F 
ATOM     94  F   UNL A   1      47.664  29.252  35.390  1.00  0.00    -0.200 F 
ATOM     95  C   UNL A   1      46.241  27.704  36.464  1.00  0.00     0.200 A 
ATOM     96  F   UNL A   1      44.781  26.166  37.501  1.00  0.00    -0.200 F 
ATOM     97  F   UNL A   1      47.285  27.174  37.115  1.00  0.00    -0.200 F 
ENDBRANCH  64  87
ENDBRANCH  38  39
ENDBRANCH  30  33
ENDBRANCH  28  29
ENDBRANCH  27  28
ENDBRANCH   1  27
TORSDOF 15
ENDMDL
MODEL 3
REMARK VINA RESULT:     -11.7      0.440      1.738
REMARK SMILES O=C(NCCCCCCNC(=O)c1ccc(-c2c3nc(c(-c4c(F)c(F)c(F)c(F)c4F)c4ccc([nH]4)c(-c4c(F)c(F)c(F)c(F)c4F)c4nc(c(-c5c(F)c(F)c(F)c(F)c5F)c5ccc2[nH]5)C=C4)C=C3)cc1)C1=Cc2cc(C(F)(F)F)ccc2O[C@@H]1C(F)(F)F
REMARK SMILES IDX 7 1 6 2 5 3 4 4 3 5 1 6 2 7 76 9 77 10 89 11 78 12 88 13
REMARK SMILES IDX 79 14 87 15 80 16 86 17 85 18 90 19 91 20 92 21 93 22 81 23
REMARK SMILES IDX 82 24 83 25 84 26 8 27 9 28 10 29 11 30 12 32 13 33 14 34
REMARK SMILES IDX 75 35 15 36 74 37 16 38 17 39 18 40 68 41 19 42 73 43 67 44
REMARK SMILES IDX 69 45 20 46 72 47 66 48 65 49 21 51 53 52 33 53 52 54 34 55
REMARK SMILES IDX 37 56 51 57 70 58 35 59 36 60 50 62 71 63 38 64 22 65 23 66
REMARK SMILES IDX 31 67 24 68 25 69 29 70 32 71 26 72 27 73 30 74 28 75 54 76
REMARK SMILES IDX 55 77 63 78 56 79 57 80 61 81 64 82 58 83 59 84 62 85 60 86
REMARK SMILES IDX 39 87 40 88 48 89 41 90 42 91 46 92 49 93 43 94 44 95 47 96
REMARK SMILES IDX 45 97
REMARK H PARENT 3 8 10 31 69 50 37 61
REMARK Flexibility Score: inf
ROOT
ATOM      1  C   UNL A   1      31.322  28.402  24.536  1.00  0.00     0.002 C 
ENDROOT
BRANCH   1   2
ATOM      2  C   UNL A   1      31.314  26.874  24.669  1.00  0.00     0.002 C 
BRANCH   2   3
ATOM      3  C   UNL A   1      30.826  26.301  25.997  1.00  0.00     0.021 C 
BRANCH   3   4
ATOM      4  C   UNL A   1      30.406  24.837  25.992  1.00  0.00     0.116 C 
BRANCH   4   5
ATOM      5  N   UNL A   1      31.188  23.953  26.835  1.00  0.00    -0.352 N 
ATOM      6  O   UNL A   1      32.987  22.807  27.531  1.00  0.00    -0.270 OA
ATOM      7  C   UNL A   1      32.435  23.431  26.625  1.00  0.00     0.251 C 
ATOM      8  H   UNL A   1      30.758  23.690  27.681  1.00  0.00     0.163 HD
BRANCH   7   9
ATOM      9  C   UNL A   1      33.204  23.660  25.363  1.00  0.00     0.067 C 
ATOM     10  C   UNL A   1      34.292  24.450  25.306  1.00  0.00     0.025 C 
ATOM     11  C   UNL A   1      33.103  22.498  24.397  1.00  0.00     0.314 C 
ATOM     12  C   UNL A   1      35.526  23.627  25.201  1.00  0.00     0.018 A 
ATOM     13  O   UNL A   1      34.285  21.651  24.472  1.00  0.00    -0.475 OA
ATOM     14  C   UNL A   1      36.718  24.161  25.705  1.00  0.00     0.025 A 
ATOM     15  C   UNL A   1      35.442  22.260  24.890  1.00  0.00     0.128 A 
ATOM     16  C   UNL A   1      37.788  23.313  26.025  1.00  0.00     0.056 A 
ATOM     17  C   UNL A   1      36.531  21.427  25.130  1.00  0.00     0.048 A 
ATOM     18  C   UNL A   1      37.689  21.945  25.716  1.00  0.00     0.017 A 
BRANCH  11  19
ATOM     19  C   UNL A   1      32.832  22.944  22.952  1.00  0.00     0.429 C 
ATOM     20  F   UNL A   1      32.113  22.016  22.278  1.00  0.00    -0.167 F 
ATOM     21  F   UNL A   1      32.128  24.099  22.907  1.00  0.00    -0.167 F 
ATOM     22  F   UNL A   1      33.975  23.149  22.253  1.00  0.00    -0.167 F 
ENDBRANCH  11  19
BRANCH  16  23
ATOM     23  C   UNL A   1      38.982  23.860  26.768  1.00  0.00     0.416 C 
ATOM     24  F   UNL A   1      39.676  24.783  26.055  1.00  0.00    -0.166 F 
ATOM     25  F   UNL A   1      38.626  24.470  27.937  1.00  0.00    -0.166 F 
ATOM     26  F   UNL A   1      39.876  22.896  27.128  1.00  0.00    -0.166 F 
ENDBRANCH  16  23
ENDBRANCH   7   9
ENDBRANCH   4   5
ENDBRANCH   3   4
ENDBRANCH   2   3
ENDBRANCH   1   2
BRANCH   1  27
ATOM     27  C   UNL A   1      32.688  29.085  24.425  1.00  0.00     0.021 C 
BRANCH  27  28
ATOM     28  C   UNL A   1      33.387  29.429  25.738  1.00  0.00     0.116 C 
BRANCH  28  29
ATOM     29  N   UNL A   1      33.070  30.761  26.221  1.00  0.00    -0.352 N 
ATOM     30  C   UNL A   1      33.659  31.512  27.208  1.00  0.00     0.251 C 
ATOM     31  H   UNL A   1      32.311  31.195  25.769  1.00  0.00     0.163 HD
ATOM     32  O   UNL A   1      33.149  32.574  27.549  1.00  0.00    -0.269 OA
BRANCH  30  33
ATOM     33  C   UNL A   1      34.889  31.044  27.889  1.00  0.00     0.039 A 
ATOM     34  C   UNL A   1      35.980  31.915  27.968  1.00  0.00     0.014 A 
ATOM     35  C   UNL A   1      34.993  29.753  28.414  1.00  0.00     0.014 A 
ATOM     36  C   UNL A   1      37.149  31.516  28.620  1.00  0.00     0.010 A 
ATOM     37  C   UNL A   1      36.132  29.382  29.129  1.00  0.00     0.010 A 
ATOM     38  C   UNL A   1      37.224  30.256  29.235  1.00  0.00    -0.014 A 
BRANCH  38  39
ATOM     39  C   UNL A   1      38.439  29.839  29.986  1.00  0.00     0.031 A 
ATOM     40  C   UNL A   1      38.687  30.358  31.377  1.00  0.00     0.074 A 
ATOM     41  C   UNL A   1      39.344  29.035  29.395  1.00  0.00     0.049 A 
ATOM     42  N   UNL A   1      39.709  30.151  32.168  1.00  0.00    -0.248 NA
ATOM     43  C   UNL A   1      37.663  31.249  31.944  1.00  0.00     0.031 C 
ATOM     44  C   UNL A   1      39.238  28.497  28.039  1.00  0.00     0.029 A 
ATOM     45  N   UNL A   1      40.536  28.534  29.858  1.00  0.00    -0.354 N 
ATOM     46  C   UNL A   1      39.460  30.897  33.313  1.00  0.00     0.074 A 
ATOM     47  C   UNL A   1      38.215  31.599  33.097  1.00  0.00     0.031 C 
ATOM     48  C   UNL A   1      40.304  27.719  27.788  1.00  0.00     0.029 A 
ATOM     49  C   UNL A   1      41.190  27.737  28.948  1.00  0.00     0.049 A 
ATOM     50  H   UNL A   1      40.889  28.727  30.756  1.00  0.00     0.167 HD
ATOM     51  C   UNL A   1      40.195  30.973  34.449  1.00  0.00     0.037 A 
ATOM     52  C   UNL A   1      42.373  27.100  29.039  1.00  0.00     0.037 A 
ATOM     53  C   UNL A   1      41.418  30.246  34.672  1.00  0.00     0.049 A 
ATOM     54  C   UNL A   1      43.173  27.214  30.308  1.00  0.00     0.074 A 
ATOM     55  C   UNL A   1      42.194  30.197  35.817  1.00  0.00     0.029 A 
ATOM     56  N   UNL A   1      42.045  29.447  33.729  1.00  0.00    -0.354 N 
ATOM     57  N   UNL A   1      42.887  27.858  31.414  1.00  0.00    -0.248 NA
ATOM     58  C   UNL A   1      44.462  26.509  30.344  1.00  0.00     0.031 C 
ATOM     59  C   UNL A   1      43.322  29.416  35.548  1.00  0.00     0.029 A 
ATOM     60  C   UNL A   1      43.218  28.927  34.257  1.00  0.00     0.049 A 
ATOM     61  H   UNL A   1      41.709  29.274  32.820  1.00  0.00     0.167 HD
ATOM     62  C   UNL A   1      43.938  27.605  32.286  1.00  0.00     0.074 A 
ATOM     63  C   UNL A   1      44.862  26.739  31.586  1.00  0.00     0.031 C 
ATOM     64  C   UNL A   1      44.120  28.052  33.553  1.00  0.00     0.037 A 
BRANCH  51  65
ATOM     65  C   UNL A   1      39.702  31.875  35.543  1.00  0.00     0.064 A 
ATOM     66  C   UNL A   1      40.169  33.191  35.685  1.00  0.00     0.173 A 
ATOM     67  C   UNL A   1      38.707  31.436  36.431  1.00  0.00     0.173 A 
ATOM     68  F   UNL A   1      41.126  33.659  34.870  1.00  0.00    -0.203 F 
ATOM     69  C   UNL A   1      39.679  34.022  36.690  1.00  0.00     0.198 A 
ATOM     70  C   UNL A   1      38.196  32.280  37.414  1.00  0.00     0.198 A 
ATOM     71  F   UNL A   1      38.219  30.189  36.336  1.00  0.00    -0.203 F 
ATOM     72  F   UNL A   1      40.174  35.259  36.835  1.00  0.00    -0.200 F 
ATOM     73  C   UNL A   1      38.688  33.569  37.547  1.00  0.00     0.200 A 
ATOM     74  F   UNL A   1      37.226  31.845  38.231  1.00  0.00    -0.200 F 
ATOM     75  F   UNL A   1      38.208  34.374  38.505  1.00  0.00    -0.200 F 
ENDBRANCH  51  65
BRANCH  52  76
ATOM     76  C   UNL A   1      42.869  26.276  27.903  1.00  0.00     0.064 A 
ATOM     77  C   UNL A   1      43.671  26.843  26.901  1.00  0.00     0.173 A 
ATOM     78  C   UNL A   1      42.535  24.920  27.780  1.00  0.00     0.173 A 
ATOM     79  F   UNL A   1      43.999  28.142  26.962  1.00  0.00    -0.203 F 
ATOM     80  C   UNL A   1      44.094  26.092  25.806  1.00  0.00     0.198 A 
ATOM     81  C   UNL A   1      42.987  24.162  26.701  1.00  0.00     0.198 A 
ATOM     82  F   UNL A   1      41.776  24.327  28.712  1.00  0.00    -0.203 F 
ATOM     83  F   UNL A   1      44.810  26.676  24.834  1.00  0.00    -0.200 F 
ATOM     84  C   UNL A   1      43.756  24.752  25.710  1.00  0.00     0.200 A 
ATOM     85  F   UNL A   1      42.671  22.863  26.619  1.00  0.00    -0.200 F 
ATOM     86  F   UNL A   1      44.162  24.031  24.656  1.00  0.00    -0.200 F 
ENDBRANCH  52  76
BRANCH  64  87
ATOM     87  C   UNL A   1      45.343  27.573  34.285  1.00  0.00     0.064 A 
ATOM     88  C   UNL A   1      46.547  28.294  34.262  1.00  0.00     0.173 A 
ATOM     89  C   UNL A   1      45.295  26.398  35.049  1.00  0.00     0.173 A 
ATOM     90  F   UNL A   1      46.649  29.416  33.534  1.00  0.00    -0.203 F 
ATOM     91  C   UNL A   1      47.665  27.838  34.956  1.00  0.00     0.198 A 
ATOM     92  C   UNL A   1      46.404  25.964  35.769  1.00  0.00     0.198 A 
ATOM     93  F   UNL A   1      44.166  25.677  35.111  1.00  0.00    -0.203 F 
ATOM     94  F   UNL A   1      48.819  28.514  34.878  1.00  0.00    -0.200 F 
ATOM     95  C   UNL A   1      47.591  26.680  35.715  1.00  0.00     0.200 A 
ATOM     96  F   UNL A   1      46.325  24.854  36.515  1.00  0.00    -0.200 F 
ATOM     97  F   UNL A   1      48.665  26.248  36.389  1.00  0.00    -0.200 F 
ENDBRANCH  64  87
ENDBRANCH  38  39
ENDBRANCH  30  33
ENDBRANCH  28  29
ENDBRANCH  27  28
ENDBRANCH   1  27
TORSDOF 15
ENDMDL
