MODEL 1
REMARK VINA RESULT:     -11.3      0.000      0.000
REMARK SMILES CCN(C[C@H](C)C(=O)NCCCCCCNC(=O)c1ccc(-c2c3nc(c(-c4c(F)c(F)c(F)c(F)c4F)c4ccc([nH]4)c(-c4c(F)c(F)c(F)c(F)c4F)c4nc(c(-c5c(F)c(F)c(F)c(F)c5F)c5ccc2[nH]5)C=C4)C=C3)cc1)c1ccc(C(=O)NC)nn1
REMARK SMILES IDX 11 1 10 2 9 3 7 4 8 5 5 7 6 8 4 9 3 10 2 11 1 12 82 13 83 14
REMARK SMILES IDX 91 15 84 16 90 17 85 18 86 19 87 20 88 21 89 22 12 24 13 25
REMARK SMILES IDX 14 26 15 27 16 28 17 29 18 31 19 32 20 33 81 34 21 35 80 36
REMARK SMILES IDX 22 37 23 38 24 39 74 40 25 41 79 42 73 43 75 44 26 45 78 46
REMARK SMILES IDX 72 47 71 48 27 50 59 51 39 52 58 53 40 54 43 55 57 56 76 57
REMARK SMILES IDX 41 58 42 59 56 61 77 62 44 63 28 64 29 65 37 66 30 67 31 68
REMARK SMILES IDX 35 69 38 70 32 71 33 72 36 73 34 74 60 75 61 76 69 77 62 78
REMARK SMILES IDX 63 79 67 80 70 81 64 82 65 83 68 84 66 85 45 86 46 87 54 88
REMARK SMILES IDX 47 89 48 90 52 91 55 92 49 93 50 94 53 95 51 96
REMARK H PARENT 9 6 88 23 16 30 75 49 43 60
REMARK Flexibility Score: inf
ROOT
ATOM      1  C   UNL A   1      36.174  23.039  25.225  1.00  0.00     0.021 C 
ENDROOT
BRANCH   1   2
ATOM      2  C   UNL A   1      34.931  23.009  26.098  1.00  0.00     0.116 C 
BRANCH   2   3
ATOM      3  N   UNL A   1      34.152  24.220  26.131  1.00  0.00    -0.356 N 
ATOM      4  C   UNL A   1      32.793  24.333  26.176  1.00  0.00     0.224 C 
ATOM      5  O   UNL A   1      32.334  25.428  26.520  1.00  0.00    -0.275 OA
ATOM      6  H   UNL A   1      34.659  25.064  26.121  1.00  0.00     0.163 HD
BRANCH   4   7
ATOM      7  C   UNL A   1      31.843  23.198  25.781  1.00  0.00     0.095 C 
ATOM      8  C   UNL A   1      30.644  23.051  26.723  1.00  0.00     0.020 C 
BRANCH   7   9
ATOM      9  C   UNL A   1      31.580  22.944  24.278  1.00  0.00     0.131 C 
BRANCH   9  10
ATOM     10  N   UNL A   1      32.478  22.050  23.517  1.00  0.00    -0.355 N 
BRANCH  10  11
ATOM     11  C   UNL A   1      33.272  22.664  22.442  1.00  0.00     0.115 C 
ATOM     12  C   UNL A   1      33.423  24.173  22.587  1.00  0.00     0.027 C 
ENDBRANCH  10  11
BRANCH  10  13
ATOM     13  C   UNL A   1      32.436  20.688  23.765  1.00  0.00     0.151 A 
ATOM     14  C   UNL A   1      32.954  20.110  24.921  1.00  0.00     0.051 A 
ATOM     15  N   UNL A   1      32.030  19.844  22.792  1.00  0.00    -0.132 NA
ATOM     16  C   UNL A   1      33.208  18.735  24.997  1.00  0.00     0.040 A 
ATOM     17  N   UNL A   1      32.315  18.483  22.823  1.00  0.00    -0.143 NA
ATOM     18  C   UNL A   1      32.923  17.953  23.898  1.00  0.00     0.150 A 
BRANCH  18  19
ATOM     19  C   UNL A   1      33.502  16.592  23.731  1.00  0.00     0.271 C 
ATOM     20  O   UNL A   1      34.252  16.357  22.784  1.00  0.00    -0.267 OA
ATOM     21  N   UNL A   1      33.293  15.593  24.653  1.00  0.00    -0.354 N 
ATOM     22  C   UNL A   1      32.367  15.531  25.757  1.00  0.00     0.143 C 
ATOM     23  H   UNL A   1      33.864  14.798  24.543  1.00  0.00     0.163 HD
ENDBRANCH  18  19
ENDBRANCH  10  13
ENDBRANCH   9  10
ENDBRANCH   7   9
ENDBRANCH   4   7
ENDBRANCH   2   3
ENDBRANCH   1   2
BRANCH   1  24
ATOM     24  C   UNL A   1      36.368  21.832  24.309  1.00  0.00     0.002 C 
BRANCH  24  25
ATOM     25  C   UNL A   1      36.555  20.474  24.996  1.00  0.00     0.002 C 
BRANCH  25  26
ATOM     26  C   UNL A   1      37.921  19.802  24.832  1.00  0.00     0.021 C 
BRANCH  26  27
ATOM     27  C   UNL A   1      38.970  20.153  25.882  1.00  0.00     0.116 C 
BRANCH  27  28
ATOM     28  N   UNL A   1      40.057  19.190  25.925  1.00  0.00    -0.352 N 
ATOM     29  C   UNL A   1      41.402  19.381  26.089  1.00  0.00     0.251 C 
ATOM     30  H   UNL A   1      39.782  18.252  25.817  1.00  0.00     0.163 HD
ATOM     31  O   UNL A   1      42.176  18.431  25.931  1.00  0.00    -0.269 OA
BRANCH  29  32
ATOM     32  C   UNL A   1      41.949  20.711  26.432  1.00  0.00     0.039 A 
ATOM     33  C   UNL A   1      42.193  21.619  25.397  1.00  0.00     0.014 A 
ATOM     34  C   UNL A   1      42.263  21.054  27.751  1.00  0.00     0.014 A 
ATOM     35  C   UNL A   1      42.697  22.889  25.687  1.00  0.00     0.010 A 
ATOM     36  C   UNL A   1      42.702  22.345  28.046  1.00  0.00     0.010 A 
ATOM     37  C   UNL A   1      42.926  23.273  27.018  1.00  0.00    -0.014 A 
BRANCH  37  38
ATOM     38  C   UNL A   1      43.400  24.641  27.348  1.00  0.00     0.031 A 
ATOM     39  C   UNL A   1      42.451  25.655  27.924  1.00  0.00     0.074 A 
ATOM     40  C   UNL A   1      44.673  24.987  27.074  1.00  0.00     0.049 A 
ATOM     41  N   UNL A   1      42.661  26.916  28.208  1.00  0.00    -0.248 NA
ATOM     42  C   UNL A   1      41.079  25.199  28.190  1.00  0.00     0.031 C 
ATOM     43  C   UNL A   1      45.679  24.104  26.485  1.00  0.00     0.029 A 
ATOM     44  N   UNL A   1      45.335  26.176  27.249  1.00  0.00    -0.354 N 
ATOM     45  C   UNL A   1      41.447  27.405  28.674  1.00  0.00     0.074 A 
ATOM     46  C   UNL A   1      40.493  26.319  28.585  1.00  0.00     0.031 C 
ATOM     47  C   UNL A   1      46.836  24.775  26.365  1.00  0.00     0.029 A 
ATOM     48  C   UNL A   1      46.644  26.144  26.834  1.00  0.00     0.049 A 
ATOM     49  H   UNL A   1      44.913  26.978  27.635  1.00  0.00     0.167 HD
ATOM     50  C   UNL A   1      41.160  28.639  29.154  1.00  0.00     0.037 A 
ATOM     51  C   UNL A   1      47.582  27.110  26.825  1.00  0.00     0.037 A 
ATOM     52  C   UNL A   1      42.118  29.708  29.266  1.00  0.00     0.049 A 
ATOM     53  C   UNL A   1      47.234  28.476  27.352  1.00  0.00     0.074 A 
ATOM     54  C   UNL A   1      41.938  30.977  29.790  1.00  0.00     0.029 A 
ATOM     55  N   UNL A   1      43.437  29.633  28.845  1.00  0.00    -0.354 N 
ATOM     56  N   UNL A   1      46.098  28.909  27.844  1.00  0.00    -0.248 NA
ATOM     57  C   UNL A   1      48.301  29.487  27.330  1.00  0.00     0.031 C 
ATOM     58  C   UNL A   1      43.136  31.685  29.642  1.00  0.00     0.029 A 
ATOM     59  C   UNL A   1      44.077  30.842  29.075  1.00  0.00     0.049 A 
ATOM     60  H   UNL A   1      43.858  28.839  28.443  1.00  0.00     0.167 HD
ATOM     61  C   UNL A   1      46.321  30.228  28.215  1.00  0.00     0.074 A 
ATOM     62  C   UNL A   1      47.705  30.521  27.904  1.00  0.00     0.031 C 
ATOM     63  C   UNL A   1      45.456  31.116  28.764  1.00  0.00     0.037 A 
BRANCH  50  64
ATOM     64  C   UNL A   1      39.748  28.901  29.595  1.00  0.00     0.064 A 
ATOM     65  C   UNL A   1      39.335  28.678  30.916  1.00  0.00     0.173 A 
ATOM     66  C   UNL A   1      38.805  29.418  28.692  1.00  0.00     0.173 A 
ATOM     67  F   UNL A   1      40.194  28.176  31.817  1.00  0.00    -0.203 F 
ATOM     68  C   UNL A   1      38.022  28.931  31.311  1.00  0.00     0.198 A 
ATOM     69  C   UNL A   1      37.503  29.699  29.097  1.00  0.00     0.198 A 
ATOM     70  F   UNL A   1      39.149  29.657  27.418  1.00  0.00    -0.203 F 
ATOM     71  F   UNL A   1      37.639  28.660  32.566  1.00  0.00    -0.200 F 
ATOM     72  C   UNL A   1      37.110  29.447  30.403  1.00  0.00     0.200 A 
ATOM     73  F   UNL A   1      36.627  30.212  28.222  1.00  0.00    -0.200 F 
ATOM     74  F   UNL A   1      35.850  29.697  30.785  1.00  0.00    -0.200 F 
ENDBRANCH  50  64
BRANCH  51  75
ATOM     75  C   UNL A   1      48.946  26.814  26.318  1.00  0.00     0.064 A 
ATOM     76  C   UNL A   1      49.283  27.055  24.978  1.00  0.00     0.173 A 
ATOM     77  C   UNL A   1      49.939  26.285  27.155  1.00  0.00     0.173 A 
ATOM     78  F   UNL A   1      48.362  27.543  24.134  1.00  0.00    -0.203 F 
ATOM     79  C   UNL A   1      50.555  26.762  24.492  1.00  0.00     0.198 A 
ATOM     80  C   UNL A   1      51.219  26.018  26.674  1.00  0.00     0.198 A 
ATOM     81  F   UNL A   1      49.669  26.042  28.447  1.00  0.00    -0.203 F 
ATOM     82  F   UNL A   1      50.838  26.962  23.197  1.00  0.00    -0.200 F 
ATOM     83  C   UNL A   1      51.524  26.249  25.342  1.00  0.00     0.200 A 
ATOM     84  F   UNL A   1      52.156  25.538  27.503  1.00  0.00    -0.200 F 
ATOM     85  F   UNL A   1      52.749  25.971  24.875  1.00  0.00    -0.200 F 
ENDBRANCH  51  75
BRANCH  63  86
ATOM     86  C   UNL A   1      45.990  32.480  29.095  1.00  0.00     0.064 A 
ATOM     87  C   UNL A   1      45.923  33.540  28.179  1.00  0.00     0.173 A 
ATOM     88  C   UNL A   1      46.541  32.739  30.361  1.00  0.00     0.173 A 
ATOM     89  F   UNL A   1      45.422  33.340  26.951  1.00  0.00    -0.203 F 
ATOM     90  C   UNL A   1      46.410  34.802  28.508  1.00  0.00     0.198 A 
ATOM     91  C   UNL A   1      46.998  34.009  30.697  1.00  0.00     0.198 A 
ATOM     92  F   UNL A   1      46.622  31.762  31.275  1.00  0.00    -0.203 F 
ATOM     93  F   UNL A   1      46.381  35.787  27.600  1.00  0.00    -0.200 F 
ATOM     94  C   UNL A   1      46.940  35.038  29.768  1.00  0.00     0.200 A 
ATOM     95  F   UNL A   1      47.497  34.239  31.919  1.00  0.00    -0.200 F 
ATOM     96  F   UNL A   1      47.402  36.255  30.085  1.00  0.00    -0.200 F 
ENDBRANCH  63  86
ENDBRANCH  37  38
ENDBRANCH  29  32
ENDBRANCH  27  28
ENDBRANCH  26  27
ENDBRANCH  25  26
ENDBRANCH  24  25
ENDBRANCH   1  24
TORSDOF 18
ENDMDL
MODEL 2
REMARK VINA RESULT:     -11.1      5.872     11.399
REMARK SMILES CCN(C[C@H](C)C(=O)NCCCCCCNC(=O)c1ccc(-c2c3nc(c(-c4c(F)c(F)c(F)c(F)c4F)c4ccc([nH]4)c(-c4c(F)c(F)c(F)c(F)c4F)c4nc(c(-c5c(F)c(F)c(F)c(F)c5F)c5ccc2[nH]5)C=C4)C=C3)cc1)c1ccc(C(=O)NC)nn1
REMARK SMILES IDX 11 1 10 2 9 3 7 4 8 5 5 7 6 8 4 9 3 10 2 11 1 12 82 13 83 14
REMARK SMILES IDX 91 15 84 16 90 17 85 18 86 19 87 20 88 21 89 22 12 24 13 25
REMARK SMILES IDX 14 26 15 27 16 28 17 29 18 31 19 32 20 33 81 34 21 35 80 36
REMARK SMILES IDX 22 37 23 38 24 39 74 40 25 41 79 42 73 43 75 44 26 45 78 46
REMARK SMILES IDX 72 47 71 48 27 50 59 51 39 52 58 53 40 54 43 55 57 56 76 57
REMARK SMILES IDX 41 58 42 59 56 61 77 62 44 63 28 64 29 65 37 66 30 67 31 68
REMARK SMILES IDX 35 69 38 70 32 71 33 72 36 73 34 74 60 75 61 76 69 77 62 78
REMARK SMILES IDX 63 79 67 80 70 81 64 82 65 83 68 84 66 85 45 86 46 87 54 88
REMARK SMILES IDX 47 89 48 90 52 91 55 92 49 93 50 94 53 95 51 96
REMARK H PARENT 9 6 88 23 16 30 75 49 43 60
REMARK Flexibility Score: inf
ROOT
ATOM      1  C   UNL A   1      33.301  29.455  26.016  1.00  0.00     0.021 C 
ENDROOT
BRANCH   1   2
ATOM      2  C   UNL A   1      33.821  28.190  26.676  1.00  0.00     0.116 C 
BRANCH   2   3
ATOM      3  N   UNL A   1      32.927  27.060  26.673  1.00  0.00    -0.356 N 
ATOM      4  C   UNL A   1      33.058  25.900  25.968  1.00  0.00     0.224 C 
ATOM      5  O   UNL A   1      32.372  24.940  26.339  1.00  0.00    -0.275 OA
ATOM      6  H   UNL A   1      32.130  27.135  27.245  1.00  0.00     0.163 HD
BRANCH   4   7
ATOM      7  C   UNL A   1      33.964  25.760  24.741  1.00  0.00     0.095 C 
ATOM      8  C   UNL A   1      34.617  24.380  24.619  1.00  0.00     0.020 C 
BRANCH   7   9
ATOM      9  C   UNL A   1      33.531  26.442  23.422  1.00  0.00     0.131 C 
BRANCH   9  10
ATOM     10  N   UNL A   1      32.131  26.325  22.961  1.00  0.00    -0.355 N 
BRANCH  10  11
ATOM     11  C   UNL A   1      31.734  25.044  22.358  1.00  0.00     0.115 C 
ATOM     12  C   UNL A   1      31.137  24.063  23.359  1.00  0.00     0.027 C 
ENDBRANCH  10  11
BRANCH  10  13
ATOM     13  C   UNL A   1      31.314  27.443  23.006  1.00  0.00     0.151 A 
ATOM     14  C   UNL A   1      30.045  27.435  23.578  1.00  0.00     0.051 A 
ATOM     15  N   UNL A   1      31.670  28.557  22.330  1.00  0.00    -0.132 NA
ATOM     16  C   UNL A   1      29.120  28.453  23.313  1.00  0.00     0.040 A 
ATOM     17  N   UNL A   1      30.756  29.557  22.013  1.00  0.00    -0.143 NA
ATOM     18  C   UNL A   1      29.497  29.480  22.474  1.00  0.00     0.150 A 
BRANCH  18  19
ATOM     19  C   UNL A   1      28.497  30.375  21.831  1.00  0.00     0.271 C 
ATOM     20  O   UNL A   1      27.976  30.045  20.766  1.00  0.00    -0.267 OA
ATOM     21  N   UNL A   1      28.065  31.536  22.429  1.00  0.00    -0.354 N 
ATOM     22  C   UNL A   1      28.588  32.236  23.577  1.00  0.00     0.143 C 
ATOM     23  H   UNL A   1      27.278  31.953  22.010  1.00  0.00     0.163 HD
ENDBRANCH  18  19
ENDBRANCH  10  13
ENDBRANCH   9  10
ENDBRANCH   7   9
ENDBRANCH   4   7
ENDBRANCH   2   3
ENDBRANCH   1   2
BRANCH   1  24
ATOM     24  C   UNL A   1      31.827  29.772  26.264  1.00  0.00     0.002 C 
BRANCH  24  25
ATOM     25  C   UNL A   1      31.288  31.061  25.630  1.00  0.00     0.002 C 
BRANCH  25  26
ATOM     26  C   UNL A   1      31.122  32.267  26.558  1.00  0.00     0.021 C 
BRANCH  26  27
ATOM     27  C   UNL A   1      32.401  32.802  27.194  1.00  0.00     0.116 C 
BRANCH  27  28
ATOM     28  N   UNL A   1      32.295  34.204  27.561  1.00  0.00    -0.352 N 
ATOM     29  C   UNL A   1      32.995  34.933  28.482  1.00  0.00     0.251 C 
ATOM     30  H   UNL A   1      31.608  34.708  27.068  1.00  0.00     0.163 HD
ATOM     31  O   UNL A   1      32.632  36.082  28.754  1.00  0.00    -0.269 OA
BRANCH  29  32
ATOM     32  C   UNL A   1      34.167  34.362  29.177  1.00  0.00     0.039 A 
ATOM     33  C   UNL A   1      33.951  33.556  30.300  1.00  0.00     0.014 A 
ATOM     34  C   UNL A   1      35.473  34.646  28.763  1.00  0.00     0.014 A 
ATOM     35  C   UNL A   1      35.036  32.989  30.972  1.00  0.00     0.010 A 
ATOM     36  C   UNL A   1      36.552  34.027  29.394  1.00  0.00     0.010 A 
ATOM     37  C   UNL A   1      36.345  33.195  30.505  1.00  0.00    -0.014 A 
BRANCH  37  38
ATOM     38  C   UNL A   1      37.504  32.547  31.169  1.00  0.00     0.031 A 
ATOM     39  C   UNL A   1      38.237  31.423  30.491  1.00  0.00     0.074 A 
ATOM     40  C   UNL A   1      37.860  32.933  32.410  1.00  0.00     0.049 A 
ATOM     41  N   UNL A   1      39.224  30.689  30.941  1.00  0.00    -0.248 NA
ATOM     42  C   UNL A   1      37.785  31.060  29.140  1.00  0.00     0.031 C 
ATOM     43  C   UNL A   1      37.206  33.988  33.185  1.00  0.00     0.029 A 
ATOM     44  N   UNL A   1      38.855  32.479  33.239  1.00  0.00    -0.354 N 
ATOM     45  C   UNL A   1      39.501  29.772  29.936  1.00  0.00     0.074 A 
ATOM     46  C   UNL A   1      38.544  30.007  28.874  1.00  0.00     0.031 C 
ATOM     47  C   UNL A   1      37.829  34.113  34.368  1.00  0.00     0.029 A 
ATOM     48  C   UNL A   1      38.900  33.125  34.450  1.00  0.00     0.049 A 
ATOM     49  H   UNL A   1      39.477  31.757  32.990  1.00  0.00     0.167 HD
ATOM     50  C   UNL A   1      40.478  28.833  29.892  1.00  0.00     0.037 A 
ATOM     51  C   UNL A   1      39.709  32.938  35.510  1.00  0.00     0.037 A 
ATOM     52  C   UNL A   1      41.443  28.619  30.938  1.00  0.00     0.049 A 
ATOM     53  C   UNL A   1      40.778  31.881  35.441  1.00  0.00     0.074 A 
ATOM     54  C   UNL A   1      42.505  27.731  30.964  1.00  0.00     0.029 A 
ATOM     55  N   UNL A   1      41.463  29.301  32.146  1.00  0.00    -0.354 N 
ATOM     56  N   UNL A   1      41.066  31.059  34.461  1.00  0.00    -0.248 NA
ATOM     57  C   UNL A   1      41.639  31.731  36.623  1.00  0.00     0.031 C 
ATOM     58  C   UNL A   1      43.138  27.843  32.207  1.00  0.00     0.029 A 
ATOM     59  C   UNL A   1      42.505  28.837  32.935  1.00  0.00     0.049 A 
ATOM     60  H   UNL A   1      40.832  30.011  32.405  1.00  0.00     0.167 HD
ATOM     61  C   UNL A   1      42.156  30.316  34.894  1.00  0.00     0.074 A 
ATOM     62  C   UNL A   1      42.486  30.794  36.221  1.00  0.00     0.031 C 
ATOM     63  C   UNL A   1      42.823  29.327  34.251  1.00  0.00     0.037 A 
BRANCH  50  64
ATOM     64  C   UNL A   1      40.550  27.964  28.669  1.00  0.00     0.064 A 
ATOM     65  C   UNL A   1      41.301  28.333  27.545  1.00  0.00     0.173 A 
ATOM     66  C   UNL A   1      39.888  26.726  28.636  1.00  0.00     0.173 A 
ATOM     67  F   UNL A   1      41.946  29.511  27.521  1.00  0.00    -0.203 F 
ATOM     68  C   UNL A   1      41.363  27.513  26.420  1.00  0.00     0.198 A 
ATOM     69  C   UNL A   1      39.976  25.894  27.523  1.00  0.00     0.198 A 
ATOM     70  F   UNL A   1      39.160  26.320  29.687  1.00  0.00    -0.203 F 
ATOM     71  F   UNL A   1      42.046  27.913  25.339  1.00  0.00    -0.200 F 
ATOM     72  C   UNL A   1      40.706  26.292  26.413  1.00  0.00     0.200 A 
ATOM     73  F   UNL A   1      39.353  24.708  27.524  1.00  0.00    -0.200 F 
ATOM     74  F   UNL A   1      40.771  25.500  25.333  1.00  0.00    -0.200 F 
ENDBRANCH  50  64
BRANCH  51  75
ATOM     75  C   UNL A   1      39.552  33.784  36.721  1.00  0.00     0.064 A 
ATOM     76  C   UNL A   1      38.773  33.352  37.805  1.00  0.00     0.173 A 
ATOM     77  C   UNL A   1      40.172  35.038  36.822  1.00  0.00     0.173 A 
ATOM     78  F   UNL A   1      38.145  32.169  37.746  1.00  0.00    -0.203 F 
ATOM     79  C   UNL A   1      38.606  34.150  38.934  1.00  0.00     0.198 A 
ATOM     80  C   UNL A   1      40.028  35.822  37.965  1.00  0.00     0.198 A 
ATOM     81  F   UNL A   1      40.933  35.494  35.816  1.00  0.00    -0.203 F 
ATOM     82  F   UNL A   1      37.822  33.732  39.937  1.00  0.00    -0.200 F 
ATOM     83  C   UNL A   1      39.238  35.382  39.016  1.00  0.00     0.200 A 
ATOM     84  F   UNL A   1      40.654  37.004  38.045  1.00  0.00    -0.200 F 
ATOM     85  F   UNL A   1      39.082  36.147  40.105  1.00  0.00    -0.200 F 
ENDBRANCH  51  75
BRANCH  63  86
ATOM     86  C   UNL A   1      43.999  28.717  34.959  1.00  0.00     0.064 A 
ATOM     87  C   UNL A   1      43.861  27.586  35.777  1.00  0.00     0.173 A 
ATOM     88  C   UNL A   1      45.287  29.249  34.785  1.00  0.00     0.173 A 
ATOM     89  F   UNL A   1      42.650  27.051  35.989  1.00  0.00    -0.203 F 
ATOM     90  C   UNL A   1      44.965  27.025  36.414  1.00  0.00     0.198 A 
ATOM     91  C   UNL A   1      46.392  28.668  35.399  1.00  0.00     0.198 A 
ATOM     92  F   UNL A   1      45.473  30.326  34.008  1.00  0.00    -0.203 F 
ATOM     93  F   UNL A   1      44.802  25.975  37.230  1.00  0.00    -0.200 F 
ATOM     94  C   UNL A   1      46.229  27.561  36.219  1.00  0.00     0.200 A 
ATOM     95  F   UNL A   1      47.614  29.178  35.198  1.00  0.00    -0.200 F 
ATOM     96  F   UNL A   1      47.291  27.016  36.828  1.00  0.00    -0.200 F 
ENDBRANCH  63  86
ENDBRANCH  37  38
ENDBRANCH  29  32
ENDBRANCH  27  28
ENDBRANCH  26  27
ENDBRANCH  25  26
ENDBRANCH  24  25
ENDBRANCH   1  24
TORSDOF 18
ENDMDL
MODEL 3
REMARK VINA RESULT:     -11.1      5.968     11.413
REMARK SMILES CCN(C[C@H](C)C(=O)NCCCCCCNC(=O)c1ccc(-c2c3nc(c(-c4c(F)c(F)c(F)c(F)c4F)c4ccc([nH]4)c(-c4c(F)c(F)c(F)c(F)c4F)c4nc(c(-c5c(F)c(F)c(F)c(F)c5F)c5ccc2[nH]5)C=C4)C=C3)cc1)c1ccc(C(=O)NC)nn1
REMARK SMILES IDX 11 1 10 2 9 3 7 4 8 5 5 7 6 8 4 9 3 10 2 11 1 12 82 13 83 14
REMARK SMILES IDX 91 15 84 16 90 17 85 18 86 19 87 20 88 21 89 22 12 24 13 25
REMARK SMILES IDX 14 26 15 27 16 28 17 29 18 31 19 32 20 33 81 34 21 35 80 36
REMARK SMILES IDX 22 37 23 38 24 39 74 40 25 41 79 42 73 43 75 44 26 45 78 46
REMARK SMILES IDX 72 47 71 48 27 50 59 51 39 52 58 53 40 54 43 55 57 56 76 57
REMARK SMILES IDX 41 58 42 59 56 61 77 62 44 63 28 64 29 65 37 66 30 67 31 68
REMARK SMILES IDX 35 69 38 70 32 71 33 72 36 73 34 74 60 75 61 76 69 77 62 78
REMARK SMILES IDX 63 79 67 80 70 81 64 82 65 83 68 84 66 85 45 86 46 87 54 88
REMARK SMILES IDX 47 89 48 90 52 91 55 92 49 93 50 94 53 95 51 96
REMARK H PARENT 9 6 88 23 16 30 75 49 43 60
REMARK Flexibility Score: inf
ROOT
ATOM      1  C   UNL A   1      33.448  29.430  26.103  1.00  0.00     0.021 C 
ENDROOT
BRANCH   1   2
ATOM      2  C   UNL A   1      34.006  28.119  26.628  1.00  0.00     0.116 C 
BRANCH   2   3
ATOM      3  N   UNL A   1      33.086  27.011  26.671  1.00  0.00    -0.356 N 
ATOM      4  C   UNL A   1      33.151  25.848  25.961  1.00  0.00     0.224 C 
ATOM      5  O   UNL A   1      32.462  24.906  26.368  1.00  0.00    -0.275 OA
ATOM      6  H   UNL A   1      32.321  27.105  27.284  1.00  0.00     0.163 HD
BRANCH   4   7
ATOM      7  C   UNL A   1      33.989  25.688  24.689  1.00  0.00     0.095 C 
ATOM      8  C   UNL A   1      34.573  24.283  24.516  1.00  0.00     0.020 C 
BRANCH   7   9
ATOM      9  C   UNL A   1      33.521  26.408  23.401  1.00  0.00     0.131 C 
BRANCH   9  10
ATOM     10  N   UNL A   1      32.110  26.301  22.973  1.00  0.00    -0.355 N 
BRANCH  10  11
ATOM     11  C   UNL A   1      31.678  25.007  22.422  1.00  0.00     0.115 C 
ATOM     12  C   UNL A   1      30.866  24.174  23.404  1.00  0.00     0.027 C 
ENDBRANCH  10  11
BRANCH  10  13
ATOM     13  C   UNL A   1      31.315  27.435  22.994  1.00  0.00     0.151 A 
ATOM     14  C   UNL A   1      30.829  27.999  24.170  1.00  0.00     0.051 A 
ATOM     15  N   UNL A   1      30.842  27.941  21.835  1.00  0.00    -0.132 NA
ATOM     16  C   UNL A   1      29.771  28.917  24.154  1.00  0.00     0.040 A 
ATOM     17  N   UNL A   1      29.760  28.815  21.793  1.00  0.00    -0.143 NA
ATOM     18  C   UNL A   1      29.221  29.264  22.939  1.00  0.00     0.150 A 
BRANCH  18  19
ATOM     19  C   UNL A   1      27.881  29.904  22.837  1.00  0.00     0.271 C 
ATOM     20  O   UNL A   1      26.870  29.256  23.113  1.00  0.00    -0.267 OA
ATOM     21  N   UNL A   1      27.729  31.234  22.521  1.00  0.00    -0.354 N 
ATOM     22  C   UNL A   1      28.694  32.181  22.018  1.00  0.00     0.143 C 
ATOM     23  H   UNL A   1      26.824  31.595  22.659  1.00  0.00     0.163 HD
ENDBRANCH  18  19
ENDBRANCH  10  13
ENDBRANCH   9  10
ENDBRANCH   7   9
ENDBRANCH   4   7
ENDBRANCH   2   3
ENDBRANCH   1   2
BRANCH   1  24
ATOM     24  C   UNL A   1      32.199  29.949  26.814  1.00  0.00     0.002 C 
BRANCH  24  25
ATOM     25  C   UNL A   1      31.461  31.113  26.139  1.00  0.00     0.002 C 
BRANCH  25  26
ATOM     26  C   UNL A   1      31.341  32.410  26.944  1.00  0.00     0.021 C 
BRANCH  26  27
ATOM     27  C   UNL A   1      32.646  33.152  27.214  1.00  0.00     0.116 C 
BRANCH  27  28
ATOM     28  N   UNL A   1      32.426  34.484  27.750  1.00  0.00    -0.352 N 
ATOM     29  C   UNL A   1      33.029  35.128  28.795  1.00  0.00     0.251 C 
ATOM     30  H   UNL A   1      31.732  35.006  27.288  1.00  0.00     0.163 HD
ATOM     31  O   UNL A   1      32.576  36.208  29.190  1.00  0.00    -0.269 OA
BRANCH  29  32
ATOM     32  C   UNL A   1      34.203  34.544  29.478  1.00  0.00     0.039 A 
ATOM     33  C   UNL A   1      34.008  33.884  30.695  1.00  0.00     0.014 A 
ATOM     34  C   UNL A   1      35.494  34.677  28.955  1.00  0.00     0.014 A 
ATOM     35  C   UNL A   1      35.094  33.309  31.359  1.00  0.00     0.010 A 
ATOM     36  C   UNL A   1      36.567  34.046  29.584  1.00  0.00     0.010 A 
ATOM     37  C   UNL A   1      36.378  33.358  30.793  1.00  0.00    -0.014 A 
BRANCH  37  38
ATOM     38  C   UNL A   1      37.531  32.696  31.454  1.00  0.00     0.031 A 
ATOM     39  C   UNL A   1      38.242  31.556  30.778  1.00  0.00     0.074 A 
ATOM     40  C   UNL A   1      37.901  33.085  32.690  1.00  0.00     0.049 A 
ATOM     41  N   UNL A   1      39.219  30.809  31.227  1.00  0.00    -0.248 NA
ATOM     42  C   UNL A   1      37.775  31.192  29.433  1.00  0.00     0.031 C 
ATOM     43  C   UNL A   1      37.269  34.154  33.463  1.00  0.00     0.029 A 
ATOM     44  N   UNL A   1      38.894  32.619  33.516  1.00  0.00    -0.354 N 
ATOM     45  C   UNL A   1      39.475  29.881  30.225  1.00  0.00     0.074 A 
ATOM     46  C   UNL A   1      38.515  30.126  29.169  1.00  0.00     0.031 C 
ATOM     47  C   UNL A   1      37.901  34.277  34.641  1.00  0.00     0.029 A 
ATOM     48  C   UNL A   1      38.957  33.272  34.722  1.00  0.00     0.049 A 
ATOM     49  H   UNL A   1      39.503  31.886  33.267  1.00  0.00     0.167 HD
ATOM     50  C   UNL A   1      40.436  28.927  30.181  1.00  0.00     0.037 A 
ATOM     51  C   UNL A   1      39.770  33.078  35.778  1.00  0.00     0.037 A 
ATOM     52  C   UNL A   1      41.404  28.704  31.223  1.00  0.00     0.049 A 
ATOM     53  C   UNL A   1      40.821  32.004  35.709  1.00  0.00     0.074 A 
ATOM     54  C   UNL A   1      42.452  27.799  31.248  1.00  0.00     0.029 A 
ATOM     55  N   UNL A   1      41.444  29.393  32.426  1.00  0.00    -0.354 N 
ATOM     56  N   UNL A   1      41.090  31.171  34.732  1.00  0.00    -0.248 NA
ATOM     57  C   UNL A   1      41.687  31.847  36.886  1.00  0.00     0.031 C 
ATOM     58  C   UNL A   1      43.095  27.909  32.485  1.00  0.00     0.029 A 
ATOM     59  C   UNL A   1      42.483  28.917  33.211  1.00  0.00     0.049 A 
ATOM     60  H   UNL A   1      40.825  30.115  32.684  1.00  0.00     0.167 HD
ATOM     61  C   UNL A   1      42.171  30.414  35.163  1.00  0.00     0.074 A 
ATOM     62  C   UNL A   1      42.517  30.895  36.485  1.00  0.00     0.031 C 
ATOM     63  C   UNL A   1      42.818  29.410  34.522  1.00  0.00     0.037 A 
BRANCH  50  64
ATOM     64  C   UNL A   1      40.486  28.049  28.964  1.00  0.00     0.064 A 
ATOM     65  C   UNL A   1      39.770  26.845  28.893  1.00  0.00     0.173 A 
ATOM     66  C   UNL A   1      41.231  28.435  27.838  1.00  0.00     0.173 A 
ATOM     67  F   UNL A   1      39.050  26.425  29.945  1.00  0.00    -0.203 F 
ATOM     68  C   UNL A   1      39.822  26.044  27.754  1.00  0.00     0.198 A 
ATOM     69  C   UNL A   1      41.256  27.648  26.690  1.00  0.00     0.198 A 
ATOM     70  F   UNL A   1      41.929  29.580  27.849  1.00  0.00    -0.203 F 
ATOM     71  F   UNL A   1      39.171  24.873  27.731  1.00  0.00    -0.200 F 
ATOM     72  C   UNL A   1      40.559  26.449  26.652  1.00  0.00     0.200 A 
ATOM     73  F   UNL A   1      41.957  28.048  25.620  1.00  0.00    -0.200 F 
ATOM     74  F   UNL A   1      40.604  25.681  25.554  1.00  0.00    -0.200 F 
ENDBRANCH  50  64
BRANCH  51  75
ATOM     75  C   UNL A   1      39.634  33.935  36.985  1.00  0.00     0.064 A 
ATOM     76  C   UNL A   1      40.274  35.180  37.059  1.00  0.00     0.173 A 
ATOM     77  C   UNL A   1      38.865  33.530  38.086  1.00  0.00     0.173 A 
ATOM     78  F   UNL A   1      41.035  35.602  36.039  1.00  0.00    -0.203 F 
ATOM     79  C   UNL A   1      40.166  35.978  38.195  1.00  0.00     0.198 A 
ATOM     80  C   UNL A   1      38.735  34.342  39.210  1.00  0.00     0.198 A 
ATOM     81  F   UNL A   1      38.227  32.349  38.061  1.00  0.00    -0.203 F 
ATOM     82  F   UNL A   1      40.823  37.144  38.257  1.00  0.00    -0.200 F 
ATOM     83  C   UNL A   1      39.391  35.561  39.268  1.00  0.00     0.200 A 
ATOM     84  F   UNL A   1      37.972  33.941  40.237  1.00  0.00    -0.200 F 
ATOM     85  F   UNL A   1      39.283  36.332  40.359  1.00  0.00    -0.200 F 
ENDBRANCH  51  75
BRANCH  63  86
ATOM     86  C   UNL A   1      43.987  28.786  35.226  1.00  0.00     0.064 A 
ATOM     87  C   UNL A   1      45.297  29.248  35.031  1.00  0.00     0.173 A 
ATOM     88  C   UNL A   1      43.790  27.736  36.138  1.00  0.00     0.173 A 
ATOM     89  F   UNL A   1      45.541  30.236  34.157  1.00  0.00    -0.203 F 
ATOM     90  C   UNL A   1      46.369  28.666  35.704  1.00  0.00     0.198 A 
ATOM     91  C   UNL A   1      44.859  27.178  36.832  1.00  0.00     0.198 A 
ATOM     92  F   UNL A   1      42.556  27.263  36.366  1.00  0.00    -0.203 F 
ATOM     93  F   UNL A   1      47.617  29.091  35.465  1.00  0.00    -0.200 F 
ATOM     94  C   UNL A   1      46.149  27.638  36.608  1.00  0.00     0.200 A 
ATOM     95  F   UNL A   1      44.644  26.194  37.715  1.00  0.00    -0.200 F 
ATOM     96  F   UNL A   1      47.181  27.084  37.259  1.00  0.00    -0.200 F 
ENDBRANCH  63  86
ENDBRANCH  37  38
ENDBRANCH  29  32
ENDBRANCH  27  28
ENDBRANCH  26  27
ENDBRANCH  25  26
ENDBRANCH  24  25
ENDBRANCH   1  24
TORSDOF 18
ENDMDL
