MODEL 1
REMARK VINA RESULT:     -11.8      0.000      0.000
REMARK SMILES CN(C)c1cccc(C(C)(C)C(=O)NCCCCCCNC(=O)c2ccc(-c3c4nc(c(-c5c(F)c(F)c(F)c(F)c5F)c5ccc([nH]5)c(-c5c(F)c(F)c(F)c(F)c5F)c5nc(c(-c6c(F)c(F)c(F)c(F)c6F)c6ccc3[nH]6)C=C5)C=C4)cc2)c1
REMARK SMILES IDX 17 1 16 2 15 3 14 4 12 5 13 6 9 8 10 9 11 10 8 11 4 12 5 13
REMARK SMILES IDX 87 14 6 15 7 16 2 17 1 18 3 19 18 20 19 21 20 22 21 23 22 24
REMARK SMILES IDX 23 26 24 27 25 28 86 29 26 30 85 31 27 32 28 33 29 34 79 35
REMARK SMILES IDX 30 36 84 37 78 38 80 39 31 40 83 41 77 42 76 43 32 45 64 46
REMARK SMILES IDX 44 47 63 48 45 49 48 50 62 51 81 52 46 53 47 54 61 56 82 57
REMARK SMILES IDX 49 58 33 59 34 60 42 61 35 62 36 63 40 64 43 65 37 66 38 67
REMARK SMILES IDX 41 68 39 69 65 70 66 71 74 72 67 73 68 74 72 75 75 76 69 77
REMARK SMILES IDX 70 78 73 79 71 80 50 81 51 82 59 83 52 84 53 85 57 86 60 87
REMARK SMILES IDX 54 88 55 89 58 90 56 91
REMARK H PARENT 14 7 21 25 80 44 48 55
REMARK Flexibility Score: inf
ROOT
ATOM      1  C   UNL A   1      32.247  29.807  27.264  1.00  0.00     0.002 C 
ENDROOT
BRANCH   1   2
ATOM      2  C   UNL A   1      33.121  28.640  26.784  1.00  0.00     0.021 C 
BRANCH   2   3
ATOM      3  C   UNL A   1      32.327  27.413  26.339  1.00  0.00     0.116 C 
BRANCH   3   4
ATOM      4  N   UNL A   1      33.188  26.495  25.623  1.00  0.00    -0.355 N 
ATOM      5  C   UNL A   1      33.464  26.291  24.305  1.00  0.00     0.230 C 
ATOM      6  O   UNL A   1      34.142  25.277  24.120  1.00  0.00    -0.274 OA
ATOM      7  H   UNL A   1      33.682  25.886  26.217  1.00  0.00     0.163 HD
BRANCH   5   8
ATOM      8  C   UNL A   1      33.000  27.277  23.185  1.00  0.00     0.068 C 
ATOM      9  C   UNL A   1      33.279  26.556  21.838  1.00  0.00     0.026 C 
ATOM     10  C   UNL A   1      33.775  28.608  23.316  1.00  0.00     0.026 C 
BRANCH   8  11
ATOM     11  C   UNL A   1      31.488  27.672  23.162  1.00  0.00    -0.031 A 
ATOM     12  C   UNL A   1      29.645  29.305  22.868  1.00  0.00     0.036 A 
ATOM     13  C   UNL A   1      28.734  28.311  23.236  1.00  0.00     0.026 A 
ATOM     14  C   UNL A   1      31.006  28.947  22.815  1.00  0.00     0.030 A 
ATOM     15  C   UNL A   1      29.159  27.020  23.534  1.00  0.00     0.002 A 
ATOM     16  C   UNL A   1      30.517  26.708  23.499  1.00  0.00     0.005 A 
BRANCH  12  17
ATOM     17  N   UNL A   1      29.208  30.602  22.589  1.00  0.00    -0.378 N 
ATOM     18  C   UNL A   1      28.868  31.503  23.682  1.00  0.00     0.143 C 
ATOM     19  C   UNL A   1      28.498  30.780  21.327  1.00  0.00     0.143 C 
ENDBRANCH  12  17
ENDBRANCH   8  11
ENDBRANCH   5   8
ENDBRANCH   3   4
ENDBRANCH   2   3
ENDBRANCH   1   2
BRANCH   1  20
ATOM     20  C   UNL A   1      31.663  30.677  26.147  1.00  0.00     0.002 C 
BRANCH  20  21
ATOM     21  C   UNL A   1      31.456  32.145  26.522  1.00  0.00     0.021 C 
BRANCH  21  22
ATOM     22  C   UNL A   1      32.616  32.762  27.288  1.00  0.00     0.116 C 
BRANCH  22  23
ATOM     23  N   UNL A   1      32.386  34.165  27.588  1.00  0.00    -0.352 N 
ATOM     24  C   UNL A   1      32.971  34.945  28.553  1.00  0.00     0.251 C 
ATOM     25  H   UNL A   1      31.720  34.618  27.022  1.00  0.00     0.163 HD
ATOM     26  O   UNL A   1      32.522  36.058  28.813  1.00  0.00    -0.269 OA
BRANCH  24  27
ATOM     27  C   UNL A   1      34.135  34.425  29.297  1.00  0.00     0.039 A 
ATOM     28  C   UNL A   1      33.922  33.725  30.485  1.00  0.00     0.014 A 
ATOM     29  C   UNL A   1      35.433  34.616  28.813  1.00  0.00     0.014 A 
ATOM     30  C   UNL A   1      35.007  33.168  31.161  1.00  0.00     0.010 A 
ATOM     31  C   UNL A   1      36.503  33.991  29.441  1.00  0.00     0.010 A 
ATOM     32  C   UNL A   1      36.303  33.267  30.626  1.00  0.00    -0.014 A 
BRANCH  32  33
ATOM     33  C   UNL A   1      37.461  32.623  31.295  1.00  0.00     0.031 A 
ATOM     34  C   UNL A   1      38.190  31.495  30.621  1.00  0.00     0.074 A 
ATOM     35  C   UNL A   1      37.817  33.015  32.535  1.00  0.00     0.049 A 
ATOM     36  N   UNL A   1      39.183  30.766  31.067  1.00  0.00    -0.248 NA
ATOM     37  C   UNL A   1      37.726  31.116  29.278  1.00  0.00     0.031 C 
ATOM     38  C   UNL A   1      37.159  34.067  33.310  1.00  0.00     0.029 A 
ATOM     39  N   UNL A   1      38.816  32.569  33.364  1.00  0.00    -0.354 N 
ATOM     40  C   UNL A   1      39.452  29.842  30.066  1.00  0.00     0.074 A 
ATOM     41  C   UNL A   1      38.480  30.060  29.017  1.00  0.00     0.031 C 
ATOM     42  C   UNL A   1      37.785  34.202  34.489  1.00  0.00     0.029 A 
ATOM     43  C   UNL A   1      38.860  33.219  34.573  1.00  0.00     0.049 A 
ATOM     44  H   UNL A   1      39.441  31.850  33.114  1.00  0.00     0.167 HD
ATOM     45  C   UNL A   1      40.435  28.913  30.016  1.00  0.00     0.037 A 
ATOM     46  C   UNL A   1      39.671  33.035  35.632  1.00  0.00     0.037 A 
ATOM     47  C   UNL A   1      41.410  28.713  31.057  1.00  0.00     0.049 A 
ATOM     48  C   UNL A   1      40.742  31.980  35.560  1.00  0.00     0.074 A 
ATOM     49  C   UNL A   1      42.479  27.835  31.079  1.00  0.00     0.029 A 
ATOM     50  N   UNL A   1      41.429  29.398  32.264  1.00  0.00    -0.354 N 
ATOM     51  N   UNL A   1      41.032  31.159  34.579  1.00  0.00    -0.248 NA
ATOM     52  C   UNL A   1      41.605  31.830  36.740  1.00  0.00     0.031 C 
ATOM     53  C   UNL A   1      43.109  27.946  32.323  1.00  0.00     0.029 A 
ATOM     54  C   UNL A   1      42.475  28.941  33.049  1.00  0.00     0.049 A 
ATOM     55  H   UNL A   1      40.793  30.103  32.523  1.00  0.00     0.167 HD
ATOM     56  C   UNL A   1      42.129  30.423  35.008  1.00  0.00     0.074 A 
ATOM     57  C   UNL A   1      42.461  30.904  36.333  1.00  0.00     0.031 C 
ATOM     58  C   UNL A   1      42.801  29.439  34.362  1.00  0.00     0.037 A 
BRANCH  45  59
ATOM     59  C   UNL A   1      40.507  28.039  28.797  1.00  0.00     0.064 A 
ATOM     60  C   UNL A   1      39.812  26.821  28.719  1.00  0.00     0.173 A 
ATOM     61  C   UNL A   1      41.246  28.441  27.674  1.00  0.00     0.173 A 
ATOM     62  F   UNL A   1      39.097  26.382  29.767  1.00  0.00    -0.203 F 
ATOM     63  C   UNL A   1      39.883  26.025  27.577  1.00  0.00     0.198 A 
ATOM     64  C   UNL A   1      41.285  27.660  26.522  1.00  0.00     0.198 A 
ATOM     65  F   UNL A   1      41.925  29.598  27.690  1.00  0.00    -0.203 F 
ATOM     66  F   UNL A   1      39.255  24.842  27.548  1.00  0.00    -0.200 F 
ATOM     67  C   UNL A   1      40.611  26.450  26.477  1.00  0.00     0.200 A 
ATOM     68  F   UNL A   1      41.979  28.080  25.454  1.00  0.00    -0.200 F 
ATOM     69  F   UNL A   1      40.670  25.688  25.376  1.00  0.00    -0.200 F 
ENDBRANCH  45  59
BRANCH  46  70
ATOM     70  C   UNL A   1      39.514  33.879  36.847  1.00  0.00     0.064 A 
ATOM     71  C   UNL A   1      38.768  33.430  37.945  1.00  0.00     0.173 A 
ATOM     72  C   UNL A   1      40.092  35.155  36.931  1.00  0.00     0.173 A 
ATOM     73  F   UNL A   1      38.178  32.226  37.907  1.00  0.00    -0.203 F 
ATOM     74  C   UNL A   1      38.584  34.233  39.069  1.00  0.00     0.198 A 
ATOM     75  C   UNL A   1      39.936  35.943  38.068  1.00  0.00     0.198 A 
ATOM     76  F   UNL A   1      40.822  35.629  35.910  1.00  0.00    -0.203 F 
ATOM     77  F   UNL A   1      37.821  33.800  40.082  1.00  0.00    -0.200 F 
ATOM     78  C   UNL A   1      39.173  35.487  39.132  1.00  0.00     0.200 A 
ATOM     79  F   UNL A   1      40.522  37.147  38.131  1.00  0.00    -0.200 F 
ATOM     80  F   UNL A   1      38.999  36.259  40.213  1.00  0.00    -0.200 F 
ENDBRANCH  46  70
BRANCH  58  81
ATOM     81  C   UNL A   1      43.996  28.846  35.055  1.00  0.00     0.064 A 
ATOM     82  C   UNL A   1      43.889  27.718  35.880  1.00  0.00     0.173 A 
ATOM     83  C   UNL A   1      45.273  29.392  34.851  1.00  0.00     0.173 A 
ATOM     84  F   UNL A   1      42.690  27.166  36.119  1.00  0.00    -0.203 F 
ATOM     85  C   UNL A   1      45.013  27.175  36.499  1.00  0.00     0.198 A 
ATOM     86  C   UNL A   1      46.398  28.826  35.441  1.00  0.00     0.198 A 
ATOM     87  F   UNL A   1      45.432  30.467  34.064  1.00  0.00    -0.203 F 
ATOM     88  F   UNL A   1      44.881  26.128  37.325  1.00  0.00    -0.200 F 
ATOM     89  C   UNL A   1      46.266  27.723  36.271  1.00  0.00     0.200 A 
ATOM     90  F   UNL A   1      47.610  29.347  35.206  1.00  0.00    -0.200 F 
ATOM     91  F   UNL A   1      47.348  27.192  36.858  1.00  0.00    -0.200 F 
ENDBRANCH  58  81
ENDBRANCH  32  33
ENDBRANCH  24  27
ENDBRANCH  22  23
ENDBRANCH  21  22
ENDBRANCH  20  21
ENDBRANCH   1  20
TORSDOF 15
ENDMDL
MODEL 2
REMARK VINA RESULT:     -11.7      1.623      7.704
REMARK SMILES CN(C)c1cccc(C(C)(C)C(=O)NCCCCCCNC(=O)c2ccc(-c3c4nc(c(-c5c(F)c(F)c(F)c(F)c5F)c5ccc([nH]5)c(-c5c(F)c(F)c(F)c(F)c5F)c5nc(c(-c6c(F)c(F)c(F)c(F)c6F)c6ccc3[nH]6)C=C5)C=C4)cc2)c1
REMARK SMILES IDX 17 1 16 2 15 3 14 4 12 5 13 6 9 8 10 9 11 10 8 11 4 12 5 13
REMARK SMILES IDX 87 14 6 15 7 16 2 17 1 18 3 19 18 20 19 21 20 22 21 23 22 24
REMARK SMILES IDX 23 26 24 27 25 28 86 29 26 30 85 31 27 32 28 33 29 34 79 35
REMARK SMILES IDX 30 36 84 37 78 38 80 39 31 40 83 41 77 42 76 43 32 45 64 46
REMARK SMILES IDX 44 47 63 48 45 49 48 50 62 51 81 52 46 53 47 54 61 56 82 57
REMARK SMILES IDX 49 58 33 59 34 60 42 61 35 62 36 63 40 64 43 65 37 66 38 67
REMARK SMILES IDX 41 68 39 69 65 70 66 71 74 72 67 73 68 74 72 75 75 76 69 77
REMARK SMILES IDX 70 78 73 79 71 80 50 81 51 82 59 83 52 84 53 85 57 86 60 87
REMARK SMILES IDX 54 88 55 89 58 90 56 91
REMARK H PARENT 14 7 21 25 80 44 48 55
REMARK Flexibility Score: inf
ROOT
ATOM      1  C   UNL A   1      34.308  32.226  28.736  1.00  0.00     0.002 C 
ENDROOT
BRANCH   1   2
ATOM      2  C   UNL A   1      35.275  31.352  27.924  1.00  0.00     0.021 C 
BRANCH   2   3
ATOM      3  C   UNL A   1      34.878  29.879  27.864  1.00  0.00     0.116 C 
BRANCH   3   4
ATOM      4  N   UNL A   1      34.797  29.440  26.487  1.00  0.00    -0.355 N 
ATOM      5  C   UNL A   1      33.791  28.956  25.705  1.00  0.00     0.230 C 
ATOM      6  O   UNL A   1      34.201  28.541  24.618  1.00  0.00    -0.274 OA
ATOM      7  H   UNL A   1      35.655  29.506  26.010  1.00  0.00     0.163 HD
BRANCH   5   8
ATOM      8  C   UNL A   1      32.293  28.985  26.149  1.00  0.00     0.068 C 
ATOM      9  C   UNL A   1      31.919  30.485  26.292  1.00  0.00     0.026 C 
ATOM     10  C   UNL A   1      32.132  28.206  27.474  1.00  0.00     0.026 C 
BRANCH   8  11
ATOM     11  C   UNL A   1      31.245  28.367  25.169  1.00  0.00    -0.031 A 
ATOM     12  C   UNL A   1      29.562  28.535  23.355  1.00  0.00     0.036 A 
ATOM     13  C   UNL A   1      29.298  27.170  23.501  1.00  0.00     0.026 A 
ATOM     14  C   UNL A   1      30.556  29.094  24.181  1.00  0.00     0.030 A 
ATOM     15  C   UNL A   1      29.995  26.398  24.427  1.00  0.00     0.002 A 
ATOM     16  C   UNL A   1      30.951  26.990  25.249  1.00  0.00     0.005 A 
BRANCH  12  17
ATOM     17  N   UNL A   1      28.844  29.303  22.435  1.00  0.00    -0.378 N 
ATOM     18  C   UNL A   1      29.527  30.333  21.662  1.00  0.00     0.143 C 
ATOM     19  C   UNL A   1      27.435  29.519  22.744  1.00  0.00     0.143 C 
ENDBRANCH  12  17
ENDBRANCH   8  11
ENDBRANCH   5   8
ENDBRANCH   3   4
ENDBRANCH   2   3
ENDBRANCH   1   2
BRANCH   1  20
ATOM     20  C   UNL A   1      34.511  33.735  28.573  1.00  0.00     0.002 C 
BRANCH  20  21
ATOM     21  C   UNL A   1      33.244  34.574  28.754  1.00  0.00     0.021 C 
BRANCH  21  22
ATOM     22  C   UNL A   1      33.483  35.930  29.402  1.00  0.00     0.116 C 
BRANCH  22  23
ATOM     23  N   UNL A   1      32.538  36.196  30.472  1.00  0.00    -0.352 N 
ATOM     24  C   UNL A   1      32.542  35.724  31.760  1.00  0.00     0.251 C 
ATOM     25  H   UNL A   1      31.792  36.796  30.243  1.00  0.00     0.163 HD
ATOM     26  O   UNL A   1      31.563  35.877  32.485  1.00  0.00    -0.269 OA
BRANCH  24  27
ATOM     27  C   UNL A   1      33.731  35.007  32.264  1.00  0.00     0.039 A 
ATOM     28  C   UNL A   1      33.628  33.645  32.551  1.00  0.00     0.014 A 
ATOM     29  C   UNL A   1      34.946  35.677  32.437  1.00  0.00     0.014 A 
ATOM     30  C   UNL A   1      34.761  32.940  32.960  1.00  0.00     0.010 A 
ATOM     31  C   UNL A   1      36.090  34.957  32.764  1.00  0.00     0.010 A 
ATOM     32  C   UNL A   1      36.008  33.584  33.037  1.00  0.00    -0.014 A 
BRANCH  32  33
ATOM     33  C   UNL A   1      37.236  32.835  33.405  1.00  0.00     0.031 A 
ATOM     34  C   UNL A   1      37.950  33.145  34.690  1.00  0.00     0.074 A 
ATOM     35  C   UNL A   1      37.739  31.920  32.553  1.00  0.00     0.049 A 
ATOM     36  N   UNL A   1      39.067  32.646  35.158  1.00  0.00    -0.248 NA
ATOM     37  C   UNL A   1      37.345  34.171  35.553  1.00  0.00     0.031 C 
ATOM     38  C   UNL A   1      37.161  31.564  31.257  1.00  0.00     0.029 A 
ATOM     39  N   UNL A   1      38.855  31.127  32.647  1.00  0.00    -0.354 N 
ATOM     40  C   UNL A   1      39.300  33.303  36.359  1.00  0.00     0.074 A 
ATOM     41  C   UNL A   1      38.244  34.279  36.519  1.00  0.00     0.031 C 
ATOM     42  C   UNL A   1      37.912  30.608  30.688  1.00  0.00     0.029 A 
ATOM     43  C   UNL A   1      39.046  30.313  31.557  1.00  0.00     0.049 A 
ATOM     44  H   UNL A   1      39.461  31.140  33.423  1.00  0.00     0.167 HD
ATOM     45  C   UNL A   1      40.290  33.094  37.259  1.00  0.00     0.037 A 
ATOM     46  C   UNL A   1      40.032  29.436  31.286  1.00  0.00     0.037 A 
ATOM     47  C   UNL A   1      41.328  32.108  37.101  1.00  0.00     0.049 A 
ATOM     48  C   UNL A   1      41.133  29.238  32.292  1.00  0.00     0.074 A 
ATOM     49  C   UNL A   1      42.346  31.780  37.979  1.00  0.00     0.029 A 
ATOM     50  N   UNL A   1      41.483  31.295  35.987  1.00  0.00    -0.354 N 
ATOM     51  N   UNL A   1      41.304  29.815  33.458  1.00  0.00    -0.248 NA
ATOM     52  C   UNL A   1      42.176  28.261  31.949  1.00  0.00     0.031 C 
ATOM     53  C   UNL A   1      43.152  30.813  37.371  1.00  0.00     0.029 A 
ATOM     54  C   UNL A   1      42.598  30.487  36.144  1.00  0.00     0.049 A 
ATOM     55  H   UNL A   1      40.890  31.294  35.201  1.00  0.00     0.167 HD
ATOM     56  C   UNL A   1      42.449  29.247  34.001  1.00  0.00     0.074 A 
ATOM     57  C   UNL A   1      42.925  28.271  33.043  1.00  0.00     0.031 C 
ATOM     58  C   UNL A   1      43.051  29.510  35.186  1.00  0.00     0.037 A 
BRANCH  45  59
ATOM     59  C   UNL A   1      40.301  33.947  38.494  1.00  0.00     0.064 A 
ATOM     60  C   UNL A   1      39.605  33.575  39.656  1.00  0.00     0.173 A 
ATOM     61  C   UNL A   1      41.050  35.133  38.534  1.00  0.00     0.173 A 
ATOM     62  F   UNL A   1      38.864  32.456  39.670  1.00  0.00    -0.203 F 
ATOM     63  C   UNL A   1      39.631  34.374  40.796  1.00  0.00     0.198 A 
ATOM     64  C   UNL A   1      41.103  35.911  39.688  1.00  0.00     0.198 A 
ATOM     65  F   UNL A   1      41.740  35.535  37.456  1.00  0.00    -0.203 F 
ATOM     66  F   UNL A   1      38.915  34.024  41.873  1.00  0.00    -0.200 F 
ATOM     67  C   UNL A   1      40.388  35.536  40.815  1.00  0.00     0.200 A 
ATOM     68  F   UNL A   1      41.847  37.026  39.709  1.00  0.00    -0.200 F 
ATOM     69  F   UNL A   1      40.421  36.298  41.917  1.00  0.00    -0.200 F 
ENDBRANCH  45  59
BRANCH  46  70
ATOM     70  C   UNL A   1      40.014  28.666  30.014  1.00  0.00     0.064 A 
ATOM     71  C   UNL A   1      39.417  27.400  29.945  1.00  0.00     0.173 A 
ATOM     72  C   UNL A   1      40.604  29.171  28.845  1.00  0.00     0.173 A 
ATOM     73  F   UNL A   1      38.857  26.864  31.040  1.00  0.00    -0.203 F 
ATOM     74  C   UNL A   1      39.433  26.658  28.766  1.00  0.00     0.198 A 
ATOM     75  C   UNL A   1      40.589  28.442  27.658  1.00  0.00     0.198 A 
ATOM     76  F   UNL A   1      41.182  30.381  28.853  1.00  0.00    -0.203 F 
ATOM     77  F   UNL A   1      38.903  25.427  28.744  1.00  0.00    -0.200 F 
ATOM     78  C   UNL A   1      40.015  27.182  27.622  1.00  0.00     0.200 A 
ATOM     79  F   UNL A   1      41.137  28.961  26.549  1.00  0.00    -0.200 F 
ATOM     80  F   UNL A   1      40.028  26.469  26.487  1.00  0.00    -0.200 F 
ENDBRANCH  46  70
BRANCH  58  81
ATOM     81  C   UNL A   1      44.264  28.697  35.543  1.00  0.00     0.064 A 
ATOM     82  C   UNL A   1      45.558  29.098  35.178  1.00  0.00     0.173 A 
ATOM     83  C   UNL A   1      44.130  27.522  36.298  1.00  0.00     0.173 A 
ATOM     84  F   UNL A   1      45.741  30.206  34.444  1.00  0.00    -0.203 F 
ATOM     85  C   UNL A   1      46.669  28.337  35.534  1.00  0.00     0.198 A 
ATOM     86  C   UNL A   1      45.245  26.784  36.682  1.00  0.00     0.198 A 
ATOM     87  F   UNL A   1      42.915  27.097  36.679  1.00  0.00    -0.203 F 
ATOM     88  F   UNL A   1      47.891  28.711  35.131  1.00  0.00    -0.200 F 
ATOM     89  C   UNL A   1      46.513  27.187  36.293  1.00  0.00     0.200 A 
ATOM     90  F   UNL A   1      45.092  25.683  37.430  1.00  0.00    -0.200 F 
ATOM     91  F   UNL A   1      47.585  26.463  36.644  1.00  0.00    -0.200 F 
ENDBRANCH  58  81
ENDBRANCH  32  33
ENDBRANCH  24  27
ENDBRANCH  22  23
ENDBRANCH  21  22
ENDBRANCH  20  21
ENDBRANCH   1  20
TORSDOF 15
ENDMDL
MODEL 3
REMARK VINA RESULT:     -11.6      0.470      7.585
REMARK SMILES CN(C)c1cccc(C(C)(C)C(=O)NCCCCCCNC(=O)c2ccc(-c3c4nc(c(-c5c(F)c(F)c(F)c(F)c5F)c5ccc([nH]5)c(-c5c(F)c(F)c(F)c(F)c5F)c5nc(c(-c6c(F)c(F)c(F)c(F)c6F)c6ccc3[nH]6)C=C5)C=C4)cc2)c1
REMARK SMILES IDX 17 1 16 2 15 3 14 4 12 5 13 6 9 8 10 9 11 10 8 11 4 12 5 13
REMARK SMILES IDX 87 14 6 15 7 16 2 17 1 18 3 19 18 20 19 21 20 22 21 23 22 24
REMARK SMILES IDX 23 26 24 27 25 28 86 29 26 30 85 31 27 32 28 33 29 34 79 35
REMARK SMILES IDX 30 36 84 37 78 38 80 39 31 40 83 41 77 42 76 43 32 45 64 46
REMARK SMILES IDX 44 47 63 48 45 49 48 50 62 51 81 52 46 53 47 54 61 56 82 57
REMARK SMILES IDX 49 58 33 59 34 60 42 61 35 62 36 63 40 64 43 65 37 66 38 67
REMARK SMILES IDX 41 68 39 69 65 70 66 71 74 72 67 73 68 74 72 75 75 76 69 77
REMARK SMILES IDX 70 78 73 79 71 80 50 81 51 82 59 83 52 84 53 85 57 86 60 87
REMARK SMILES IDX 54 88 55 89 58 90 56 91
REMARK H PARENT 14 7 21 25 80 44 48 55
REMARK Flexibility Score: inf
ROOT
ATOM      1  C   UNL A   1      32.654  30.032  27.074  1.00  0.00     0.002 C 
ENDROOT
BRANCH   1   2
ATOM      2  C   UNL A   1      33.415  28.951  26.293  1.00  0.00     0.021 C 
BRANCH   2   3
ATOM      3  C   UNL A   1      32.597  27.690  26.022  1.00  0.00     0.116 C 
BRANCH   3   4
ATOM      4  N   UNL A   1      33.415  26.698  25.357  1.00  0.00    -0.355 N 
ATOM      5  C   UNL A   1      33.577  26.320  24.059  1.00  0.00     0.230 C 
ATOM      6  O   UNL A   1      34.264  25.302  23.949  1.00  0.00    -0.274 OA
ATOM      7  H   UNL A   1      33.979  26.184  25.979  1.00  0.00     0.163 HD
BRANCH   5   8
ATOM      8  C   UNL A   1      32.984  27.137  22.866  1.00  0.00     0.068 C 
ATOM      9  C   UNL A   1      33.071  26.205  21.626  1.00  0.00     0.026 C 
ATOM     10  C   UNL A   1      33.790  28.443  22.683  1.00  0.00     0.026 C 
BRANCH   8  11
ATOM     11  C   UNL A   1      31.489  27.578  22.973  1.00  0.00    -0.031 A 
ATOM     12  C   UNL A   1      29.678  29.268  22.844  1.00  0.00     0.036 A 
ATOM     13  C   UNL A   1      28.772  28.301  23.286  1.00  0.00     0.026 A 
ATOM     14  C   UNL A   1      31.018  28.869  22.672  1.00  0.00     0.030 A 
ATOM     15  C   UNL A   1      29.181  26.995  23.542  1.00  0.00     0.002 A 
ATOM     16  C   UNL A   1      30.521  26.642  23.391  1.00  0.00     0.005 A 
BRANCH  12  17
ATOM     17  N   UNL A   1      29.259  30.579  22.607  1.00  0.00    -0.378 N 
ATOM     18  C   UNL A   1      28.746  31.386  23.706  1.00  0.00     0.143 C 
ATOM     19  C   UNL A   1      28.735  30.851  21.273  1.00  0.00     0.143 C 
ENDBRANCH  12  17
ENDBRANCH   8  11
ENDBRANCH   5   8
ENDBRANCH   3   4
ENDBRANCH   2   3
ENDBRANCH   1   2
BRANCH   1  20
ATOM     20  C   UNL A   1      31.573  30.766  26.276  1.00  0.00     0.002 C 
BRANCH  20  21
ATOM     21  C   UNL A   1      31.436  32.254  26.602  1.00  0.00     0.021 C 
BRANCH  21  22
ATOM     22  C   UNL A   1      32.700  32.887  27.166  1.00  0.00     0.116 C 
BRANCH  22  23
ATOM     23  N   UNL A   1      32.472  34.248  27.617  1.00  0.00    -0.352 N 
ATOM     24  C   UNL A   1      33.049  34.914  28.668  1.00  0.00     0.251 C 
ATOM     25  H   UNL A   1      31.813  34.764  27.099  1.00  0.00     0.163 HD
ATOM     26  O   UNL A   1      32.602  35.993  29.046  1.00  0.00    -0.269 OA
BRANCH  24  27
ATOM     27  C   UNL A   1      34.205  34.309  29.361  1.00  0.00     0.039 A 
ATOM     28  C   UNL A   1      33.977  33.465  30.448  1.00  0.00     0.014 A 
ATOM     29  C   UNL A   1      35.509  34.566  28.926  1.00  0.00     0.014 A 
ATOM     30  C   UNL A   1      35.055  32.833  31.067  1.00  0.00     0.010 A 
ATOM     31  C   UNL A   1      36.573  33.871  29.489  1.00  0.00     0.010 A 
ATOM     32  C   UNL A   1      36.359  33.004  30.570  1.00  0.00    -0.014 A 
BRANCH  32  33
ATOM     33  C   UNL A   1      37.510  32.286  31.173  1.00  0.00     0.031 A 
ATOM     34  C   UNL A   1      38.004  32.667  32.540  1.00  0.00     0.074 A 
ATOM     35  C   UNL A   1      38.145  31.332  30.464  1.00  0.00     0.049 A 
ATOM     36  N   UNL A   1      39.028  32.202  33.210  1.00  0.00    -0.248 NA
ATOM     37  C   UNL A   1      37.265  33.731  33.237  1.00  0.00     0.031 C 
ATOM     38  C   UNL A   1      37.789  30.905  29.111  1.00  0.00     0.029 A 
ATOM     39  N   UNL A   1      39.231  30.554  30.781  1.00  0.00    -0.354 N 
ATOM     40  C   UNL A   1      39.061  32.922  34.397  1.00  0.00     0.074 A 
ATOM     41  C   UNL A   1      37.994  33.896  34.331  1.00  0.00     0.031 C 
ATOM     42  C   UNL A   1      38.622  29.927  28.724  1.00  0.00     0.029 A 
ATOM     43  C   UNL A   1      39.598  29.687  29.781  1.00  0.00     0.049 A 
ATOM     44  H   UNL A   1      39.702  30.612  31.644  1.00  0.00     0.167 HD
ATOM     45  C   UNL A   1      39.890  32.769  35.456  1.00  0.00     0.037 A 
ATOM     46  C   UNL A   1      40.615  28.806  29.721  1.00  0.00     0.037 A 
ATOM     47  C   UNL A   1      40.940  31.785  35.523  1.00  0.00     0.049 A 
ATOM     48  C   UNL A   1      41.536  28.669  30.904  1.00  0.00     0.074 A 
ATOM     49  C   UNL A   1      41.800  31.511  36.572  1.00  0.00     0.029 A 
ATOM     50  N   UNL A   1      41.276  30.917  34.493  1.00  0.00    -0.354 N 
ATOM     51  N   UNL A   1      41.514  29.307  32.050  1.00  0.00    -0.248 NA
ATOM     52  C   UNL A   1      42.621  27.685  30.788  1.00  0.00     0.031 C 
ATOM     53  C   UNL A   1      42.695  30.521  36.156  1.00  0.00     0.029 A 
ATOM     54  C   UNL A   1      42.350  30.127  34.873  1.00  0.00     0.049 A 
ATOM     55  H   UNL A   1      40.819  30.870  33.622  1.00  0.00     0.167 HD
ATOM     56  C   UNL A   1      42.555  28.777  32.802  1.00  0.00     0.074 A 
ATOM     57  C   UNL A   1      43.180  27.757  31.988  1.00  0.00     0.031 C 
ATOM     58  C   UNL A   1      42.954  29.106  34.055  1.00  0.00     0.037 A 
BRANCH  45  59
ATOM     59  C   UNL A   1      39.698  33.685  36.631  1.00  0.00     0.064 A 
ATOM     60  C   UNL A   1      40.313  34.945  36.692  1.00  0.00     0.173 A 
ATOM     61  C   UNL A   1      38.856  33.316  37.691  1.00  0.00     0.173 A 
ATOM     62  F   UNL A   1      41.137  35.344  35.711  1.00  0.00    -0.203 F 
ATOM     63  C   UNL A   1      40.119  35.786  37.786  1.00  0.00     0.198 A 
ATOM     64  C   UNL A   1      38.636  34.175  38.765  1.00  0.00     0.198 A 
ATOM     65  F   UNL A   1      38.238  32.126  37.682  1.00  0.00    -0.203 F 
ATOM     66  F   UNL A   1      40.760  36.962  37.846  1.00  0.00    -0.200 F 
ATOM     67  C   UNL A   1      39.273  35.405  38.816  1.00  0.00     0.200 A 
ATOM     68  F   UNL A   1      37.807  33.810  39.753  1.00  0.00    -0.200 F 
ATOM     69  F   UNL A   1      39.079  36.220  39.863  1.00  0.00    -0.200 F 
ENDBRANCH  45  59
BRANCH  46  70
ATOM     70  C   UNL A   1      40.807  27.971  28.505  1.00  0.00     0.064 A 
ATOM     71  C   UNL A   1      41.584  28.427  27.432  1.00  0.00     0.173 A 
ATOM     72  C   UNL A   1      40.209  26.707  28.385  1.00  0.00     0.173 A 
ATOM     73  F   UNL A   1      42.161  29.636  27.490  1.00  0.00    -0.203 F 
ATOM     74  C   UNL A   1      41.733  27.666  26.275  1.00  0.00     0.198 A 
ATOM     75  C   UNL A   1      40.387  25.932  27.241  1.00  0.00     0.198 A 
ATOM     76  F   UNL A   1      39.461  26.219  29.385  1.00  0.00    -0.203 F 
ATOM     77  F   UNL A   1      42.437  28.151  25.242  1.00  0.00    -0.200 F 
ATOM     78  C   UNL A   1      41.139  26.416  26.182  1.00  0.00     0.200 A 
ATOM     79  F   UNL A   1      39.825  24.717  27.163  1.00  0.00    -0.200 F 
ATOM     80  F   UNL A   1      41.286  25.683  25.070  1.00  0.00    -0.200 F 
ENDBRANCH  46  70
BRANCH  58  81
ATOM     81  C   UNL A   1      44.092  28.323  34.647  1.00  0.00     0.064 A 
ATOM     82  C   UNL A   1      45.419  28.768  34.564  1.00  0.00     0.173 A 
ATOM     83  C   UNL A   1      43.841  27.131  35.345  1.00  0.00     0.173 A 
ATOM     84  F   UNL A   1      45.715  29.893  33.897  1.00  0.00    -0.203 F 
ATOM     85  C   UNL A   1      46.456  28.034  35.135  1.00  0.00     0.198 A 
ATOM     86  C   UNL A   1      44.876  26.420  35.945  1.00  0.00     0.198 A 
ATOM     87  F   UNL A   1      42.588  26.665  35.460  1.00  0.00    -0.203 F 
ATOM     88  F   UNL A   1      47.723  28.450  35.000  1.00  0.00    -0.200 F 
ATOM     89  C   UNL A   1      46.183  26.867  35.832  1.00  0.00     0.200 A 
ATOM     90  F   UNL A   1      44.606  25.302  36.633  1.00  0.00    -0.200 F 
ATOM     91  F   UNL A   1      47.181  26.168  36.391  1.00  0.00    -0.200 F 
ENDBRANCH  58  81
ENDBRANCH  32  33
ENDBRANCH  24  27
ENDBRANCH  22  23
ENDBRANCH  21  22
ENDBRANCH  20  21
ENDBRANCH   1  20
TORSDOF 15
ENDMDL
