MODEL 1
REMARK VINA RESULT:     -11.7      0.000      0.000
REMARK SMILES O=C(C[N@H+]1CCC[C@@H]1c1ccccc1Cl)NCCCCCCNC(=O)c1ccc(-c2c3nc(c(-c4c(F)c(F)c(F)c(F)c4F)c4ccc([nH]4)c(-c4c(F)c(F)c(F)c(F)c4F)c4nc(c(-c5c(F)c(F)c(F)c(F)c5F)c5ccc2[nH]5)C=C4)C=C3)cc1
REMARK SMILES IDX 19 1 18 2 17 3 16 4 1 5 2 6 3 8 4 9 5 10 8 11 6 13 7 14 9 15
REMARK SMILES IDX 10 16 14 17 11 18 13 19 15 20 12 21 20 22 21 23 22 24 23 25
REMARK SMILES IDX 24 26 25 28 26 29 27 30 88 31 28 32 87 33 29 34 30 35 31 36
REMARK SMILES IDX 81 37 32 38 86 39 80 40 82 41 33 42 85 43 79 44 78 45 34 47
REMARK SMILES IDX 66 48 46 49 65 50 47 51 50 52 64 53 83 54 48 55 49 56 63 58
REMARK SMILES IDX 84 59 51 60 35 61 36 62 44 63 37 64 38 65 42 66 45 67 39 68
REMARK SMILES IDX 40 69 43 70 41 71 67 72 68 73 76 74 69 75 70 76 74 77 77 78
REMARK SMILES IDX 71 79 72 80 75 81 73 82 52 83 53 84 61 85 54 86 55 87 59 88
REMARK SMILES IDX 62 89 56 90 57 91 60 92 58 93
REMARK H PARENT 16 7 4 12 23 27 82 46 50 57
REMARK Flexibility Score: inf
ROOT
ATOM      1  C   UNL A   1      32.472  29.862  27.195  1.00  0.00     0.002 C 
ENDROOT
BRANCH   1   2
ATOM      2  C   UNL A   1      33.631  29.074  26.566  1.00  0.00     0.021 C 
BRANCH   2   3
ATOM      3  C   UNL A   1      33.487  28.839  25.067  1.00  0.00     0.116 C 
BRANCH   3   4
ATOM      4  N   UNL A   1      33.081  27.482  24.788  1.00  0.00    -0.351 N 
ATOM      5  O   UNL A   1      30.889  27.923  24.265  1.00  0.00    -0.269 OA
ATOM      6  C   UNL A   1      31.824  27.132  24.349  1.00  0.00     0.275 C 
ATOM      7  H   UNL A   1      33.743  26.764  24.918  1.00  0.00     0.163 HD
BRANCH   6   8
ATOM      8  C   UNL A   1      31.727  25.662  23.905  1.00  0.00     0.364 C 
BRANCH   8   9
ATOM      9  N   UNL A   1      31.840  24.821  25.105  1.00  0.00    -0.321 N 
ATOM     10  C   UNL A   1      30.573  24.631  25.810  1.00  0.00     0.263 C 
ATOM     11  C   UNL A   1      32.407  23.473  24.890  1.00  0.00     0.217 C 
ATOM     12  H   UNL A   1      32.492  25.368  25.665  1.00  0.00     0.349 HD
ATOM     13  C   UNL A   1      30.983  23.649  26.876  1.00  0.00     0.068 C 
ATOM     14  C   UNL A   1      31.896  22.694  26.127  1.00  0.00     0.076 C 
BRANCH  11  15
ATOM     15  C   UNL A   1      33.925  23.409  24.756  1.00  0.00     0.028 A 
ATOM     16  C   UNL A   1      34.771  23.593  25.869  1.00  0.00     0.011 A 
ATOM     17  C   UNL A   1      34.548  23.185  23.512  1.00  0.00     0.050 A 
ATOM     18  C   UNL A   1      36.162  23.576  25.749  1.00  0.00     0.001 A 
ATOM     19  C   UNL A   1      35.945  23.123  23.400  1.00  0.00     0.021 A 
ATOM     20  Cl  UNL A   1      33.651  22.996  22.043  1.00  0.00    -0.084 Cl
ATOM     21  C   UNL A   1      36.751  23.329  24.516  1.00  0.00     0.002 A 
ENDBRANCH  11  15
ENDBRANCH   8   9
ENDBRANCH   6   8
ENDBRANCH   3   4
ENDBRANCH   2   3
ENDBRANCH   1   2
BRANCH   1  22
ATOM     22  C   UNL A   1      31.649  30.706  26.216  1.00  0.00     0.002 C 
BRANCH  22  23
ATOM     23  C   UNL A   1      31.424  32.156  26.649  1.00  0.00     0.021 C 
BRANCH  23  24
ATOM     24  C   UNL A   1      32.649  32.834  27.248  1.00  0.00     0.116 C 
BRANCH  24  25
ATOM     25  N   UNL A   1      32.393  34.215  27.626  1.00  0.00    -0.352 N 
ATOM     26  C   UNL A   1      32.973  34.959  28.624  1.00  0.00     0.251 C 
ATOM     27  H   UNL A   1      31.708  34.680  27.094  1.00  0.00     0.163 HD
ATOM     28  O   UNL A   1      32.528  36.059  28.917  1.00  0.00    -0.269 OA
BRANCH  26  29
ATOM     29  C   UNL A   1      34.130  34.407  29.362  1.00  0.00     0.039 A 
ATOM     30  C   UNL A   1      33.905  33.768  30.585  1.00  0.00     0.014 A 
ATOM     31  C   UNL A   1      35.425  34.509  28.849  1.00  0.00     0.014 A 
ATOM     32  C   UNL A   1      34.975  33.184  31.264  1.00  0.00     0.010 A 
ATOM     33  C   UNL A   1      36.476  33.856  29.486  1.00  0.00     0.010 A 
ATOM     34  C   UNL A   1      36.264  33.196  30.705  1.00  0.00    -0.014 A 
BRANCH  34  35
ATOM     35  C   UNL A   1      37.403  32.536  31.392  1.00  0.00     0.031 A 
ATOM     36  C   UNL A   1      38.113  31.384  30.738  1.00  0.00     0.074 A 
ATOM     37  C   UNL A   1      37.767  32.944  32.623  1.00  0.00     0.049 A 
ATOM     38  N   UNL A   1      39.097  30.648  31.195  1.00  0.00    -0.248 NA
ATOM     39  C   UNL A   1      37.640  30.986  29.403  1.00  0.00     0.031 C 
ATOM     40  C   UNL A   1      37.126  34.019  33.383  1.00  0.00     0.029 A 
ATOM     41  N   UNL A   1      38.762  32.497  33.457  1.00  0.00    -0.354 N 
ATOM     42  C   UNL A   1      39.353  29.706  30.207  1.00  0.00     0.074 A 
ATOM     43  C   UNL A   1      38.380  29.915  29.158  1.00  0.00     0.031 C 
ATOM     44  C   UNL A   1      37.760  34.165  34.558  1.00  0.00     0.029 A 
ATOM     45  C   UNL A   1      38.823  33.170  34.653  1.00  0.00     0.049 A 
ATOM     46  H   UNL A   1      39.376  31.765  33.220  1.00  0.00     0.167 HD
ATOM     47  C   UNL A   1      40.332  28.770  30.163  1.00  0.00     0.037 A 
ATOM     48  C   UNL A   1      39.640  32.997  35.710  1.00  0.00     0.037 A 
ATOM     49  C   UNL A   1      41.306  28.571  31.205  1.00  0.00     0.049 A 
ATOM     50  C   UNL A   1      40.704  31.932  35.645  1.00  0.00     0.074 A 
ATOM     51  C   UNL A   1      42.358  27.672  31.244  1.00  0.00     0.029 A 
ATOM     52  N   UNL A   1      41.344  29.281  32.396  1.00  0.00    -0.354 N 
ATOM     53  N   UNL A   1      40.979  31.092  34.678  1.00  0.00    -0.248 NA
ATOM     54  C   UNL A   1      41.580  31.803  36.819  1.00  0.00     0.031 C 
ATOM     55  C   UNL A   1      43.001  27.805  32.478  1.00  0.00     0.029 A 
ATOM     56  C   UNL A   1      42.391  28.828  33.184  1.00  0.00     0.049 A 
ATOM     57  H   UNL A   1      40.719  30.001  32.645  1.00  0.00     0.167 HD
ATOM     58  C   UNL A   1      42.078  30.360  35.109  1.00  0.00     0.074 A 
ATOM     59  C   UNL A   1      42.430  30.869  36.418  1.00  0.00     0.031 C 
ATOM     60  C   UNL A   1      42.738  29.357  34.479  1.00  0.00     0.037 A 
BRANCH  47  61
ATOM     61  C   UNL A   1      40.403  27.897  28.943  1.00  0.00     0.064 A 
ATOM     62  C   UNL A   1      39.663  26.708  28.847  1.00  0.00     0.173 A 
ATOM     63  C   UNL A   1      41.190  28.267  27.842  1.00  0.00     0.173 A 
ATOM     64  F   UNL A   1      38.902  26.301  29.875  1.00  0.00    -0.203 F 
ATOM     65  C   UNL A   1      39.735  25.907  27.710  1.00  0.00     0.198 A 
ATOM     66  C   UNL A   1      41.232  27.482  26.693  1.00  0.00     0.198 A 
ATOM     67  F   UNL A   1      41.913  29.397  27.876  1.00  0.00    -0.203 F 
ATOM     68  F   UNL A   1      39.062  24.748  27.666  1.00  0.00    -0.200 F 
ATOM     69  C   UNL A   1      40.512  26.298  26.632  1.00  0.00     0.200 A 
ATOM     70  F   UNL A   1      41.972  27.870  25.645  1.00  0.00    -0.200 F 
ATOM     71  F   UNL A   1      40.573  25.531  25.534  1.00  0.00    -0.200 F 
ENDBRANCH  47  61
BRANCH  48  72
ATOM     72  C   UNL A   1      39.501  33.859  36.914  1.00  0.00     0.064 A 
ATOM     73  C   UNL A   1      38.745  33.443  38.020  1.00  0.00     0.173 A 
ATOM     74  C   UNL A   1      40.097  35.127  36.975  1.00  0.00     0.173 A 
ATOM     75  F   UNL A   1      38.140  32.245  38.003  1.00  0.00    -0.203 F 
ATOM     76  C   UNL A   1      38.562  34.274  39.122  1.00  0.00     0.198 A 
ATOM     77  C   UNL A   1      39.941  35.944  38.094  1.00  0.00     0.198 A 
ATOM     78  F   UNL A   1      40.837  35.573  35.948  1.00  0.00    -0.203 F 
ATOM     79  F   UNL A   1      37.782  33.874  40.137  1.00  0.00    -0.200 F 
ATOM     80  C   UNL A   1      39.163  35.522  39.161  1.00  0.00     0.200 A 
ATOM     81  F   UNL A   1      40.539  37.143  38.133  1.00  0.00    -0.200 F 
ATOM     82  F   UNL A   1      38.985  36.323  40.220  1.00  0.00    -0.200 F 
ENDBRANCH  48  72
BRANCH  60  83
ATOM     83  C   UNL A   1      43.939  28.780  35.173  1.00  0.00     0.064 A 
ATOM     84  C   UNL A   1      43.829  27.736  36.104  1.00  0.00     0.173 A 
ATOM     85  C   UNL A   1      45.224  29.262  34.878  1.00  0.00     0.173 A 
ATOM     86  F   UNL A   1      42.623  27.248  36.431  1.00  0.00    -0.203 F 
ATOM     87  C   UNL A   1      44.955  27.223  36.741  1.00  0.00     0.198 A 
ATOM     88  C   UNL A   1      46.352  28.723  35.491  1.00  0.00     0.198 A 
ATOM     89  F   UNL A   1      45.388  30.253  33.989  1.00  0.00    -0.203 F 
ATOM     90  F   UNL A   1      44.820  26.269  37.672  1.00  0.00    -0.200 F 
ATOM     91  C   UNL A   1      46.216  27.711  36.430  1.00  0.00     0.200 A 
ATOM     92  F   UNL A   1      47.569  29.184  35.175  1.00  0.00    -0.200 F 
ATOM     93  F   UNL A   1      47.299  27.213  37.041  1.00  0.00    -0.200 F 
ENDBRANCH  60  83
ENDBRANCH  34  35
ENDBRANCH  26  29
ENDBRANCH  24  25
ENDBRANCH  23  24
ENDBRANCH  22  23
ENDBRANCH   1  22
TORSDOF 15
ENDMDL
MODEL 2
REMARK VINA RESULT:     -11.6      1.121      7.546
REMARK SMILES O=C(C[N@H+]1CCC[C@@H]1c1ccccc1Cl)NCCCCCCNC(=O)c1ccc(-c2c3nc(c(-c4c(F)c(F)c(F)c(F)c4F)c4ccc([nH]4)c(-c4c(F)c(F)c(F)c(F)c4F)c4nc(c(-c5c(F)c(F)c(F)c(F)c5F)c5ccc2[nH]5)C=C4)C=C3)cc1
REMARK SMILES IDX 19 1 18 2 17 3 16 4 1 5 2 6 3 8 4 9 5 10 8 11 6 13 7 14 9 15
REMARK SMILES IDX 10 16 14 17 11 18 13 19 15 20 12 21 20 22 21 23 22 24 23 25
REMARK SMILES IDX 24 26 25 28 26 29 27 30 88 31 28 32 87 33 29 34 30 35 31 36
REMARK SMILES IDX 81 37 32 38 86 39 80 40 82 41 33 42 85 43 79 44 78 45 34 47
REMARK SMILES IDX 66 48 46 49 65 50 47 51 50 52 64 53 83 54 48 55 49 56 63 58
REMARK SMILES IDX 84 59 51 60 35 61 36 62 44 63 37 64 38 65 42 66 45 67 39 68
REMARK SMILES IDX 40 69 43 70 41 71 67 72 68 73 76 74 69 75 70 76 74 77 77 78
REMARK SMILES IDX 71 79 72 80 75 81 73 82 52 83 53 84 61 85 54 86 55 87 59 88
REMARK SMILES IDX 62 89 56 90 57 91 60 92 58 93
REMARK H PARENT 16 7 4 12 23 27 82 46 50 57
REMARK Flexibility Score: inf
ROOT
ATOM      1  C   UNL A   1      31.783  29.298  26.843  1.00  0.00     0.002 C 
ENDROOT
BRANCH   1   2
ATOM      2  C   UNL A   1      33.081  28.497  26.664  1.00  0.00     0.021 C 
BRANCH   2   3
ATOM      3  C   UNL A   1      33.807  28.768  25.351  1.00  0.00     0.116 C 
BRANCH   3   4
ATOM      4  N   UNL A   1      33.763  27.615  24.482  1.00  0.00    -0.351 N 
ATOM      5  O   UNL A   1      32.390  28.503  22.870  1.00  0.00    -0.269 OA
ATOM      6  C   UNL A   1      33.103  27.590  23.274  1.00  0.00     0.275 C 
ATOM      7  H   UNL A   1      34.234  26.800  24.771  1.00  0.00     0.163 HD
BRANCH   6   8
ATOM      8  C   UNL A   1      33.409  26.329  22.446  1.00  0.00     0.364 C 
BRANCH   8   9
ATOM      9  N   UNL A   1      32.783  25.184  23.121  1.00  0.00    -0.321 N 
ATOM     10  C   UNL A   1      31.368  25.014  22.796  1.00  0.00     0.263 C 
ATOM     11  C   UNL A   1      33.428  23.874  22.889  1.00  0.00     0.217 C 
ATOM     12  H   UNL A   1      32.906  25.444  24.099  1.00  0.00     0.349 HD
ATOM     13  C   UNL A   1      31.063  23.724  23.512  1.00  0.00     0.068 C 
ATOM     14  C   UNL A   1      32.292  22.878  23.229  1.00  0.00     0.076 C 
BRANCH  11  15
ATOM     15  C   UNL A   1      34.690  23.606  23.703  1.00  0.00     0.028 A 
ATOM     16  C   UNL A   1      35.823  22.997  23.126  1.00  0.00     0.011 A 
ATOM     17  C   UNL A   1      34.769  23.933  25.072  1.00  0.00     0.050 A 
ATOM     18  C   UNL A   1      36.967  22.711  23.874  1.00  0.00     0.001 A 
ATOM     19  C   UNL A   1      35.935  23.687  25.811  1.00  0.00     0.021 A 
ATOM     20  Cl  UNL A   1      33.443  24.634  25.939  1.00  0.00    -0.084 Cl
ATOM     21  C   UNL A   1      37.030  23.067  25.215  1.00  0.00     0.002 A 
ENDBRANCH  11  15
ENDBRANCH   8   9
ENDBRANCH   6   8
ENDBRANCH   3   4
ENDBRANCH   2   3
ENDBRANCH   1   2
BRANCH   1  22
ATOM     22  C   UNL A   1      31.586  30.452  25.856  1.00  0.00     0.002 C 
BRANCH  22  23
ATOM     23  C   UNL A   1      31.380  31.823  26.501  1.00  0.00     0.021 C 
BRANCH  23  24
ATOM     24  C   UNL A   1      32.641  32.437  27.096  1.00  0.00     0.116 C 
BRANCH  24  25
ATOM     25  N   UNL A   1      32.457  33.828  27.477  1.00  0.00    -0.352 N 
ATOM     26  C   UNL A   1      33.107  34.551  28.448  1.00  0.00     0.251 C 
ATOM     27  H   UNL A   1      31.771  34.319  26.970  1.00  0.00     0.163 HD
ATOM     28  O   UNL A   1      32.719  35.669  28.753  1.00  0.00    -0.269 OA
BRANCH  26  29
ATOM     29  C   UNL A   1      34.267  33.953  29.143  1.00  0.00     0.039 A 
ATOM     30  C   UNL A   1      34.035  33.045  30.180  1.00  0.00     0.014 A 
ATOM     31  C   UNL A   1      35.573  34.278  28.771  1.00  0.00     0.014 A 
ATOM     32  C   UNL A   1      35.117  32.422  30.805  1.00  0.00     0.010 A 
ATOM     33  C   UNL A   1      36.645  33.596  29.338  1.00  0.00     0.010 A 
ATOM     34  C   UNL A   1      36.430  32.668  30.367  1.00  0.00    -0.014 A 
BRANCH  34  35
ATOM     35  C   UNL A   1      37.586  31.975  30.989  1.00  0.00     0.031 A 
ATOM     36  C   UNL A   1      38.057  32.375  32.359  1.00  0.00     0.074 A 
ATOM     37  C   UNL A   1      38.240  31.019  30.301  1.00  0.00     0.049 A 
ATOM     38  N   UNL A   1      39.075  31.923  33.051  1.00  0.00    -0.248 NA
ATOM     39  C   UNL A   1      37.302  33.442  33.035  1.00  0.00     0.031 C 
ATOM     40  C   UNL A   1      37.910  30.576  28.946  1.00  0.00     0.029 A 
ATOM     41  N   UNL A   1      39.325  30.252  30.645  1.00  0.00    -0.354 N 
ATOM     42  C   UNL A   1      39.080  32.652  34.234  1.00  0.00     0.074 A 
ATOM     43  C   UNL A   1      38.011  33.622  34.139  1.00  0.00     0.031 C 
ATOM     44  C   UNL A   1      38.756  29.598  28.584  1.00  0.00     0.029 A 
ATOM     45  C   UNL A   1      39.713  29.374  29.662  1.00  0.00     0.049 A 
ATOM     46  H   UNL A   1      39.782  30.323  31.514  1.00  0.00     0.167 HD
ATOM     47  C   UNL A   1      39.882  32.505  35.316  1.00  0.00     0.037 A 
ATOM     48  C   UNL A   1      40.733  28.494  29.633  1.00  0.00     0.037 A 
ATOM     49  C   UNL A   1      40.939  31.532  35.411  1.00  0.00     0.049 A 
ATOM     50  C   UNL A   1      41.625  28.368  30.839  1.00  0.00     0.074 A 
ATOM     51  C   UNL A   1      41.788  31.280  36.474  1.00  0.00     0.029 A 
ATOM     52  N   UNL A   1      41.293  30.650  34.400  1.00  0.00    -0.354 N 
ATOM     53  N   UNL A   1      41.579  29.016  31.978  1.00  0.00    -0.248 NA
ATOM     54  C   UNL A   1      42.708  27.376  30.759  1.00  0.00     0.031 C 
ATOM     55  C   UNL A   1      42.687  30.282  36.089  1.00  0.00     0.029 A 
ATOM     56  C   UNL A   1      42.361  29.866  34.809  1.00  0.00     0.049 A 
ATOM     57  H   UNL A   1      40.852  30.591  33.522  1.00  0.00     0.167 HD
ATOM     58  C   UNL A   1      42.597  28.488  32.761  1.00  0.00     0.074 A 
ATOM     59  C   UNL A   1      43.233  27.453  31.973  1.00  0.00     0.031 C 
ATOM     60  C   UNL A   1      42.973  28.828  34.018  1.00  0.00     0.037 A 
BRANCH  47  61
ATOM     61  C   UNL A   1      39.640  33.414  36.487  1.00  0.00     0.064 A 
ATOM     62  C   UNL A   1      40.253  34.673  36.579  1.00  0.00     0.173 A 
ATOM     63  C   UNL A   1      38.760  33.040  37.514  1.00  0.00     0.173 A 
ATOM     64  F   UNL A   1      41.113  35.076  35.630  1.00  0.00    -0.203 F 
ATOM     65  C   UNL A   1      40.020  35.508  37.669  1.00  0.00     0.198 A 
ATOM     66  C   UNL A   1      38.501  33.892  38.585  1.00  0.00     0.198 A 
ATOM     67  F   UNL A   1      38.141  31.850  37.475  1.00  0.00    -0.203 F 
ATOM     68  F   UNL A   1      40.661  36.682  37.760  1.00  0.00    -0.200 F 
ATOM     69  C   UNL A   1      39.139  35.121  38.666  1.00  0.00     0.200 A 
ATOM     70  F   UNL A   1      37.637  33.522  39.540  1.00  0.00    -0.200 F 
ATOM     71  F   UNL A   1      38.908  35.929  39.709  1.00  0.00    -0.200 F 
ENDBRANCH  47  61
BRANCH  48  72
ATOM     72  C   UNL A   1      40.957  27.647  28.431  1.00  0.00     0.064 A 
ATOM     73  C   UNL A   1      41.837  28.049  27.415  1.00  0.00     0.173 A 
ATOM     74  C   UNL A   1      40.278  26.432  28.258  1.00  0.00     0.173 A 
ATOM     75  F   UNL A   1      42.497  29.212  27.526  1.00  0.00    -0.203 F 
ATOM     76  C   UNL A   1      42.001  27.288  26.260  1.00  0.00     0.198 A 
ATOM     77  C   UNL A   1      40.470  25.654  27.117  1.00  0.00     0.198 A 
ATOM     78  F   UNL A   1      39.430  25.995  29.201  1.00  0.00    -0.203 F 
ATOM     79  F   UNL A   1      42.801  27.730  25.279  1.00  0.00    -0.200 F 
ATOM     80  C   UNL A   1      41.322  26.090  26.113  1.00  0.00     0.200 A 
ATOM     81  F   UNL A   1      39.823  24.488  26.988  1.00  0.00    -0.200 F 
ATOM     82  F   UNL A   1      41.478  25.359  25.001  1.00  0.00    -0.200 F 
ENDBRANCH  48  72
BRANCH  60  83
ATOM     83  C   UNL A   1      44.090  28.039  34.641  1.00  0.00     0.064 A 
ATOM     84  C   UNL A   1      43.855  26.844  35.338  1.00  0.00     0.173 A 
ATOM     85  C   UNL A   1      45.418  28.473  34.513  1.00  0.00     0.173 A 
ATOM     86  F   UNL A   1      42.603  26.392  35.500  1.00  0.00    -0.203 F 
ATOM     87  C   UNL A   1      44.905  26.134  35.915  1.00  0.00     0.198 A 
ATOM     88  C   UNL A   1      46.469  27.742  35.061  1.00  0.00     0.198 A 
ATOM     89  F   UNL A   1      45.700  29.604  33.849  1.00  0.00    -0.203 F 
ATOM     90  F   UNL A   1      44.651  25.029  36.629  1.00  0.00    -0.200 F 
ATOM     91  C   UNL A   1      46.211  26.579  35.771  1.00  0.00     0.200 A 
ATOM     92  F   UNL A   1      47.730  28.165  34.904  1.00  0.00    -0.200 F 
ATOM     93  F   UNL A   1      47.219  25.892  36.323  1.00  0.00    -0.200 F 
ENDBRANCH  60  83
ENDBRANCH  34  35
ENDBRANCH  26  29
ENDBRANCH  24  25
ENDBRANCH  23  24
ENDBRANCH  22  23
ENDBRANCH   1  22
TORSDOF 15
ENDMDL
MODEL 3
REMARK VINA RESULT:     -11.5      5.890     11.185
REMARK SMILES O=C(C[N@H+]1CCC[C@@H]1c1ccccc1Cl)NCCCCCCNC(=O)c1ccc(-c2c3nc(c(-c4c(F)c(F)c(F)c(F)c4F)c4ccc([nH]4)c(-c4c(F)c(F)c(F)c(F)c4F)c4nc(c(-c5c(F)c(F)c(F)c(F)c5F)c5ccc2[nH]5)C=C4)C=C3)cc1
REMARK SMILES IDX 19 1 18 2 17 3 16 4 1 5 2 6 3 8 4 9 5 10 8 11 6 13 7 14 9 15
REMARK SMILES IDX 10 16 14 17 11 18 13 19 15 20 12 21 20 22 21 23 22 24 23 25
REMARK SMILES IDX 24 26 25 28 26 29 27 30 88 31 28 32 87 33 29 34 30 35 31 36
REMARK SMILES IDX 81 37 32 38 86 39 80 40 82 41 33 42 85 43 79 44 78 45 34 47
REMARK SMILES IDX 66 48 46 49 65 50 47 51 50 52 64 53 83 54 48 55 49 56 63 58
REMARK SMILES IDX 84 59 51 60 35 61 36 62 44 63 37 64 38 65 42 66 45 67 39 68
REMARK SMILES IDX 40 69 43 70 41 71 67 72 68 73 76 74 69 75 70 76 74 77 77 78
REMARK SMILES IDX 71 79 72 80 75 81 73 82 52 83 53 84 61 85 54 86 55 87 59 88
REMARK SMILES IDX 62 89 56 90 57 91 60 92 58 93
REMARK H PARENT 16 7 4 12 23 27 82 46 50 57
REMARK Flexibility Score: inf
ROOT
ATOM      1  C   UNL A   1      37.513  21.834  25.239  1.00  0.00     0.002 C 
ENDROOT
BRANCH   1   2
ATOM      2  C   UNL A   1      36.343  22.650  25.808  1.00  0.00     0.021 C 
BRANCH   2   3
ATOM      3  C   UNL A   1      36.351  24.120  25.403  1.00  0.00     0.116 C 
BRANCH   3   4
ATOM      4  N   UNL A   1      35.083  24.511  24.832  1.00  0.00    -0.351 N 
ATOM      5  O   UNL A   1      35.374  23.553  22.765  1.00  0.00    -0.269 OA
ATOM      6  C   UNL A   1      34.665  24.146  23.572  1.00  0.00     0.275 C 
ATOM      7  H   UNL A   1      34.483  25.070  25.376  1.00  0.00     0.163 HD
BRANCH   6   8
ATOM      8  C   UNL A   1      33.190  24.494  23.302  1.00  0.00     0.364 C 
BRANCH   8   9
ATOM      9  N   UNL A   1      32.429  24.211  24.527  1.00  0.00    -0.321 N 
ATOM     10  C   UNL A   1      31.585  25.322  24.963  1.00  0.00     0.263 C 
ATOM     11  C   UNL A   1      31.560  23.017  24.478  1.00  0.00     0.217 C 
ATOM     12  H   UNL A   1      33.185  24.043  25.190  1.00  0.00     0.349 HD
ATOM     13  C   UNL A   1      30.860  24.692  26.123  1.00  0.00     0.068 C 
ATOM     14  C   UNL A   1      30.542  23.299  25.610  1.00  0.00     0.076 C 
BRANCH  11  15
ATOM     15  C   UNL A   1      32.267  21.677  24.662  1.00  0.00     0.028 A 
ATOM     16  C   UNL A   1      32.849  21.314  25.894  1.00  0.00     0.011 A 
ATOM     17  C   UNL A   1      32.389  20.755  23.602  1.00  0.00     0.050 A 
ATOM     18  C   UNL A   1      33.534  20.108  26.059  1.00  0.00     0.001 A 
ATOM     19  C   UNL A   1      33.037  19.525  23.782  1.00  0.00     0.021 A 
ATOM     20  Cl  UNL A   1      31.778  21.077  22.014  1.00  0.00    -0.084 Cl
ATOM     21  C   UNL A   1      33.618  19.206  25.006  1.00  0.00     0.002 A 
ENDBRANCH  11  15
ENDBRANCH   8   9
ENDBRANCH   6   8
ENDBRANCH   3   4
ENDBRANCH   2   3
ENDBRANCH   1   2
BRANCH   1  22
ATOM     22  C   UNL A   1      37.155  20.424  24.759  1.00  0.00     0.002 C 
BRANCH  22  23
ATOM     23  C   UNL A   1      38.234  19.368  25.004  1.00  0.00     0.021 C 
BRANCH  23  24
ATOM     24  C   UNL A   1      39.454  19.874  25.762  1.00  0.00     0.116 C 
BRANCH  24  25
ATOM     25  N   UNL A   1      40.475  18.851  25.921  1.00  0.00    -0.352 N 
ATOM     26  C   UNL A   1      41.824  19.002  26.130  1.00  0.00     0.251 C 
ATOM     27  H   UNL A   1      40.155  17.922  25.872  1.00  0.00     0.163 HD
ATOM     28  O   UNL A   1      42.572  18.037  26.080  1.00  0.00    -0.269 OA
BRANCH  26  29
ATOM     29  C   UNL A   1      42.371  20.352  26.390  1.00  0.00     0.039 A 
ATOM     30  C   UNL A   1      42.863  21.097  25.315  1.00  0.00     0.014 A 
ATOM     31  C   UNL A   1      42.391  20.882  27.682  1.00  0.00     0.014 A 
ATOM     32  C   UNL A   1      43.324  22.397  25.532  1.00  0.00     0.010 A 
ATOM     33  C   UNL A   1      42.774  22.204  27.883  1.00  0.00     0.010 A 
ATOM     34  C   UNL A   1      43.254  22.972  26.812  1.00  0.00    -0.014 A 
BRANCH  34  35
ATOM     35  C   UNL A   1      43.693  24.371  27.047  1.00  0.00     0.031 A 
ATOM     36  C   UNL A   1      42.712  25.397  27.542  1.00  0.00     0.074 A 
ATOM     37  C   UNL A   1      44.963  24.727  26.774  1.00  0.00     0.049 A 
ATOM     38  N   UNL A   1      42.891  26.676  27.764  1.00  0.00    -0.248 NA
ATOM     39  C   UNL A   1      41.339  24.932  27.797  1.00  0.00     0.031 C 
ATOM     40  C   UNL A   1      45.997  23.835  26.245  1.00  0.00     0.029 A 
ATOM     41  N   UNL A   1      45.601  25.936  26.895  1.00  0.00    -0.354 N 
ATOM     42  C   UNL A   1      41.657  27.162  28.179  1.00  0.00     0.074 A 
ATOM     43  C   UNL A   1      40.722  26.061  28.111  1.00  0.00     0.031 C 
ATOM     44  C   UNL A   1      47.144  24.520  26.112  1.00  0.00     0.029 A 
ATOM     45  C   UNL A   1      46.918  25.907  26.506  1.00  0.00     0.049 A 
ATOM     46  H   UNL A   1      45.156  26.748  27.230  1.00  0.00     0.167 HD
ATOM     47  C   UNL A   1      41.339  28.408  28.608  1.00  0.00     0.037 A 
ATOM     48  C   UNL A   1      47.836  26.892  26.464  1.00  0.00     0.037 A 
ATOM     49  C   UNL A   1      42.275  29.500  28.683  1.00  0.00     0.049 A 
ATOM     50  C   UNL A   1      47.449  28.273  26.924  1.00  0.00     0.074 A 
ATOM     51  C   UNL A   1      42.061  30.791  29.134  1.00  0.00     0.029 A 
ATOM     52  N   UNL A   1      43.604  29.427  28.294  1.00  0.00    -0.354 N 
ATOM     53  N   UNL A   1      46.297  28.705  27.377  1.00  0.00    -0.248 NA
ATOM     54  C   UNL A   1      48.498  29.302  26.876  1.00  0.00     0.031 C 
ATOM     55  C   UNL A   1      43.246  31.513  28.971  1.00  0.00     0.029 A 
ATOM     56  C   UNL A   1      44.218  30.657  28.477  1.00  0.00     0.049 A 
ATOM     57  H   UNL A   1      44.046  28.622  27.939  1.00  0.00     0.167 HD
ATOM     58  C   UNL A   1      46.491  30.041  27.702  1.00  0.00     0.074 A 
ATOM     59  C   UNL A   1      47.877  30.343  27.410  1.00  0.00     0.031 C 
ATOM     60  C   UNL A   1      45.604  30.938  28.197  1.00  0.00     0.037 A 
BRANCH  47  61
ATOM     61  C   UNL A   1      39.920  28.651  29.038  1.00  0.00     0.064 A 
ATOM     62  C   UNL A   1      38.947  29.107  28.136  1.00  0.00     0.173 A 
ATOM     63  C   UNL A   1      39.518  28.394  30.358  1.00  0.00     0.173 A 
ATOM     64  F   UNL A   1      39.280  29.380  26.864  1.00  0.00    -0.203 F 
ATOM     65  C   UNL A   1      37.635  29.328  28.545  1.00  0.00     0.198 A 
ATOM     66  C   UNL A   1      38.197  28.582  30.755  1.00  0.00     0.198 A 
ATOM     67  F   UNL A   1      40.405  27.950  31.262  1.00  0.00    -0.203 F 
ATOM     68  F   UNL A   1      36.737  29.817  27.677  1.00  0.00    -0.200 F 
ATOM     69  C   UNL A   1      37.259  29.058  29.851  1.00  0.00     0.200 A 
ATOM     70  F   UNL A   1      37.832  28.305  32.014  1.00  0.00    -0.200 F 
ATOM     71  F   UNL A   1      35.993  29.262  30.242  1.00  0.00    -0.200 F 
ENDBRANCH  47  61
BRANCH  48  72
ATOM     72  C   UNL A   1      49.217  26.609  25.988  1.00  0.00     0.064 A 
ATOM     73  C   UNL A   1      49.598  26.885  24.667  1.00  0.00     0.173 A 
ATOM     74  C   UNL A   1      50.176  26.033  26.833  1.00  0.00     0.173 A 
ATOM     75  F   UNL A   1      48.712  27.420  23.814  1.00  0.00    -0.203 F 
ATOM     76  C   UNL A   1      50.871  26.563  24.201  1.00  0.00     0.198 A 
ATOM     77  C   UNL A   1      51.460  25.743  26.376  1.00  0.00     0.198 A 
ATOM     78  F   UNL A   1      49.868  25.754  28.110  1.00  0.00    -0.203 F 
ATOM     79  F   UNL A   1      51.186  26.781  22.917  1.00  0.00    -0.200 F 
ATOM     80  C   UNL A   1      51.803  25.997  25.057  1.00  0.00     0.200 A 
ATOM     81  F   UNL A   1      52.363  25.212  27.211  1.00  0.00    -0.200 F 
ATOM     82  F   UNL A   1      53.026  25.685  24.608  1.00  0.00    -0.200 F 
ENDBRANCH  48  72
BRANCH  60  83
ATOM     83  C   UNL A   1      46.115  32.316  28.505  1.00  0.00     0.064 A 
ATOM     84  C   UNL A   1      46.686  32.636  29.747  1.00  0.00     0.173 A 
ATOM     85  C   UNL A   1      46.058  33.325  27.531  1.00  0.00     0.173 A 
ATOM     86  F   UNL A   1      46.752  31.712  30.717  1.00  0.00    -0.203 F 
ATOM     87  C   UNL A   1      47.145  33.923  30.014  1.00  0.00     0.198 A 
ATOM     88  C   UNL A   1      46.551  34.602  27.790  1.00  0.00     0.198 A 
ATOM     89  F   UNL A   1      45.532  33.073  26.324  1.00  0.00    -0.203 F 
ATOM     90  F   UNL A   1      47.630  34.221  31.227  1.00  0.00    -0.200 F 
ATOM     91  C   UNL A   1      47.084  34.902  29.034  1.00  0.00     0.200 A 
ATOM     92  F   UNL A   1      46.507  35.541  26.835  1.00  0.00    -0.200 F 
ATOM     93  F   UNL A   1      47.531  36.139  29.292  1.00  0.00    -0.200 F 
ENDBRANCH  60  83
ENDBRANCH  34  35
ENDBRANCH  26  29
ENDBRANCH  24  25
ENDBRANCH  23  24
ENDBRANCH  22  23
ENDBRANCH   1  22
TORSDOF 15
ENDMDL
