MODEL 1
REMARK VINA RESULT:     -10.6      0.000      0.000
REMARK SMILES CCc1ccc(N2C(=O)/C(=C/c3cc(Cl)c(OCC(=O)NCCCCCCNC(=O)c4ccc(-c5c6nc(c(-c7c(F)c(F)c(F)c(F)c7F)c7ccc([nH]7)c(-c7c(F)c(F)c(F)c(F)c7F)c7nc(c(-c8c(F)c(F)c(F)c(F)c8F)c8ccc5[nH]8)C=C7)C=C6)cc4)c(Cl)c3)C(=O)NC2=S)cc1
REMARK SMILES IDX 23 1 22 2 21 3 19 4 20 5 18 7 17 8 16 9 12 10 13 11 96 12
REMARK SMILES IDX 14 13 94 14 15 15 95 16 11 17 7 18 8 19 100 20 9 21 10 22
REMARK SMILES IDX 99 23 101 24 97 25 98 27 6 28 3 29 4 30 103 31 5 32 102 33
REMARK SMILES IDX 2 34 1 35 24 36 25 37 26 38 27 39 28 40 29 41 30 43 31 44
REMARK SMILES IDX 32 45 93 46 33 47 92 48 34 49 35 50 36 51 86 52 37 53 91 54
REMARK SMILES IDX 85 55 87 56 38 57 90 58 84 59 83 60 39 62 71 63 51 64 70 65
REMARK SMILES IDX 52 66 55 67 69 68 88 69 53 70 54 71 68 73 89 74 56 75 40 76
REMARK SMILES IDX 41 77 49 78 42 79 43 80 47 81 50 82 44 83 45 84 48 85 46 86
REMARK SMILES IDX 72 87 73 88 81 89 74 90 75 91 79 92 82 93 76 94 77 95 80 96
REMARK SMILES IDX 78 97 57 98 58 99 66 100 59 101 60 102 64 103 67 104 61 105
REMARK SMILES IDX 62 106 65 107 63 108
REMARK H PARENT 21 6 99 26 28 42 87 61 55 72
REMARK Flexibility Score: inf
ROOT
ATOM      1  C   UNL A   1      37.340  30.144  32.063  1.00  0.00     0.021 C 
ENDROOT
BRANCH   1   2
ATOM      2  C   UNL A   1      36.639  31.371  31.480  1.00  0.00     0.116 C 
BRANCH   2   3
ATOM      3  N   UNL A   1      37.583  32.399  31.095  1.00  0.00    -0.353 N 
ATOM      4  C   UNL A   1      37.478  33.349  30.124  1.00  0.00     0.257 C 
ATOM      5  O   UNL A   1      38.384  34.179  30.028  1.00  0.00    -0.271 OA
ATOM      6  H   UNL A   1      38.424  32.413  31.608  1.00  0.00     0.163 HD
BRANCH   4   7
ATOM      7  C   UNL A   1      36.225  33.407  29.237  1.00  0.00     0.329 C 
BRANCH   7   8
ATOM      8  O   UNL A   1      36.195  32.791  27.964  1.00  0.00    -0.481 OA
BRANCH   8   9
ATOM      9  C   UNL A   1      35.327  31.760  27.724  1.00  0.00     0.157 A 
ATOM     10  C   UNL A   1      33.772  29.433  27.301  1.00  0.00    -0.021 A 
ATOM     11  C   UNL A   1      35.152  29.331  27.466  1.00  0.00     0.032 A 
ATOM     12  C   UNL A   1      33.164  30.684  27.387  1.00  0.00     0.032 A 
ATOM     13  C   UNL A   1      35.916  30.481  27.680  1.00  0.00     0.085 A 
ATOM     14  C   UNL A   1      33.929  31.840  27.619  1.00  0.00     0.085 A 
ATOM     15  Cl  UNL A   1      37.622  30.262  27.910  1.00  0.00    -0.080 Cl
ATOM     16  Cl  UNL A   1      33.021  33.282  27.896  1.00  0.00    -0.080 Cl
BRANCH  10  17
ATOM     17  C   UNL A   1      32.989  28.218  27.084  1.00  0.00     0.028 C 
ATOM     18  N   UNL A   1      32.467  25.503  24.865  1.00  0.00    -0.253 N 
ATOM     19  C   UNL A   1      32.081  26.316  25.938  1.00  0.00     0.270 C 
ATOM     20  C   UNL A   1      32.777  26.032  23.608  1.00  0.00     0.187 C 
ATOM     21  O   UNL A   1      31.395  25.974  26.900  1.00  0.00    -0.268 OA
ATOM     22  C   UNL A   1      32.667  27.680  25.890  1.00  0.00     0.106 C 
ATOM     23  N   UNL A   1      32.941  27.395  23.543  1.00  0.00    -0.298 N 
ATOM     24  S   UNL A   1      32.915  25.205  22.150  1.00  0.00    -0.040 S 
ATOM     25  C   UNL A   1      32.992  28.277  24.584  1.00  0.00     0.263 C 
ATOM     26  H   UNL A   1      33.032  27.779  22.641  1.00  0.00     0.172 HD
ATOM     27  O   UNL A   1      33.309  29.446  24.408  1.00  0.00    -0.269 OA
BRANCH  18  28
ATOM     28  C   UNL A   1      32.609  24.103  25.144  1.00  0.00     0.052 A 
ATOM     29  C   UNL A   1      32.901  21.301  25.318  1.00  0.00    -0.048 A 
ATOM     30  C   UNL A   1      33.981  22.150  25.591  1.00  0.00     0.006 A 
ATOM     31  C   UNL A   1      31.666  21.864  24.984  1.00  0.00     0.006 A 
ATOM     32  C   UNL A   1      33.839  23.538  25.494  1.00  0.00     0.027 A 
ATOM     33  C   UNL A   1      31.521  23.250  24.900  1.00  0.00     0.027 A 
BRANCH  29  34
ATOM     34  C   UNL A   1      33.069  19.803  25.357  1.00  0.00     0.032 C 
ATOM     35  C   UNL A   1      32.529  19.125  24.109  1.00  0.00     0.009 C 
ENDBRANCH  29  34
ENDBRANCH  18  28
ENDBRANCH  10  17
ENDBRANCH   8   9
ENDBRANCH   7   8
ENDBRANCH   4   7
ENDBRANCH   2   3
ENDBRANCH   1   2
BRANCH   1  36
ATOM     36  C   UNL A   1      37.421  28.924  31.135  1.00  0.00     0.002 C 
BRANCH  36  37
ATOM     37  C   UNL A   1      38.827  28.403  30.829  1.00  0.00     0.002 C 
BRANCH  37  38
ATOM     38  C   UNL A   1      38.901  26.981  30.271  1.00  0.00     0.021 C 
BRANCH  38  39
ATOM     39  C   UNL A   1      38.980  26.878  28.750  1.00  0.00     0.116 C 
BRANCH  39  40
ATOM     40  N   UNL A   1      40.150  26.145  28.294  1.00  0.00    -0.352 N 
ATOM     41  C   UNL A   1      41.461  26.552  28.229  1.00  0.00     0.251 C 
ATOM     42  H   UNL A   1      39.979  25.225  27.988  1.00  0.00     0.163 HD
ATOM     43  O   UNL A   1      42.303  25.836  27.694  1.00  0.00    -0.269 OA
BRANCH  41  44
ATOM     44  C   UNL A   1      41.859  27.867  28.776  1.00  0.00     0.039 A 
ATOM     45  C   UNL A   1      41.316  29.024  28.209  1.00  0.00     0.014 A 
ATOM     46  C   UNL A   1      42.766  27.967  29.835  1.00  0.00     0.014 A 
ATOM     47  C   UNL A   1      41.628  30.276  28.746  1.00  0.00     0.010 A 
ATOM     48  C   UNL A   1      43.031  29.210  30.408  1.00  0.00     0.010 A 
ATOM     49  C   UNL A   1      42.462  30.376  29.871  1.00  0.00    -0.014 A 
BRANCH  49  50
ATOM     50  C   UNL A   1      42.749  31.687  30.506  1.00  0.00     0.031 A 
ATOM     51  C   UNL A   1      41.953  32.138  31.698  1.00  0.00     0.074 A 
ATOM     52  C   UNL A   1      43.678  32.501  29.969  1.00  0.00     0.049 A 
ATOM     53  N   UNL A   1      41.981  33.287  32.328  1.00  0.00    -0.248 NA
ATOM     54  C   UNL A   1      40.979  31.179  32.243  1.00  0.00     0.031 C 
ATOM     55  C   UNL A   1      44.495  32.193  28.794  1.00  0.00     0.029 A 
ATOM     56  N   UNL A   1      44.083  33.762  30.333  1.00  0.00    -0.354 N 
ATOM     57  C   UNL A   1      41.025  33.193  33.329  1.00  0.00     0.074 A 
ATOM     58  C   UNL A   1      40.402  31.892  33.198  1.00  0.00     0.031 C 
ATOM     59  C   UNL A   1      45.313  33.229  28.544  1.00  0.00     0.029 A 
ATOM     60  C   UNL A   1      45.053  34.287  29.515  1.00  0.00     0.049 A 
ATOM     61  H   UNL A   1      43.713  34.242  31.108  1.00  0.00     0.167 HD
ATOM     62  C   UNL A   1      40.709  34.100  34.283  1.00  0.00     0.037 A 
ATOM     63  C   UNL A   1      45.657  35.490  29.541  1.00  0.00     0.037 A 
ATOM     64  C   UNL A   1      41.346  35.382  34.431  1.00  0.00     0.049 A 
ATOM     65  C   UNL A   1      45.279  36.482  30.607  1.00  0.00     0.074 A 
ATOM     66  C   UNL A   1      41.120  36.354  35.390  1.00  0.00     0.029 A 
ATOM     67  N   UNL A   1      42.341  35.867  33.596  1.00  0.00    -0.354 N 
ATOM     68  N   UNL A   1      44.403  36.365  31.574  1.00  0.00    -0.248 NA
ATOM     69  C   UNL A   1      45.980  37.775  30.587  1.00  0.00     0.031 C 
ATOM     70  C   UNL A   1      41.959  37.440  35.119  1.00  0.00     0.029 A 
ATOM     71  C   UNL A   1      42.733  37.129  34.014  1.00  0.00     0.049 A 
ATOM     72  H   UNL A   1      42.716  35.387  32.822  1.00  0.00     0.167 HD
ATOM     73  C   UNL A   1      44.467  37.550  32.293  1.00  0.00     0.074 A 
ATOM     74  C   UNL A   1      45.476  38.372  31.659  1.00  0.00     0.031 C 
ATOM     75  C   UNL A   1      43.753  37.925  33.382  1.00  0.00     0.037 A 
BRANCH  62  76
ATOM     76  C   UNL A   1      39.627  33.735  35.256  1.00  0.00     0.064 A 
ATOM     77  C   UNL A   1      39.931  33.261  36.541  1.00  0.00     0.173 A 
ATOM     78  C   UNL A   1      38.277  33.905  34.919  1.00  0.00     0.173 A 
ATOM     79  F   UNL A   1      41.207  33.070  36.906  1.00  0.00    -0.203 F 
ATOM     80  C   UNL A   1      38.919  32.951  37.447  1.00  0.00     0.198 A 
ATOM     81  C   UNL A   1      37.268  33.618  35.836  1.00  0.00     0.198 A 
ATOM     82  F   UNL A   1      37.934  34.359  33.704  1.00  0.00    -0.203 F 
ATOM     83  F   UNL A   1      39.231  32.463  38.655  1.00  0.00    -0.200 F 
ATOM     84  C   UNL A   1      37.591  33.136  37.097  1.00  0.00     0.200 A 
ATOM     85  F   UNL A   1      35.985  33.807  35.501  1.00  0.00    -0.200 F 
ATOM     86  F   UNL A   1      36.619  32.846  37.972  1.00  0.00    -0.200 F 
ENDBRANCH  62  76
BRANCH  63  87
ATOM     87  C   UNL A   1      46.698  35.823  28.535  1.00  0.00     0.064 A 
ATOM     88  C   UNL A   1      46.379  36.568  27.392  1.00  0.00     0.173 A 
ATOM     89  C   UNL A   1      48.023  35.389  28.682  1.00  0.00     0.173 A 
ATOM     90  F   UNL A   1      45.119  36.986  27.197  1.00  0.00    -0.203 F 
ATOM     91  C   UNL A   1      47.339  36.848  26.422  1.00  0.00     0.198 A 
ATOM     92  C   UNL A   1      48.989  35.691  27.725  1.00  0.00     0.198 A 
ATOM     93  F   UNL A   1      48.381  34.674  29.761  1.00  0.00    -0.203 F 
ATOM     94  F   UNL A   1      46.994  37.521  25.317  1.00  0.00    -0.200 F 
ATOM     95  C   UNL A   1      48.645  36.413  26.592  1.00  0.00     0.200 A 
ATOM     96  F   UNL A   1      50.252  35.278  27.896  1.00  0.00    -0.200 F 
ATOM     97  F   UNL A   1      49.567  36.680  25.659  1.00  0.00    -0.200 F 
ENDBRANCH  63  87
BRANCH  75  98
ATOM     98  C   UNL A   1      44.067  39.262  33.983  1.00  0.00     0.064 A 
ATOM     99  C   UNL A   1      43.481  40.440  33.501  1.00  0.00     0.173 A 
ATOM    100  C   UNL A   1      44.934  39.358  35.084  1.00  0.00     0.173 A 
ATOM    101  F   UNL A   1      42.660  40.400  32.441  1.00  0.00    -0.203 F 
ATOM    102  C   UNL A   1      43.768  41.671  34.085  1.00  0.00     0.198 A 
ATOM    103  C   UNL A   1      45.198  40.586  35.680  1.00  0.00     0.198 A 
ATOM    104  F   UNL A   1      45.514  38.257  35.585  1.00  0.00    -0.203 F 
ATOM    105  F   UNL A   1      43.228  42.790  33.582  1.00  0.00    -0.200 F 
ATOM    106  C   UNL A   1      44.619  41.742  35.178  1.00  0.00     0.200 A 
ATOM    107  F   UNL A   1      46.012  40.653  36.742  1.00  0.00    -0.200 F 
ATOM    108  F   UNL A   1      44.888  42.927  35.742  1.00  0.00    -0.200 F 
ENDBRANCH  75  98
ENDBRANCH  49  50
ENDBRANCH  41  44
ENDBRANCH  39  40
ENDBRANCH  38  39
ENDBRANCH  37  38
ENDBRANCH  36  37
ENDBRANCH   1  36
TORSDOF 18
ENDMDL
MODEL 2
REMARK VINA RESULT:     -10.6      0.300      6.872
REMARK SMILES CCc1ccc(N2C(=O)/C(=C/c3cc(Cl)c(OCC(=O)NCCCCCCNC(=O)c4ccc(-c5c6nc(c(-c7c(F)c(F)c(F)c(F)c7F)c7ccc([nH]7)c(-c7c(F)c(F)c(F)c(F)c7F)c7nc(c(-c8c(F)c(F)c(F)c(F)c8F)c8ccc5[nH]8)C=C7)C=C6)cc4)c(Cl)c3)C(=O)NC2=S)cc1
REMARK SMILES IDX 23 1 22 2 21 3 19 4 20 5 18 7 17 8 16 9 12 10 13 11 96 12
REMARK SMILES IDX 14 13 94 14 15 15 95 16 11 17 7 18 8 19 100 20 9 21 10 22
REMARK SMILES IDX 99 23 101 24 97 25 98 27 6 28 3 29 4 30 103 31 5 32 102 33
REMARK SMILES IDX 2 34 1 35 24 36 25 37 26 38 27 39 28 40 29 41 30 43 31 44
REMARK SMILES IDX 32 45 93 46 33 47 92 48 34 49 35 50 36 51 86 52 37 53 91 54
REMARK SMILES IDX 85 55 87 56 38 57 90 58 84 59 83 60 39 62 71 63 51 64 70 65
REMARK SMILES IDX 52 66 55 67 69 68 88 69 53 70 54 71 68 73 89 74 56 75 40 76
REMARK SMILES IDX 41 77 49 78 42 79 43 80 47 81 50 82 44 83 45 84 48 85 46 86
REMARK SMILES IDX 72 87 73 88 81 89 74 90 75 91 79 92 82 93 76 94 77 95 80 96
REMARK SMILES IDX 78 97 57 98 58 99 66 100 59 101 60 102 64 103 67 104 61 105
REMARK SMILES IDX 62 106 65 107 63 108
REMARK H PARENT 21 6 99 26 28 42 87 61 55 72
REMARK Flexibility Score: inf
ROOT
ATOM      1  C   UNL A   1      37.280  29.873  31.871  1.00  0.00     0.021 C 
ENDROOT
BRANCH   1   2
ATOM      2  C   UNL A   1      36.606  31.104  31.267  1.00  0.00     0.116 C 
BRANCH   2   3
ATOM      3  N   UNL A   1      37.541  32.191  31.074  1.00  0.00    -0.353 N 
ATOM      4  C   UNL A   1      37.476  33.247  30.214  1.00  0.00     0.257 C 
ATOM      5  O   UNL A   1      38.359  34.103  30.282  1.00  0.00    -0.271 OA
ATOM      6  H   UNL A   1      38.342  32.164  31.646  1.00  0.00     0.163 HD
BRANCH   4   7
ATOM      7  C   UNL A   1      36.287  33.380  29.250  1.00  0.00     0.329 C 
BRANCH   7   8
ATOM      8  O   UNL A   1      36.285  32.733  27.991  1.00  0.00    -0.481 OA
BRANCH   8   9
ATOM      9  C   UNL A   1      35.401  31.717  27.746  1.00  0.00     0.157 A 
ATOM     10  C   UNL A   1      33.812  29.417  27.307  1.00  0.00    -0.021 A 
ATOM     11  C   UNL A   1      35.191  29.295  27.456  1.00  0.00     0.032 A 
ATOM     12  C   UNL A   1      33.220  30.675  27.417  1.00  0.00     0.032 A 
ATOM     13  C   UNL A   1      35.973  30.432  27.678  1.00  0.00     0.085 A 
ATOM     14  C   UNL A   1      34.003  31.817  27.657  1.00  0.00     0.085 A 
ATOM     15  Cl  UNL A   1      37.678  30.187  27.886  1.00  0.00    -0.080 Cl
ATOM     16  Cl  UNL A   1      33.118  33.267  27.964  1.00  0.00    -0.080 Cl
BRANCH  10  17
ATOM     17  C   UNL A   1      33.010  28.216  27.081  1.00  0.00     0.028 C 
ATOM     18  N   UNL A   1      32.509  25.475  24.889  1.00  0.00    -0.253 N 
ATOM     19  C   UNL A   1      32.103  26.314  25.935  1.00  0.00     0.270 C 
ATOM     20  C   UNL A   1      32.876  25.975  23.636  1.00  0.00     0.187 C 
ATOM     21  O   UNL A   1      31.375  26.003  26.876  1.00  0.00    -0.268 OA
ATOM     22  C   UNL A   1      32.720  27.664  25.886  1.00  0.00     0.106 C 
ATOM     23  N   UNL A   1      33.072  27.333  23.555  1.00  0.00    -0.298 N 
ATOM     24  S   UNL A   1      33.049  25.121  22.198  1.00  0.00    -0.040 S 
ATOM     25  C   UNL A   1      33.105  28.232  24.583  1.00  0.00     0.263 C 
ATOM     26  H   UNL A   1      33.204  27.700  22.651  1.00  0.00     0.172 HD
ATOM     27  O   UNL A   1      33.453  29.391  24.399  1.00  0.00    -0.269 OA
BRANCH  18  28
ATOM     28  C   UNL A   1      32.610  24.077  25.196  1.00  0.00     0.052 A 
ATOM     29  C   UNL A   1      32.794  21.270  25.427  1.00  0.00    -0.048 A 
ATOM     30  C   UNL A   1      33.925  22.076  25.603  1.00  0.00     0.006 A 
ATOM     31  C   UNL A   1      31.564  21.879  25.161  1.00  0.00     0.006 A 
ATOM     32  C   UNL A   1      33.836  23.467  25.479  1.00  0.00     0.027 A 
ATOM     33  C   UNL A   1      31.473  23.267  25.049  1.00  0.00     0.027 A 
BRANCH  29  34
ATOM     34  C   UNL A   1      32.900  19.768  25.495  1.00  0.00     0.032 C 
ATOM     35  C   UNL A   1      33.533  19.172  24.248  1.00  0.00     0.009 C 
ENDBRANCH  29  34
ENDBRANCH  18  28
ENDBRANCH  10  17
ENDBRANCH   8   9
ENDBRANCH   7   8
ENDBRANCH   4   7
ENDBRANCH   2   3
ENDBRANCH   1   2
BRANCH   1  36
ATOM     36  C   UNL A   1      37.410  28.662  30.937  1.00  0.00     0.002 C 
BRANCH  36  37
ATOM     37  C   UNL A   1      38.834  28.166  30.671  1.00  0.00     0.002 C 
BRANCH  37  38
ATOM     38  C   UNL A   1      38.949  26.743  30.125  1.00  0.00     0.021 C 
BRANCH  38  39
ATOM     39  C   UNL A   1      39.157  26.634  28.617  1.00  0.00     0.116 C 
BRANCH  39  40
ATOM     40  N   UNL A   1      40.390  25.948  28.265  1.00  0.00    -0.352 N 
ATOM     41  C   UNL A   1      41.682  26.416  28.285  1.00  0.00     0.251 C 
ATOM     42  H   UNL A   1      40.284  25.015  27.970  1.00  0.00     0.163 HD
ATOM     43  O   UNL A   1      42.594  25.731  27.831  1.00  0.00    -0.269 OA
BRANCH  41  44
ATOM     44  C   UNL A   1      41.978  27.760  28.827  1.00  0.00     0.039 A 
ATOM     45  C   UNL A   1      41.443  28.879  28.180  1.00  0.00     0.014 A 
ATOM     46  C   UNL A   1      42.781  27.925  29.959  1.00  0.00     0.014 A 
ATOM     47  C   UNL A   1      41.657  30.156  28.707  1.00  0.00     0.010 A 
ATOM     48  C   UNL A   1      42.944  29.191  30.517  1.00  0.00     0.010 A 
ATOM     49  C   UNL A   1      42.380  30.319  29.899  1.00  0.00    -0.014 A 
BRANCH  49  50
ATOM     50  C   UNL A   1      42.558  31.657  30.518  1.00  0.00     0.031 A 
ATOM     51  C   UNL A   1      43.626  32.586  30.012  1.00  0.00     0.074 A 
ATOM     52  C   UNL A   1      41.803  32.009  31.576  1.00  0.00     0.049 A 
ATOM     53  N   UNL A   1      44.005  33.748  30.484  1.00  0.00    -0.248 NA
ATOM     54  C   UNL A   1      44.384  32.140  28.834  1.00  0.00     0.031 C 
ATOM     55  C   UNL A   1      40.756  31.185  32.181  1.00  0.00     0.029 A 
ATOM     56  N   UNL A   1      41.811  33.150  32.342  1.00  0.00    -0.354 N 
ATOM     57  C   UNL A   1      45.050  34.163  29.670  1.00  0.00     0.074 A 
ATOM     58  C   UNL A   1      45.277  33.110  28.702  1.00  0.00     0.031 C 
ATOM     59  C   UNL A   1      40.213  31.852  33.213  1.00  0.00     0.029 A 
ATOM     60  C   UNL A   1      40.897  33.132  33.366  1.00  0.00     0.049 A 
ATOM     61  H   UNL A   1      42.416  33.908  32.171  1.00  0.00     0.167 HD
ATOM     62  C   UNL A   1      45.745  35.324  29.715  1.00  0.00     0.037 A 
ATOM     63  C   UNL A   1      40.646  34.042  34.327  1.00  0.00     0.037 A 
ATOM     64  C   UNL A   1      45.503  36.382  30.660  1.00  0.00     0.049 A 
ATOM     65  C   UNL A   1      41.441  35.320  34.357  1.00  0.00     0.074 A 
ATOM     66  C   UNL A   1      46.130  37.612  30.759  1.00  0.00     0.029 A 
ATOM     67  N   UNL A   1      44.551  36.336  31.667  1.00  0.00    -0.354 N 
ATOM     68  N   UNL A   1      42.398  35.718  33.556  1.00  0.00    -0.248 NA
ATOM     69  C   UNL A   1      41.114  36.277  35.424  1.00  0.00     0.031 C 
ATOM     70  C   UNL A   1      45.577  38.300  31.845  1.00  0.00     0.029 A 
ATOM     71  C   UNL A   1      44.581  37.513  32.398  1.00  0.00     0.049 A 
ATOM     72  H   UNL A   1      43.943  35.580  31.837  1.00  0.00     0.167 HD
ATOM     73  C   UNL A   1      42.767  36.980  34.001  1.00  0.00     0.074 A 
ATOM     74  C   UNL A   1      41.924  37.288  35.138  1.00  0.00     0.031 C 
ATOM     75  C   UNL A   1      43.720  37.810  33.514  1.00  0.00     0.037 A 
BRANCH  62  76
ATOM     76  C   UNL A   1      46.833  35.520  28.701  1.00  0.00     0.064 A 
ATOM     77  C   UNL A   1      48.121  35.002  28.903  1.00  0.00     0.173 A 
ATOM     78  C   UNL A   1      46.574  36.188  27.496  1.00  0.00     0.173 A 
ATOM     79  F   UNL A   1      48.421  34.366  30.045  1.00  0.00    -0.203 F 
ATOM     80  C   UNL A   1      49.116  35.165  27.943  1.00  0.00     0.198 A 
ATOM     81  C   UNL A   1      47.565  36.327  26.526  1.00  0.00     0.198 A 
ATOM     82  F   UNL A   1      45.357  36.698  27.252  1.00  0.00    -0.203 F 
ATOM     83  F   UNL A   1      50.350  34.696  28.174  1.00  0.00    -0.200 F 
ATOM     84  C   UNL A   1      48.836  35.820  26.753  1.00  0.00     0.200 A 
ATOM     85  F   UNL A   1      47.290  36.951  25.373  1.00  0.00    -0.200 F 
ATOM     86  F   UNL A   1      49.792  35.968  25.827  1.00  0.00    -0.200 F 
ENDBRANCH  62  76
BRANCH  63  87
ATOM     87  C   UNL A   1      39.583  33.791  35.333  1.00  0.00     0.064 A 
ATOM     88  C   UNL A   1      39.907  33.357  36.625  1.00  0.00     0.173 A 
ATOM     89  C   UNL A   1      38.226  33.957  35.021  1.00  0.00     0.173 A 
ATOM     90  F   UNL A   1      41.191  33.162  36.963  1.00  0.00    -0.203 F 
ATOM     91  C   UNL A   1      38.914  33.077  37.562  1.00  0.00     0.198 A 
ATOM     92  C   UNL A   1      37.235  33.701  35.965  1.00  0.00     0.198 A 
ATOM     93  F   UNL A   1      37.864  34.372  33.797  1.00  0.00    -0.203 F 
ATOM     94  F   UNL A   1      39.251  32.618  38.774  1.00  0.00    -0.200 F 
ATOM     95  C   UNL A   1      37.579  33.254  37.232  1.00  0.00     0.200 A 
ATOM     96  F   UNL A   1      35.946  33.882  35.647  1.00  0.00    -0.200 F 
ATOM     97  F   UNL A   1      36.625  32.982  38.132  1.00  0.00    -0.200 F 
ENDBRANCH  63  87
BRANCH  75  98
ATOM     98  C   UNL A   1      43.873  39.146  34.175  1.00  0.00     0.064 A 
ATOM     99  C   UNL A   1      44.585  39.295  35.373  1.00  0.00     0.173 A 
ATOM    100  C   UNL A   1      43.335  40.298  33.580  1.00  0.00     0.173 A 
ATOM    101  F   UNL A   1      45.104  38.222  35.988  1.00  0.00    -0.203 F 
ATOM    102  C   UNL A   1      44.736  40.547  35.964  1.00  0.00     0.198 A 
ATOM    103  C   UNL A   1      43.509  41.550  34.159  1.00  0.00     0.198 A 
ATOM    104  F   UNL A   1      42.650  40.206  32.430  1.00  0.00    -0.203 F 
ATOM    105  F   UNL A   1      45.386  40.662  37.130  1.00  0.00    -0.200 F 
ATOM    106  C   UNL A   1      44.205  41.674  35.353  1.00  0.00     0.200 A 
ATOM    107  F   UNL A   1      43.004  42.639  33.564  1.00  0.00    -0.200 F 
ATOM    108  F   UNL A   1      44.357  42.878  35.919  1.00  0.00    -0.200 F 
ENDBRANCH  75  98
ENDBRANCH  49  50
ENDBRANCH  41  44
ENDBRANCH  39  40
ENDBRANCH  38  39
ENDBRANCH  37  38
ENDBRANCH  36  37
ENDBRANCH   1  36
TORSDOF 18
ENDMDL
MODEL 3
REMARK VINA RESULT:     -10.4      6.026     10.405
REMARK SMILES CCc1ccc(N2C(=O)/C(=C/c3cc(Cl)c(OCC(=O)NCCCCCCNC(=O)c4ccc(-c5c6nc(c(-c7c(F)c(F)c(F)c(F)c7F)c7ccc([nH]7)c(-c7c(F)c(F)c(F)c(F)c7F)c7nc(c(-c8c(F)c(F)c(F)c(F)c8F)c8ccc5[nH]8)C=C7)C=C6)cc4)c(Cl)c3)C(=O)NC2=S)cc1
REMARK SMILES IDX 23 1 22 2 21 3 19 4 20 5 18 7 17 8 16 9 12 10 13 11 96 12
REMARK SMILES IDX 14 13 94 14 15 15 95 16 11 17 7 18 8 19 100 20 9 21 10 22
REMARK SMILES IDX 99 23 101 24 97 25 98 27 6 28 3 29 4 30 103 31 5 32 102 33
REMARK SMILES IDX 2 34 1 35 24 36 25 37 26 38 27 39 28 40 29 41 30 43 31 44
REMARK SMILES IDX 32 45 93 46 33 47 92 48 34 49 35 50 36 51 86 52 37 53 91 54
REMARK SMILES IDX 85 55 87 56 38 57 90 58 84 59 83 60 39 62 71 63 51 64 70 65
REMARK SMILES IDX 52 66 55 67 69 68 88 69 53 70 54 71 68 73 89 74 56 75 40 76
REMARK SMILES IDX 41 77 49 78 42 79 43 80 47 81 50 82 44 83 45 84 48 85 46 86
REMARK SMILES IDX 72 87 73 88 81 89 74 90 75 91 79 92 82 93 76 94 77 95 80 96
REMARK SMILES IDX 78 97 57 98 58 99 66 100 59 101 60 102 64 103 67 104 61 105
REMARK SMILES IDX 62 106 65 107 63 108
REMARK H PARENT 21 6 99 26 28 42 87 61 55 72
REMARK Flexibility Score: inf
ROOT
ATOM      1  C   UNL A   1      37.376  33.830  29.047  1.00  0.00     0.021 C 
ENDROOT
BRANCH   1   2
ATOM      2  C   UNL A   1      38.551  34.664  29.557  1.00  0.00     0.116 C 
BRANCH   2   3
ATOM      3  N   UNL A   1      39.211  34.036  30.681  1.00  0.00    -0.353 N 
ATOM      4  C   UNL A   1      40.532  34.034  31.018  1.00  0.00     0.257 C 
ATOM      5  O   UNL A   1      40.858  33.493  32.076  1.00  0.00    -0.271 OA
ATOM      6  H   UNL A   1      38.622  33.534  31.290  1.00  0.00     0.163 HD
BRANCH   4   7
ATOM      7  C   UNL A   1      41.553  34.758  30.127  1.00  0.00     0.329 C 
BRANCH   7   8
ATOM      8  O   UNL A   1      42.918  34.386  30.120  1.00  0.00    -0.481 OA
BRANCH   8   9
ATOM      9  C   UNL A   1      43.320  33.274  29.430  1.00  0.00     0.157 A 
ATOM     10  C   UNL A   1      44.214  31.170  27.762  1.00  0.00    -0.021 A 
ATOM     11  C   UNL A   1      43.997  32.439  27.230  1.00  0.00     0.032 A 
ATOM     12  C   UNL A   1      44.028  30.959  29.127  1.00  0.00     0.032 A 
ATOM     13  C   UNL A   1      43.560  33.477  28.057  1.00  0.00     0.085 A 
ATOM     14  C   UNL A   1      43.605  32.006  29.963  1.00  0.00     0.085 A 
ATOM     15  Cl  UNL A   1      43.346  35.034  27.321  1.00  0.00    -0.080 Cl
ATOM     16  Cl  UNL A   1      43.607  31.648  31.653  1.00  0.00    -0.080 Cl
BRANCH  10  17
ATOM     17  C   UNL A   1      44.677  30.098  26.882  1.00  0.00     0.028 C 
ATOM     18  N   UNL A   1      47.123  27.560  26.502  1.00  0.00    -0.253 N 
ATOM     19  C   UNL A   1      46.115  28.392  26.000  1.00  0.00     0.270 C 
ATOM     20  C   UNL A   1      48.242  28.068  27.168  1.00  0.00     0.187 C 
ATOM     21  O   UNL A   1      45.356  28.134  25.067  1.00  0.00    -0.268 OA
ATOM     22  C   UNL A   1      45.944  29.649  26.772  1.00  0.00     0.106 C 
ATOM     23  N   UNL A   1      48.183  29.390  27.538  1.00  0.00    -0.298 N 
ATOM     24  S   UNL A   1      49.680  27.271  27.519  1.00  0.00    -0.040 S 
ATOM     25  C   UNL A   1      47.103  30.225  27.474  1.00  0.00     0.263 C 
ATOM     26  H   UNL A   1      49.015  29.780  27.891  1.00  0.00     0.172 HD
ATOM     27  O   UNL A   1      47.131  31.335  27.989  1.00  0.00    -0.269 OA
BRANCH  18  28
ATOM     28  C   UNL A   1      46.907  26.147  26.371  1.00  0.00     0.052 A 
ATOM     29  C   UNL A   1      46.121  23.456  26.047  1.00  0.00    -0.048 A 
ATOM     30  C   UNL A   1      46.820  24.122  25.033  1.00  0.00     0.006 A 
ATOM     31  C   UNL A   1      45.842  24.136  27.236  1.00  0.00     0.006 A 
ATOM     32  C   UNL A   1      47.200  25.459  25.189  1.00  0.00     0.027 A 
ATOM     33  C   UNL A   1      46.232  25.466  27.397  1.00  0.00     0.027 A 
BRANCH  29  34
ATOM     34  C   UNL A   1      45.652  22.036  25.855  1.00  0.00     0.032 C 
ATOM     35  C   UNL A   1      45.980  21.497  24.472  1.00  0.00     0.009 C 
ENDBRANCH  29  34
ENDBRANCH  18  28
ENDBRANCH  10  17
ENDBRANCH   8   9
ENDBRANCH   7   8
ENDBRANCH   4   7
ENDBRANCH   2   3
ENDBRANCH   1   2
BRANCH   1  36
ATOM     36  C   UNL A   1      36.021  34.549  29.005  1.00  0.00     0.002 C 
BRANCH  36  37
ATOM     37  C   UNL A   1      34.791  33.687  29.301  1.00  0.00     0.002 C 
BRANCH  37  38
ATOM     38  C   UNL A   1      33.439  34.382  29.139  1.00  0.00     0.021 C 
BRANCH  38  39
ATOM     39  C   UNL A   1      33.423  35.871  29.473  1.00  0.00     0.116 C 
BRANCH  39  40
ATOM     40  N   UNL A   1      32.534  36.193  30.577  1.00  0.00    -0.352 N 
ATOM     41  C   UNL A   1      32.623  35.832  31.900  1.00  0.00     0.251 C 
ATOM     42  H   UNL A   1      31.757  36.751  30.344  1.00  0.00     0.163 HD
ATOM     43  O   UNL A   1      31.707  36.093  32.674  1.00  0.00    -0.269 OA
BRANCH  41  44
ATOM     44  C   UNL A   1      33.811  35.101  32.393  1.00  0.00     0.039 A 
ATOM     45  C   UNL A   1      33.650  33.791  32.856  1.00  0.00     0.014 A 
ATOM     46  C   UNL A   1      35.074  35.697  32.408  1.00  0.00     0.014 A 
ATOM     47  C   UNL A   1      34.765  33.056  33.270  1.00  0.00     0.010 A 
ATOM     48  C   UNL A   1      36.193  34.946  32.765  1.00  0.00     0.010 A 
ATOM     49  C   UNL A   1      36.050  33.617  33.195  1.00  0.00    -0.014 A 
BRANCH  49  50
ATOM     50  C   UNL A   1      37.257  32.833  33.558  1.00  0.00     0.031 A 
ATOM     51  C   UNL A   1      37.993  33.129  34.835  1.00  0.00     0.074 A 
ATOM     52  C   UNL A   1      37.729  31.900  32.709  1.00  0.00     0.049 A 
ATOM     53  N   UNL A   1      39.119  32.628  35.278  1.00  0.00    -0.248 NA
ATOM     54  C   UNL A   1      37.395  34.139  35.722  1.00  0.00     0.031 C 
ATOM     55  C   UNL A   1      37.124  31.541  31.425  1.00  0.00     0.029 A 
ATOM     56  N   UNL A   1      38.836  31.092  32.792  1.00  0.00    -0.354 N 
ATOM     57  C   UNL A   1      39.370  33.270  36.483  1.00  0.00     0.074 A 
ATOM     58  C   UNL A   1      38.303  34.227  36.683  1.00  0.00     0.031 C 
ATOM     59  C   UNL A   1      37.859  30.576  30.848  1.00  0.00     0.029 A 
ATOM     60  C   UNL A   1      39.004  30.274  31.701  1.00  0.00     0.049 A 
ATOM     61  H   UNL A   1      39.451  31.098  33.561  1.00  0.00     0.167 HD
ATOM     62  C   UNL A   1      40.387  33.065  37.353  1.00  0.00     0.037 A 
ATOM     63  C   UNL A   1      39.978  29.388  31.418  1.00  0.00     0.037 A 
ATOM     64  C   UNL A   1      41.433  32.095  37.169  1.00  0.00     0.049 A 
ATOM     65  C   UNL A   1      41.101  29.188  32.400  1.00  0.00     0.074 A 
ATOM     66  C   UNL A   1      42.485  31.787  38.013  1.00  0.00     0.029 A 
ATOM     67  N   UNL A   1      41.555  31.268  36.062  1.00  0.00    -0.354 N 
ATOM     68  N   UNL A   1      41.304  29.771  33.555  1.00  0.00    -0.248 NA
ATOM     69  C   UNL A   1      42.129  28.201  32.037  1.00  0.00     0.031 C 
ATOM     70  C   UNL A   1      43.261  30.795  37.405  1.00  0.00     0.029 A 
ATOM     71  C   UNL A   1      42.671  30.458  36.199  1.00  0.00     0.049 A 
ATOM     72  H   UNL A   1      40.939  31.257  35.293  1.00  0.00     0.167 HD
ATOM     73  C   UNL A   1      42.460  29.203  34.071  1.00  0.00     0.074 A 
ATOM     74  C   UNL A   1      42.912  28.221  33.108  1.00  0.00     0.031 C 
ATOM     75  C   UNL A   1      43.094  29.471  35.238  1.00  0.00     0.037 A 
BRANCH  62  76
ATOM     76  C   UNL A   1      40.414  33.902  38.597  1.00  0.00     0.064 A 
ATOM     77  C   UNL A   1      41.135  35.104  38.653  1.00  0.00     0.173 A 
ATOM     78  C   UNL A   1      39.674  33.525  39.728  1.00  0.00     0.173 A 
ATOM     79  F   UNL A   1      41.868  35.500  37.602  1.00  0.00    -0.203 F 
ATOM     80  C   UNL A   1      41.130  35.888  39.804  1.00  0.00     0.198 A 
ATOM     81  C   UNL A   1      39.651  34.325  40.868  1.00  0.00     0.198 A 
ATOM     82  F   UNL A   1      38.963  32.387  39.723  1.00  0.00    -0.203 F 
ATOM     83  F   UNL A   1      41.857  37.013  39.848  1.00  0.00    -0.200 F 
ATOM     84  C   UNL A   1      40.383  35.502  40.906  1.00  0.00     0.200 A 
ATOM     85  F   UNL A   1      38.920  33.957  41.929  1.00  0.00    -0.200 F 
ATOM     86  F   UNL A   1      40.373  36.263  42.009  1.00  0.00    -0.200 F 
ENDBRANCH  62  76
BRANCH  63  87
ATOM     87  C   UNL A   1      39.930  28.605  30.157  1.00  0.00     0.064 A 
ATOM     88  C   UNL A   1      39.355  27.328  30.127  1.00  0.00     0.173 A 
ATOM     89  C   UNL A   1      40.473  29.105  28.964  1.00  0.00     0.173 A 
ATOM     90  F   UNL A   1      38.844  26.799  31.249  1.00  0.00    -0.203 F 
ATOM     91  C   UNL A   1      39.345  26.569  28.959  1.00  0.00     0.198 A 
ATOM     92  C   UNL A   1      40.440  28.356  27.790  1.00  0.00     0.198 A 
ATOM     93  F   UNL A   1      41.033  30.324  28.940  1.00  0.00    -0.203 F 
ATOM     94  F   UNL A   1      38.832  25.332  28.972  1.00  0.00    -0.200 F 
ATOM     95  C   UNL A   1      39.883  27.085  27.790  1.00  0.00     0.200 A 
ATOM     96  F   UNL A   1      40.951  28.862  26.660  1.00  0.00    -0.200 F 
ATOM     97  F   UNL A   1      39.875  26.355  26.668  1.00  0.00    -0.200 F 
ENDBRANCH  63  87
BRANCH  75  98
ATOM     98  C   UNL A   1      44.315  28.664  35.561  1.00  0.00     0.064 A 
ATOM     99  C   UNL A   1      44.232  27.461  36.275  1.00  0.00     0.173 A 
ATOM    100  C   UNL A   1      45.578  29.079  35.111  1.00  0.00     0.173 A 
ATOM    101  F   UNL A   1      43.049  27.031  36.739  1.00  0.00    -0.203 F 
ATOM    102  C   UNL A   1      45.374  26.712  36.548  1.00  0.00     0.198 A 
ATOM    103  C   UNL A   1      46.713  28.316  35.363  1.00  0.00     0.198 A 
ATOM    104  F   UNL A   1      45.707  30.221  34.418  1.00  0.00    -0.203 F 
ATOM    105  F   UNL A   1      45.278  25.586  37.268  1.00  0.00    -0.200 F 
ATOM    106  C   UNL A   1      46.611  27.136  36.086  1.00  0.00     0.200 A 
ATOM    107  F   UNL A   1      47.906  28.721  34.908  1.00  0.00    -0.200 F 
ATOM    108  F   UNL A   1      47.708  26.410  36.343  1.00  0.00    -0.200 F 
ENDBRANCH  75  98
ENDBRANCH  49  50
ENDBRANCH  41  44
ENDBRANCH  39  40
ENDBRANCH  38  39
ENDBRANCH  37  38
ENDBRANCH  36  37
ENDBRANCH   1  36
TORSDOF 18
ENDMDL
