MODEL 1
REMARK VINA RESULT:     -11.5      0.000      0.000
REMARK SMILES O=C(N[C@H](CCBr)C(=O)NCCCCCCNC(=O)c1ccc(-c2c3nc(c(-c4c(F)c(F)c(F)c(F)c4F)c4ccc([nH]4)c(-c4c(F)c(F)c(F)c(F)c4F)c4nc(c(-c5c(F)c(F)c(F)c(F)c5F)c5ccc2[nH]5)C=C4)C=C3)cc1)OCc1ccccc1
REMARK SMILES IDX 12 1 11 2 10 3 8 4 9 5 4 7 3 8 1 9 2 10 83 12 84 13 85 14
REMARK SMILES IDX 86 15 90 16 87 17 89 18 88 19 5 20 6 21 7 22 13 23 14 24
REMARK SMILES IDX 15 25 16 26 17 27 18 28 19 30 20 31 21 32 82 33 22 34 81 35
REMARK SMILES IDX 23 36 24 37 25 38 75 39 26 40 80 41 74 42 76 43 27 44 79 45
REMARK SMILES IDX 73 46 72 47 28 49 60 50 40 51 59 52 41 53 44 54 58 55 77 56
REMARK SMILES IDX 42 57 43 58 57 60 78 61 45 62 29 63 30 64 38 65 31 66 32 67
REMARK SMILES IDX 36 68 39 69 33 70 34 71 37 72 35 73 61 74 62 75 70 76 63 77
REMARK SMILES IDX 64 78 68 79 71 80 65 81 66 82 69 83 67 84 46 85 47 86 55 87
REMARK SMILES IDX 48 88 49 89 53 90 56 91 50 92 51 93 54 94 52 95
REMARK H PARENT 10 6 3 11 17 29 76 48 44 59
REMARK Flexibility Score: inf
ROOT
ATOM      1  C   UNL A   1      32.442  28.515  26.797  1.00  0.00     0.021 C 
ENDROOT
BRANCH   1   2
ATOM      2  C   UNL A   1      33.483  27.932  25.837  1.00  0.00     0.116 C 
BRANCH   2   3
ATOM      3  N   UNL A   1      33.684  28.843  24.734  1.00  0.00    -0.354 N 
ATOM      4  C   UNL A   1      33.488  28.551  23.414  1.00  0.00     0.242 C 
ATOM      5  O   UNL A   1      34.401  28.825  22.630  1.00  0.00    -0.273 OA
ATOM      6  H   UNL A   1      33.989  29.752  24.952  1.00  0.00     0.163 HD
BRANCH   4   7
ATOM      7  C   UNL A   1      32.208  27.833  22.926  1.00  0.00     0.175 C 
BRANCH   7   8
ATOM      8  N   UNL A   1      32.354  27.079  21.691  1.00  0.00    -0.310 N 
ATOM      9  O   UNL A   1      32.957  25.567  20.191  1.00  0.00    -0.225 OA
ATOM     10  C   UNL A   1      33.114  26.007  21.330  1.00  0.00     0.408 C 
ATOM     11  H   UNL A   1      31.782  27.413  20.962  1.00  0.00     0.167 HD
BRANCH  10  12
ATOM     12  O   UNL A   1      33.989  25.398  22.165  1.00  0.00    -0.445 OA
BRANCH  12  13
ATOM     13  C   UNL A   1      33.767  24.539  23.307  1.00  0.00     0.270 C 
BRANCH  13  14
ATOM     14  C   UNL A   1      35.012  24.001  23.978  1.00  0.00    -0.011 A 
ATOM     15  C   UNL A   1      35.367  24.371  25.280  1.00  0.00     0.007 A 
ATOM     16  C   UNL A   1      35.798  23.049  23.303  1.00  0.00     0.007 A 
ATOM     17  C   UNL A   1      36.425  23.731  25.928  1.00  0.00     0.000 A 
ATOM     18  C   UNL A   1      36.847  22.404  23.957  1.00  0.00     0.000 A 
ATOM     19  C   UNL A   1      37.151  22.735  25.274  1.00  0.00     0.000 A 
ENDBRANCH  13  14
ENDBRANCH  12  13
ENDBRANCH  10  12
ENDBRANCH   7   8
BRANCH   7  20
ATOM     20  C   UNL A   1      30.885  28.594  23.073  1.00  0.00     0.047 C 
BRANCH  20  21
ATOM     21  C   UNL A   1      29.691  27.876  23.664  1.00  0.00     0.083 C 
ATOM     22  Br  UNL A   1      30.195  26.261  24.613  1.00  0.00    -0.093 Br
ENDBRANCH  20  21
ENDBRANCH   7  20
ENDBRANCH   4   7
ENDBRANCH   2   3
ENDBRANCH   1   2
BRANCH   1  23
ATOM     23  C   UNL A   1      32.510  30.035  26.946  1.00  0.00     0.002 C 
BRANCH  23  24
ATOM     24  C   UNL A   1      31.429  30.802  26.184  1.00  0.00     0.002 C 
BRANCH  24  25
ATOM     25  C   UNL A   1      31.321  32.285  26.546  1.00  0.00     0.021 C 
BRANCH  25  26
ATOM     26  C   UNL A   1      32.558  32.858  27.230  1.00  0.00     0.116 C 
BRANCH  26  27
ATOM     27  N   UNL A   1      32.384  34.259  27.572  1.00  0.00    -0.352 N 
ATOM     28  C   UNL A   1      32.971  34.980  28.578  1.00  0.00     0.251 C 
ATOM     29  H   UNL A   1      31.755  34.760  27.003  1.00  0.00     0.163 HD
ATOM     30  O   UNL A   1      32.539  36.086  28.887  1.00  0.00    -0.269 OA
BRANCH  28  31
ATOM     31  C   UNL A   1      34.128  34.411  29.296  1.00  0.00     0.039 A 
ATOM     32  C   UNL A   1      33.918  33.764  30.513  1.00  0.00     0.014 A 
ATOM     33  C   UNL A   1      35.417  34.523  28.764  1.00  0.00     0.014 A 
ATOM     34  C   UNL A   1      34.998  33.184  31.179  1.00  0.00     0.010 A 
ATOM     35  C   UNL A   1      36.478  33.877  29.388  1.00  0.00     0.010 A 
ATOM     36  C   UNL A   1      36.281  33.212  30.608  1.00  0.00    -0.014 A 
BRANCH  36  37
ATOM     37  C   UNL A   1      37.431  32.559  31.279  1.00  0.00     0.031 A 
ATOM     38  C   UNL A   1      38.139  31.413  30.613  1.00  0.00     0.074 A 
ATOM     39  C   UNL A   1      37.800  32.963  32.509  1.00  0.00     0.049 A 
ATOM     40  N   UNL A   1      39.128  30.678  31.059  1.00  0.00    -0.248 NA
ATOM     41  C   UNL A   1      37.655  31.020  29.280  1.00  0.00     0.031 C 
ATOM     42  C   UNL A   1      37.159  34.034  33.274  1.00  0.00     0.029 A 
ATOM     43  N   UNL A   1      38.800  32.516  33.337  1.00  0.00    -0.354 N 
ATOM     44  C   UNL A   1      39.374  29.737  30.068  1.00  0.00     0.074 A 
ATOM     45  C   UNL A   1      38.395  29.952  29.026  1.00  0.00     0.031 C 
ATOM     46  C   UNL A   1      37.795  34.177  34.447  1.00  0.00     0.029 A 
ATOM     47  C   UNL A   1      38.861  33.185  34.535  1.00  0.00     0.049 A 
ATOM     48  H   UNL A   1      39.414  31.786  33.094  1.00  0.00     0.167 HD
ATOM     49  C   UNL A   1      40.346  28.795  30.023  1.00  0.00     0.037 A 
ATOM     50  C   UNL A   1      39.680  33.007  35.589  1.00  0.00     0.037 A 
ATOM     51  C   UNL A   1      41.329  28.599  31.056  1.00  0.00     0.049 A 
ATOM     52  C   UNL A   1      40.739  31.939  35.520  1.00  0.00     0.074 A 
ATOM     53  C   UNL A   1      42.389  27.711  31.082  1.00  0.00     0.029 A 
ATOM     54  N   UNL A   1      41.365  29.300  32.254  1.00  0.00    -0.354 N 
ATOM     55  N   UNL A   1      41.011  31.103  34.548  1.00  0.00    -0.248 NA
ATOM     56  C   UNL A   1      41.611  31.798  36.694  1.00  0.00     0.031 C 
ATOM     57  C   UNL A   1      43.033  27.834  32.318  1.00  0.00     0.029 A 
ATOM     58  C   UNL A   1      42.413  28.844  33.037  1.00  0.00     0.049 A 
ATOM     59  H   UNL A   1      40.738  30.016  32.509  1.00  0.00     0.167 HD
ATOM     60  C   UNL A   1      42.100  30.358  34.978  1.00  0.00     0.074 A 
ATOM     61  C   UNL A   1      42.451  30.855  36.293  1.00  0.00     0.031 C 
ATOM     62  C   UNL A   1      42.752  29.353  34.342  1.00  0.00     0.037 A 
BRANCH  49  63
ATOM     63  C   UNL A   1      40.396  27.904  28.815  1.00  0.00     0.064 A 
ATOM     64  C   UNL A   1      41.137  28.247  27.673  1.00  0.00     0.173 A 
ATOM     65  C   UNL A   1      39.721  26.673  28.809  1.00  0.00     0.173 A 
ATOM     66  F   UNL A   1      41.793  29.417  27.619  1.00  0.00    -0.203 F 
ATOM     67  C   UNL A   1      41.176  27.407  26.562  1.00  0.00     0.198 A 
ATOM     68  C   UNL A   1      39.790  25.821  27.710  1.00  0.00     0.198 A 
ATOM     69  F   UNL A   1      39.001  26.292  29.875  1.00  0.00    -0.203 F 
ATOM     70  F   UNL A   1      41.847  27.783  25.464  1.00  0.00    -0.200 F 
ATOM     71  C   UNL A   1      40.509  26.192  26.584  1.00  0.00     0.200 A 
ATOM     72  F   UNL A   1      39.157  24.640  27.740  1.00  0.00    -0.200 F 
ATOM     73  F   UNL A   1      40.555  25.382  25.518  1.00  0.00    -0.200 F 
ENDBRANCH  49  63
BRANCH  50  74
ATOM     74  C   UNL A   1      39.543  33.871  36.792  1.00  0.00     0.064 A 
ATOM     75  C   UNL A   1      38.787  33.455  37.896  1.00  0.00     0.173 A 
ATOM     76  C   UNL A   1      40.157  35.130  36.860  1.00  0.00     0.173 A 
ATOM     77  F   UNL A   1      38.164  32.267  37.872  1.00  0.00    -0.203 F 
ATOM     78  C   UNL A   1      38.629  34.275  39.011  1.00  0.00     0.198 A 
ATOM     79  C   UNL A   1      40.025  35.936  37.990  1.00  0.00     0.198 A 
ATOM     80  F   UNL A   1      40.898  35.574  35.833  1.00  0.00    -0.203 F 
ATOM     81  F   UNL A   1      37.857  33.874  40.031  1.00  0.00    -0.200 F 
ATOM     82  C   UNL A   1      39.253  35.513  39.059  1.00  0.00     0.200 A 
ATOM     83  F   UNL A   1      40.643  37.123  38.038  1.00  0.00    -0.200 F 
ATOM     84  F   UNL A   1      39.103  36.300  40.133  1.00  0.00    -0.200 F 
ENDBRANCH  50  74
BRANCH  62  85
ATOM     85  C   UNL A   1      43.936  28.748  35.042  1.00  0.00     0.064 A 
ATOM     86  C   UNL A   1      43.809  27.625  35.873  1.00  0.00     0.173 A 
ATOM     87  C   UNL A   1      45.220  29.278  34.848  1.00  0.00     0.173 A 
ATOM     88  F   UNL A   1      42.601  27.089  36.102  1.00  0.00    -0.203 F 
ATOM     89  C   UNL A   1      44.920  27.073  36.505  1.00  0.00     0.198 A 
ATOM     90  C   UNL A   1      46.334  28.702  35.453  1.00  0.00     0.198 A 
ATOM     91  F   UNL A   1      45.399  30.347  34.058  1.00  0.00    -0.203 F 
ATOM     92  F   UNL A   1      44.767  26.033  37.336  1.00  0.00    -0.200 F 
ATOM     93  C   UNL A   1      46.181  27.607  36.288  1.00  0.00     0.200 A 
ATOM     94  F   UNL A   1      47.554  29.208  35.228  1.00  0.00    -0.200 F 
ATOM     95  F   UNL A   1      47.251  27.067  36.890  1.00  0.00    -0.200 F 
ENDBRANCH  62  85
ENDBRANCH  36  37
ENDBRANCH  28  31
ENDBRANCH  26  27
ENDBRANCH  25  26
ENDBRANCH  24  25
ENDBRANCH  23  24
ENDBRANCH   1  23
TORSDOF 19
ENDMDL
MODEL 2
REMARK VINA RESULT:     -11.3      0.704      1.857
REMARK SMILES O=C(N[C@H](CCBr)C(=O)NCCCCCCNC(=O)c1ccc(-c2c3nc(c(-c4c(F)c(F)c(F)c(F)c4F)c4ccc([nH]4)c(-c4c(F)c(F)c(F)c(F)c4F)c4nc(c(-c5c(F)c(F)c(F)c(F)c5F)c5ccc2[nH]5)C=C4)C=C3)cc1)OCc1ccccc1
REMARK SMILES IDX 12 1 11 2 10 3 8 4 9 5 4 7 3 8 1 9 2 10 83 12 84 13 85 14
REMARK SMILES IDX 86 15 90 16 87 17 89 18 88 19 5 20 6 21 7 22 13 23 14 24
REMARK SMILES IDX 15 25 16 26 17 27 18 28 19 30 20 31 21 32 82 33 22 34 81 35
REMARK SMILES IDX 23 36 24 37 25 38 75 39 26 40 80 41 74 42 76 43 27 44 79 45
REMARK SMILES IDX 73 46 72 47 28 49 60 50 40 51 59 52 41 53 44 54 58 55 77 56
REMARK SMILES IDX 42 57 43 58 57 60 78 61 45 62 29 63 30 64 38 65 31 66 32 67
REMARK SMILES IDX 36 68 39 69 33 70 34 71 37 72 35 73 61 74 62 75 70 76 63 77
REMARK SMILES IDX 64 78 68 79 71 80 65 81 66 82 69 83 67 84 46 85 47 86 55 87
REMARK SMILES IDX 48 88 49 89 53 90 56 91 50 92 51 93 54 94 52 95
REMARK H PARENT 10 6 3 11 17 29 76 48 44 59
REMARK Flexibility Score: inf
ROOT
ATOM      1  C   UNL A   1      33.116  28.985  25.369  1.00  0.00     0.021 C 
ENDROOT
BRANCH   1   2
ATOM      2  C   UNL A   1      32.895  29.254  23.878  1.00  0.00     0.116 C 
BRANCH   2   3
ATOM      3  N   UNL A   1      31.478  29.280  23.598  1.00  0.00    -0.354 N 
ATOM      4  C   UNL A   1      30.824  28.459  22.725  1.00  0.00     0.242 C 
ATOM      5  O   UNL A   1      30.081  28.990  21.894  1.00  0.00    -0.273 OA
ATOM      6  H   UNL A   1      30.938  29.948  24.078  1.00  0.00     0.163 HD
BRANCH   4   7
ATOM      7  C   UNL A   1      31.059  26.931  22.720  1.00  0.00     0.175 C 
BRANCH   7   8
ATOM      8  N   UNL A   1      31.695  26.405  21.522  1.00  0.00    -0.310 N 
ATOM      9  O   UNL A   1      33.103  25.409  20.135  1.00  0.00    -0.225 OA
ATOM     10  C   UNL A   1      32.885  25.785  21.287  1.00  0.00     0.408 C 
ATOM     11  H   UNL A   1      31.151  26.522  20.710  1.00  0.00     0.167 HD
BRANCH  10  12
ATOM     12  O   UNL A   1      33.802  25.539  22.254  1.00  0.00    -0.445 OA
BRANCH  12  13
ATOM     13  C   UNL A   1      33.659  24.942  23.564  1.00  0.00     0.270 C 
BRANCH  13  14
ATOM     14  C   UNL A   1      34.838  24.124  24.045  1.00  0.00    -0.011 A 
ATOM     15  C   UNL A   1      35.504  23.224  23.204  1.00  0.00     0.007 A 
ATOM     16  C   UNL A   1      35.323  24.321  25.350  1.00  0.00     0.007 A 
ATOM     17  C   UNL A   1      36.685  22.611  23.626  1.00  0.00     0.000 A 
ATOM     18  C   UNL A   1      36.509  23.716  25.764  1.00  0.00     0.000 A 
ATOM     19  C   UNL A   1      37.197  22.873  24.896  1.00  0.00     0.000 A 
ENDBRANCH  13  14
ENDBRANCH  12  13
ENDBRANCH  10  12
ENDBRANCH   7   8
BRANCH   7  20
ATOM     20  C   UNL A   1      29.945  26.053  23.305  1.00  0.00     0.047 C 
BRANCH  20  21
ATOM     21  C   UNL A   1      29.581  26.211  24.764  1.00  0.00     0.083 C 
ATOM     22  Br  UNL A   1      31.140  26.217  25.919  1.00  0.00    -0.093 Br
ENDBRANCH  20  21
ENDBRANCH   7  20
ENDBRANCH   4   7
ENDBRANCH   2   3
ENDBRANCH   1   2
BRANCH   1  23
ATOM     23  C   UNL A   1      33.008  30.229  26.252  1.00  0.00     0.002 C 
BRANCH  23  24
ATOM     24  C   UNL A   1      31.578  30.708  26.508  1.00  0.00     0.002 C 
BRANCH  24  25
ATOM     25  C   UNL A   1      31.437  32.217  26.717  1.00  0.00     0.021 C 
BRANCH  25  26
ATOM     26  C   UNL A   1      32.717  32.912  27.168  1.00  0.00     0.116 C 
BRANCH  26  27
ATOM     27  N   UNL A   1      32.467  34.278  27.595  1.00  0.00    -0.352 N 
ATOM     28  C   UNL A   1      32.988  34.957  28.664  1.00  0.00     0.251 C 
ATOM     29  H   UNL A   1      31.833  34.787  27.038  1.00  0.00     0.163 HD
ATOM     30  O   UNL A   1      32.495  36.019  29.030  1.00  0.00    -0.269 OA
BRANCH  28  31
ATOM     31  C   UNL A   1      34.148  34.395  29.382  1.00  0.00     0.039 A 
ATOM     32  C   UNL A   1      33.935  33.697  30.571  1.00  0.00     0.014 A 
ATOM     33  C   UNL A   1      35.442  34.563  28.880  1.00  0.00     0.014 A 
ATOM     34  C   UNL A   1      35.019  33.123  31.235  1.00  0.00     0.010 A 
ATOM     35  C   UNL A   1      36.511  33.925  29.500  1.00  0.00     0.010 A 
ATOM     36  C   UNL A   1      36.311  33.209  30.690  1.00  0.00    -0.014 A 
BRANCH  36  37
ATOM     37  C   UNL A   1      37.467  32.564  31.358  1.00  0.00     0.031 A 
ATOM     38  C   UNL A   1      38.175  31.416  30.696  1.00  0.00     0.074 A 
ATOM     39  C   UNL A   1      37.843  32.978  32.584  1.00  0.00     0.049 A 
ATOM     40  N   UNL A   1      39.169  30.688  31.140  1.00  0.00    -0.248 NA
ATOM     41  C   UNL A   1      37.684  31.013  29.368  1.00  0.00     0.031 C 
ATOM     42  C   UNL A   1      37.203  34.051  33.346  1.00  0.00     0.029 A 
ATOM     43  N   UNL A   1      38.849  32.540  33.408  1.00  0.00    -0.354 N 
ATOM     44  C   UNL A   1      39.412  29.740  30.155  1.00  0.00     0.074 A 
ATOM     45  C   UNL A   1      38.426  29.945  29.117  1.00  0.00     0.031 C 
ATOM     46  C   UNL A   1      37.846  34.205  34.513  1.00  0.00     0.029 A 
ATOM     47  C   UNL A   1      38.915  33.216  34.601  1.00  0.00     0.049 A 
ATOM     48  H   UNL A   1      39.464  31.810  33.166  1.00  0.00     0.167 HD
ATOM     49  C   UNL A   1      40.387  28.802  30.109  1.00  0.00     0.037 A 
ATOM     50  C   UNL A   1      39.741  33.048  35.651  1.00  0.00     0.037 A 
ATOM     51  C   UNL A   1      41.377  28.615  31.138  1.00  0.00     0.049 A 
ATOM     52  C   UNL A   1      40.804  31.984  35.583  1.00  0.00     0.074 A 
ATOM     53  C   UNL A   1      42.440  27.731  31.163  1.00  0.00     0.029 A 
ATOM     54  N   UNL A   1      41.418  29.325  32.330  1.00  0.00    -0.354 N 
ATOM     55  N   UNL A   1      41.072  31.142  34.615  1.00  0.00    -0.248 NA
ATOM     56  C   UNL A   1      41.683  31.853  36.752  1.00  0.00     0.031 C 
ATOM     57  C   UNL A   1      43.091  27.865  32.394  1.00  0.00     0.029 A 
ATOM     58  C   UNL A   1      42.473  28.877  33.110  1.00  0.00     0.049 A 
ATOM     59  H   UNL A   1      40.790  30.040  32.585  1.00  0.00     0.167 HD
ATOM     60  C   UNL A   1      42.167  30.403  35.043  1.00  0.00     0.074 A 
ATOM     61  C   UNL A   1      42.523  30.910  36.352  1.00  0.00     0.031 C 
ATOM     62  C   UNL A   1      42.818  29.396  34.409  1.00  0.00     0.037 A 
BRANCH  49  63
ATOM     63  C   UNL A   1      40.432  27.902  28.907  1.00  0.00     0.064 A 
ATOM     64  C   UNL A   1      39.692  26.710  28.847  1.00  0.00     0.173 A 
ATOM     65  C   UNL A   1      41.198  28.252  27.783  1.00  0.00     0.173 A 
ATOM     66  F   UNL A   1      38.952  26.322  29.897  1.00  0.00    -0.203 F 
ATOM     67  C   UNL A   1      39.742  25.889  27.723  1.00  0.00     0.198 A 
ATOM     68  C   UNL A   1      41.218  27.445  26.649  1.00  0.00     0.198 A 
ATOM     69  F   UNL A   1      41.921  29.382  27.783  1.00  0.00    -0.203 F 
ATOM     70  F   UNL A   1      39.069  24.730  27.713  1.00  0.00    -0.200 F 
ATOM     71  C   UNL A   1      40.498  26.261  26.623  1.00  0.00     0.200 A 
ATOM     72  F   UNL A   1      41.937  27.814  25.580  1.00  0.00    -0.200 F 
ATOM     73  F   UNL A   1      40.537  25.474  25.539  1.00  0.00    -0.200 F 
ENDBRANCH  49  63
BRANCH  50  74
ATOM     74  C   UNL A   1      39.609  33.920  36.849  1.00  0.00     0.064 A 
ATOM     75  C   UNL A   1      38.858  33.510  37.959  1.00  0.00     0.173 A 
ATOM     76  C   UNL A   1      40.223  35.180  36.907  1.00  0.00     0.173 A 
ATOM     77  F   UNL A   1      38.235  32.322  37.945  1.00  0.00    -0.203 F 
ATOM     78  C   UNL A   1      38.704  34.338  39.069  1.00  0.00     0.198 A 
ATOM     79  C   UNL A   1      40.095  35.993  38.032  1.00  0.00     0.198 A 
ATOM     80  F   UNL A   1      40.960  35.617  35.874  1.00  0.00    -0.203 F 
ATOM     81  F   UNL A   1      37.936  33.943  40.095  1.00  0.00    -0.200 F 
ATOM     82  C   UNL A   1      39.328  35.576  39.107  1.00  0.00     0.200 A 
ATOM     83  F   UNL A   1      40.713  37.181  38.070  1.00  0.00    -0.200 F 
ATOM     84  F   UNL A   1      39.182  36.370  40.176  1.00  0.00    -0.200 F 
ENDBRANCH  50  74
BRANCH  62  85
ATOM     85  C   UNL A   1      44.008  28.799  35.106  1.00  0.00     0.064 A 
ATOM     86  C   UNL A   1      45.309  29.277  34.889  1.00  0.00     0.173 A 
ATOM     87  C   UNL A   1      43.838  27.760  36.033  1.00  0.00     0.173 A 
ATOM     88  F   UNL A   1      45.527  30.260  34.002  1.00  0.00    -0.203 F 
ATOM     89  C   UNL A   1      46.397  28.717  35.551  1.00  0.00     0.198 A 
ATOM     90  C   UNL A   1      44.924  27.226  36.721  1.00  0.00     0.198 A 
ATOM     91  F   UNL A   1      42.614  27.271  36.285  1.00  0.00    -0.203 F 
ATOM     92  F   UNL A   1      47.636  29.154  35.288  1.00  0.00    -0.200 F 
ATOM     93  C   UNL A   1      46.202  27.699  36.473  1.00  0.00     0.200 A 
ATOM     94  F   UNL A   1      44.732  26.255  37.623  1.00  0.00    -0.200 F 
ATOM     95  F   UNL A   1      47.251  27.168  37.117  1.00  0.00    -0.200 F 
ENDBRANCH  62  85
ENDBRANCH  36  37
ENDBRANCH  28  31
ENDBRANCH  26  27
ENDBRANCH  25  26
ENDBRANCH  24  25
ENDBRANCH  23  24
ENDBRANCH   1  23
TORSDOF 19
ENDMDL
MODEL 3
REMARK VINA RESULT:     -11.2      0.644      7.396
REMARK SMILES O=C(N[C@H](CCBr)C(=O)NCCCCCCNC(=O)c1ccc(-c2c3nc(c(-c4c(F)c(F)c(F)c(F)c4F)c4ccc([nH]4)c(-c4c(F)c(F)c(F)c(F)c4F)c4nc(c(-c5c(F)c(F)c(F)c(F)c5F)c5ccc2[nH]5)C=C4)C=C3)cc1)OCc1ccccc1
REMARK SMILES IDX 12 1 11 2 10 3 8 4 9 5 4 7 3 8 1 9 2 10 83 12 84 13 85 14
REMARK SMILES IDX 86 15 90 16 87 17 89 18 88 19 5 20 6 21 7 22 13 23 14 24
REMARK SMILES IDX 15 25 16 26 17 27 18 28 19 30 20 31 21 32 82 33 22 34 81 35
REMARK SMILES IDX 23 36 24 37 25 38 75 39 26 40 80 41 74 42 76 43 27 44 79 45
REMARK SMILES IDX 73 46 72 47 28 49 60 50 40 51 59 52 41 53 44 54 58 55 77 56
REMARK SMILES IDX 42 57 43 58 57 60 78 61 45 62 29 63 30 64 38 65 31 66 32 67
REMARK SMILES IDX 36 68 39 69 33 70 34 71 37 72 35 73 61 74 62 75 70 76 63 77
REMARK SMILES IDX 64 78 68 79 71 80 65 81 66 82 69 83 67 84 46 85 47 86 55 87
REMARK SMILES IDX 48 88 49 89 53 90 56 91 50 92 51 93 54 94 52 95
REMARK H PARENT 10 6 3 11 17 29 76 48 44 59
REMARK Flexibility Score: inf
ROOT
ATOM      1  C   UNL A   1      32.046  28.430  26.582  1.00  0.00     0.021 C 
ENDROOT
BRANCH   1   2
ATOM      2  C   UNL A   1      33.317  27.914  25.902  1.00  0.00     0.116 C 
BRANCH   2   3
ATOM      3  N   UNL A   1      33.654  28.776  24.792  1.00  0.00    -0.354 N 
ATOM      4  C   UNL A   1      33.555  28.447  23.471  1.00  0.00     0.242 C 
ATOM      5  O   UNL A   1      34.542  28.652  22.759  1.00  0.00    -0.273 OA
ATOM      6  H   UNL A   1      33.983  29.678  25.008  1.00  0.00     0.163 HD
BRANCH   4   7
ATOM      7  C   UNL A   1      32.288  27.772  22.897  1.00  0.00     0.175 C 
BRANCH   7   8
ATOM      8  N   UNL A   1      32.473  27.080  21.631  1.00  0.00    -0.310 N 
ATOM      9  O   UNL A   1      33.022  25.583  20.096  1.00  0.00    -0.225 OA
ATOM     10  C   UNL A   1      33.096  25.921  21.278  1.00  0.00     0.408 C 
ATOM     11  H   UNL A   1      32.061  27.548  20.869  1.00  0.00     0.167 HD
BRANCH  10  12
ATOM     12  O   UNL A   1      33.747  25.126  22.159  1.00  0.00    -0.445 OA
BRANCH  12  13
ATOM     13  C   UNL A   1      33.272  24.035  22.981  1.00  0.00     0.270 C 
BRANCH  13  14
ATOM     14  C   UNL A   1      34.336  23.098  23.510  1.00  0.00    -0.011 A 
ATOM     15  C   UNL A   1      35.674  23.200  23.111  1.00  0.00     0.007 A 
ATOM     16  C   UNL A   1      33.988  22.143  24.482  1.00  0.00     0.007 A 
ATOM     17  C   UNL A   1      36.656  22.434  23.741  1.00  0.00     0.000 A 
ATOM     18  C   UNL A   1      34.972  21.386  25.117  1.00  0.00     0.000 A 
ATOM     19  C   UNL A   1      36.307  21.543  24.756  1.00  0.00     0.000 A 
ENDBRANCH  13  14
ENDBRANCH  12  13
ENDBRANCH  10  12
ENDBRANCH   7   8
BRANCH   7  20
ATOM     20  C   UNL A   1      30.967  28.540  23.033  1.00  0.00     0.047 C 
BRANCH  20  21
ATOM     21  C   UNL A   1      29.685  27.762  23.230  1.00  0.00     0.083 C 
ATOM     22  Br  UNL A   1      29.948  26.161  24.294  1.00  0.00    -0.093 Br
ENDBRANCH  20  21
ENDBRANCH   7  20
ENDBRANCH   4   7
ENDBRANCH   2   3
ENDBRANCH   1   2
BRANCH   1  23
ATOM     23  C   UNL A   1      32.112  29.900  26.998  1.00  0.00     0.002 C 
BRANCH  23  24
ATOM     24  C   UNL A   1      31.401  30.866  26.049  1.00  0.00     0.002 C 
BRANCH  24  25
ATOM     25  C   UNL A   1      31.292  32.303  26.562  1.00  0.00     0.021 C 
BRANCH  25  26
ATOM     26  C   UNL A   1      32.575  32.851  27.178  1.00  0.00     0.116 C 
BRANCH  26  27
ATOM     27  N   UNL A   1      32.416  34.225  27.621  1.00  0.00    -0.352 N 
ATOM     28  C   UNL A   1      33.022  34.870  28.667  1.00  0.00     0.251 C 
ATOM     29  H   UNL A   1      31.783  34.769  27.097  1.00  0.00     0.163 HD
ATOM     30  O   UNL A   1      32.602  35.954  29.060  1.00  0.00    -0.269 OA
BRANCH  28  31
ATOM     31  C   UNL A   1      34.184  34.244  29.326  1.00  0.00     0.039 A 
ATOM     32  C   UNL A   1      33.967  33.357  30.381  1.00  0.00     0.014 A 
ATOM     33  C   UNL A   1      35.484  34.540  28.903  1.00  0.00     0.014 A 
ATOM     34  C   UNL A   1      35.057  32.726  30.982  1.00  0.00     0.010 A 
ATOM     35  C   UNL A   1      36.561  33.852  29.450  1.00  0.00     0.010 A 
ATOM     36  C   UNL A   1      36.359  32.947  30.504  1.00  0.00    -0.014 A 
BRANCH  36  37
ATOM     37  C   UNL A   1      37.522  32.248  31.101  1.00  0.00     0.031 A 
ATOM     38  C   UNL A   1      38.018  32.641  32.464  1.00  0.00     0.074 A 
ATOM     39  C   UNL A   1      38.163  31.299  30.392  1.00  0.00     0.049 A 
ATOM     40  N   UNL A   1      39.049  32.188  33.133  1.00  0.00    -0.248 NA
ATOM     41  C   UNL A   1      37.274  33.704  33.158  1.00  0.00     0.031 C 
ATOM     42  C   UNL A   1      37.802  30.865  29.041  1.00  0.00     0.029 A 
ATOM     43  N   UNL A   1      39.257  30.532  30.706  1.00  0.00    -0.354 N 
ATOM     44  C   UNL A   1      39.080  32.916  34.315  1.00  0.00     0.074 A 
ATOM     45  C   UNL A   1      38.005  33.880  34.248  1.00  0.00     0.031 C 
ATOM     46  C   UNL A   1      38.643  29.894  28.653  1.00  0.00     0.029 A 
ATOM     47  C   UNL A   1      39.625  29.665  29.707  1.00  0.00     0.049 A 
ATOM     48  H   UNL A   1      39.733  30.598  31.566  1.00  0.00     0.167 HD
ATOM     49  C   UNL A   1      39.915  32.773  35.372  1.00  0.00     0.037 A 
ATOM     50  C   UNL A   1      40.648  28.792  29.646  1.00  0.00     0.037 A 
ATOM     51  C   UNL A   1      40.972  31.799  35.439  1.00  0.00     0.049 A 
ATOM     52  C   UNL A   1      41.574  28.668  30.827  1.00  0.00     0.074 A 
ATOM     53  C   UNL A   1      41.838  31.535  36.485  1.00  0.00     0.029 A 
ATOM     54  N   UNL A   1      41.312  30.931  34.410  1.00  0.00    -0.354 N 
ATOM     55  N   UNL A   1      41.550  29.308  31.970  1.00  0.00    -0.248 NA
ATOM     56  C   UNL A   1      42.665  27.691  30.710  1.00  0.00     0.031 C 
ATOM     57  C   UNL A   1      42.738  30.548  36.069  1.00  0.00     0.029 A 
ATOM     58  C   UNL A   1      42.393  30.150  34.787  1.00  0.00     0.049 A 
ATOM     59  H   UNL A   1      40.852  30.878  33.540  1.00  0.00     0.167 HD
ATOM     60  C   UNL A   1      42.599  28.794  32.719  1.00  0.00     0.074 A 
ATOM     61  C   UNL A   1      43.230  27.775  31.906  1.00  0.00     0.031 C 
ATOM     62  C   UNL A   1      43.005  29.135  33.967  1.00  0.00     0.037 A 
BRANCH  49  63
ATOM     63  C   UNL A   1      39.720  33.693  36.543  1.00  0.00     0.064 A 
ATOM     64  C   UNL A   1      40.347  34.948  36.610  1.00  0.00     0.173 A 
ATOM     65  C   UNL A   1      38.866  33.333  37.597  1.00  0.00     0.173 A 
ATOM     66  F   UNL A   1      41.182  35.338  35.635  1.00  0.00    -0.203 F 
ATOM     67  C   UNL A   1      40.152  35.791  37.701  1.00  0.00     0.198 A 
ATOM     68  C   UNL A   1      38.648  34.193  38.670  1.00  0.00     0.198 A 
ATOM     69  F   UNL A   1      38.236  32.148  37.584  1.00  0.00    -0.203 F 
ATOM     70  F   UNL A   1      40.806  36.960  37.767  1.00  0.00    -0.200 F 
ATOM     71  C   UNL A   1      39.297  35.417  38.727  1.00  0.00     0.200 A 
ATOM     72  F   UNL A   1      37.809  33.836  39.652  1.00  0.00    -0.200 F 
ATOM     73  F   UNL A   1      39.104  36.233  39.771  1.00  0.00    -0.200 F 
ENDBRANCH  49  63
BRANCH  50  74
ATOM     74  C   UNL A   1      40.840  27.953  28.434  1.00  0.00     0.064 A 
ATOM     75  C   UNL A   1      41.624  28.404  27.362  1.00  0.00     0.173 A 
ATOM     76  C   UNL A   1      40.241  26.690  28.316  1.00  0.00     0.173 A 
ATOM     77  F   UNL A   1      42.202  29.612  27.417  1.00  0.00    -0.203 F 
ATOM     78  C   UNL A   1      41.779  27.635  26.210  1.00  0.00     0.198 A 
ATOM     79  C   UNL A   1      40.423  25.909  27.177  1.00  0.00     0.198 A 
ATOM     80  F   UNL A   1      39.487  26.208  29.316  1.00  0.00    -0.203 F 
ATOM     81  F   UNL A   1      42.490  28.114  25.180  1.00  0.00    -0.200 F 
ATOM     82  C   UNL A   1      41.183  26.386  26.121  1.00  0.00     0.200 A 
ATOM     83  F   UNL A   1      39.860  24.696  27.102  1.00  0.00    -0.200 F 
ATOM     84  F   UNL A   1      41.335  25.646  25.014  1.00  0.00    -0.200 F 
ENDBRANCH  50  74
BRANCH  62  85
ATOM     85  C   UNL A   1      44.163  28.373  34.548  1.00  0.00     0.064 A 
ATOM     86  C   UNL A   1      45.483  28.832  34.432  1.00  0.00     0.173 A 
ATOM     87  C   UNL A   1      43.942  27.186  35.263  1.00  0.00     0.173 A 
ATOM     88  F   UNL A   1      45.749  29.954  33.746  1.00  0.00    -0.203 F 
ATOM     89  C   UNL A   1      46.541  28.116  34.985  1.00  0.00     0.198 A 
ATOM     90  C   UNL A   1      44.998  26.492  35.846  1.00  0.00     0.198 A 
ATOM     91  F   UNL A   1      42.698  26.707  35.411  1.00  0.00    -0.203 F 
ATOM     92  F   UNL A   1      47.799  28.546  34.816  1.00  0.00    -0.200 F 
ATOM     93  C   UNL A   1      46.297  26.952  35.698  1.00  0.00     0.200 A 
ATOM     94  F   UNL A   1      44.758  25.377  36.549  1.00  0.00    -0.200 F 
ATOM     95  F   UNL A   1      47.316  26.270  36.238  1.00  0.00    -0.200 F 
ENDBRANCH  62  85
ENDBRANCH  36  37
ENDBRANCH  28  31
ENDBRANCH  26  27
ENDBRANCH  25  26
ENDBRANCH  24  25
ENDBRANCH  23  24
ENDBRANCH   1  23
TORSDOF 19
ENDMDL
