MODEL 1
REMARK VINA RESULT:      -8.3      0.000      0.000
REMARK SMILES O=C(NCCCCCCNC(=O)[C@H](CO)NC(=O)[C@H](Cc1c[nH]c2ccccc12)NC(=O)[C@H](Cc1ccc(O)cc1)NC(=O)c1ccc(F)cc1)c1ccc(-c2c3nc(c(-c4c(F)c(F)c(F)c(F)c4F)c4ccc([nH]4)c(-c4c(F)c(F)c(F)c(F)c4F)c4nc(c(-c5c(F)c(F)c(F)c(F)c5F)c5ccc2[nH]5)C=C4)C=C3)cc1
REMARK SMILES IDX 9 1 8 2 7 3 6 4 5 5 4 6 3 7 1 8 2 9 52 11 53 12 114 13 54 14
REMARK SMILES IDX 113 15 55 16 56 17 57 18 107 19 58 20 112 21 106 22 108 23
REMARK SMILES IDX 59 24 111 25 105 26 104 27 60 29 92 30 72 31 91 32 73 33
REMARK SMILES IDX 76 34 90 35 109 36 74 37 75 38 89 40 110 41 77 42 61 43
REMARK SMILES IDX 62 44 70 45 63 46 64 47 68 48 71 49 65 50 66 51 69 52 67 53
REMARK SMILES IDX 93 54 94 55 102 56 95 57 96 58 100 59 103 60 97 61 98 62
REMARK SMILES IDX 101 63 99 64 78 65 79 66 87 67 80 68 81 69 85 70 88 71 82 72
REMARK SMILES IDX 83 73 86 74 84 75 10 76 11 77 12 79 13 80 16 81 17 82 18 84
REMARK SMILES IDX 19 85 30 86 31 87 32 89 33 90 42 91 43 92 44 94 45 95 46 96
REMARK SMILES IDX 51 97 47 98 50 99 48 100 49 101 34 102 35 103 36 104 41 105
REMARK SMILES IDX 37 106 40 107 38 108 39 109 20 111 21 112 22 113 29 114
REMARK SMILES IDX 23 115 24 116 28 117 25 119 27 120 26 121 14 122 15 123
REMARK H PARENT 3 10 108 28 76 39 10 78 16 83 30 88 42 93 39 110 23 118 15 124
REMARK Flexibility Score: inf
ROOT
ATOM      1  C   UNL A   1      43.789  25.234  29.580  1.00  0.00     0.116 C 
ENDROOT
BRANCH   1   2
ATOM      2  C   UNL A   1      44.249  24.195  30.602  1.00  0.00     0.021 C 
BRANCH   2   3
ATOM      3  C   UNL A   1      44.445  24.719  32.031  1.00  0.00     0.002 C 
BRANCH   3   4
ATOM      4  C   UNL A   1      44.937  23.708  33.079  1.00  0.00     0.002 C 
BRANCH   4   5
ATOM      5  C   UNL A   1      43.880  22.785  33.690  1.00  0.00     0.021 C 
BRANCH   5   6
ATOM      6  C   UNL A   1      43.032  23.399  34.797  1.00  0.00     0.116 C 
BRANCH   6   7
ATOM      7  N   UNL A   1      43.772  23.557  36.038  1.00  0.00    -0.352 N 
ATOM      8  O   UNL A   1      45.233  24.413  37.510  1.00  0.00    -0.269 OA
ATOM      9  C   UNL A   1      44.535  24.596  36.509  1.00  0.00     0.251 C 
ATOM     10  H   UNL A   1      43.715  22.786  36.647  1.00  0.00     0.163 HD
BRANCH   9  11
ATOM     11  C   UNL A   1      44.554  25.930  35.858  1.00  0.00     0.039 A 
ATOM     12  C   UNL A   1      45.747  26.590  35.559  1.00  0.00     0.014 A 
ATOM     13  C   UNL A   1      43.343  26.485  35.418  1.00  0.00     0.014 A 
ATOM     14  C   UNL A   1      45.727  27.833  34.927  1.00  0.00     0.010 A 
ATOM     15  C   UNL A   1      43.328  27.685  34.693  1.00  0.00     0.010 A 
ATOM     16  C   UNL A   1      44.524  28.370  34.439  1.00  0.00    -0.014 A 
BRANCH  16  17
ATOM     17  C   UNL A   1      44.572  29.555  33.540  1.00  0.00     0.031 A 
ATOM     18  C   UNL A   1      44.957  29.440  32.093  1.00  0.00     0.074 A 
ATOM     19  C   UNL A   1      44.231  30.755  34.051  1.00  0.00     0.049 A 
ATOM     20  N   UNL A   1      45.011  30.378  31.181  1.00  0.00    -0.248 NA
ATOM     21  C   UNL A   1      45.336  28.107  31.605  1.00  0.00     0.031 C 
ATOM     22  C   UNL A   1      43.861  30.995  35.448  1.00  0.00     0.029 A 
ATOM     23  N   UNL A   1      44.106  31.989  33.463  1.00  0.00    -0.354 N 
ATOM     24  C   UNL A   1      45.438  29.757  30.016  1.00  0.00     0.074 A 
ATOM     25  C   UNL A   1      45.652  28.361  30.340  1.00  0.00     0.031 C 
ATOM     26  C   UNL A   1      43.478  32.269  35.591  1.00  0.00     0.029 A 
ATOM     27  C   UNL A   1      43.645  32.959  34.318  1.00  0.00     0.049 A 
ATOM     28  H   UNL A   1      44.327  32.161  32.518  1.00  0.00     0.167 HD
ATOM     29  C   UNL A   1      45.628  30.302  28.790  1.00  0.00     0.037 A 
ATOM     30  C   UNL A   1      43.389  34.264  34.109  1.00  0.00     0.037 A 
ATOM     31  C   UNL A   1      45.409  31.693  28.474  1.00  0.00     0.049 A 
ATOM     32  C   UNL A   1      43.630  34.845  32.748  1.00  0.00     0.074 A 
ATOM     33  C   UNL A   1      45.566  32.335  27.257  1.00  0.00     0.029 A 
ATOM     34  N   UNL A   1      44.988  32.656  29.379  1.00  0.00    -0.354 N 
ATOM     35  N   UNL A   1      44.029  34.243  31.656  1.00  0.00    -0.248 NA
ATOM     36  C   UNL A   1      43.399  36.287  32.592  1.00  0.00     0.031 C 
ATOM     37  C   UNL A   1      45.279  33.692  27.435  1.00  0.00     0.029 A 
ATOM     38  C   UNL A   1      44.897  33.889  28.752  1.00  0.00     0.049 A 
ATOM     39  H   UNL A   1      44.785  32.489  30.328  1.00  0.00     0.167 HD
ATOM     40  C   UNL A   1      44.095  35.227  30.681  1.00  0.00     0.074 A 
ATOM     41  C   UNL A   1      43.671  36.464  31.306  1.00  0.00     0.031 C 
ATOM     42  C   UNL A   1      44.480  35.113  29.388  1.00  0.00     0.037 A 
BRANCH  29  43
ATOM     43  C   UNL A   1      46.103  29.401  27.687  1.00  0.00     0.064 A 
ATOM     44  C   UNL A   1      45.189  28.836  26.785  1.00  0.00     0.173 A 
ATOM     45  C   UNL A   1      47.452  29.037  27.569  1.00  0.00     0.173 A 
ATOM     46  F   UNL A   1      43.885  29.145  26.858  1.00  0.00    -0.203 F 
ATOM     47  C   UNL A   1      45.607  27.931  25.812  1.00  0.00     0.198 A 
ATOM     48  C   UNL A   1      47.871  28.150  26.579  1.00  0.00     0.198 A 
ATOM     49  F   UNL A   1      48.367  29.557  28.400  1.00  0.00    -0.203 F 
ATOM     50  F   UNL A   1      44.712  27.382  24.979  1.00  0.00    -0.200 F 
ATOM     51  C   UNL A   1      46.948  27.592  25.707  1.00  0.00     0.200 A 
ATOM     52  F   UNL A   1      49.169  27.840  26.466  1.00  0.00    -0.200 F 
ATOM     53  F   UNL A   1      47.351  26.728  24.765  1.00  0.00    -0.200 F 
ENDBRANCH  29  43
BRANCH  30  54
ATOM     54  C   UNL A   1      42.864  35.092  35.225  1.00  0.00     0.064 A 
ATOM     55  C   UNL A   1      43.723  35.697  36.154  1.00  0.00     0.173 A 
ATOM     56  C   UNL A   1      41.483  35.243  35.417  1.00  0.00     0.173 A 
ATOM     57  F   UNL A   1      45.052  35.576  36.017  1.00  0.00    -0.203 F 
ATOM     58  C   UNL A   1      43.222  36.392  37.251  1.00  0.00     0.198 A 
ATOM     59  C   UNL A   1      40.983  35.963  36.500  1.00  0.00     0.198 A 
ATOM     60  F   UNL A   1      40.623  34.698  34.545  1.00  0.00    -0.203 F 
ATOM     61  F   UNL A   1      44.064  36.918  38.151  1.00  0.00    -0.200 F 
ATOM     62  C   UNL A   1      41.853  36.526  37.423  1.00  0.00     0.200 A 
ATOM     63  F   UNL A   1      39.661  36.108  36.651  1.00  0.00    -0.200 F 
ATOM     64  F   UNL A   1      41.370  37.199  38.477  1.00  0.00    -0.200 F 
ENDBRANCH  30  54
BRANCH  42  65
ATOM     65  C   UNL A   1      44.454  36.358  28.553  1.00  0.00     0.064 A 
ATOM     66  C   UNL A   1      43.267  36.775  27.933  1.00  0.00     0.173 A 
ATOM     67  C   UNL A   1      45.618  37.104  28.318  1.00  0.00     0.173 A 
ATOM     68  F   UNL A   1      42.129  36.091  28.123  1.00  0.00    -0.203 F 
ATOM     69  C   UNL A   1      43.249  37.891  27.100  1.00  0.00     0.198 A 
ATOM     70  C   UNL A   1      45.591  38.234  27.504  1.00  0.00     0.198 A 
ATOM     71  F   UNL A   1      46.774  36.753  28.902  1.00  0.00    -0.203 F 
ATOM     72  F   UNL A   1      42.109  38.256  26.497  1.00  0.00    -0.200 F 
ATOM     73  C   UNL A   1      44.409  38.620  26.889  1.00  0.00     0.200 A 
ATOM     74  F   UNL A   1      46.707  38.952  27.321  1.00  0.00    -0.200 F 
ATOM     75  F   UNL A   1      44.388  39.700  26.097  1.00  0.00    -0.200 F 
ENDBRANCH  42  65
ENDBRANCH  16  17
ENDBRANCH   9  11
ENDBRANCH   6   7
ENDBRANCH   5   6
ENDBRANCH   4   5
ENDBRANCH   3   4
ENDBRANCH   2   3
ENDBRANCH   1   2
BRANCH   1  76
ATOM     76  N   UNL A   1      43.381  24.662  28.308  1.00  0.00    -0.354 N 
ATOM     77  C   UNL A   1      42.389  25.067  27.454  1.00  0.00     0.244 C 
ATOM     78  H   UNL A   1      43.888  23.870  28.019  1.00  0.00     0.163 HD
ATOM     79  O   UNL A   1      42.398  24.624  26.303  1.00  0.00    -0.273 OA
BRANCH  77  80
ATOM     80  C   UNL A   1      41.365  26.131  27.888  1.00  0.00     0.197 C 
BRANCH  80  81
ATOM     81  N   UNL A   1      41.376  27.232  26.921  1.00  0.00    -0.340 N 
ATOM     82  C   UNL A   1      40.798  28.461  26.959  1.00  0.00     0.243 C 
ATOM     83  H   UNL A   1      41.893  27.050  26.103  1.00  0.00     0.164 HD
ATOM     84  O   UNL A   1      40.536  28.960  25.857  1.00  0.00    -0.273 OA
BRANCH  82  85
ATOM     85  C   UNL A   1      40.470  29.237  28.260  1.00  0.00     0.175 C 
BRANCH  85  86
ATOM     86  N   UNL A   1      39.424  28.677  29.131  1.00  0.00    -0.342 N 
ATOM     87  C   UNL A   1      38.220  29.029  29.639  1.00  0.00     0.243 C 
ATOM     88  H   UNL A   1      39.675  27.775  29.436  1.00  0.00     0.164 HD
ATOM     89  O   UNL A   1      37.720  28.163  30.370  1.00  0.00    -0.273 OA
BRANCH  87  90
ATOM     90  C   UNL A   1      37.480  30.368  29.395  1.00  0.00     0.176 C 
BRANCH  90  91
ATOM     91  N   UNL A   1      38.269  31.545  29.755  1.00  0.00    -0.340 N 
ATOM     92  C   UNL A   1      38.012  32.605  30.581  1.00  0.00     0.251 C 
ATOM     93  H   UNL A   1      39.151  31.584  29.320  1.00  0.00     0.164 HD
ATOM     94  O   UNL A   1      38.851  33.507  30.629  1.00  0.00    -0.269 OA
BRANCH  92  95
ATOM     95  C   UNL A   1      36.801  32.714  31.439  1.00  0.00     0.040 A 
ATOM     96  C   UNL A   1      36.823  32.687  32.839  1.00  0.00     0.017 A 
ATOM     97  C   UNL A   1      35.584  32.982  30.792  1.00  0.00     0.017 A 
ATOM     98  C   UNL A   1      35.651  32.885  33.575  1.00  0.00     0.040 A 
ATOM     99  C   UNL A   1      34.414  33.187  31.526  1.00  0.00     0.040 A 
ATOM    100  C   UNL A   1      34.458  33.131  32.912  1.00  0.00     0.123 A 
ATOM    101  F   UNL A   1      33.342  33.336  33.622  1.00  0.00    -0.207 F 
ENDBRANCH  92  95
ENDBRANCH  90  91
BRANCH  90 102
ATOM    102  C   UNL A   1      37.027  30.491  27.918  1.00  0.00     0.070 C 
BRANCH 102 103
ATOM    103  C   UNL A   1      35.565  30.251  27.604  1.00  0.00    -0.045 A 
ATOM    104  C   UNL A   1      34.642  31.307  27.626  1.00  0.00     0.007 A 
ATOM    105  C   UNL A   1      35.090  28.953  27.361  1.00  0.00     0.007 A 
ATOM    106  C   UNL A   1      33.281  31.081  27.405  1.00  0.00     0.046 A 
ATOM    107  C   UNL A   1      33.726  28.723  27.157  1.00  0.00     0.046 A 
ATOM    108  C   UNL A   1      32.833  29.786  27.180  1.00  0.00     0.115 A 
BRANCH 108 109
ATOM    109  O   UNL A   1      31.510  29.516  26.990  1.00  0.00    -0.508 OA
ATOM    110  H   UNL A   1      31.250  28.731  26.549  1.00  0.00     0.293 HD
ENDBRANCH 108 109
ENDBRANCH 102 103
ENDBRANCH  90 102
ENDBRANCH  87  90
ENDBRANCH  85  86
BRANCH  85 111
ATOM    111  C   UNL A   1      41.801  29.372  29.073  1.00  0.00     0.072 C 
BRANCH 111 112
ATOM    112  C   UNL A   1      41.691  30.370  30.204  1.00  0.00    -0.020 A 
ATOM    113  C   UNL A   1      41.873  31.737  30.098  1.00  0.00     0.087 A 
ATOM    114  C   UNL A   1      41.255  30.118  31.548  1.00  0.00     0.003 A 
ATOM    115  N   UNL A   1      41.513  32.315  31.284  1.00  0.00    -0.361 N 
ATOM    116  C   UNL A   1      41.083  31.355  32.167  1.00  0.00     0.046 A 
ATOM    117  C   UNL A   1      40.931  28.957  32.279  1.00  0.00     0.010 A 
ATOM    118  H   UNL A   1      41.556  33.281  31.476  1.00  0.00     0.166 HD
ATOM    119  C   UNL A   1      40.553  31.486  33.457  1.00  0.00     0.026 A 
ATOM    120  C   UNL A   1      40.359  29.073  33.550  1.00  0.00     0.001 A 
ATOM    121  C   UNL A   1      40.160  30.322  34.124  1.00  0.00     0.002 A 
ENDBRANCH 111 112
ENDBRANCH  85 111
ENDBRANCH  82  85
ENDBRANCH  80  81
BRANCH  80 122
ATOM    122  C   UNL A   1      39.956  25.514  27.914  1.00  0.00     0.191 C 
BRANCH 122 123
ATOM    123  O   UNL A   1      39.277  25.872  29.127  1.00  0.00    -0.394 OA
ATOM    124  H   UNL A   1      39.030  25.067  29.609  1.00  0.00     0.210 HD
ENDBRANCH 122 123
ENDBRANCH  80 122
ENDBRANCH  77  80
ENDBRANCH   1  76
TORSDOF 26
ENDMDL
MODEL 2
REMARK VINA RESULT:      -7.9      3.859      9.540
REMARK SMILES O=C(NCCCCCCNC(=O)[C@H](CO)NC(=O)[C@H](Cc1c[nH]c2ccccc12)NC(=O)[C@H](Cc1ccc(O)cc1)NC(=O)c1ccc(F)cc1)c1ccc(-c2c3nc(c(-c4c(F)c(F)c(F)c(F)c4F)c4ccc([nH]4)c(-c4c(F)c(F)c(F)c(F)c4F)c4nc(c(-c5c(F)c(F)c(F)c(F)c5F)c5ccc2[nH]5)C=C4)C=C3)cc1
REMARK SMILES IDX 9 1 8 2 7 3 6 4 5 5 4 6 3 7 1 8 2 9 52 11 53 12 114 13 54 14
REMARK SMILES IDX 113 15 55 16 56 17 57 18 107 19 58 20 112 21 106 22 108 23
REMARK SMILES IDX 59 24 111 25 105 26 104 27 60 29 92 30 72 31 91 32 73 33
REMARK SMILES IDX 76 34 90 35 109 36 74 37 75 38 89 40 110 41 77 42 61 43
REMARK SMILES IDX 62 44 70 45 63 46 64 47 68 48 71 49 65 50 66 51 69 52 67 53
REMARK SMILES IDX 93 54 94 55 102 56 95 57 96 58 100 59 103 60 97 61 98 62
REMARK SMILES IDX 101 63 99 64 78 65 79 66 87 67 80 68 81 69 85 70 88 71 82 72
REMARK SMILES IDX 83 73 86 74 84 75 10 76 11 77 12 79 13 80 16 81 17 82 18 84
REMARK SMILES IDX 19 85 30 86 31 87 32 89 33 90 42 91 43 92 44 94 45 95 46 96
REMARK SMILES IDX 51 97 47 98 50 99 48 100 49 101 34 102 35 103 36 104 41 105
REMARK SMILES IDX 37 106 40 107 38 108 39 109 20 111 21 112 22 113 29 114
REMARK SMILES IDX 23 115 24 116 28 117 25 119 27 120 26 121 14 122 15 123
REMARK H PARENT 3 10 108 28 76 39 10 78 16 83 30 88 42 93 39 110 23 118 15 124
REMARK Flexibility Score: inf
ROOT
ATOM      1  C   UNL A   1      42.477  36.260  34.167  1.00  0.00     0.116 C 
ENDROOT
BRANCH   1   2
ATOM      2  C   UNL A   1      43.356  36.444  32.931  1.00  0.00     0.021 C 
BRANCH   2   3
ATOM      3  C   UNL A   1      43.820  37.883  32.662  1.00  0.00     0.002 C 
BRANCH   3   4
ATOM      4  C   UNL A   1      44.526  38.145  31.322  1.00  0.00     0.002 C 
BRANCH   4   5
ATOM      5  C   UNL A   1      43.765  38.994  30.301  1.00  0.00     0.021 C 
BRANCH   5   6
ATOM      6  C   UNL A   1      44.103  38.725  28.840  1.00  0.00     0.116 C 
BRANCH   6   7
ATOM      7  N   UNL A   1      42.953  38.260  28.083  1.00  0.00    -0.352 N 
ATOM      8  O   UNL A   1      41.549  36.830  27.073  1.00  0.00    -0.269 OA
ATOM      9  C   UNL A   1      42.414  37.007  27.935  1.00  0.00     0.251 C 
ATOM     10  H   UNL A   1      42.476  38.968  27.591  1.00  0.00     0.163 HD
BRANCH   9  11
ATOM     11  C   UNL A   1      42.835  35.855  28.772  1.00  0.00     0.039 A 
ATOM     12  C   UNL A   1      41.950  35.205  29.634  1.00  0.00     0.014 A 
ATOM     13  C   UNL A   1      44.123  35.328  28.597  1.00  0.00     0.014 A 
ATOM     14  C   UNL A   1      42.374  34.112  30.389  1.00  0.00     0.010 A 
ATOM     15  C   UNL A   1      44.519  34.169  29.280  1.00  0.00     0.010 A 
ATOM     16  C   UNL A   1      43.645  33.549  30.183  1.00  0.00    -0.014 A 
BRANCH  16  17
ATOM     17  C   UNL A   1      43.962  32.233  30.802  1.00  0.00     0.031 A 
ATOM     18  C   UNL A   1      43.537  30.937  30.177  1.00  0.00     0.074 A 
ATOM     19  C   UNL A   1      44.677  32.226  31.946  1.00  0.00     0.049 A 
ATOM     20  N   UNL A   1      43.770  29.713  30.584  1.00  0.00    -0.248 NA
ATOM     21  C   UNL A   1      42.744  31.016  28.943  1.00  0.00     0.031 C 
ATOM     22  C   UNL A   1      45.128  33.423  32.659  1.00  0.00     0.029 A 
ATOM     23  N   UNL A   1      45.179  31.190  32.694  1.00  0.00    -0.354 N 
ATOM     24  C   UNL A   1      43.148  28.879  29.667  1.00  0.00     0.074 A 
ATOM     25  C   UNL A   1      42.505  29.735  28.691  1.00  0.00     0.031 C 
ATOM     26  C   UNL A   1      45.899  33.059  33.690  1.00  0.00     0.029 A 
ATOM     27  C   UNL A   1      45.941  31.603  33.760  1.00  0.00     0.049 A 
ATOM     28  H   UNL A   1      45.009  30.242  32.486  1.00  0.00     0.167 HD
ATOM     29  C   UNL A   1      43.122  27.524  29.642  1.00  0.00     0.037 A 
ATOM     30  C   UNL A   1      46.596  30.895  34.698  1.00  0.00     0.037 A 
ATOM     31  C   UNL A   1      43.768  26.678  30.616  1.00  0.00     0.049 A 
ATOM     32  C   UNL A   1      46.531  29.398  34.658  1.00  0.00     0.074 A 
ATOM     33  C   UNL A   1      43.803  25.295  30.667  1.00  0.00     0.029 A 
ATOM     34  N   UNL A   1      44.489  27.134  31.710  1.00  0.00    -0.354 N 
ATOM     35  N   UNL A   1      45.942  28.623  33.781  1.00  0.00    -0.248 NA
ATOM     36  C   UNL A   1      47.207  28.675  35.743  1.00  0.00     0.031 C 
ATOM     37  C   UNL A   1      44.511  24.915  31.811  1.00  0.00     0.029 A 
ATOM     38  C   UNL A   1      44.958  26.060  32.449  1.00  0.00     0.049 A 
ATOM     39  H   UNL A   1      44.644  28.081  31.928  1.00  0.00     0.167 HD
ATOM     40  C   UNL A   1      46.178  27.323  34.202  1.00  0.00     0.074 A 
ATOM     41  C   UNL A   1      46.984  27.413  35.403  1.00  0.00     0.031 C 
ATOM     42  C   UNL A   1      45.755  26.163  33.646  1.00  0.00     0.037 A 
BRANCH  29  43
ATOM     43  C   UNL A   1      42.366  26.857  28.529  1.00  0.00     0.064 A 
ATOM     44  C   UNL A   1      43.025  26.463  27.355  1.00  0.00     0.173 A 
ATOM     45  C   UNL A   1      40.977  26.677  28.593  1.00  0.00     0.173 A 
ATOM     46  F   UNL A   1      44.353  26.620  27.239  1.00  0.00    -0.203 F 
ATOM     47  C   UNL A   1      42.321  25.923  26.282  1.00  0.00     0.198 A 
ATOM     48  C   UNL A   1      40.277  26.114  27.527  1.00  0.00     0.198 A 
ATOM     49  F   UNL A   1      40.300  27.028  29.697  1.00  0.00    -0.203 F 
ATOM     50  F   UNL A   1      42.967  25.579  25.160  1.00  0.00    -0.200 F 
ATOM     51  C   UNL A   1      40.948  25.745  26.370  1.00  0.00     0.200 A 
ATOM     52  F   UNL A   1      38.955  25.924  27.622  1.00  0.00    -0.200 F 
ATOM     53  F   UNL A   1      40.271  25.217  25.341  1.00  0.00    -0.200 F 
ENDBRANCH  29  43
BRANCH  30  54
ATOM     54  C   UNL A   1      47.376  31.611  35.740  1.00  0.00     0.064 A 
ATOM     55  C   UNL A   1      46.802  31.964  36.970  1.00  0.00     0.173 A 
ATOM     56  C   UNL A   1      48.698  32.009  35.497  1.00  0.00     0.173 A 
ATOM     57  F   UNL A   1      45.538  31.611  37.246  1.00  0.00    -0.203 F 
ATOM     58  C   UNL A   1      47.509  32.717  37.904  1.00  0.00     0.198 A 
ATOM     59  C   UNL A   1      49.414  32.738  36.445  1.00  0.00     0.198 A 
ATOM     60  F   UNL A   1      49.296  31.679  34.344  1.00  0.00    -0.203 F 
ATOM     61  F   UNL A   1      46.920  33.084  39.050  1.00  0.00    -0.200 F 
ATOM     62  C   UNL A   1      48.815  33.102  37.641  1.00  0.00     0.200 A 
ATOM     63  F   UNL A   1      50.682  33.091  36.196  1.00  0.00    -0.200 F 
ATOM     64  F   UNL A   1      49.496  33.824  38.542  1.00  0.00    -0.200 F 
ENDBRANCH  30  54
BRANCH  42  65
ATOM     65  C   UNL A   1      46.163  24.890  34.323  1.00  0.00     0.064 A 
ATOM     66  C   UNL A   1      45.320  24.283  35.266  1.00  0.00     0.173 A 
ATOM     67  C   UNL A   1      47.413  24.303  34.083  1.00  0.00     0.173 A 
ATOM     68  F   UNL A   1      44.116  24.810  35.534  1.00  0.00    -0.203 F 
ATOM     69  C   UNL A   1      45.719  23.138  35.950  1.00  0.00     0.198 A 
ATOM     70  C   UNL A   1      47.799  23.143  34.751  1.00  0.00     0.198 A 
ATOM     71  F   UNL A   1      48.247  24.838  33.178  1.00  0.00    -0.203 F 
ATOM     72  F   UNL A   1      44.908  22.590  36.865  1.00  0.00    -0.200 F 
ATOM     73  C   UNL A   1      46.956  22.568  35.690  1.00  0.00     0.200 A 
ATOM     74  F   UNL A   1      48.984  22.580  34.481  1.00  0.00    -0.200 F 
ATOM     75  F   UNL A   1      47.334  21.459  36.341  1.00  0.00    -0.200 F 
ENDBRANCH  42  65
ENDBRANCH  16  17
ENDBRANCH   9  11
ENDBRANCH   6   7
ENDBRANCH   5   6
ENDBRANCH   4   5
ENDBRANCH   3   4
ENDBRANCH   2   3
ENDBRANCH   1   2
BRANCH   1  76
ATOM     76  N   UNL A   1      42.602  34.949  34.781  1.00  0.00    -0.354 N 
ATOM     77  C   UNL A   1      41.618  34.087  35.192  1.00  0.00     0.244 C 
ATOM     78  H   UNL A   1      43.523  34.635  34.924  1.00  0.00     0.163 HD
ATOM     79  O   UNL A   1      41.931  32.916  35.419  1.00  0.00    -0.273 OA
BRANCH  77  80
ATOM     80  C   UNL A   1      40.151  34.545  35.256  1.00  0.00     0.197 C 
BRANCH  80  81
ATOM     81  N   UNL A   1      39.278  33.368  35.218  1.00  0.00    -0.340 N 
ATOM     82  C   UNL A   1      37.948  33.249  34.963  1.00  0.00     0.243 C 
ATOM     83  H   UNL A   1      39.734  32.517  35.409  1.00  0.00     0.164 HD
ATOM     84  O   UNL A   1      37.392  32.275  35.486  1.00  0.00    -0.273 OA
BRANCH  82  85
ATOM     85  C   UNL A   1      37.132  34.229  34.083  1.00  0.00     0.175 C 
BRANCH  85  86
ATOM     86  N   UNL A   1      37.689  34.573  32.765  1.00  0.00    -0.342 N 
ATOM     87  C   UNL A   1      38.360  33.978  31.752  1.00  0.00     0.243 C 
ATOM     88  H   UNL A   1      37.525  35.522  32.558  1.00  0.00     0.164 HD
ATOM     89  O   UNL A   1      38.625  34.745  30.816  1.00  0.00    -0.273 OA
BRANCH  87  90
ATOM     90  C   UNL A   1      38.807  32.495  31.697  1.00  0.00     0.176 C 
BRANCH  90  91
ATOM     91  N   UNL A   1      37.785  31.560  32.168  1.00  0.00    -0.340 N 
ATOM     92  C   UNL A   1      37.870  30.317  32.732  1.00  0.00     0.251 C 
ATOM     93  H   UNL A   1      36.863  31.886  32.058  1.00  0.00     0.164 HD
ATOM     94  O   UNL A   1      36.815  29.722  32.960  1.00  0.00    -0.269 OA
BRANCH  92  95
ATOM     95  C   UNL A   1      39.152  29.661  33.108  1.00  0.00     0.040 A 
ATOM     96  C   UNL A   1      39.879  28.813  32.264  1.00  0.00     0.017 A 
ATOM     97  C   UNL A   1      39.715  30.024  34.342  1.00  0.00     0.017 A 
ATOM     98  C   UNL A   1      41.121  28.307  32.659  1.00  0.00     0.040 A 
ATOM     99  C   UNL A   1      40.959  29.524  34.734  1.00  0.00     0.040 A 
ATOM    100  C   UNL A   1      41.649  28.665  33.890  1.00  0.00     0.123 A 
ATOM    101  F   UNL A   1      42.845  28.191  34.256  1.00  0.00    -0.207 F 
ENDBRANCH  92  95
ENDBRANCH  90  91
BRANCH  90 102
ATOM    102  C   UNL A   1      39.236  32.098  30.262  1.00  0.00     0.070 C 
BRANCH 102 103
ATOM    103  C   UNL A   1      38.210  31.418  29.379  1.00  0.00    -0.045 A 
ATOM    104  C   UNL A   1      38.379  30.084  28.976  1.00  0.00     0.007 A 
ATOM    105  C   UNL A   1      37.110  32.132  28.880  1.00  0.00     0.007 A 
ATOM    106  C   UNL A   1      37.472  29.473  28.106  1.00  0.00     0.046 A 
ATOM    107  C   UNL A   1      36.212  31.527  27.995  1.00  0.00     0.046 A 
ATOM    108  C   UNL A   1      36.399  30.205  27.615  1.00  0.00     0.115 A 
BRANCH 108 109
ATOM    109  O   UNL A   1      35.508  29.657  26.740  1.00  0.00    -0.508 OA
ATOM    110  H   UNL A   1      35.263  30.125  25.966  1.00  0.00     0.293 HD
ENDBRANCH 108 109
ENDBRANCH 102 103
ENDBRANCH  90 102
ENDBRANCH  87  90
ENDBRANCH  85  86
BRANCH  85 111
ATOM    111  C   UNL A   1      35.706  33.613  33.895  1.00  0.00     0.072 C 
BRANCH 111 112
ATOM    112  C   UNL A   1      34.721  34.596  33.303  1.00  0.00    -0.020 A 
ATOM    113  C   UNL A   1      34.193  35.700  33.948  1.00  0.00     0.087 A 
ATOM    114  C   UNL A   1      34.258  34.653  31.946  1.00  0.00     0.003 A 
ATOM    115  N   UNL A   1      33.492  36.441  33.035  1.00  0.00    -0.361 N 
ATOM    116  C   UNL A   1      33.560  35.851  31.796  1.00  0.00     0.046 A 
ATOM    117  C   UNL A   1      34.416  33.830  30.813  1.00  0.00     0.010 A 
ATOM    118  H   UNL A   1      33.010  37.275  33.239  1.00  0.00     0.166 HD
ATOM    119  C   UNL A   1      33.063  36.286  30.561  1.00  0.00     0.026 A 
ATOM    120  C   UNL A   1      33.967  34.271  29.564  1.00  0.00     0.001 A 
ATOM    121  C   UNL A   1      33.312  35.490  29.440  1.00  0.00     0.002 A 
ENDBRANCH 111 112
ENDBRANCH  85 111
ENDBRANCH  82  85
ENDBRANCH  80  81
BRANCH  80 122
ATOM    122  C   UNL A   1      39.900  35.300  36.572  1.00  0.00     0.191 C 
BRANCH 122 123
ATOM    123  O   UNL A   1      39.702  36.699  36.316  1.00  0.00    -0.394 OA
ATOM    124  H   UNL A   1      39.616  36.843  35.361  1.00  0.00     0.210 HD
ENDBRANCH 122 123
ENDBRANCH  80 122
ENDBRANCH  77  80
ENDBRANCH   1  76
TORSDOF 26
ENDMDL
MODEL 3
REMARK VINA RESULT:      -7.5      4.677      8.476
REMARK SMILES O=C(NCCCCCCNC(=O)[C@H](CO)NC(=O)[C@H](Cc1c[nH]c2ccccc12)NC(=O)[C@H](Cc1ccc(O)cc1)NC(=O)c1ccc(F)cc1)c1ccc(-c2c3nc(c(-c4c(F)c(F)c(F)c(F)c4F)c4ccc([nH]4)c(-c4c(F)c(F)c(F)c(F)c4F)c4nc(c(-c5c(F)c(F)c(F)c(F)c5F)c5ccc2[nH]5)C=C4)C=C3)cc1
REMARK SMILES IDX 9 1 8 2 7 3 6 4 5 5 4 6 3 7 1 8 2 9 52 11 53 12 114 13 54 14
REMARK SMILES IDX 113 15 55 16 56 17 57 18 107 19 58 20 112 21 106 22 108 23
REMARK SMILES IDX 59 24 111 25 105 26 104 27 60 29 92 30 72 31 91 32 73 33
REMARK SMILES IDX 76 34 90 35 109 36 74 37 75 38 89 40 110 41 77 42 61 43
REMARK SMILES IDX 62 44 70 45 63 46 64 47 68 48 71 49 65 50 66 51 69 52 67 53
REMARK SMILES IDX 93 54 94 55 102 56 95 57 96 58 100 59 103 60 97 61 98 62
REMARK SMILES IDX 101 63 99 64 78 65 79 66 87 67 80 68 81 69 85 70 88 71 82 72
REMARK SMILES IDX 83 73 86 74 84 75 10 76 11 77 12 79 13 80 16 81 17 82 18 84
REMARK SMILES IDX 19 85 30 86 31 87 32 89 33 90 42 91 43 92 44 94 45 95 46 96
REMARK SMILES IDX 51 97 47 98 50 99 48 100 49 101 34 102 35 103 36 104 41 105
REMARK SMILES IDX 37 106 40 107 38 108 39 109 20 111 21 112 22 113 29 114
REMARK SMILES IDX 23 115 24 116 28 117 25 119 27 120 26 121 14 122 15 123
REMARK H PARENT 3 10 108 28 76 39 10 78 16 83 30 88 42 93 39 110 23 118 15 124
REMARK Flexibility Score: inf
ROOT
ATOM      1  C   UNL A   1      37.776  33.256  29.475  1.00  0.00     0.116 C 
ENDROOT
BRANCH   1   2
ATOM      2  C   UNL A   1      38.985  32.459  29.962  1.00  0.00     0.021 C 
BRANCH   2   3
ATOM      3  C   UNL A   1      38.985  32.109  31.457  1.00  0.00     0.002 C 
BRANCH   3   4
ATOM      4  C   UNL A   1      39.911  30.967  31.902  1.00  0.00     0.002 C 
BRANCH   4   5
ATOM      5  C   UNL A   1      39.310  29.927  32.850  1.00  0.00     0.021 C 
BRANCH   5   6
ATOM      6  C   UNL A   1      37.901  30.227  33.347  1.00  0.00     0.116 C 
BRANCH   6   7
ATOM      7  N   UNL A   1      37.794  30.137  34.794  1.00  0.00    -0.352 N 
ATOM      8  O   UNL A   1      38.351  30.379  36.954  1.00  0.00    -0.269 OA
ATOM      9  C   UNL A   1      38.486  30.774  35.793  1.00  0.00     0.251 C 
ATOM     10  H   UNL A   1      37.104  29.511  35.113  1.00  0.00     0.163 HD
BRANCH   9  11
ATOM     11  C   UNL A   1      39.394  31.919  35.528  1.00  0.00     0.039 A 
ATOM     12  C   UNL A   1      38.909  33.199  35.256  1.00  0.00     0.014 A 
ATOM     13  C   UNL A   1      40.776  31.734  35.680  1.00  0.00     0.014 A 
ATOM     14  C   UNL A   1      39.791  34.256  35.034  1.00  0.00     0.010 A 
ATOM     15  C   UNL A   1      41.658  32.817  35.557  1.00  0.00     0.010 A 
ATOM     16  C   UNL A   1      41.172  34.091  35.233  1.00  0.00    -0.014 A 
BRANCH  16  17
ATOM     17  C   UNL A   1      42.050  35.293  35.253  1.00  0.00     0.031 A 
ATOM     18  C   UNL A   1      42.695  35.827  34.008  1.00  0.00     0.074 A 
ATOM     19  C   UNL A   1      42.238  35.922  36.431  1.00  0.00     0.049 A 
ATOM     20  N   UNL A   1      43.457  36.883  33.866  1.00  0.00    -0.248 NA
ATOM     21  C   UNL A   1      42.465  35.083  32.762  1.00  0.00     0.031 C 
ATOM     22  C   UNL A   1      41.681  35.483  37.713  1.00  0.00     0.029 A 
ATOM     23  N   UNL A   1      42.915  37.074  36.745  1.00  0.00    -0.354 N 
ATOM     24  C   UNL A   1      43.806  36.927  32.524  1.00  0.00     0.074 A 
ATOM     25  C   UNL A   1      43.191  35.776  31.893  1.00  0.00     0.031 C 
ATOM     26  C   UNL A   1      41.971  36.390  38.654  1.00  0.00     0.029 A 
ATOM     27  C   UNL A   1      42.796  37.437  38.064  1.00  0.00     0.049 A 
ATOM     28  H   UNL A   1      43.436  37.590  36.087  1.00  0.00     0.167 HD
ATOM     29  C   UNL A   1      44.565  37.847  31.879  1.00  0.00     0.037 A 
ATOM     30  C   UNL A   1      43.301  38.490  38.734  1.00  0.00     0.037 A 
ATOM     31  C   UNL A   1      45.171  38.992  32.513  1.00  0.00     0.049 A 
ATOM     32  C   UNL A   1      44.155  39.479  38.000  1.00  0.00     0.074 A 
ATOM     33  C   UNL A   1      45.950  39.983  31.939  1.00  0.00     0.029 A 
ATOM     34  N   UNL A   1      45.069  39.299  33.863  1.00  0.00    -0.354 N 
ATOM     35  N   UNL A   1      44.472  39.509  36.729  1.00  0.00    -0.248 NA
ATOM     36  C   UNL A   1      44.735  40.572  38.792  1.00  0.00     0.031 C 
ATOM     37  C   UNL A   1      46.350  40.866  32.947  1.00  0.00     0.029 A 
ATOM     38  C   UNL A   1      45.783  40.454  34.141  1.00  0.00     0.049 A 
ATOM     39  H   UNL A   1      44.564  38.774  34.524  1.00  0.00     0.167 HD
ATOM     40  C   UNL A   1      45.283  40.622  36.565  1.00  0.00     0.074 A 
ATOM     41  C   UNL A   1      45.391  41.255  37.864  1.00  0.00     0.031 C 
ATOM     42  C   UNL A   1      45.888  41.070  35.440  1.00  0.00     0.037 A 
BRANCH  29  43
ATOM     43  C   UNL A   1      44.796  37.659  30.408  1.00  0.00     0.064 A 
ATOM     44  C   UNL A   1      43.940  38.255  29.469  1.00  0.00     0.173 A 
ATOM     45  C   UNL A   1      45.818  36.828  29.927  1.00  0.00     0.173 A 
ATOM     46  F   UNL A   1      42.940  39.053  29.876  1.00  0.00    -0.203 F 
ATOM     47  C   UNL A   1      44.092  38.018  28.105  1.00  0.00     0.198 A 
ATOM     48  C   UNL A   1      45.983  36.612  28.560  1.00  0.00     0.198 A 
ATOM     49  F   UNL A   1      46.670  36.243  30.782  1.00  0.00    -0.203 F 
ATOM     50  F   UNL A   1      43.245  38.576  27.230  1.00  0.00    -0.200 F 
ATOM     51  C   UNL A   1      45.116  37.200  27.652  1.00  0.00     0.200 A 
ATOM     52  F   UNL A   1      46.985  35.838  28.123  1.00  0.00    -0.200 F 
ATOM     53  F   UNL A   1      45.268  36.980  26.338  1.00  0.00    -0.200 F 
ENDBRANCH  29  43
BRANCH  30  54
ATOM     54  C   UNL A   1      42.988  38.654  40.177  1.00  0.00     0.064 A 
ATOM     55  C   UNL A   1      43.724  37.984  41.165  1.00  0.00     0.173 A 
ATOM     56  C   UNL A   1      41.903  39.440  40.590  1.00  0.00     0.173 A 
ATOM     57  F   UNL A   1      44.767  37.215  40.819  1.00  0.00    -0.203 F 
ATOM     58  C   UNL A   1      43.367  38.067  42.508  1.00  0.00     0.198 A 
ATOM     59  C   UNL A   1      41.564  39.545  41.938  1.00  0.00     0.198 A 
ATOM     60  F   UNL A   1      41.181  40.114  39.684  1.00  0.00    -0.203 F 
ATOM     61  F   UNL A   1      44.056  37.376  43.427  1.00  0.00    -0.200 F 
ATOM     62  C   UNL A   1      42.288  38.848  42.894  1.00  0.00     0.200 A 
ATOM     63  F   UNL A   1      40.535  40.317  42.308  1.00  0.00    -0.200 F 
ATOM     64  F   UNL A   1      41.947  38.931  44.187  1.00  0.00    -0.200 F 
ENDBRANCH  30  54
BRANCH  42  65
ATOM     65  C   UNL A   1      46.718  42.313  35.556  1.00  0.00     0.064 A 
ATOM     66  C   UNL A   1      46.156  43.571  35.299  1.00  0.00     0.173 A 
ATOM     67  C   UNL A   1      48.084  42.252  35.865  1.00  0.00     0.173 A 
ATOM     68  F   UNL A   1      44.854  43.680  34.994  1.00  0.00    -0.203 F 
ATOM     69  C   UNL A   1      46.935  44.725  35.337  1.00  0.00     0.198 A 
ATOM     70  C   UNL A   1      48.856  43.410  35.927  1.00  0.00     0.198 A 
ATOM     71  F   UNL A   1      48.663  41.072  36.136  1.00  0.00    -0.203 F 
ATOM     72  F   UNL A   1      46.382  45.914  35.061  1.00  0.00    -0.200 F 
ATOM     73  C   UNL A   1      48.282  44.643  35.654  1.00  0.00     0.200 A 
ATOM     74  F   UNL A   1      50.151  43.333  36.257  1.00  0.00    -0.200 F 
ATOM     75  F   UNL A   1      49.028  45.755  35.701  1.00  0.00    -0.200 F 
ENDBRANCH  42  65
ENDBRANCH  16  17
ENDBRANCH   9  11
ENDBRANCH   6   7
ENDBRANCH   5   6
ENDBRANCH   4   5
ENDBRANCH   3   4
ENDBRANCH   2   3
ENDBRANCH   1   2
BRANCH   1  76
ATOM     76  N   UNL A   1      36.609  33.129  30.332  1.00  0.00    -0.354 N 
ATOM     77  C   UNL A   1      35.324  32.789  30.001  1.00  0.00     0.244 C 
ATOM     78  H   UNL A   1      36.763  33.315  31.286  1.00  0.00     0.163 HD
ATOM     79  O   UNL A   1      34.559  32.459  30.911  1.00  0.00    -0.273 OA
BRANCH  77  80
ATOM     80  C   UNL A   1      34.887  32.711  28.528  1.00  0.00     0.197 C 
BRANCH  80  81
ATOM     81  N   UNL A   1      33.707  31.847  28.421  1.00  0.00    -0.340 N 
ATOM     82  C   UNL A   1      33.472  30.745  27.661  1.00  0.00     0.243 C 
ATOM     83  H   UNL A   1      32.956  32.110  29.000  1.00  0.00     0.164 HD
ATOM     84  O   UNL A   1      32.285  30.535  27.383  1.00  0.00    -0.273 OA
BRANCH  82  85
ATOM     85  C   UNL A   1      34.572  29.779  27.151  1.00  0.00     0.175 C 
BRANCH  85  86
ATOM     86  N   UNL A   1      34.459  29.304  25.763  1.00  0.00    -0.342 N 
ATOM     87  C   UNL A   1      34.242  28.149  25.092  1.00  0.00     0.243 C 
ATOM     88  H   UNL A   1      34.578  30.051  25.133  1.00  0.00     0.164 HD
ATOM     89  O   UNL A   1      34.254  28.283  23.861  1.00  0.00    -0.273 OA
BRANCH  87  90
ATOM     90  C   UNL A   1      34.010  26.754  25.724  1.00  0.00     0.176 C 
BRANCH  90  91
ATOM     91  N   UNL A   1      32.728  26.632  26.418  1.00  0.00    -0.340 N 
ATOM     92  C   UNL A   1      31.468  27.063  26.101  1.00  0.00     0.251 C 
ATOM     93  H   UNL A   1      32.780  26.150  27.274  1.00  0.00     0.164 HD
ATOM     94  O   UNL A   1      30.577  26.880  26.933  1.00  0.00    -0.269 OA
BRANCH  92  95
ATOM     95  C   UNL A   1      31.113  27.709  24.808  1.00  0.00     0.040 A 
ATOM     96  C   UNL A   1      30.863  27.010  23.621  1.00  0.00     0.017 A 
ATOM     97  C   UNL A   1      30.899  29.097  24.826  1.00  0.00     0.017 A 
ATOM     98  C   UNL A   1      30.448  27.683  22.469  1.00  0.00     0.040 A 
ATOM     99  C   UNL A   1      30.478  29.770  23.678  1.00  0.00     0.040 A 
ATOM    100  C   UNL A   1      30.261  29.057  22.507  1.00  0.00     0.123 A 
ATOM    101  F   UNL A   1      29.847  29.696  21.406  1.00  0.00    -0.207 F 
ENDBRANCH  92  95
ENDBRANCH  90  91
BRANCH  90 102
ATOM    102  C   UNL A   1      34.118  25.636  24.657  1.00  0.00     0.070 C 
BRANCH 102 103
ATOM    103  C   UNL A   1      33.461  24.305  24.957  1.00  0.00    -0.045 A 
ATOM    104  C   UNL A   1      33.919  23.498  26.011  1.00  0.00     0.007 A 
ATOM    105  C   UNL A   1      32.431  23.814  24.140  1.00  0.00     0.007 A 
ATOM    106  C   UNL A   1      33.363  22.239  26.250  1.00  0.00     0.046 A 
ATOM    107  C   UNL A   1      31.886  22.547  24.368  1.00  0.00     0.046 A 
ATOM    108  C   UNL A   1      32.355  21.769  25.418  1.00  0.00     0.115 A 
BRANCH 108 109
ATOM    109  O   UNL A   1      31.805  20.535  25.597  1.00  0.00    -0.508 OA
ATOM    110  H   UNL A   1      30.961  20.450  25.995  1.00  0.00     0.293 HD
ENDBRANCH 108 109
ENDBRANCH 102 103
ENDBRANCH  90 102
ENDBRANCH  87  90
ENDBRANCH  85  86
BRANCH  85 111
ATOM    111  C   UNL A   1      35.950  30.497  27.342  1.00  0.00     0.072 C 
BRANCH 111 112
ATOM    112  C   UNL A   1      36.827  29.808  28.363  1.00  0.00    -0.020 A 
ATOM    113  C   UNL A   1      36.443  29.433  29.638  1.00  0.00     0.087 A 
ATOM    114  C   UNL A   1      38.154  29.299  28.169  1.00  0.00     0.003 A 
ATOM    115  N   UNL A   1      37.444  28.679  30.188  1.00  0.00    -0.361 N 
ATOM    116  C   UNL A   1      38.477  28.539  29.293  1.00  0.00     0.046 A 
ATOM    117  C   UNL A   1      39.091  29.360  27.117  1.00  0.00     0.010 A 
ATOM    118  H   UNL A   1      37.426  28.294  31.094  1.00  0.00     0.166 HD
ATOM    119  C   UNL A   1      39.662  27.799  29.389  1.00  0.00     0.026 A 
ATOM    120  C   UNL A   1      40.258  28.592  27.178  1.00  0.00     0.001 A 
ATOM    121  C   UNL A   1      40.530  27.810  28.294  1.00  0.00     0.002 A 
ENDBRANCH 111 112
ENDBRANCH  85 111
ENDBRANCH  82  85
ENDBRANCH  80  81
BRANCH  80 122
ATOM    122  C   UNL A   1      34.514  34.115  28.023  1.00  0.00     0.191 C 
BRANCH 122 123
ATOM    123  O   UNL A   1      34.641  35.077  29.081  1.00  0.00    -0.394 OA
ATOM    124  H   UNL A   1      33.888  34.992  29.687  1.00  0.00     0.210 HD
ENDBRANCH 122 123
ENDBRANCH  80 122
ENDBRANCH  77  80
ENDBRANCH   1  76
TORSDOF 26
ENDMDL
