MODEL 1
REMARK VINA RESULT:     -12.5      0.000      0.000
REMARK SMILES C[C@@H]1CCCC[C@@H]1NC(=O)[C@@H](C)n1cc(C(=O)NCCCCCCNC(=O)c2ccc(-c3c4nc(c(-c5c(F)c(F)c(F)c(F)c5F)c5ccc([nH]5)c(-c5c(F)c(F)c(F)c(F)c5F)c5nc(c(-c6c(F)c(F)c(F)c(F)c6F)c6ccc3[nH]6)C=C5)C=C4)cc2)cn1
REMARK SMILES IDX 21 1 20 2 19 3 18 4 16 5 17 6 15 8 13 9 14 10 92 11 91 12
REMARK SMILES IDX 11 13 12 14 9 15 8 16 10 18 7 19 1 20 2 21 3 22 4 23 6 24
REMARK SMILES IDX 5 25 22 26 23 27 24 28 25 29 26 30 27 32 28 33 29 34 90 35
REMARK SMILES IDX 30 36 89 37 31 38 32 39 33 40 83 41 34 42 88 43 82 44 84 45
REMARK SMILES IDX 35 46 87 47 81 48 80 49 36 51 68 52 48 53 67 54 49 55 52 56
REMARK SMILES IDX 66 57 85 58 50 59 51 60 65 62 86 63 53 64 37 65 38 66 46 67
REMARK SMILES IDX 39 68 40 69 44 70 47 71 41 72 42 73 45 74 43 75 69 76 70 77
REMARK SMILES IDX 78 78 71 79 72 80 76 81 79 82 73 83 74 84 77 85 75 86 54 87
REMARK SMILES IDX 55 88 63 89 56 90 57 91 61 92 64 93 58 94 59 95 62 96 60 97
REMARK H PARENT 18 7 8 17 25 31 84 50 52 61
REMARK Flexibility Score: inf
ROOT
ATOM      1  C   UNL A   1      39.321  21.850  26.019  1.00  0.00     0.002 C 
ENDROOT
BRANCH   1   2
ATOM      2  C   UNL A   1      38.858  23.238  26.464  1.00  0.00     0.021 C 
BRANCH   2   3
ATOM      3  C   UNL A   1      37.434  23.621  26.070  1.00  0.00     0.116 C 
BRANCH   3   4
ATOM      4  N   UNL A   1      36.449  22.616  26.414  1.00  0.00    -0.352 N 
ATOM      5  C   UNL A   1      35.250  22.358  25.803  1.00  0.00     0.254 C 
ATOM      6  O   UNL A   1      34.501  21.497  26.257  1.00  0.00    -0.269 OA
ATOM      7  H   UNL A   1      36.669  22.045  27.185  1.00  0.00     0.163 HD
BRANCH   5   8
ATOM      8  C   UNL A   1      34.874  23.198  24.693  1.00  0.00     0.077 A 
ATOM      9  N   UNL A   1      33.937  24.672  23.348  1.00  0.00    -0.260 N 
ATOM     10  C   UNL A   1      34.055  24.314  24.666  1.00  0.00     0.123 A 
ATOM     11  N   UNL A   1      34.597  23.822  22.529  1.00  0.00    -0.180 NA
ATOM     12  C   UNL A   1      35.245  23.004  23.356  1.00  0.00     0.149 A 
BRANCH   9  13
ATOM     13  C   UNL A   1      33.051  25.696  22.795  1.00  0.00     0.193 C 
ATOM     14  C   UNL A   1      32.374  25.292  21.484  1.00  0.00     0.044 C 
BRANCH  13  15
ATOM     15  C   UNL A   1      33.667  27.091  22.689  1.00  0.00     0.244 C 
ATOM     16  N   UNL A   1      33.947  27.877  23.774  1.00  0.00    -0.351 N 
ATOM     17  H   UNL A   1      34.623  28.578  23.634  1.00  0.00     0.163 HD
ATOM     18  O   UNL A   1      34.037  27.512  21.585  1.00  0.00    -0.273 OA
BRANCH  16  19
ATOM     19  C   UNL A   1      33.370  27.805  25.108  1.00  0.00     0.084 C 
ATOM     20  C   UNL A   1      31.254  29.127  24.462  1.00  0.00     0.010 C 
ATOM     21  C   UNL A   1      31.826  27.830  25.054  1.00  0.00     0.008 C 
ATOM     22  C   UNL A   1      31.255  27.576  26.459  1.00  0.00     0.005 C 
ATOM     23  C   UNL A   1      31.865  28.475  27.538  1.00  0.00     0.000 C 
ATOM     24  C   UNL A   1      33.915  28.850  26.080  1.00  0.00     0.025 C 
ATOM     25  C   UNL A   1      33.393  28.528  27.484  1.00  0.00     0.002 C 
ENDBRANCH  16  19
ENDBRANCH  13  15
ENDBRANCH   9  13
ENDBRANCH   5   8
ENDBRANCH   3   4
ENDBRANCH   2   3
ENDBRANCH   1   2
BRANCH   1  26
ATOM     26  C   UNL A   1      40.399  21.177  26.876  1.00  0.00     0.002 C 
BRANCH  26  27
ATOM     27  C   UNL A   1      41.063  19.912  26.314  1.00  0.00     0.021 C 
BRANCH  27  28
ATOM     28  C   UNL A   1      42.428  19.591  26.896  1.00  0.00     0.116 C 
BRANCH  28  29
ATOM     29  N   UNL A   1      43.423  19.374  25.858  1.00  0.00    -0.352 N 
ATOM     30  C   UNL A   1      44.063  20.309  25.081  1.00  0.00     0.251 C 
ATOM     31  H   UNL A   1      43.669  18.436  25.691  1.00  0.00     0.163 HD
ATOM     32  O   UNL A   1      44.599  19.979  24.029  1.00  0.00    -0.269 OA
BRANCH  30  33
ATOM     33  C   UNL A   1      44.069  21.720  25.503  1.00  0.00     0.039 A 
ATOM     34  C   UNL A   1      43.137  22.595  24.950  1.00  0.00     0.014 A 
ATOM     35  C   UNL A   1      44.985  22.166  26.459  1.00  0.00     0.014 A 
ATOM     36  C   UNL A   1      43.073  23.899  25.428  1.00  0.00     0.010 A 
ATOM     37  C   UNL A   1      44.860  23.434  26.999  1.00  0.00     0.010 A 
ATOM     38  C   UNL A   1      43.909  24.311  26.484  1.00  0.00    -0.014 A 
BRANCH  38  39
ATOM     39  C   UNL A   1      43.635  25.605  27.117  1.00  0.00     0.031 A 
ATOM     40  C   UNL A   1      44.592  26.678  26.734  1.00  0.00     0.074 A 
ATOM     41  C   UNL A   1      42.551  25.928  27.855  1.00  0.00     0.049 A 
ATOM     42  N   UNL A   1      45.462  27.257  27.493  1.00  0.00    -0.248 NA
ATOM     43  C   UNL A   1      44.666  27.086  25.321  1.00  0.00     0.031 C 
ATOM     44  C   UNL A   1      41.337  25.132  28.042  1.00  0.00     0.029 A 
ATOM     45  N   UNL A   1      42.262  27.093  28.522  1.00  0.00    -0.354 N 
ATOM     46  C   UNL A   1      46.034  28.260  26.716  1.00  0.00     0.074 A 
ATOM     47  C   UNL A   1      45.643  27.997  25.356  1.00  0.00     0.031 C 
ATOM     48  C   UNL A   1      40.364  25.913  28.560  1.00  0.00     0.029 A 
ATOM     49  C   UNL A   1      40.934  27.203  28.910  1.00  0.00     0.049 A 
ATOM     50  H   UNL A   1      42.936  27.786  28.708  1.00  0.00     0.167 HD
ATOM     51  C   UNL A   1      46.507  29.388  27.313  1.00  0.00     0.037 A 
ATOM     52  C   UNL A   1      40.318  28.267  29.477  1.00  0.00     0.037 A 
ATOM     53  C   UNL A   1      46.664  29.194  28.733  1.00  0.00     0.049 A 
ATOM     54  C   UNL A   1      41.335  29.103  30.151  1.00  0.00     0.074 A 
ATOM     55  C   UNL A   1      47.574  28.637  29.602  1.00  0.00     0.029 A 
ATOM     56  N   UNL A   1      45.504  29.372  29.429  1.00  0.00    -0.354 N 
ATOM     57  N   UNL A   1      41.987  28.731  31.217  1.00  0.00    -0.248 NA
ATOM     58  C   UNL A   1      41.843  30.304  29.493  1.00  0.00     0.031 C 
ATOM     59  C   UNL A   1      46.885  28.431  30.840  1.00  0.00     0.029 A 
ATOM     60  C   UNL A   1      45.578  28.883  30.702  1.00  0.00     0.049 A 
ATOM     61  H   UNL A   1      44.703  29.805  29.054  1.00  0.00     0.167 HD
ATOM     62  C   UNL A   1      43.205  29.363  31.099  1.00  0.00     0.074 A 
ATOM     63  C   UNL A   1      42.990  30.455  30.161  1.00  0.00     0.031 C 
ATOM     64  C   UNL A   1      44.355  28.723  31.452  1.00  0.00     0.037 A 
BRANCH  51  65
ATOM     65  C   UNL A   1      46.304  30.796  26.773  1.00  0.00     0.064 A 
ATOM     66  C   UNL A   1      47.405  31.680  26.765  1.00  0.00     0.173 A 
ATOM     67  C   UNL A   1      45.041  31.406  26.611  1.00  0.00     0.173 A 
ATOM     68  F   UNL A   1      48.654  31.218  26.928  1.00  0.00    -0.203 F 
ATOM     69  C   UNL A   1      47.243  33.067  26.689  1.00  0.00     0.198 A 
ATOM     70  C   UNL A   1      44.889  32.788  26.483  1.00  0.00     0.198 A 
ATOM     71  F   UNL A   1      43.897  30.718  26.684  1.00  0.00    -0.203 F 
ATOM     72  F   UNL A   1      48.308  33.871  26.818  1.00  0.00    -0.200 F 
ATOM     73  C   UNL A   1      45.984  33.621  26.556  1.00  0.00     0.200 A 
ATOM     74  F   UNL A   1      43.657  33.306  26.381  1.00  0.00    -0.200 F 
ATOM     75  F   UNL A   1      45.819  34.950  26.548  1.00  0.00    -0.200 F 
ENDBRANCH  51  65
BRANCH  52  76
ATOM     76  C   UNL A   1      38.903  28.691  29.381  1.00  0.00     0.064 A 
ATOM     77  C   UNL A   1      38.110  28.839  30.531  1.00  0.00     0.173 A 
ATOM     78  C   UNL A   1      38.386  29.229  28.188  1.00  0.00     0.173 A 
ATOM     79  F   UNL A   1      38.543  28.384  31.715  1.00  0.00    -0.203 F 
ATOM     80  C   UNL A   1      36.893  29.525  30.498  1.00  0.00     0.198 A 
ATOM     81  C   UNL A   1      37.165  29.904  28.154  1.00  0.00     0.198 A 
ATOM     82  F   UNL A   1      39.099  29.196  27.052  1.00  0.00    -0.203 F 
ATOM     83  F   UNL A   1      36.203  29.713  31.632  1.00  0.00    -0.200 F 
ATOM     84  C   UNL A   1      36.428  30.068  29.313  1.00  0.00     0.200 A 
ATOM     85  F   UNL A   1      36.739  30.450  27.007  1.00  0.00    -0.200 F 
ATOM     86  F   UNL A   1      35.297  30.786  29.294  1.00  0.00    -0.200 F 
ENDBRANCH  52  76
BRANCH  64  87
ATOM     87  C   UNL A   1      44.274  27.708  32.544  1.00  0.00     0.064 A 
ATOM     88  C   UNL A   1      44.265  28.006  33.915  1.00  0.00     0.173 A 
ATOM     89  C   UNL A   1      44.207  26.358  32.173  1.00  0.00     0.173 A 
ATOM     90  F   UNL A   1      44.243  29.276  34.348  1.00  0.00    -0.203 F 
ATOM     91  C   UNL A   1      44.258  26.989  34.870  1.00  0.00     0.198 A 
ATOM     92  C   UNL A   1      44.159  25.347  33.127  1.00  0.00     0.198 A 
ATOM     93  F   UNL A   1      44.179  26.017  30.875  1.00  0.00    -0.203 F 
ATOM     94  F   UNL A   1      44.296  27.293  36.175  1.00  0.00    -0.200 F 
ATOM     95  C   UNL A   1      44.204  25.662  34.475  1.00  0.00     0.200 A 
ATOM     96  F   UNL A   1      44.071  24.068  32.737  1.00  0.00    -0.200 F 
ATOM     97  F   UNL A   1      44.182  24.685  35.391  1.00  0.00    -0.200 F 
ENDBRANCH  64  87
ENDBRANCH  38  39
ENDBRANCH  30  33
ENDBRANCH  28  29
ENDBRANCH  27  28
ENDBRANCH  26  27
ENDBRANCH   1  26
TORSDOF 16
ENDMDL
MODEL 2
REMARK VINA RESULT:     -11.4      3.493      9.202
REMARK SMILES C[C@@H]1CCCC[C@@H]1NC(=O)[C@@H](C)n1cc(C(=O)NCCCCCCNC(=O)c2ccc(-c3c4nc(c(-c5c(F)c(F)c(F)c(F)c5F)c5ccc([nH]5)c(-c5c(F)c(F)c(F)c(F)c5F)c5nc(c(-c6c(F)c(F)c(F)c(F)c6F)c6ccc3[nH]6)C=C5)C=C4)cc2)cn1
REMARK SMILES IDX 21 1 20 2 19 3 18 4 16 5 17 6 15 8 13 9 14 10 92 11 91 12
REMARK SMILES IDX 11 13 12 14 9 15 8 16 10 18 7 19 1 20 2 21 3 22 4 23 6 24
REMARK SMILES IDX 5 25 22 26 23 27 24 28 25 29 26 30 27 32 28 33 29 34 90 35
REMARK SMILES IDX 30 36 89 37 31 38 32 39 33 40 83 41 34 42 88 43 82 44 84 45
REMARK SMILES IDX 35 46 87 47 81 48 80 49 36 51 68 52 48 53 67 54 49 55 52 56
REMARK SMILES IDX 66 57 85 58 50 59 51 60 65 62 86 63 53 64 37 65 38 66 46 67
REMARK SMILES IDX 39 68 40 69 44 70 47 71 41 72 42 73 45 74 43 75 69 76 70 77
REMARK SMILES IDX 78 78 71 79 72 80 76 81 79 82 73 83 74 84 77 85 75 86 54 87
REMARK SMILES IDX 55 88 63 89 56 90 57 91 61 92 64 93 58 94 59 95 62 96 60 97
REMARK H PARENT 18 7 8 17 25 31 84 50 52 61
REMARK Flexibility Score: inf
ROOT
ATOM      1  C   UNL A   1      35.122  31.618  28.646  1.00  0.00     0.002 C 
ENDROOT
BRANCH   1   2
ATOM      2  C   UNL A   1      34.885  30.544  27.583  1.00  0.00     0.021 C 
BRANCH   2   3
ATOM      3  C   UNL A   1      33.483  30.504  26.982  1.00  0.00     0.116 C 
BRANCH   3   4
ATOM      4  N   UNL A   1      32.586  29.596  27.667  1.00  0.00    -0.352 N 
ATOM      5  C   UNL A   1      32.123  28.378  27.243  1.00  0.00     0.254 C 
ATOM      6  O   UNL A   1      31.318  27.754  27.929  1.00  0.00    -0.269 OA
ATOM      7  H   UNL A   1      32.268  29.892  28.550  1.00  0.00     0.163 HD
BRANCH   5   8
ATOM      8  C   UNL A   1      32.535  27.927  25.938  1.00  0.00     0.077 A 
ATOM      9  N   UNL A   1      32.635  27.226  23.849  1.00  0.00    -0.260 N 
ATOM     10  C   UNL A   1      31.800  27.804  24.771  1.00  0.00     0.123 A 
ATOM     11  N   UNL A   1      33.846  26.932  24.375  1.00  0.00    -0.180 NA
ATOM     12  C   UNL A   1      33.811  27.456  25.598  1.00  0.00     0.149 A 
BRANCH   9  13
ATOM     13  C   UNL A   1      32.272  26.752  22.514  1.00  0.00     0.193 C 
ATOM     14  C   UNL A   1      30.770  26.791  22.226  1.00  0.00     0.044 C 
BRANCH  13  15
ATOM     15  C   UNL A   1      32.871  25.401  22.126  1.00  0.00     0.244 C 
ATOM     16  N   UNL A   1      32.693  24.258  22.856  1.00  0.00    -0.351 N 
ATOM     17  H   UNL A   1      32.823  23.411  22.371  1.00  0.00     0.163 HD
ATOM     18  O   UNL A   1      33.466  25.286  21.047  1.00  0.00    -0.273 OA
BRANCH  16  19
ATOM     19  C   UNL A   1      32.334  24.136  24.261  1.00  0.00     0.084 C 
ATOM     20  C   UNL A   1      33.742  22.007  24.623  1.00  0.00     0.010 C 
ATOM     21  C   UNL A   1      33.458  23.449  25.070  1.00  0.00     0.008 C 
ATOM     22  C   UNL A   1      33.120  23.497  26.569  1.00  0.00     0.005 C 
ATOM     23  C   UNL A   1      31.710  22.996  26.894  1.00  0.00     0.000 C 
ATOM     24  C   UNL A   1      30.981  23.470  24.504  1.00  0.00     0.025 C 
ATOM     25  C   UNL A   1      30.634  23.601  25.990  1.00  0.00     0.002 C 
ENDBRANCH  16  19
ENDBRANCH  13  15
ENDBRANCH   9  13
ENDBRANCH   5   8
ENDBRANCH   3   4
ENDBRANCH   2   3
ENDBRANCH   1   2
BRANCH   1  26
ATOM     26  C   UNL A   1      35.054  33.076  28.177  1.00  0.00     0.002 C 
BRANCH  26  27
ATOM     27  C   UNL A   1      33.868  33.921  28.663  1.00  0.00     0.021 C 
BRANCH  27  28
ATOM     28  C   UNL A   1      34.240  35.270  29.254  1.00  0.00     0.116 C 
BRANCH  28  29
ATOM     29  N   UNL A   1      33.594  35.497  30.536  1.00  0.00    -0.352 N 
ATOM     30  C   UNL A   1      33.799  34.838  31.724  1.00  0.00     0.251 C 
ATOM     31  H   UNL A   1      32.923  36.216  30.556  1.00  0.00     0.163 HD
ATOM     32  O   UNL A   1      32.958  34.886  32.615  1.00  0.00    -0.269 OA
BRANCH  30  33
ATOM     33  C   UNL A   1      35.023  34.038  31.907  1.00  0.00     0.039 A 
ATOM     34  C   UNL A   1      34.912  32.660  32.079  1.00  0.00     0.014 A 
ATOM     35  C   UNL A   1      36.277  34.655  31.887  1.00  0.00     0.014 A 
ATOM     36  C   UNL A   1      36.071  31.895  32.143  1.00  0.00     0.010 A 
ATOM     37  C   UNL A   1      37.427  33.885  31.857  1.00  0.00     0.010 A 
ATOM     38  C   UNL A   1      37.333  32.502  31.991  1.00  0.00    -0.014 A 
BRANCH  38  39
ATOM     39  C   UNL A   1      38.500  31.632  31.815  1.00  0.00     0.031 A 
ATOM     40  C   UNL A   1      39.175  31.265  33.089  1.00  0.00     0.074 A 
ATOM     41  C   UNL A   1      38.899  31.039  30.669  1.00  0.00     0.049 A 
ATOM     42  N   UNL A   1      40.352  31.625  33.482  1.00  0.00    -0.248 NA
ATOM     43  C   UNL A   1      38.421  30.494  34.091  1.00  0.00     0.031 C 
ATOM     44  C   UNL A   1      38.170  30.984  29.400  1.00  0.00     0.029 A 
ATOM     45  N   UNL A   1      40.007  30.268  30.422  1.00  0.00    -0.354 N 
ATOM     46  C   UNL A   1      40.578  30.942  34.673  1.00  0.00     0.074 A 
ATOM     47  C   UNL A   1      39.308  30.409  35.087  1.00  0.00     0.031 C 
ATOM     48  C   UNL A   1      38.724  30.041  28.607  1.00  0.00     0.029 A 
ATOM     49  C   UNL A   1      39.945  29.560  29.230  1.00  0.00     0.049 A 
ATOM     50  H   UNL A   1      40.776  30.221  31.035  1.00  0.00     0.167 HD
ATOM     51  C   UNL A   1      41.850  30.613  35.030  1.00  0.00     0.037 A 
ATOM     52  C   UNL A   1      40.818  28.636  28.764  1.00  0.00     0.037 A 
ATOM     53  C   UNL A   1      42.813  31.364  34.265  1.00  0.00     0.049 A 
ATOM     54  C   UNL A   1      42.135  28.863  29.396  1.00  0.00     0.074 A 
ATOM     55  C   UNL A   1      43.387  32.615  34.274  1.00  0.00     0.029 A 
ATOM     56  N   UNL A   1      43.068  30.817  33.041  1.00  0.00    -0.354 N 
ATOM     57  N   UNL A   1      42.885  29.902  29.155  1.00  0.00    -0.248 NA
ATOM     58  C   UNL A   1      42.550  28.042  30.531  1.00  0.00     0.031 C 
ATOM     59  C   UNL A   1      43.946  32.820  32.973  1.00  0.00     0.029 A 
ATOM     60  C   UNL A   1      43.717  31.683  32.207  1.00  0.00     0.049 A 
ATOM     61  H   UNL A   1      42.812  29.901  32.788  1.00  0.00     0.167 HD
ATOM     62  C   UNL A   1      43.564  30.103  30.335  1.00  0.00     0.074 A 
ATOM     63  C   UNL A   1      43.483  28.840  31.054  1.00  0.00     0.031 C 
ATOM     64  C   UNL A   1      43.785  31.365  30.800  1.00  0.00     0.037 A 
BRANCH  51  65
ATOM     65  C   UNL A   1      42.257  29.272  35.623  1.00  0.00     0.064 A 
ATOM     66  C   UNL A   1      43.225  29.255  36.652  1.00  0.00     0.173 A 
ATOM     67  C   UNL A   1      42.018  28.027  35.002  1.00  0.00     0.173 A 
ATOM     68  F   UNL A   1      43.548  30.383  37.304  1.00  0.00    -0.203 F 
ATOM     69  C   UNL A   1      43.953  28.104  36.967  1.00  0.00     0.198 A 
ATOM     70  C   UNL A   1      42.712  26.869  35.356  1.00  0.00     0.198 A 
ATOM     71  F   UNL A   1      41.198  27.894  33.955  1.00  0.00    -0.203 F 
ATOM     72  F   UNL A   1      44.952  28.171  37.859  1.00  0.00    -0.200 F 
ATOM     73  C   UNL A   1      43.702  26.913  36.313  1.00  0.00     0.200 A 
ATOM     74  F   UNL A   1      42.471  25.729  34.692  1.00  0.00    -0.200 F 
ATOM     75  F   UNL A   1      44.441  25.826  36.567  1.00  0.00    -0.200 F 
ENDBRANCH  51  65
BRANCH  52  76
ATOM     76  C   UNL A   1      40.568  27.472  27.883  1.00  0.00     0.064 A 
ATOM     77  C   UNL A   1      41.317  27.275  26.711  1.00  0.00     0.173 A 
ATOM     78  C   UNL A   1      39.787  26.386  28.320  1.00  0.00     0.173 A 
ATOM     79  F   UNL A   1      42.113  28.248  26.245  1.00  0.00    -0.203 F 
ATOM     80  C   UNL A   1      41.320  26.049  26.042  1.00  0.00     0.198 A 
ATOM     81  C   UNL A   1      39.782  25.166  27.643  1.00  0.00     0.198 A 
ATOM     82  F   UNL A   1      39.090  26.456  29.464  1.00  0.00    -0.203 F 
ATOM     83  F   UNL A   1      42.108  25.876  24.971  1.00  0.00    -0.200 F 
ATOM     84  C   UNL A   1      40.563  24.991  26.516  1.00  0.00     0.200 A 
ATOM     85  F   UNL A   1      39.068  24.140  28.128  1.00  0.00    -0.200 F 
ATOM     86  F   UNL A   1      40.620  23.795  25.915  1.00  0.00    -0.200 F 
ENDBRANCH  52  76
BRANCH  64  87
ATOM     87  C   UNL A   1      43.933  32.458  29.793  1.00  0.00     0.064 A 
ATOM     88  C   UNL A   1      42.919  33.360  29.435  1.00  0.00     0.173 A 
ATOM     89  C   UNL A   1      45.174  32.590  29.155  1.00  0.00     0.173 A 
ATOM     90  F   UNL A   1      41.732  33.350  30.059  1.00  0.00    -0.203 F 
ATOM     91  C   UNL A   1      43.124  34.307  28.432  1.00  0.00     0.198 A 
ATOM     92  C   UNL A   1      45.388  33.562  28.184  1.00  0.00     0.198 A 
ATOM     93  F   UNL A   1      46.190  31.776  29.483  1.00  0.00    -0.203 F 
ATOM     94  F   UNL A   1      42.128  35.129  28.070  1.00  0.00    -0.200 F 
ATOM     95  C   UNL A   1      44.358  34.407  27.809  1.00  0.00     0.200 A 
ATOM     96  F   UNL A   1      46.595  33.676  27.612  1.00  0.00    -0.200 F 
ATOM     97  F   UNL A   1      44.559  35.326  26.855  1.00  0.00    -0.200 F 
ENDBRANCH  64  87
ENDBRANCH  38  39
ENDBRANCH  30  33
ENDBRANCH  28  29
ENDBRANCH  27  28
ENDBRANCH  26  27
ENDBRANCH   1  26
TORSDOF 16
ENDMDL
MODEL 3
REMARK VINA RESULT:     -11.3      1.255      1.848
REMARK SMILES C[C@@H]1CCCC[C@@H]1NC(=O)[C@@H](C)n1cc(C(=O)NCCCCCCNC(=O)c2ccc(-c3c4nc(c(-c5c(F)c(F)c(F)c(F)c5F)c5ccc([nH]5)c(-c5c(F)c(F)c(F)c(F)c5F)c5nc(c(-c6c(F)c(F)c(F)c(F)c6F)c6ccc3[nH]6)C=C5)C=C4)cc2)cn1
REMARK SMILES IDX 21 1 20 2 19 3 18 4 16 5 17 6 15 8 13 9 14 10 92 11 91 12
REMARK SMILES IDX 11 13 12 14 9 15 8 16 10 18 7 19 1 20 2 21 3 22 4 23 6 24
REMARK SMILES IDX 5 25 22 26 23 27 24 28 25 29 26 30 27 32 28 33 29 34 90 35
REMARK SMILES IDX 30 36 89 37 31 38 32 39 33 40 83 41 34 42 88 43 82 44 84 45
REMARK SMILES IDX 35 46 87 47 81 48 80 49 36 51 68 52 48 53 67 54 49 55 52 56
REMARK SMILES IDX 66 57 85 58 50 59 51 60 65 62 86 63 53 64 37 65 38 66 46 67
REMARK SMILES IDX 39 68 40 69 44 70 47 71 41 72 42 73 45 74 43 75 69 76 70 77
REMARK SMILES IDX 78 78 71 79 72 80 76 81 79 82 73 83 74 84 77 85 75 86 54 87
REMARK SMILES IDX 55 88 63 89 56 90 57 91 61 92 64 93 58 94 59 95 62 96 60 97
REMARK H PARENT 18 7 8 17 25 31 84 50 52 61
REMARK Flexibility Score: inf
ROOT
ATOM      1  C   UNL A   1      40.342  20.905  26.322  1.00  0.00     0.002 C 
ENDROOT
BRANCH   1   2
ATOM      2  C   UNL A   1      39.130  20.426  25.523  1.00  0.00     0.021 C 
BRANCH   2   3
ATOM      3  C   UNL A   1      38.002  21.439  25.356  1.00  0.00     0.116 C 
BRANCH   3   4
ATOM      4  N   UNL A   1      38.289  22.727  25.953  1.00  0.00    -0.352 N 
ATOM      5  C   UNL A   1      37.443  23.792  26.126  1.00  0.00     0.254 C 
ATOM      6  O   UNL A   1      37.865  24.840  26.606  1.00  0.00    -0.269 OA
ATOM      7  H   UNL A   1      39.210  22.854  26.277  1.00  0.00     0.163 HD
BRANCH   5   8
ATOM      8  C   UNL A   1      36.097  23.659  25.629  1.00  0.00     0.077 A 
ATOM      9  N   UNL A   1      33.931  23.324  25.381  1.00  0.00    -0.260 N 
ATOM     10  C   UNL A   1      34.905  23.529  26.323  1.00  0.00     0.123 A 
ATOM     11  N   UNL A   1      34.439  23.270  24.129  1.00  0.00    -0.180 NA
ATOM     12  C   UNL A   1      35.725  23.581  24.280  1.00  0.00     0.149 A 
BRANCH   9  13
ATOM     13  C   UNL A   1      32.532  22.977  25.628  1.00  0.00     0.193 C 
ATOM     14  C   UNL A   1      31.685  22.861  24.360  1.00  0.00     0.044 C 
BRANCH  13  15
ATOM     15  C   UNL A   1      31.833  23.838  26.681  1.00  0.00     0.244 C 
ATOM     16  N   UNL A   1      31.759  25.202  26.613  1.00  0.00    -0.351 N 
ATOM     17  H   UNL A   1      31.031  25.620  27.128  1.00  0.00     0.163 HD
ATOM     18  O   UNL A   1      31.206  23.290  27.597  1.00  0.00    -0.273 OA
BRANCH  16  19
ATOM     19  C   UNL A   1      32.619  26.113  25.874  1.00  0.00     0.084 C 
ATOM     20  C   UNL A   1      31.643  28.224  26.986  1.00  0.00     0.010 C 
ATOM     21  C   UNL A   1      32.903  27.398  26.685  1.00  0.00     0.008 C 
ATOM     22  C   UNL A   1      33.951  28.252  25.951  1.00  0.00     0.005 C 
ATOM     23  C   UNL A   1      33.617  28.495  24.477  1.00  0.00     0.000 C 
ATOM     24  C   UNL A   1      32.124  26.436  24.466  1.00  0.00     0.025 C 
ATOM     25  C   UNL A   1      33.216  27.220  23.733  1.00  0.00     0.002 C 
ENDBRANCH  16  19
ENDBRANCH  13  15
ENDBRANCH   9  13
ENDBRANCH   5   8
ENDBRANCH   3   4
ENDBRANCH   2   3
ENDBRANCH   1   2
BRANCH   1  26
ATOM     26  C   UNL A   1      41.297  19.822  26.838  1.00  0.00     0.002 C 
BRANCH  26  27
ATOM     27  C   UNL A   1      42.125  19.055  25.797  1.00  0.00     0.021 C 
BRANCH  27  28
ATOM     28  C   UNL A   1      43.605  18.935  26.117  1.00  0.00     0.116 C 
BRANCH  28  29
ATOM     29  N   UNL A   1      44.437  19.392  25.015  1.00  0.00    -0.352 N 
ATOM     30  C   UNL A   1      44.560  20.664  24.510  1.00  0.00     0.251 C 
ATOM     31  H   UNL A   1      44.981  18.701  24.575  1.00  0.00     0.163 HD
ATOM     32  O   UNL A   1      45.010  20.844  23.384  1.00  0.00    -0.269 OA
BRANCH  30  33
ATOM     33  C   UNL A   1      44.112  21.811  25.319  1.00  0.00     0.039 A 
ATOM     34  C   UNL A   1      44.846  22.172  26.446  1.00  0.00     0.014 A 
ATOM     35  C   UNL A   1      42.979  22.537  24.944  1.00  0.00     0.014 A 
ATOM     36  C   UNL A   1      44.485  23.318  27.145  1.00  0.00     0.010 A 
ATOM     37  C   UNL A   1      42.676  23.727  25.583  1.00  0.00     0.010 A 
ATOM     38  C   UNL A   1      43.422  24.122  26.691  1.00  0.00    -0.014 A 
BRANCH  38  39
ATOM     39  C   UNL A   1      43.241  25.441  27.308  1.00  0.00     0.031 A 
ATOM     40  C   UNL A   1      44.252  26.447  26.884  1.00  0.00     0.074 A 
ATOM     41  C   UNL A   1      42.196  25.841  28.064  1.00  0.00     0.049 A 
ATOM     42  N   UNL A   1      45.173  26.984  27.614  1.00  0.00    -0.248 NA
ATOM     43  C   UNL A   1      44.318  26.827  25.464  1.00  0.00     0.031 C 
ATOM     44  C   UNL A   1      40.941  25.123  28.292  1.00  0.00     0.029 A 
ATOM     45  N   UNL A   1      41.994  27.031  28.717  1.00  0.00    -0.354 N 
ATOM     46  C   UNL A   1      45.786  27.938  26.807  1.00  0.00     0.074 A 
ATOM     47  C   UNL A   1      45.348  27.678  25.461  1.00  0.00     0.031 C 
ATOM     48  C   UNL A   1      40.030  25.970  28.818  1.00  0.00     0.029 A 
ATOM     49  C   UNL A   1      40.684  27.228  29.133  1.00  0.00     0.049 A 
ATOM     50  H   UNL A   1      42.713  27.685  28.876  1.00  0.00     0.167 HD
ATOM     51  C   UNL A   1      46.341  29.044  27.374  1.00  0.00     0.037 A 
ATOM     52  C   UNL A   1      40.148  28.337  29.696  1.00  0.00     0.037 A 
ATOM     53  C   UNL A   1      46.519  28.864  28.793  1.00  0.00     0.049 A 
ATOM     54  C   UNL A   1      41.229  29.120  30.333  1.00  0.00     0.074 A 
ATOM     55  C   UNL A   1      47.414  28.266  29.651  1.00  0.00     0.029 A 
ATOM     56  N   UNL A   1      45.389  29.123  29.511  1.00  0.00    -0.354 N 
ATOM     57  N   UNL A   1      41.883  28.726  31.389  1.00  0.00    -0.248 NA
ATOM     58  C   UNL A   1      41.794  30.277  29.643  1.00  0.00     0.031 C 
ATOM     59  C   UNL A   1      46.743  28.122  30.907  1.00  0.00     0.029 A 
ATOM     60  C   UNL A   1      45.463  28.651  30.791  1.00  0.00     0.049 A 
ATOM     61  H   UNL A   1      44.607  29.598  29.148  1.00  0.00     0.167 HD
ATOM     62  C   UNL A   1      43.133  29.281  31.234  1.00  0.00     0.074 A 
ATOM     63  C   UNL A   1      42.962  30.368  30.281  1.00  0.00     0.031 C 
ATOM     64  C   UNL A   1      44.250  28.577  31.571  1.00  0.00     0.037 A 
BRANCH  51  65
ATOM     65  C   UNL A   1      46.210  30.453  26.815  1.00  0.00     0.064 A 
ATOM     66  C   UNL A   1      47.362  31.269  26.767  1.00  0.00     0.173 A 
ATOM     67  C   UNL A   1      44.983  31.136  26.669  1.00  0.00     0.173 A 
ATOM     68  F   UNL A   1      48.584  30.735  26.911  1.00  0.00    -0.203 F 
ATOM     69  C   UNL A   1      47.282  32.662  26.671  1.00  0.00     0.198 A 
ATOM     70  C   UNL A   1      44.911  32.523  26.522  1.00  0.00     0.198 A 
ATOM     71  F   UNL A   1      43.802  30.520  26.780  1.00  0.00    -0.203 F 
ATOM     72  F   UNL A   1      48.396  33.402  26.763  1.00  0.00    -0.200 F 
ATOM     73  C   UNL A   1      46.056  33.289  26.556  1.00  0.00     0.200 A 
ATOM     74  F   UNL A   1      43.711  33.113  26.437  1.00  0.00    -0.200 F 
ATOM     75  F   UNL A   1      45.971  34.625  26.529  1.00  0.00    -0.200 F 
ENDBRANCH  51  65
BRANCH  52  76
ATOM     76  C   UNL A   1      38.759  28.844  29.624  1.00  0.00     0.064 A 
ATOM     77  C   UNL A   1      37.991  29.021  30.787  1.00  0.00     0.173 A 
ATOM     78  C   UNL A   1      38.260  29.430  28.446  1.00  0.00     0.173 A 
ATOM     79  F   UNL A   1      38.410  28.523  31.959  1.00  0.00    -0.203 F 
ATOM     80  C   UNL A   1      36.816  29.778  30.780  1.00  0.00     0.198 A 
ATOM     81  C   UNL A   1      37.081  30.175  28.438  1.00  0.00     0.198 A 
ATOM     82  F   UNL A   1      38.956  29.372  27.301  1.00  0.00    -0.203 F 
ATOM     83  F   UNL A   1      36.151  29.988  31.925  1.00  0.00    -0.200 F 
ATOM     84  C   UNL A   1      36.369  30.365  29.609  1.00  0.00     0.200 A 
ATOM     85  F   UNL A   1      36.674  30.763  27.305  1.00  0.00    -0.200 F 
ATOM     86  F   UNL A   1      35.282  31.148  29.616  1.00  0.00    -0.200 F 
ENDBRANCH  52  76
BRANCH  64  87
ATOM     87  C   UNL A   1      44.134  27.586  32.682  1.00  0.00     0.064 A 
ATOM     88  C   UNL A   1      44.099  27.913  34.046  1.00  0.00     0.173 A 
ATOM     89  C   UNL A   1      44.059  26.230  32.338  1.00  0.00     0.173 A 
ATOM     90  F   UNL A   1      44.083  29.192  34.452  1.00  0.00    -0.203 F 
ATOM     91  C   UNL A   1      44.060  26.917  35.022  1.00  0.00     0.198 A 
ATOM     92  C   UNL A   1      43.978  25.240  33.311  1.00  0.00     0.198 A 
ATOM     93  F   UNL A   1      44.054  25.861  31.046  1.00  0.00    -0.203 F 
ATOM     94  F   UNL A   1      44.074  27.247  36.321  1.00  0.00    -0.200 F 
ATOM     95  C   UNL A   1      43.998  25.582  34.652  1.00  0.00     0.200 A 
ATOM     96  F   UNL A   1      43.883  23.953  32.946  1.00  0.00    -0.200 F 
ATOM     97  F   UNL A   1      43.945  24.625  35.589  1.00  0.00    -0.200 F 
ENDBRANCH  64  87
ENDBRANCH  38  39
ENDBRANCH  30  33
ENDBRANCH  28  29
ENDBRANCH  27  28
ENDBRANCH  26  27
ENDBRANCH   1  26
TORSDOF 16
ENDMDL
