MODEL 1
REMARK VINA RESULT:     -12.5      0.000      0.000
REMARK SMILES Cc1cc2c(c(C)c1Cl)C=C(C(=O)NCCCCCCNC(=O)c1ccc(-c3c4nc(c(-c5c(F)c(F)c(F)c(F)c5F)c5ccc([nH]5)c(-c5c(F)c(F)c(F)c(F)c5F)c5nc(c(-c6c(F)c(F)c(F)c(F)c6F)c6ccc3[nH]6)C=C5)C=C4)cc1)[C@@H](C(F)(F)F)O2
REMARK SMILES IDX 18 1 17 2 16 3 15 4 14 5 12 6 13 7 11 9 1 10 2 11 3 12 8 13
REMARK SMILES IDX 4 14 6 15 9 16 5 17 92 18 7 19 10 20 87 21 88 22 89 23 90 24
REMARK SMILES IDX 91 25 19 26 20 27 21 28 22 29 23 31 24 32 25 33 86 34 26 35
REMARK SMILES IDX 85 36 27 37 28 38 29 39 79 40 30 41 84 42 78 43 80 44 31 45
REMARK SMILES IDX 83 46 77 47 76 48 32 50 64 51 44 52 63 53 45 54 48 55 62 56
REMARK SMILES IDX 81 57 46 58 47 59 61 61 82 62 49 63 33 64 34 65 42 66 35 67
REMARK SMILES IDX 36 68 40 69 43 70 37 71 38 72 41 73 39 74 65 75 66 76 74 77
REMARK SMILES IDX 67 78 68 79 72 80 75 81 69 82 70 83 73 84 71 85 50 86 51 87
REMARK SMILES IDX 59 88 52 89 53 90 57 91 60 92 54 93 55 94 58 95 56 96
REMARK H PARENT 14 8 21 30 80 49 48 60
REMARK Flexibility Score: inf
ROOT
ATOM      1  C   UNL A   1      36.976  20.479  24.941  1.00  0.00     0.002 C 
ENDROOT
BRANCH   1   2
ATOM      2  C   UNL A   1      37.319  21.920  24.543  1.00  0.00     0.002 C 
BRANCH   2   3
ATOM      3  C   UNL A   1      37.265  22.936  25.687  1.00  0.00     0.021 C 
BRANCH   3   4
ATOM      4  C   UNL A   1      36.124  23.939  25.557  1.00  0.00     0.116 C 
BRANCH   4   5
ATOM      5  N   UNL A   1      34.963  23.531  26.326  1.00  0.00    -0.352 N 
ATOM      6  C   UNL A   1      33.632  23.779  26.318  1.00  0.00     0.251 C 
ATOM      7  O   UNL A   1      32.981  23.175  27.176  1.00  0.00    -0.270 OA
ATOM      8  H   UNL A   1      35.208  22.907  27.046  1.00  0.00     0.163 HD
BRANCH   6   9
ATOM      9  C   UNL A   1      32.934  24.703  25.374  1.00  0.00     0.067 C 
ATOM     10  C   UNL A   1      30.297  29.704  22.143  1.00  0.00     0.046 C 
ATOM     11  C   UNL A   1      30.898  28.771  23.158  1.00  0.00    -0.028 A 
ATOM     12  C   UNL A   1      31.254  27.485  22.745  1.00  0.00     0.052 A 
ATOM     13  C   UNL A   1      31.109  29.136  24.502  1.00  0.00     0.047 A 
ATOM     14  C   UNL A   1      31.818  26.587  23.642  1.00  0.00     0.128 A 
ATOM     15  C   UNL A   1      31.690  28.231  25.426  1.00  0.00    -0.021 A 
ATOM     16  Cl  UNL A   1      30.646  30.735  25.000  1.00  0.00    -0.084 Cl
ATOM     17  C   UNL A   1      32.061  26.942  24.972  1.00  0.00     0.022 A 
ATOM     18  O   UNL A   1      32.147  25.379  23.105  1.00  0.00    -0.475 OA
ATOM     19  C   UNL A   1      31.933  28.609  26.869  1.00  0.00     0.047 C 
ATOM     20  C   UNL A   1      32.742  25.958  25.820  1.00  0.00     0.026 C 
ATOM     21  C   UNL A   1      32.435  24.298  24.021  1.00  0.00     0.314 C 
BRANCH  21  22
ATOM     22  C   UNL A   1      31.219  23.356  24.086  1.00  0.00     0.429 C 
ATOM     23  F   UNL A   1      31.611  22.068  23.921  1.00  0.00    -0.167 F 
ATOM     24  F   UNL A   1      30.580  23.406  25.279  1.00  0.00    -0.167 F 
ATOM     25  F   UNL A   1      30.300  23.628  23.134  1.00  0.00    -0.167 F 
ENDBRANCH  21  22
ENDBRANCH   6   9
ENDBRANCH   4   5
ENDBRANCH   3   4
ENDBRANCH   2   3
ENDBRANCH   1   2
BRANCH   1  26
ATOM     26  C   UNL A   1      38.173  19.532  25.054  1.00  0.00     0.021 C 
BRANCH  26  27
ATOM     27  C   UNL A   1      39.282  20.034  25.969  1.00  0.00     0.116 C 
BRANCH  27  28
ATOM     28  N   UNL A   1      40.368  19.074  26.074  1.00  0.00    -0.352 N 
ATOM     29  C   UNL A   1      41.718  19.299  26.134  1.00  0.00     0.251 C 
ATOM     30  H   UNL A   1      40.095  18.129  26.107  1.00  0.00     0.163 HD
ATOM     31  O   UNL A   1      42.511  18.372  25.990  1.00  0.00    -0.269 OA
BRANCH  29  32
ATOM     32  C   UNL A   1      42.216  20.668  26.365  1.00  0.00     0.039 A 
ATOM     33  C   UNL A   1      42.463  21.492  25.267  1.00  0.00     0.014 A 
ATOM     34  C   UNL A   1      42.445  21.129  27.666  1.00  0.00     0.014 A 
ATOM     35  C   UNL A   1      42.901  22.798  25.475  1.00  0.00     0.010 A 
ATOM     36  C   UNL A   1      42.805  22.455  27.874  1.00  0.00     0.010 A 
ATOM     37  C   UNL A   1      43.055  23.296  26.781  1.00  0.00    -0.014 A 
BRANCH  37  38
ATOM     38  C   UNL A   1      43.517  24.685  27.014  1.00  0.00     0.031 A 
ATOM     39  C   UNL A   1      42.552  25.713  27.534  1.00  0.00     0.074 A 
ATOM     40  C   UNL A   1      44.789  25.023  26.737  1.00  0.00     0.049 A 
ATOM     41  N   UNL A   1      42.751  26.982  27.785  1.00  0.00    -0.248 NA
ATOM     42  C   UNL A   1      41.173  25.262  27.787  1.00  0.00     0.031 C 
ATOM     43  C   UNL A   1      45.805  24.117  26.200  1.00  0.00     0.029 A 
ATOM     44  N   UNL A   1      45.449  26.219  26.874  1.00  0.00    -0.354 N 
ATOM     45  C   UNL A   1      41.530  27.474  28.224  1.00  0.00     0.074 A 
ATOM     46  C   UNL A   1      40.578  26.391  28.140  1.00  0.00     0.031 C 
ATOM     47  C   UNL A   1      46.968  24.778  26.089  1.00  0.00     0.029 A 
ATOM     48  C   UNL A   1      46.772  26.163  26.509  1.00  0.00     0.049 A 
ATOM     49  H   UNL A   1      45.015  27.039  27.202  1.00  0.00     0.167 HD
ATOM     50  C   UNL A   1      41.240  28.710  28.691  1.00  0.00     0.037 A 
ATOM     51  C   UNL A   1      47.718  27.122  26.515  1.00  0.00     0.037 A 
ATOM     52  C   UNL A   1      42.199  29.778  28.793  1.00  0.00     0.049 A 
ATOM     53  C   UNL A   1      47.356  28.502  26.995  1.00  0.00     0.074 A 
ATOM     54  C   UNL A   1      42.014  31.053  29.295  1.00  0.00     0.029 A 
ATOM     55  N   UNL A   1      43.522  29.692  28.387  1.00  0.00    -0.354 N 
ATOM     56  N   UNL A   1      46.214  28.941  27.467  1.00  0.00    -0.248 NA
ATOM     57  C   UNL A   1      48.414  29.521  26.944  1.00  0.00     0.031 C 
ATOM     58  C   UNL A   1      43.213  31.756  29.144  1.00  0.00     0.029 A 
ATOM     59  C   UNL A   1      44.159  30.903  28.597  1.00  0.00     0.049 A 
ATOM     60  H   UNL A   1      43.945  28.889  28.006  1.00  0.00     0.167 HD
ATOM     61  C   UNL A   1      46.418  30.276  27.784  1.00  0.00     0.074 A 
ATOM     62  C   UNL A   1      47.802  30.571  27.474  1.00  0.00     0.031 C 
ATOM     63  C   UNL A   1      45.538  31.178  28.281  1.00  0.00     0.037 A 
BRANCH  50  64
ATOM     64  C   UNL A   1      39.834  28.973  29.147  1.00  0.00     0.064 A 
ATOM     65  C   UNL A   1      38.848  29.421  28.255  1.00  0.00     0.173 A 
ATOM     66  C   UNL A   1      39.453  28.718  30.472  1.00  0.00     0.173 A 
ATOM     67  F   UNL A   1      39.164  29.693  26.980  1.00  0.00    -0.203 F 
ATOM     68  C   UNL A   1      37.537  29.622  28.677  1.00  0.00     0.198 A 
ATOM     69  C   UNL A   1      38.134  28.890  30.884  1.00  0.00     0.198 A 
ATOM     70  F   UNL A   1      40.356  28.286  31.365  1.00  0.00    -0.203 F 
ATOM     71  F   UNL A   1      36.621  30.089  27.817  1.00  0.00    -0.200 F 
ATOM     72  C   UNL A   1      37.179  29.345  29.988  1.00  0.00     0.200 A 
ATOM     73  F   UNL A   1      37.787  28.609  32.147  1.00  0.00    -0.200 F 
ATOM     74  F   UNL A   1      35.913  29.523  30.389  1.00  0.00    -0.200 F 
ENDBRANCH  50  64
BRANCH  51  75
ATOM     75  C   UNL A   1      49.102  26.798  26.082  1.00  0.00     0.064 A 
ATOM     76  C   UNL A   1      49.504  27.003  24.754  1.00  0.00     0.173 A 
ATOM     77  C   UNL A   1      50.055  26.297  26.981  1.00  0.00     0.173 A 
ATOM     78  F   UNL A   1      48.625  27.462  23.852  1.00  0.00    -0.203 F 
ATOM     79  C   UNL A   1      50.803  26.709  24.341  1.00  0.00     0.198 A 
ATOM     80  C   UNL A   1      51.360  26.029  26.573  1.00  0.00     0.198 A 
ATOM     81  F   UNL A   1      49.722  26.085  28.263  1.00  0.00    -0.203 F 
ATOM     82  F   UNL A   1      51.149  26.880  23.058  1.00  0.00    -0.200 F 
ATOM     83  C   UNL A   1      51.732  26.230  25.252  1.00  0.00     0.200 A 
ATOM     84  F   UNL A   1      52.259  25.582  27.461  1.00  0.00    -0.200 F 
ATOM     85  F   UNL A   1      52.982  25.958  24.857  1.00  0.00    -0.200 F 
ENDBRANCH  51  75
BRANCH  63  86
ATOM     86  C   UNL A   1      46.033  32.575  28.523  1.00  0.00     0.064 A 
ATOM     87  C   UNL A   1      45.909  33.571  27.543  1.00  0.00     0.173 A 
ATOM     88  C   UNL A   1      46.550  32.943  29.775  1.00  0.00     0.173 A 
ATOM     89  F   UNL A   1      45.432  33.266  26.327  1.00  0.00    -0.203 F 
ATOM     90  C   UNL A   1      46.296  34.882  27.805  1.00  0.00     0.198 A 
ATOM     91  C   UNL A   1      46.905  34.262  30.042  1.00  0.00     0.198 A 
ATOM     92  F   UNL A   1      46.679  32.029  30.748  1.00  0.00    -0.203 F 
ATOM     93  F   UNL A   1      46.198  35.811  26.843  1.00  0.00    -0.200 F 
ATOM     94  C   UNL A   1      46.782  35.229  29.057  1.00  0.00     0.200 A 
ATOM     95  F   UNL A   1      47.357  34.599  31.258  1.00  0.00    -0.200 F 
ATOM     96  F   UNL A   1      47.130  36.497  29.313  1.00  0.00    -0.200 F 
ENDBRANCH  63  86
ENDBRANCH  37  38
ENDBRANCH  29  32
ENDBRANCH  27  28
ENDBRANCH  26  27
ENDBRANCH   1  26
TORSDOF 14
ENDMDL
MODEL 2
REMARK VINA RESULT:     -12.5      6.153     10.399
REMARK SMILES Cc1cc2c(c(C)c1Cl)C=C(C(=O)NCCCCCCNC(=O)c1ccc(-c3c4nc(c(-c5c(F)c(F)c(F)c(F)c5F)c5ccc([nH]5)c(-c5c(F)c(F)c(F)c(F)c5F)c5nc(c(-c6c(F)c(F)c(F)c(F)c6F)c6ccc3[nH]6)C=C5)C=C4)cc1)[C@@H](C(F)(F)F)O2
REMARK SMILES IDX 18 1 17 2 16 3 15 4 14 5 12 6 13 7 11 9 1 10 2 11 3 12 8 13
REMARK SMILES IDX 4 14 6 15 9 16 5 17 92 18 7 19 10 20 87 21 88 22 89 23 90 24
REMARK SMILES IDX 91 25 19 26 20 27 21 28 22 29 23 31 24 32 25 33 86 34 26 35
REMARK SMILES IDX 85 36 27 37 28 38 29 39 79 40 30 41 84 42 78 43 80 44 31 45
REMARK SMILES IDX 83 46 77 47 76 48 32 50 64 51 44 52 63 53 45 54 48 55 62 56
REMARK SMILES IDX 81 57 46 58 47 59 61 61 82 62 49 63 33 64 34 65 42 66 35 67
REMARK SMILES IDX 36 68 40 69 43 70 37 71 38 72 41 73 39 74 65 75 66 76 74 77
REMARK SMILES IDX 67 78 68 79 72 80 75 81 69 82 70 83 73 84 71 85 50 86 51 87
REMARK SMILES IDX 59 88 52 89 53 90 57 91 60 92 54 93 55 94 58 95 56 96
REMARK H PARENT 14 8 21 30 80 49 48 60
REMARK Flexibility Score: inf
ROOT
ATOM      1  C   UNL A   1      34.344  33.239  28.344  1.00  0.00     0.002 C 
ENDROOT
BRANCH   1   2
ATOM      2  C   UNL A   1      33.959  31.780  28.068  1.00  0.00     0.002 C 
BRANCH   2   3
ATOM      3  C   UNL A   1      35.140  30.833  27.837  1.00  0.00     0.021 C 
BRANCH   3   4
ATOM      4  C   UNL A   1      34.732  29.480  27.267  1.00  0.00     0.116 C 
BRANCH   4   5
ATOM      5  N   UNL A   1      33.441  29.052  27.773  1.00  0.00    -0.352 N 
ATOM      6  C   UNL A   1      32.449  28.221  27.379  1.00  0.00     0.251 C 
ATOM      7  O   UNL A   1      31.496  28.134  28.161  1.00  0.00    -0.270 OA
ATOM      8  H   UNL A   1      33.231  29.481  28.633  1.00  0.00     0.163 HD
BRANCH   6   9
ATOM      9  C   UNL A   1      32.436  27.436  26.107  1.00  0.00     0.067 C 
ATOM     10  C   UNL A   1      33.202  23.164  21.253  1.00  0.00     0.046 C 
ATOM     11  C   UNL A   1      33.319  24.006  22.494  1.00  0.00    -0.028 A 
ATOM     12  C   UNL A   1      32.335  24.967  22.736  1.00  0.00     0.052 A 
ATOM     13  C   UNL A   1      34.376  23.870  23.414  1.00  0.00     0.047 A 
ATOM     14  C   UNL A   1      32.393  25.766  23.870  1.00  0.00     0.128 A 
ATOM     15  C   UNL A   1      34.444  24.674  24.580  1.00  0.00    -0.021 A 
ATOM     16  Cl  UNL A   1      35.599  22.678  23.089  1.00  0.00    -0.084 Cl
ATOM     17  C   UNL A   1      33.420  25.626  24.809  1.00  0.00     0.022 A 
ATOM     18  O   UNL A   1      31.357  26.641  24.002  1.00  0.00    -0.475 OA
ATOM     19  C   UNL A   1      35.566  24.535  25.583  1.00  0.00     0.047 C 
ATOM     20  C   UNL A   1      33.347  26.451  26.018  1.00  0.00     0.026 C 
ATOM     21  C   UNL A   1      31.505  27.710  24.966  1.00  0.00     0.314 C 
BRANCH  21  22
ATOM     22  C   UNL A   1      31.836  29.016  24.221  1.00  0.00     0.429 C 
ATOM     23  F   UNL A   1      31.369  28.966  22.949  1.00  0.00    -0.167 F 
ATOM     24  F   UNL A   1      31.264  30.104  24.790  1.00  0.00    -0.167 F 
ATOM     25  F   UNL A   1      33.164  29.256  24.158  1.00  0.00    -0.167 F 
ENDBRANCH  21  22
ENDBRANCH   6   9
ENDBRANCH   4   5
ENDBRANCH   3   4
ENDBRANCH   2   3
ENDBRANCH   1   2
BRANCH   1  26
ATOM     26  C   UNL A   1      33.175  34.226  28.374  1.00  0.00     0.021 C 
BRANCH  26  27
ATOM     27  C   UNL A   1      33.520  35.587  28.964  1.00  0.00     0.116 C 
BRANCH  27  28
ATOM     28  N   UNL A   1      32.706  35.890  30.129  1.00  0.00    -0.352 N 
ATOM     29  C   UNL A   1      32.827  35.427  31.412  1.00  0.00     0.251 C 
ATOM     30  H   UNL A   1      31.963  36.517  29.974  1.00  0.00     0.163 HD
ATOM     31  O   UNL A   1      31.923  35.600  32.225  1.00  0.00    -0.269 OA
BRANCH  29  32
ATOM     32  C   UNL A   1      34.051  34.708  31.812  1.00  0.00     0.039 A 
ATOM     33  C   UNL A   1      34.002  33.322  31.965  1.00  0.00     0.014 A 
ATOM     34  C   UNL A   1      35.241  35.407  32.042  1.00  0.00     0.014 A 
ATOM     35  C   UNL A   1      35.161  32.628  32.309  1.00  0.00     0.010 A 
ATOM     36  C   UNL A   1      36.412  34.706  32.307  1.00  0.00     0.010 A 
ATOM     37  C   UNL A   1      36.379  33.313  32.461  1.00  0.00    -0.014 A 
BRANCH  37  38
ATOM     38  C   UNL A   1      37.618  32.586  32.823  1.00  0.00     0.031 A 
ATOM     39  C   UNL A   1      38.312  32.896  34.120  1.00  0.00     0.074 A 
ATOM     40  C   UNL A   1      38.129  31.671  31.979  1.00  0.00     0.049 A 
ATOM     41  N   UNL A   1      39.414  32.389  34.610  1.00  0.00    -0.248 NA
ATOM     42  C   UNL A   1      37.698  33.929  34.971  1.00  0.00     0.031 C 
ATOM     43  C   UNL A   1      37.559  31.310  30.680  1.00  0.00     0.029 A 
ATOM     44  N   UNL A   1      39.239  30.871  32.089  1.00  0.00    -0.354 N 
ATOM     45  C   UNL A   1      39.620  33.036  35.821  1.00  0.00     0.074 A 
ATOM     46  C   UNL A   1      38.573  34.022  35.961  1.00  0.00     0.031 C 
ATOM     47  C   UNL A   1      38.300  30.335  30.131  1.00  0.00     0.029 A 
ATOM     48  C   UNL A   1      39.419  30.030  31.019  1.00  0.00     0.049 A 
ATOM     49  H   UNL A   1      39.849  30.899  32.861  1.00  0.00     0.167 HD
ATOM     50  C   UNL A   1      40.577  32.803  36.748  1.00  0.00     0.037 A 
ATOM     51  C   UNL A   1      40.378  29.114  30.783  1.00  0.00     0.037 A 
ATOM     52  C   UNL A   1      41.603  31.804  36.612  1.00  0.00     0.049 A 
ATOM     53  C   UNL A   1      41.459  28.907  31.812  1.00  0.00     0.074 A 
ATOM     54  C   UNL A   1      42.592  31.459  37.515  1.00  0.00     0.029 A 
ATOM     55  N   UNL A   1      41.770  30.990  35.501  1.00  0.00    -0.354 N 
ATOM     56  N   UNL A   1      41.609  29.480  32.980  1.00  0.00    -0.248 NA
ATOM     57  C   UNL A   1      42.503  27.924  31.488  1.00  0.00     0.031 C 
ATOM     58  C   UNL A   1      43.389  30.471  36.929  1.00  0.00     0.029 A 
ATOM     59  C   UNL A   1      42.867  30.164  35.683  1.00  0.00     0.049 A 
ATOM     60  H   UNL A   1      41.194  30.998  34.703  1.00  0.00     0.167 HD
ATOM     61  C   UNL A   1      42.749  28.921  33.539  1.00  0.00     0.074 A 
ATOM     62  C   UNL A   1      43.240  27.942  32.590  1.00  0.00     0.031 C 
ATOM     63  C   UNL A   1      43.340  29.196  34.726  1.00  0.00     0.037 A 
BRANCH  50  64
ATOM     64  C   UNL A   1      40.550  33.625  38.003  1.00  0.00     0.064 A 
ATOM     65  C   UNL A   1      41.381  34.745  38.161  1.00  0.00     0.173 A 
ATOM     66  C   UNL A   1      39.643  33.330  39.032  1.00  0.00     0.173 A 
ATOM     67  F   UNL A   1      42.275  35.062  37.212  1.00  0.00    -0.203 F 
ATOM     68  C   UNL A   1      41.319  35.527  39.311  1.00  0.00     0.198 A 
ATOM     69  C   UNL A   1      39.563  34.133  40.167  1.00  0.00     0.198 A 
ATOM     70  F   UNL A   1      38.824  32.273  38.930  1.00  0.00    -0.203 F 
ATOM     71  F   UNL A   1      42.151  36.567  39.457  1.00  0.00    -0.200 F 
ATOM     72  C   UNL A   1      40.402  35.227  40.307  1.00  0.00     0.200 A 
ATOM     73  F   UNL A   1      38.667  33.850  41.122  1.00  0.00    -0.200 F 
ATOM     74  F   UNL A   1      40.332  35.991  41.406  1.00  0.00    -0.200 F 
ENDBRANCH  50  64
BRANCH  51  75
ATOM     75  C   UNL A   1      40.340  28.304  29.537  1.00  0.00     0.064 A 
ATOM     76  C   UNL A   1      41.054  28.706  28.399  1.00  0.00     0.173 A 
ATOM     77  C   UNL A   1      39.608  27.111  29.460  1.00  0.00     0.173 A 
ATOM     78  F   UNL A   1      41.752  29.850  28.417  1.00  0.00    -0.203 F 
ATOM     79  C   UNL A   1      41.028  27.949  27.229  1.00  0.00     0.198 A 
ATOM     80  C   UNL A   1      39.605  26.341  28.299  1.00  0.00     0.198 A 
ATOM     81  F   UNL A   1      38.909  26.680  30.521  1.00  0.00    -0.203 F 
ATOM     82  F   UNL A   1      41.689  28.375  26.145  1.00  0.00    -0.200 F 
ATOM     83  C   UNL A   1      40.311  26.763  27.182  1.00  0.00     0.200 A 
ATOM     84  F   UNL A   1      38.924  25.187  28.263  1.00  0.00    -0.200 F 
ATOM     85  F   UNL A   1      40.295  26.031  26.060  1.00  0.00    -0.200 F 
ENDBRANCH  51  75
BRANCH  63  86
ATOM     86  C   UNL A   1      44.587  28.436  35.078  1.00  0.00     0.064 A 
ATOM     87  C   UNL A   1      45.859  28.950  34.786  1.00  0.00     0.173 A 
ATOM     88  C   UNL A   1      44.511  27.230  35.792  1.00  0.00     0.173 A 
ATOM     89  F   UNL A   1      45.983  30.093  34.095  1.00  0.00    -0.203 F 
ATOM     90  C   UNL A   1      47.010  28.278  35.188  1.00  0.00     0.198 A 
ATOM     91  C   UNL A   1      45.665  26.579  36.219  1.00  0.00     0.198 A 
ATOM     92  F   UNL A   1      43.318  26.702  36.104  1.00  0.00    -0.203 F 
ATOM     93  F   UNL A   1      48.216  28.772  34.871  1.00  0.00    -0.200 F 
ATOM     94  C   UNL A   1      46.912  27.100  35.914  1.00  0.00     0.200 A 
ATOM     95  F   UNL A   1      45.568  25.451  36.938  1.00  0.00    -0.200 F 
ATOM     96  F   UNL A   1      48.021  26.469  36.321  1.00  0.00    -0.200 F 
ENDBRANCH  63  86
ENDBRANCH  37  38
ENDBRANCH  29  32
ENDBRANCH  27  28
ENDBRANCH  26  27
ENDBRANCH   1  26
TORSDOF 14
ENDMDL
MODEL 3
REMARK VINA RESULT:     -12.4      0.640      7.243
REMARK SMILES Cc1cc2c(c(C)c1Cl)C=C(C(=O)NCCCCCCNC(=O)c1ccc(-c3c4nc(c(-c5c(F)c(F)c(F)c(F)c5F)c5ccc([nH]5)c(-c5c(F)c(F)c(F)c(F)c5F)c5nc(c(-c6c(F)c(F)c(F)c(F)c6F)c6ccc3[nH]6)C=C5)C=C4)cc1)[C@@H](C(F)(F)F)O2
REMARK SMILES IDX 18 1 17 2 16 3 15 4 14 5 12 6 13 7 11 9 1 10 2 11 3 12 8 13
REMARK SMILES IDX 4 14 6 15 9 16 5 17 92 18 7 19 10 20 87 21 88 22 89 23 90 24
REMARK SMILES IDX 91 25 19 26 20 27 21 28 22 29 23 31 24 32 25 33 86 34 26 35
REMARK SMILES IDX 85 36 27 37 28 38 29 39 79 40 30 41 84 42 78 43 80 44 31 45
REMARK SMILES IDX 83 46 77 47 76 48 32 50 64 51 44 52 63 53 45 54 48 55 62 56
REMARK SMILES IDX 81 57 46 58 47 59 61 61 82 62 49 63 33 64 34 65 42 66 35 67
REMARK SMILES IDX 36 68 40 69 43 70 37 71 38 72 41 73 39 74 65 75 66 76 74 77
REMARK SMILES IDX 67 78 68 79 72 80 75 81 69 82 70 83 73 84 71 85 50 86 51 87
REMARK SMILES IDX 59 88 52 89 53 90 57 91 60 92 54 93 55 94 58 95 56 96
REMARK H PARENT 14 8 21 30 80 49 48 60
REMARK Flexibility Score: inf
ROOT
ATOM      1  C   UNL A   1      37.940  21.402  25.003  1.00  0.00     0.002 C 
ENDROOT
BRANCH   1   2
ATOM      2  C   UNL A   1      38.544  22.441  25.956  1.00  0.00     0.002 C 
BRANCH   2   3
ATOM      3  C   UNL A   1      37.731  23.729  26.107  1.00  0.00     0.021 C 
BRANCH   3   4
ATOM      4  C   UNL A   1      36.392  23.694  25.378  1.00  0.00     0.116 C 
BRANCH   4   5
ATOM      5  N   UNL A   1      35.308  23.319  26.266  1.00  0.00    -0.352 N 
ATOM      6  C   UNL A   1      33.990  23.595  26.391  1.00  0.00     0.251 C 
ATOM      7  O   UNL A   1      33.417  23.013  27.319  1.00  0.00    -0.270 OA
ATOM      8  H   UNL A   1      35.613  22.696  26.965  1.00  0.00     0.163 HD
BRANCH   6   9
ATOM      9  C   UNL A   1      33.217  24.525  25.514  1.00  0.00     0.067 C 
ATOM     10  C   UNL A   1      30.360  29.551  22.516  1.00  0.00     0.046 C 
ATOM     11  C   UNL A   1      31.042  28.613  23.475  1.00  0.00    -0.028 A 
ATOM     12  C   UNL A   1      31.333  27.319  23.040  1.00  0.00     0.052 A 
ATOM     13  C   UNL A   1      31.391  28.984  24.789  1.00  0.00     0.047 A 
ATOM     14  C   UNL A   1      31.968  26.417  23.884  1.00  0.00     0.128 A 
ATOM     15  C   UNL A   1      32.045  28.075  25.658  1.00  0.00    -0.021 A 
ATOM     16  Cl  UNL A   1      31.006  30.594  25.317  1.00  0.00    -0.084 Cl
ATOM     17  C   UNL A   1      32.347  26.776  25.181  1.00  0.00     0.022 A 
ATOM     18  O   UNL A   1      32.221  25.200  23.327  1.00  0.00    -0.475 OA
ATOM     19  C   UNL A   1      32.435  28.458  27.067  1.00  0.00     0.047 C 
ATOM     20  C   UNL A   1      33.091  25.786  25.966  1.00  0.00     0.026 C 
ATOM     21  C   UNL A   1      32.581  24.120  24.219  1.00  0.00     0.314 C 
BRANCH  21  22
ATOM     22  C   UNL A   1      31.361  23.201  24.412  1.00  0.00     0.429 C 
ATOM     23  F   UNL A   1      31.760  21.912  24.562  1.00  0.00    -0.167 F 
ATOM     24  F   UNL A   1      30.644  23.504  25.519  1.00  0.00    -0.167 F 
ATOM     25  F   UNL A   1      30.508  23.243  23.365  1.00  0.00    -0.167 F 
ENDBRANCH  21  22
ENDBRANCH   6   9
ENDBRANCH   4   5
ENDBRANCH   3   4
ENDBRANCH   2   3
ENDBRANCH   1   2
BRANCH   1  26
ATOM     26  C   UNL A   1      38.649  20.046  24.986  1.00  0.00     0.021 C 
BRANCH  26  27
ATOM     27  C   UNL A   1      39.332  19.681  26.297  1.00  0.00     0.116 C 
BRANCH  27  28
ATOM     28  N   UNL A   1      40.549  18.919  26.076  1.00  0.00    -0.352 N 
ATOM     29  C   UNL A   1      41.838  19.365  25.951  1.00  0.00     0.251 C 
ATOM     30  H   UNL A   1      40.430  17.944  26.006  1.00  0.00     0.163 HD
ATOM     31  O   UNL A   1      42.720  18.617  25.539  1.00  0.00    -0.269 OA
BRANCH  29  32
ATOM     32  C   UNL A   1      42.161  20.760  26.308  1.00  0.00     0.039 A 
ATOM     33  C   UNL A   1      42.401  21.077  27.646  1.00  0.00     0.014 A 
ATOM     34  C   UNL A   1      42.218  21.749  25.321  1.00  0.00     0.014 A 
ATOM     35  C   UNL A   1      42.741  22.385  27.989  1.00  0.00     0.010 A 
ATOM     36  C   UNL A   1      42.634  23.033  25.654  1.00  0.00     0.010 A 
ATOM     37  C   UNL A   1      42.881  23.367  26.993  1.00  0.00    -0.014 A 
BRANCH  37  38
ATOM     38  C   UNL A   1      43.246  24.759  27.346  1.00  0.00     0.031 A 
ATOM     39  C   UNL A   1      44.651  25.242  27.117  1.00  0.00     0.074 A 
ATOM     40  C   UNL A   1      42.325  25.575  27.892  1.00  0.00     0.049 A 
ATOM     41  N   UNL A   1      45.175  26.412  27.376  1.00  0.00    -0.248 NA
ATOM     42  C   UNL A   1      45.599  24.275  26.539  1.00  0.00     0.031 C 
ATOM     43  C   UNL A   1      40.940  25.205  28.188  1.00  0.00     0.029 A 
ATOM     44  N   UNL A   1      42.412  26.885  28.289  1.00  0.00    -0.354 N 
ATOM     45  C   UNL A   1      46.506  26.321  26.992  1.00  0.00     0.074 A 
ATOM     46  C   UNL A   1      46.730  24.964  26.548  1.00  0.00     0.031 C 
ATOM     47  C   UNL A   1      40.298  26.274  28.685  1.00  0.00     0.029 A 
ATOM     48  C   UNL A   1      41.233  27.392  28.779  1.00  0.00     0.049 A 
ATOM     49  H   UNL A   1      43.242  27.412  28.230  1.00  0.00     0.167 HD
ATOM     50  C   UNL A   1      47.445  27.294  26.976  1.00  0.00     0.037 A 
ATOM     51  C   UNL A   1      40.942  28.621  29.248  1.00  0.00     0.037 A 
ATOM     52  C   UNL A   1      47.209  28.649  27.398  1.00  0.00     0.049 A 
ATOM     53  C   UNL A   1      42.020  29.672  29.262  1.00  0.00     0.074 A 
ATOM     54  C   UNL A   1      48.084  29.720  27.378  1.00  0.00     0.029 A 
ATOM     55  N   UNL A   1      46.010  29.117  27.913  1.00  0.00    -0.354 N 
ATOM     56  N   UNL A   1      43.257  29.593  28.839  1.00  0.00    -0.248 NA
ATOM     57  C   UNL A   1      41.660  30.983  29.820  1.00  0.00     0.031 C 
ATOM     58  C   UNL A   1      47.429  30.825  27.931  1.00  0.00     0.029 A 
ATOM     59  C   UNL A   1      46.131  30.455  28.247  1.00  0.00     0.049 A 
ATOM     60  H   UNL A   1      45.194  28.578  28.026  1.00  0.00     0.167 HD
ATOM     61  C   UNL A   1      43.820  30.842  29.061  1.00  0.00     0.074 A 
ATOM     62  C   UNL A   1      42.779  31.670  29.636  1.00  0.00     0.031 C 
ATOM     63  C   UNL A   1      45.084  31.264  28.818  1.00  0.00     0.037 A 
BRANCH  50  64
ATOM     64  C   UNL A   1      48.812  26.937  26.468  1.00  0.00     0.064 A 
ATOM     65  C   UNL A   1      49.791  26.399  27.318  1.00  0.00     0.173 A 
ATOM     66  C   UNL A   1      49.128  27.077  25.108  1.00  0.00     0.173 A 
ATOM     67  F   UNL A   1      49.543  26.257  28.628  1.00  0.00    -0.203 F 
ATOM     68  C   UNL A   1      51.041  26.031  26.829  1.00  0.00     0.198 A 
ATOM     69  C   UNL A   1      50.370  26.679  24.618  1.00  0.00     0.198 A 
ATOM     70  F   UNL A   1      48.228  27.584  24.253  1.00  0.00    -0.203 F 
ATOM     71  F   UNL A   1      51.973  25.557  27.667  1.00  0.00    -0.200 F 
ATOM     72  C   UNL A   1      51.325  26.162  25.478  1.00  0.00     0.200 A 
ATOM     73  F   UNL A   1      50.638  26.793  23.310  1.00  0.00    -0.200 F 
ATOM     74  F   UNL A   1      52.524  25.792  25.007  1.00  0.00    -0.200 F 
ENDBRANCH  50  64
BRANCH  51  75
ATOM     75  C   UNL A   1      39.563  28.929  29.710  1.00  0.00     0.064 A 
ATOM     76  C   UNL A   1      38.614  29.462  28.826  1.00  0.00     0.173 A 
ATOM     77  C   UNL A   1      39.159  28.684  31.030  1.00  0.00     0.173 A 
ATOM     78  F   UNL A   1      38.956  29.733  27.559  1.00  0.00    -0.203 F 
ATOM     79  C   UNL A   1      37.316  29.748  29.249  1.00  0.00     0.198 A 
ATOM     80  C   UNL A   1      37.855  28.944  31.445  1.00  0.00     0.198 A 
ATOM     81  F   UNL A   1      40.028  28.172  31.915  1.00  0.00    -0.203 F 
ATOM     82  F   UNL A   1      36.440  30.291  28.394  1.00  0.00    -0.200 F 
ATOM     83  C   UNL A   1      36.936  29.481  30.556  1.00  0.00     0.200 A 
ATOM     84  F   UNL A   1      37.486  28.670  32.704  1.00  0.00    -0.200 F 
ATOM     85  F   UNL A   1      35.686  29.746  30.959  1.00  0.00    -0.200 F 
ENDBRANCH  51  75
BRANCH  63  86
ATOM     86  C   UNL A   1      45.426  32.682  29.171  1.00  0.00     0.064 A 
ATOM     87  C   UNL A   1      45.192  33.733  28.272  1.00  0.00     0.173 A 
ATOM     88  C   UNL A   1      45.907  33.005  30.450  1.00  0.00     0.173 A 
ATOM     89  F   UNL A   1      44.745  33.474  27.034  1.00  0.00    -0.203 F 
ATOM     90  C   UNL A   1      45.436  35.053  28.638  1.00  0.00     0.198 A 
ATOM     91  C   UNL A   1      46.119  34.329  30.821  1.00  0.00     0.198 A 
ATOM     92  F   UNL A   1      46.138  32.037  31.350  1.00  0.00    -0.203 F 
ATOM     93  F   UNL A   1      45.234  36.039  27.751  1.00  0.00    -0.200 F 
ATOM     94  C   UNL A   1      45.887  35.351  29.915  1.00  0.00     0.200 A 
ATOM     95  F   UNL A   1      46.536  34.617  32.062  1.00  0.00    -0.200 F 
ATOM     96  F   UNL A   1      46.098  36.626  30.271  1.00  0.00    -0.200 F 
ENDBRANCH  63  86
ENDBRANCH  37  38
ENDBRANCH  29  32
ENDBRANCH  27  28
ENDBRANCH  26  27
ENDBRANCH   1  26
TORSDOF 14
ENDMDL
