MODEL 1
REMARK VINA RESULT:     -12.6      0.000      0.000
REMARK SMILES Cc1c(C[C@@H](C)O)c(=O)oc2cc(OCC(=O)NCCCCCCNC(=O)c3ccc(-c4c5nc(c(-c6c(F)c(F)c(F)c(F)c6F)c6ccc([nH]6)c(-c6c(F)c(F)c(F)c(F)c6F)c6nc(c(-c7c(F)c(F)c(F)c(F)c7F)c7ccc4[nH]7)C=C6)C=C5)cc3)ccc12
REMARK SMILES IDX 20 1 19 2 18 3 16 4 17 5 15 7 14 8 13 9 1 10 2 11 3 12 93 13
REMARK SMILES IDX 8 14 11 15 92 16 9 17 10 18 12 19 91 20 4 21 5 22 6 23 7 24
REMARK SMILES IDX 21 26 22 27 23 28 24 29 25 30 26 31 27 33 28 34 29 35 90 36
REMARK SMILES IDX 30 37 89 38 31 39 32 40 33 41 83 42 34 43 88 44 82 45 84 46
REMARK SMILES IDX 35 47 87 48 81 49 80 50 36 52 68 53 48 54 67 55 49 56 52 57
REMARK SMILES IDX 66 58 85 59 50 60 51 61 65 63 86 64 53 65 37 66 38 67 46 68
REMARK SMILES IDX 39 69 40 70 44 71 47 72 41 73 42 74 45 75 43 76 69 77 70 78
REMARK SMILES IDX 78 79 71 80 72 81 76 82 79 83 73 84 74 85 77 86 75 87 54 88
REMARK SMILES IDX 55 89 63 90 56 91 57 92 61 93 64 94 58 95 59 96 62 97 60 98
REMARK H PARENT 18 6 7 25 25 32 84 51 52 62
REMARK Flexibility Score: inf
ROOT
ATOM      1  C   UNL A   1      31.910  28.640  27.525  1.00  0.00     0.021 C 
ENDROOT
BRANCH   1   2
ATOM      2  C   UNL A   1      31.403  27.722  26.413  1.00  0.00     0.116 C 
BRANCH   2   3
ATOM      3  N   UNL A   1      30.959  26.443  26.931  1.00  0.00    -0.353 N 
ATOM      4  C   UNL A   1      31.263  25.190  26.491  1.00  0.00     0.257 C 
ATOM      5  O   UNL A   1      30.781  24.222  27.081  1.00  0.00    -0.271 OA
ATOM      6  H   UNL A   1      30.356  26.487  27.708  1.00  0.00     0.163 HD
BRANCH   4   7
ATOM      7  C   UNL A   1      32.230  25.008  25.316  1.00  0.00     0.329 C 
BRANCH   7   8
ATOM      8  O   UNL A   1      33.524  24.516  25.617  1.00  0.00    -0.484 OA
BRANCH   8   9
ATOM      9  C   UNL A   1      33.785  23.195  25.395  1.00  0.00     0.123 A 
ATOM     10  C   UNL A   1      36.475  18.790  24.824  1.00  0.00     0.046 C 
ATOM     11  C   UNL A   1      35.014  19.132  24.693  1.00  0.00    -0.030 A 
ATOM     12  C   UNL A   1      34.045  18.240  24.385  1.00  0.00     0.044 A 
ATOM     13  C   UNL A   1      34.638  20.540  24.911  1.00  0.00     0.021 A 
ATOM     14  C   UNL A   1      32.605  18.636  24.381  1.00  0.00     0.339 A 
ATOM     15  C   UNL A   1      33.292  20.867  25.034  1.00  0.00     0.142 A 
ATOM     16  C   UNL A   1      35.563  21.585  25.002  1.00  0.00     0.016 A 
ATOM     17  O   UNL A   1      31.723  17.862  24.025  1.00  0.00    -0.246 OA
ATOM     18  O   UNL A   1      32.293  19.899  24.853  1.00  0.00    -0.422 OA
ATOM     19  C   UNL A   1      32.852  22.169  25.299  1.00  0.00     0.094 A 
ATOM     20  C   UNL A   1      35.139  22.897  25.235  1.00  0.00     0.047 A 
BRANCH  12  21
ATOM     21  C   UNL A   1      34.281  16.778  24.064  1.00  0.00     0.075 C 
BRANCH  21  22
ATOM     22  C   UNL A   1      34.255  15.841  25.288  1.00  0.00     0.116 C 
ATOM     23  C   UNL A   1      33.039  14.921  25.348  1.00  0.00     0.038 C 
BRANCH  22  24
ATOM     24  O   UNL A   1      35.421  15.013  25.260  1.00  0.00    -0.393 OA
ATOM     25  H   UNL A   1      36.119  15.420  25.796  1.00  0.00     0.210 HD
ENDBRANCH  22  24
ENDBRANCH  21  22
ENDBRANCH  12  21
ENDBRANCH   8   9
ENDBRANCH   7   8
ENDBRANCH   4   7
ENDBRANCH   2   3
ENDBRANCH   1   2
BRANCH   1  26
ATOM     26  C   UNL A   1      32.483  29.978  27.037  1.00  0.00     0.002 C 
BRANCH  26  27
ATOM     27  C   UNL A   1      31.557  30.801  26.135  1.00  0.00     0.002 C 
BRANCH  27  28
ATOM     28  C   UNL A   1      31.389  32.268  26.538  1.00  0.00     0.021 C 
BRANCH  28  29
ATOM     29  C   UNL A   1      32.575  32.864  27.289  1.00  0.00     0.116 C 
BRANCH  29  30
ATOM     30  N   UNL A   1      32.358  34.256  27.646  1.00  0.00    -0.352 N 
ATOM     31  C   UNL A   1      32.976  35.017  28.609  1.00  0.00     0.251 C 
ATOM     32  H   UNL A   1      31.668  34.723  27.123  1.00  0.00     0.163 HD
ATOM     33  O   UNL A   1      32.541  36.128  28.893  1.00  0.00    -0.269 OA
BRANCH  31  34
ATOM     34  C   UNL A   1      34.158  34.488  29.324  1.00  0.00     0.039 A 
ATOM     35  C   UNL A   1      33.973  33.857  30.557  1.00  0.00     0.014 A 
ATOM     36  C   UNL A   1      35.442  34.619  28.790  1.00  0.00     0.014 A 
ATOM     37  C   UNL A   1      35.067  33.300  31.222  1.00  0.00     0.010 A 
ATOM     38  C   UNL A   1      36.521  33.997  29.416  1.00  0.00     0.010 A 
ATOM     39  C   UNL A   1      36.345  33.333  30.640  1.00  0.00    -0.014 A 
BRANCH  39  40
ATOM     40  C   UNL A   1      37.505  32.673  31.292  1.00  0.00     0.031 A 
ATOM     41  C   UNL A   1      38.211  31.533  30.613  1.00  0.00     0.074 A 
ATOM     42  C   UNL A   1      37.884  33.060  32.526  1.00  0.00     0.049 A 
ATOM     43  N   UNL A   1      39.197  30.790  31.050  1.00  0.00    -0.248 NA
ATOM     44  C   UNL A   1      37.727  31.157  29.275  1.00  0.00     0.031 C 
ATOM     45  C   UNL A   1      37.249  34.121  33.310  1.00  0.00     0.029 A 
ATOM     46  N   UNL A   1      38.885  32.598  33.344  1.00  0.00    -0.354 N 
ATOM     47  C   UNL A   1      39.439  29.856  30.052  1.00  0.00     0.074 A 
ATOM     48  C   UNL A   1      38.464  30.088  29.009  1.00  0.00     0.031 C 
ATOM     49  C   UNL A   1      37.887  34.243  34.485  1.00  0.00     0.029 A 
ATOM     50  C   UNL A   1      38.948  33.242  34.556  1.00  0.00     0.049 A 
ATOM     51  H   UNL A   1      39.500  31.874  33.086  1.00  0.00     0.167 HD
ATOM     52  C   UNL A   1      40.402  28.904  30.001  1.00  0.00     0.037 A 
ATOM     53  C   UNL A   1      39.760  33.041  35.611  1.00  0.00     0.037 A 
ATOM     54  C   UNL A   1      41.387  28.692  31.030  1.00  0.00     0.049 A 
ATOM     55  C   UNL A   1      40.815  31.970  35.531  1.00  0.00     0.074 A 
ATOM     56  C   UNL A   1      42.445  27.800  31.039  1.00  0.00     0.029 A 
ATOM     57  N   UNL A   1      41.429  29.375  32.236  1.00  0.00    -0.354 N 
ATOM     58  N   UNL A   1      41.084  31.145  34.549  1.00  0.00    -0.248 NA
ATOM     59  C   UNL A   1      41.685  31.809  36.704  1.00  0.00     0.031 C 
ATOM     60  C   UNL A   1      43.091  27.903  32.275  1.00  0.00     0.029 A 
ATOM     61  C   UNL A   1      42.477  28.903  33.010  1.00  0.00     0.049 A 
ATOM     62  H   UNL A   1      40.806  30.090  32.503  1.00  0.00     0.167 HD
ATOM     63  C   UNL A   1      42.171  30.390  34.971  1.00  0.00     0.074 A 
ATOM     64  C   UNL A   1      42.522  30.867  36.292  1.00  0.00     0.031 C 
ATOM     65  C   UNL A   1      42.819  29.392  34.322  1.00  0.00     0.037 A 
BRANCH  52  66
ATOM     66  C   UNL A   1      40.439  28.011  28.793  1.00  0.00     0.064 A 
ATOM     67  C   UNL A   1      41.179  28.346  27.648  1.00  0.00     0.173 A 
ATOM     68  C   UNL A   1      39.763  26.781  28.797  1.00  0.00     0.173 A 
ATOM     69  F   UNL A   1      41.837  29.514  27.587  1.00  0.00    -0.203 F 
ATOM     70  C   UNL A   1      41.217  27.497  26.545  1.00  0.00     0.198 A 
ATOM     71  C   UNL A   1      39.830  25.920  27.705  1.00  0.00     0.198 A 
ATOM     72  F   UNL A   1      39.045  26.408  29.867  1.00  0.00    -0.203 F 
ATOM     73  F   UNL A   1      41.891  27.862  25.445  1.00  0.00    -0.200 F 
ATOM     74  C   UNL A   1      40.551  26.282  26.578  1.00  0.00     0.200 A 
ATOM     75  F   UNL A   1      39.198  24.739  27.745  1.00  0.00    -0.200 F 
ATOM     76  F   UNL A   1      40.598  25.461  25.518  1.00  0.00    -0.200 F 
ENDBRANCH  52  66
BRANCH  53  77
ATOM     77  C   UNL A   1      39.616  33.877  36.833  1.00  0.00     0.064 A 
ATOM     78  C   UNL A   1      38.841  33.444  37.917  1.00  0.00     0.173 A 
ATOM     79  C   UNL A   1      40.239  35.130  36.937  1.00  0.00     0.173 A 
ATOM     80  F   UNL A   1      38.209  32.263  37.859  1.00  0.00    -0.203 F 
ATOM     81  C   UNL A   1      38.672  34.243  39.046  1.00  0.00     0.198 A 
ATOM     82  C   UNL A   1      40.096  35.914  38.080  1.00  0.00     0.198 A 
ATOM     83  F   UNL A   1      40.996  35.589  35.930  1.00  0.00    -0.203 F 
ATOM     84  F   UNL A   1      37.880  33.828  40.046  1.00  0.00    -0.200 F 
ATOM     85  C   UNL A   1      39.303  35.475  39.129  1.00  0.00     0.200 A 
ATOM     86  F   UNL A   1      40.721  37.096  38.161  1.00  0.00    -0.200 F 
ATOM     87  F   UNL A   1      39.142  36.242  40.216  1.00  0.00    -0.200 F 
ENDBRANCH  53  77
BRANCH  65  88
ATOM     88  C   UNL A   1      44.001  28.772  35.013  1.00  0.00     0.064 A 
ATOM     89  C   UNL A   1      45.288  29.319  34.909  1.00  0.00     0.173 A 
ATOM     90  C   UNL A   1      43.834  27.637  35.821  1.00  0.00     0.173 A 
ATOM     91  F   UNL A   1      45.506  30.394  34.137  1.00  0.00    -0.203 F 
ATOM     92  C   UNL A   1      46.370  28.736  35.566  1.00  0.00     0.198 A 
ATOM     93  C   UNL A   1      44.910  27.077  36.504  1.00  0.00     0.198 A 
ATOM     94  F   UNL A   1      42.623  27.078  35.960  1.00  0.00    -0.203 F 
ATOM     95  F   UNL A   1      47.599  29.244  35.410  1.00  0.00    -0.200 F 
ATOM     96  C   UNL A   1      46.177  27.622  36.369  1.00  0.00     0.200 A 
ATOM     97  F   UNL A   1      44.719  26.011  37.293  1.00  0.00    -0.200 F 
ATOM     98  F   UNL A   1      47.217  27.067  37.008  1.00  0.00    -0.200 F 
ENDBRANCH  65  88
ENDBRANCH  39  40
ENDBRANCH  31  34
ENDBRANCH  29  30
ENDBRANCH  28  29
ENDBRANCH  27  28
ENDBRANCH  26  27
ENDBRANCH   1  26
TORSDOF 18
ENDMDL
MODEL 2
REMARK VINA RESULT:     -12.5      0.385      7.246
REMARK SMILES Cc1c(C[C@@H](C)O)c(=O)oc2cc(OCC(=O)NCCCCCCNC(=O)c3ccc(-c4c5nc(c(-c6c(F)c(F)c(F)c(F)c6F)c6ccc([nH]6)c(-c6c(F)c(F)c(F)c(F)c6F)c6nc(c(-c7c(F)c(F)c(F)c(F)c7F)c7ccc4[nH]7)C=C6)C=C5)cc3)ccc12
REMARK SMILES IDX 20 1 19 2 18 3 16 4 17 5 15 7 14 8 13 9 1 10 2 11 3 12 93 13
REMARK SMILES IDX 8 14 11 15 92 16 9 17 10 18 12 19 91 20 4 21 5 22 6 23 7 24
REMARK SMILES IDX 21 26 22 27 23 28 24 29 25 30 26 31 27 33 28 34 29 35 90 36
REMARK SMILES IDX 30 37 89 38 31 39 32 40 33 41 83 42 34 43 88 44 82 45 84 46
REMARK SMILES IDX 35 47 87 48 81 49 80 50 36 52 68 53 48 54 67 55 49 56 52 57
REMARK SMILES IDX 66 58 85 59 50 60 51 61 65 63 86 64 53 65 37 66 38 67 46 68
REMARK SMILES IDX 39 69 40 70 44 71 47 72 41 73 42 74 45 75 43 76 69 77 70 78
REMARK SMILES IDX 78 79 71 80 72 81 76 82 79 83 73 84 74 85 77 86 75 87 54 88
REMARK SMILES IDX 55 89 63 90 56 91 57 92 61 93 64 94 58 95 59 96 62 97 60 98
REMARK H PARENT 18 6 7 25 25 32 84 51 52 62
REMARK Flexibility Score: inf
ROOT
ATOM      1  C   UNL A   1      32.192  28.854  27.308  1.00  0.00     0.021 C 
ENDROOT
BRANCH   1   2
ATOM      2  C   UNL A   1      31.632  27.882  26.269  1.00  0.00     0.116 C 
BRANCH   2   3
ATOM      3  N   UNL A   1      31.181  26.646  26.878  1.00  0.00    -0.353 N 
ATOM      4  C   UNL A   1      31.452  25.362  26.508  1.00  0.00     0.257 C 
ATOM      5  O   UNL A   1      30.970  24.442  27.171  1.00  0.00    -0.271 OA
ATOM      6  H   UNL A   1      30.599  26.748  27.666  1.00  0.00     0.163 HD
BRANCH   4   7
ATOM      7  C   UNL A   1      32.384  25.091  25.323  1.00  0.00     0.329 C 
BRANCH   7   8
ATOM      8  O   UNL A   1      33.670  24.576  25.620  1.00  0.00    -0.484 OA
BRANCH   8   9
ATOM      9  C   UNL A   1      33.906  23.250  25.399  1.00  0.00     0.123 A 
ATOM     10  C   UNL A   1      36.515  18.802  24.787  1.00  0.00     0.046 C 
ATOM     11  C   UNL A   1      35.056  19.165  24.692  1.00  0.00    -0.030 A 
ATOM     12  C   UNL A   1      34.067  18.286  24.414  1.00  0.00     0.044 A 
ATOM     13  C   UNL A   1      34.707  20.579  24.910  1.00  0.00     0.021 A 
ATOM     14  C   UNL A   1      32.633  18.703  24.444  1.00  0.00     0.339 A 
ATOM     15  C   UNL A   1      33.369  20.928  25.066  1.00  0.00     0.142 A 
ATOM     16  C   UNL A   1      35.650  21.611  24.971  1.00  0.00     0.016 A 
ATOM     17  O   UNL A   1      31.731  17.940  24.116  1.00  0.00    -0.246 OA
ATOM     18  O   UNL A   1      32.352  19.973  24.916  1.00  0.00    -0.422 OA
ATOM     19  C   UNL A   1      32.956  22.238  25.334  1.00  0.00     0.094 A 
ATOM     20  C   UNL A   1      35.251  22.931  25.207  1.00  0.00     0.047 A 
BRANCH  12  21
ATOM     21  C   UNL A   1      34.273  16.818  24.097  1.00  0.00     0.075 C 
BRANCH  21  22
ATOM     22  C   UNL A   1      34.223  15.885  25.321  1.00  0.00     0.116 C 
ATOM     23  C   UNL A   1      32.978  15.005  25.390  1.00  0.00     0.038 C 
BRANCH  22  24
ATOM     24  O   UNL A   1      35.362  15.018  25.288  1.00  0.00    -0.393 OA
ATOM     25  H   UNL A   1      35.333  14.478  24.483  1.00  0.00     0.210 HD
ENDBRANCH  22  24
ENDBRANCH  21  22
ENDBRANCH  12  21
ENDBRANCH   8   9
ENDBRANCH   7   8
ENDBRANCH   4   7
ENDBRANCH   2   3
ENDBRANCH   1   2
BRANCH   1  26
ATOM     26  C   UNL A   1      32.569  30.235  26.752  1.00  0.00     0.002 C 
BRANCH  26  27
ATOM     27  C   UNL A   1      31.417  31.031  26.131  1.00  0.00     0.002 C 
BRANCH  27  28
ATOM     28  C   UNL A   1      31.327  32.495  26.564  1.00  0.00     0.021 C 
BRANCH  28  29
ATOM     29  C   UNL A   1      32.557  33.022  27.295  1.00  0.00     0.116 C 
BRANCH  29  30
ATOM     30  N   UNL A   1      32.384  34.390  27.755  1.00  0.00    -0.352 N 
ATOM     31  C   UNL A   1      33.018  35.056  28.774  1.00  0.00     0.251 C 
ATOM     32  H   UNL A   1      31.713  34.917  27.264  1.00  0.00     0.163 HD
ATOM     33  O   UNL A   1      32.618  36.156  29.139  1.00  0.00    -0.269 OA
BRANCH  31  34
ATOM     34  C   UNL A   1      34.177  34.436  29.454  1.00  0.00     0.039 A 
ATOM     35  C   UNL A   1      33.960  33.709  30.628  1.00  0.00     0.014 A 
ATOM     36  C   UNL A   1      35.471  34.576  28.946  1.00  0.00     0.014 A 
ATOM     37  C   UNL A   1      35.031  33.069  31.254  1.00  0.00     0.010 A 
ATOM     38  C   UNL A   1      36.525  33.875  29.528  1.00  0.00     0.010 A 
ATOM     39  C   UNL A   1      36.316  33.115  30.689  1.00  0.00    -0.014 A 
BRANCH  39  40
ATOM     40  C   UNL A   1      37.451  32.371  31.295  1.00  0.00     0.031 A 
ATOM     41  C   UNL A   1      37.973  32.755  32.651  1.00  0.00     0.074 A 
ATOM     42  C   UNL A   1      38.052  31.389  30.595  1.00  0.00     0.049 A 
ATOM     43  N   UNL A   1      38.993  32.270  33.315  1.00  0.00    -0.248 NA
ATOM     44  C   UNL A   1      37.275  33.850  33.344  1.00  0.00     0.031 C 
ATOM     45  C   UNL A   1      37.670  30.956  29.249  1.00  0.00     0.029 A 
ATOM     46  N   UNL A   1      39.121  30.586  30.910  1.00  0.00    -0.354 N 
ATOM     47  C   UNL A   1      39.066  33.006  34.489  1.00  0.00     0.074 A 
ATOM     48  C   UNL A   1      38.022  34.006  34.427  1.00  0.00     0.031 C 
ATOM     49  C   UNL A   1      38.477  29.954  28.864  1.00  0.00     0.029 A 
ATOM     50  C   UNL A   1      39.459  29.703  29.915  1.00  0.00     0.049 A 
ATOM     51  H   UNL A   1      39.598  30.639  31.770  1.00  0.00     0.167 HD
ATOM     52  C   UNL A   1      39.913  32.849  35.535  1.00  0.00     0.037 A 
ATOM     53  C   UNL A   1      40.456  28.800  29.850  1.00  0.00     0.037 A 
ATOM     54  C   UNL A   1      40.934  31.835  35.603  1.00  0.00     0.049 A 
ATOM     55  C   UNL A   1      41.389  28.651  31.022  1.00  0.00     0.074 A 
ATOM     56  C   UNL A   1      41.795  31.550  36.648  1.00  0.00     0.029 A 
ATOM     57  N   UNL A   1      41.236  30.947  34.582  1.00  0.00    -0.354 N 
ATOM     58  N   UNL A   1      41.398  29.301  32.161  1.00  0.00    -0.248 NA
ATOM     59  C   UNL A   1      42.445  27.637  30.903  1.00  0.00     0.031 C 
ATOM     60  C   UNL A   1      42.658  30.529  36.237  1.00  0.00     0.029 A 
ATOM     61  C   UNL A   1      42.291  30.133  34.961  1.00  0.00     0.049 A 
ATOM     62  H   UNL A   1      40.769  30.902  33.716  1.00  0.00     0.167 HD
ATOM     63  C   UNL A   1      42.436  28.755  32.904  1.00  0.00     0.074 A 
ATOM     64  C   UNL A   1      43.024  27.709  32.094  1.00  0.00     0.031 C 
ATOM     65  C   UNL A   1      42.863  29.090  34.146  1.00  0.00     0.037 A 
BRANCH  52  66
ATOM     66  C   UNL A   1      39.777  33.795  36.694  1.00  0.00     0.064 A 
ATOM     67  C   UNL A   1      38.961  33.502  37.796  1.00  0.00     0.173 A 
ATOM     68  C   UNL A   1      40.510  34.992  36.723  1.00  0.00     0.173 A 
ATOM     69  F   UNL A   1      38.232  32.376  37.817  1.00  0.00    -0.203 F 
ATOM     70  C   UNL A   1      38.863  34.383  38.871  1.00  0.00     0.198 A 
ATOM     71  C   UNL A   1      40.435  35.855  37.813  1.00  0.00     0.198 A 
ATOM     72  F   UNL A   1      41.310  35.320  35.697  1.00  0.00    -0.203 F 
ATOM     73  F   UNL A   1      38.040  34.103  39.890  1.00  0.00    -0.200 F 
ATOM     74  C   UNL A   1      39.606  35.553  38.882  1.00  0.00     0.200 A 
ATOM     75  F   UNL A   1      41.166  36.978  37.828  1.00  0.00    -0.200 F 
ATOM     76  F   UNL A   1      39.518  36.395  39.922  1.00  0.00    -0.200 F 
ENDBRANCH  52  66
BRANCH  53  77
ATOM     77  C   UNL A   1      40.621  27.957  28.635  1.00  0.00     0.064 A 
ATOM     78  C   UNL A   1      41.394  28.394  27.552  1.00  0.00     0.173 A 
ATOM     79  C   UNL A   1      39.999  26.704  28.527  1.00  0.00     0.173 A 
ATOM     80  F   UNL A   1      41.993  29.594  27.598  1.00  0.00    -0.203 F 
ATOM     81  C   UNL A   1      41.517  27.625  26.397  1.00  0.00     0.198 A 
ATOM     82  C   UNL A   1      40.149  25.921  27.385  1.00  0.00     0.198 A 
ATOM     83  F   UNL A   1      39.252  26.236  29.538  1.00  0.00    -0.203 F 
ATOM     84  F   UNL A   1      42.218  28.092  25.354  1.00  0.00    -0.200 F 
ATOM     85  C   UNL A   1      40.899  26.386  26.316  1.00  0.00     0.200 A 
ATOM     86  F   UNL A   1      39.563  24.718  27.319  1.00  0.00    -0.200 F 
ATOM     87  F   UNL A   1      41.019  25.645  25.206  1.00  0.00    -0.200 F 
ENDBRANCH  53  77
BRANCH  65  88
ATOM     88  C   UNL A   1      43.998  28.293  34.725  1.00  0.00     0.064 A 
ATOM     89  C   UNL A   1      45.332  28.706  34.596  1.00  0.00     0.173 A 
ATOM     90  C   UNL A   1      43.741  27.121  35.453  1.00  0.00     0.173 A 
ATOM     91  F   UNL A   1      45.634  29.811  33.898  1.00  0.00    -0.203 F 
ATOM     92  C   UNL A   1      46.369  27.959  35.150  1.00  0.00     0.198 A 
ATOM     93  C   UNL A   1      44.777  26.396  36.035  1.00  0.00     0.198 A 
ATOM     94  F   UNL A   1      42.483  26.686  35.612  1.00  0.00    -0.203 F 
ATOM     95  F   UNL A   1      47.639  28.344  34.969  1.00  0.00    -0.200 F 
ATOM     96  C   UNL A   1      46.090  26.811  35.875  1.00  0.00     0.200 A 
ATOM     97  F   UNL A   1      44.504  25.295  36.749  1.00  0.00    -0.200 F 
ATOM     98  F   UNL A   1      47.089  26.098  36.416  1.00  0.00    -0.200 F 
ENDBRANCH  65  88
ENDBRANCH  39  40
ENDBRANCH  31  34
ENDBRANCH  29  30
ENDBRANCH  28  29
ENDBRANCH  27  28
ENDBRANCH  26  27
ENDBRANCH   1  26
TORSDOF 18
ENDMDL
MODEL 3
REMARK VINA RESULT:     -12.3      3.446      9.172
REMARK SMILES Cc1c(C[C@@H](C)O)c(=O)oc2cc(OCC(=O)NCCCCCCNC(=O)c3ccc(-c4c5nc(c(-c6c(F)c(F)c(F)c(F)c6F)c6ccc([nH]6)c(-c6c(F)c(F)c(F)c(F)c6F)c6nc(c(-c7c(F)c(F)c(F)c(F)c7F)c7ccc4[nH]7)C=C6)C=C5)cc3)ccc12
REMARK SMILES IDX 20 1 19 2 18 3 16 4 17 5 15 7 14 8 13 9 1 10 2 11 3 12 93 13
REMARK SMILES IDX 8 14 11 15 92 16 9 17 10 18 12 19 91 20 4 21 5 22 6 23 7 24
REMARK SMILES IDX 21 26 22 27 23 28 24 29 25 30 26 31 27 33 28 34 29 35 90 36
REMARK SMILES IDX 30 37 89 38 31 39 32 40 33 41 83 42 34 43 88 44 82 45 84 46
REMARK SMILES IDX 35 47 87 48 81 49 80 50 36 52 68 53 48 54 67 55 49 56 52 57
REMARK SMILES IDX 66 58 85 59 50 60 51 61 65 63 86 64 53 65 37 66 38 67 46 68
REMARK SMILES IDX 39 69 40 70 44 71 47 72 41 73 42 74 45 75 43 76 69 77 70 78
REMARK SMILES IDX 78 79 71 80 72 81 76 82 79 83 73 84 74 85 77 86 75 87 54 88
REMARK SMILES IDX 55 89 63 90 56 91 57 92 61 93 64 94 58 95 59 96 62 97 60 98
REMARK H PARENT 18 6 7 25 25 32 84 51 52 62
REMARK Flexibility Score: inf
ROOT
ATOM      1  C   UNL A   1      34.211  23.668  26.295  1.00  0.00     0.021 C 
ENDROOT
BRANCH   1   2
ATOM      2  C   UNL A   1      33.436  22.353  26.389  1.00  0.00     0.116 C 
BRANCH   2   3
ATOM      3  N   UNL A   1      34.219  21.233  25.907  1.00  0.00    -0.353 N 
ATOM      4  C   UNL A   1      33.899  20.314  24.952  1.00  0.00     0.257 C 
ATOM      5  O   UNL A   1      34.717  19.433  24.682  1.00  0.00    -0.271 OA
ATOM      6  H   UNL A   1      35.102  21.120  26.328  1.00  0.00     0.163 HD
BRANCH   4   7
ATOM      7  C   UNL A   1      32.567  20.425  24.203  1.00  0.00     0.329 C 
BRANCH   7   8
ATOM      8  O   UNL A   1      32.586  21.089  22.951  1.00  0.00    -0.484 OA
BRANCH   8   9
ATOM      9  C   UNL A   1      32.370  22.436  22.927  1.00  0.00     0.123 A 
ATOM     10  C   UNL A   1      33.214  27.490  22.083  1.00  0.00     0.046 C 
ATOM     11  C   UNL A   1      32.088  26.725  22.726  1.00  0.00    -0.030 A 
ATOM     12  C   UNL A   1      30.972  27.292  23.236  1.00  0.00     0.044 A 
ATOM     13  C   UNL A   1      32.236  25.261  22.803  1.00  0.00     0.021 A 
ATOM     14  C   UNL A   1      29.851  26.456  23.760  1.00  0.00     0.339 A 
ATOM     15  C   UNL A   1      31.138  24.490  23.169  1.00  0.00     0.142 A 
ATOM     16  C   UNL A   1      33.431  24.587  22.528  1.00  0.00     0.016 A 
ATOM     17  O   UNL A   1      28.869  26.956  24.299  1.00  0.00    -0.246 OA
ATOM     18  O   UNL A   1      29.933  25.089  23.561  1.00  0.00    -0.422 OA
ATOM     19  C   UNL A   1      31.178  23.091  23.211  1.00  0.00     0.094 A 
ATOM     20  C   UNL A   1      33.496  23.191  22.595  1.00  0.00     0.047 A 
BRANCH  12  21
ATOM     21  C   UNL A   1      30.706  28.784  23.296  1.00  0.00     0.075 C 
BRANCH  21  22
ATOM     22  C   UNL A   1      29.898  29.339  22.108  1.00  0.00     0.116 C 
ATOM     23  C   UNL A   1      28.705  30.202  22.509  1.00  0.00     0.038 C 
BRANCH  22  24
ATOM     24  O   UNL A   1      30.761  30.144  21.299  1.00  0.00    -0.393 OA
ATOM     25  H   UNL A   1      30.417  30.175  20.392  1.00  0.00     0.210 HD
ENDBRANCH  22  24
ENDBRANCH  21  22
ENDBRANCH  12  21
ENDBRANCH   8   9
ENDBRANCH   7   8
ENDBRANCH   4   7
ENDBRANCH   2   3
ENDBRANCH   1   2
BRANCH   1  26
ATOM     26  C   UNL A   1      33.330  24.920  26.173  1.00  0.00     0.002 C 
BRANCH  26  27
ATOM     27  C   UNL A   1      34.058  26.198  25.741  1.00  0.00     0.002 C 
BRANCH  27  28
ATOM     28  C   UNL A   1      33.448  27.503  26.255  1.00  0.00     0.021 C 
BRANCH  28  29
ATOM     29  C   UNL A   1      34.020  28.768  25.625  1.00  0.00     0.116 C 
BRANCH  29  30
ATOM     30  N   UNL A   1      33.656  29.966  26.363  1.00  0.00    -0.352 N 
ATOM     31  C   UNL A   1      34.269  30.543  27.449  1.00  0.00     0.251 C 
ATOM     32  H   UNL A   1      32.853  30.433  26.037  1.00  0.00     0.163 HD
ATOM     33  O   UNL A   1      33.720  31.456  28.055  1.00  0.00    -0.269 OA
BRANCH  31  34
ATOM     34  C   UNL A   1      35.586  30.047  27.905  1.00  0.00     0.039 A 
ATOM     35  C   UNL A   1      36.682  30.156  27.045  1.00  0.00     0.014 A 
ATOM     36  C   UNL A   1      35.740  29.469  29.167  1.00  0.00     0.014 A 
ATOM     37  C   UNL A   1      37.945  29.746  27.477  1.00  0.00     0.010 A 
ATOM     38  C   UNL A   1      37.012  29.131  29.625  1.00  0.00     0.010 A 
ATOM     39  C   UNL A   1      38.128  29.264  28.784  1.00  0.00    -0.014 A 
BRANCH  39  40
ATOM     40  C   UNL A   1      39.477  28.901  29.289  1.00  0.00     0.031 A 
ATOM     41  C   UNL A   1      40.208  29.818  30.229  1.00  0.00     0.074 A 
ATOM     42  C   UNL A   1      40.072  27.774  28.849  1.00  0.00     0.049 A 
ATOM     43  N   UNL A   1      41.415  29.708  30.725  1.00  0.00    -0.248 NA
ATOM     44  C   UNL A   1      39.499  31.038  30.649  1.00  0.00     0.031 C 
ATOM     45  C   UNL A   1      39.487  26.827  27.898  1.00  0.00     0.029 A 
ATOM     46  N   UNL A   1      41.305  27.241  29.132  1.00  0.00    -0.354 N 
ATOM     47  C   UNL A   1      41.614  30.843  31.497  1.00  0.00     0.074 A 
ATOM     48  C   UNL A   1      40.425  31.658  31.365  1.00  0.00     0.031 C 
ATOM     49  C   UNL A   1      40.351  25.820  27.693  1.00  0.00     0.029 A 
ATOM     50  C   UNL A   1      41.566  26.070  28.463  1.00  0.00     0.049 A 
ATOM     51  H   UNL A   1      41.941  27.658  29.757  1.00  0.00     0.167 HD
ATOM     52  C   UNL A   1      42.682  31.168  32.265  1.00  0.00     0.037 A 
ATOM     53  C   UNL A   1      42.665  25.292  28.459  1.00  0.00     0.037 A 
ATOM     54  C   UNL A   1      43.852  30.341  32.414  1.00  0.00     0.049 A 
ATOM     55  C   UNL A   1      43.841  25.681  29.315  1.00  0.00     0.074 A 
ATOM     56  C   UNL A   1      44.955  30.549  33.223  1.00  0.00     0.029 A 
ATOM     57  N   UNL A   1      44.073  29.154  31.733  1.00  0.00    -0.354 N 
ATOM     58  N   UNL A   1      43.985  26.718  30.103  1.00  0.00    -0.248 NA
ATOM     59  C   UNL A   1      45.005  24.783  29.287  1.00  0.00     0.031 C 
ATOM     60  C   UNL A   1      45.870  29.518  32.986  1.00  0.00     0.029 A 
ATOM     61  C   UNL A   1      45.309  28.633  32.081  1.00  0.00     0.049 A 
ATOM     62  H   UNL A   1      43.444  28.742  31.097  1.00  0.00     0.167 HD
ATOM     63  C   UNL A   1      45.238  26.583  30.687  1.00  0.00     0.074 A 
ATOM     64  C   UNL A   1      45.807  25.355  30.175  1.00  0.00     0.031 C 
ATOM     65  C   UNL A   1      45.861  27.404  31.568  1.00  0.00     0.037 A 
BRANCH  52  66
ATOM     66  C   UNL A   1      42.640  32.475  33.005  1.00  0.00     0.064 A 
ATOM     67  C   UNL A   1      42.161  32.566  34.320  1.00  0.00     0.173 A 
ATOM     68  C   UNL A   1      43.131  33.646  32.405  1.00  0.00     0.173 A 
ATOM     69  F   UNL A   1      41.672  31.479  34.938  1.00  0.00    -0.203 F 
ATOM     70  C   UNL A   1      42.149  33.783  34.997  1.00  0.00     0.198 A 
ATOM     71  C   UNL A   1      43.147  34.854  33.096  1.00  0.00     0.198 A 
ATOM     72  F   UNL A   1      43.606  33.615  31.151  1.00  0.00    -0.203 F 
ATOM     73  F   UNL A   1      41.640  33.853  36.235  1.00  0.00    -0.200 F 
ATOM     74  C   UNL A   1      42.649  34.923  34.389  1.00  0.00     0.200 A 
ATOM     75  F   UNL A   1      43.645  35.952  32.512  1.00  0.00    -0.200 F 
ATOM     76  F   UNL A   1      42.646  36.092  35.046  1.00  0.00    -0.200 F 
ENDBRANCH  52  66
BRANCH  53  77
ATOM     77  C   UNL A   1      42.704  24.061  27.626  1.00  0.00     0.064 A 
ATOM     78  C   UNL A   1      42.379  22.811  28.169  1.00  0.00     0.173 A 
ATOM     79  C   UNL A   1      43.079  24.105  26.275  1.00  0.00     0.173 A 
ATOM     80  F   UNL A   1      42.033  22.712  29.462  1.00  0.00    -0.203 F 
ATOM     81  C   UNL A   1      42.453  21.650  27.402  1.00  0.00     0.198 A 
ATOM     82  C   UNL A   1      43.122  22.948  25.500  1.00  0.00     0.198 A 
ATOM     83  F   UNL A   1      43.395  25.277  25.704  1.00  0.00    -0.203 F 
ATOM     84  F   UNL A   1      42.189  20.461  27.963  1.00  0.00    -0.200 F 
ATOM     85  C   UNL A   1      42.819  21.720  26.067  1.00  0.00     0.200 A 
ATOM     86  F   UNL A   1      43.461  23.024  24.206  1.00  0.00    -0.200 F 
ATOM     87  F   UNL A   1      42.889  20.604  25.328  1.00  0.00    -0.200 F 
ENDBRANCH  53  77
BRANCH  65  88
ATOM     88  C   UNL A   1      47.214  26.983  32.067  1.00  0.00     0.064 A 
ATOM     89  C   UNL A   1      48.397  27.424  31.457  1.00  0.00     0.173 A 
ATOM     90  C   UNL A   1      47.326  26.158  33.197  1.00  0.00     0.173 A 
ATOM     91  F   UNL A   1      48.346  28.202  30.365  1.00  0.00    -0.203 F 
ATOM     92  C   UNL A   1      49.643  27.031  31.942  1.00  0.00     0.198 A 
ATOM     93  C   UNL A   1      48.573  25.795  33.700  1.00  0.00     0.198 A 
ATOM     94  F   UNL A   1      46.226  25.714  33.823  1.00  0.00    -0.203 F 
ATOM     95  F   UNL A   1      50.758  27.422  31.312  1.00  0.00    -0.200 F 
ATOM     96  C   UNL A   1      49.729  26.225  33.067  1.00  0.00     0.200 A 
ATOM     97  F   UNL A   1      48.654  25.030  34.797  1.00  0.00    -0.200 F 
ATOM     98  F   UNL A   1      50.929  25.856  33.538  1.00  0.00    -0.200 F 
ENDBRANCH  65  88
ENDBRANCH  39  40
ENDBRANCH  31  34
ENDBRANCH  29  30
ENDBRANCH  28  29
ENDBRANCH  27  28
ENDBRANCH  26  27
ENDBRANCH   1  26
TORSDOF 18
ENDMDL
