MODEL 1
REMARK VINA RESULT:     -11.8      0.000      0.000
REMARK SMILES [NH3+][C@@H]1C(=O)N2C(C(=O)NCCCCCCNC(=O)c3ccc(-c4c5nc(c(-c6c(F)c(F)c(F)c(F)c6F)c6ccc([nH]6)c(-c6c(F)c(F)c(F)c(F)c6F)c6nc(c(-c7c(F)c(F)c(F)c(F)c7F)c7ccc4[nH]7)C=C6)C=C5)cc3)=CCS[C@@H]12
REMARK SMILES IDX 13 1 12 2 11 3 10 4 9 5 7 6 8 7 6 9 2 10 3 11 85 12 4 13
REMARK SMILES IDX 5 14 84 15 83 16 82 17 1 18 14 22 15 23 16 24 17 25 18 27
REMARK SMILES IDX 19 28 20 29 81 30 21 31 80 32 22 33 23 34 24 35 74 36 25 37
REMARK SMILES IDX 79 38 73 39 75 40 26 41 78 42 72 43 71 44 27 46 59 47 39 48
REMARK SMILES IDX 58 49 40 50 43 51 57 52 76 53 41 54 42 55 56 57 77 58 44 59
REMARK SMILES IDX 28 60 29 61 37 62 30 63 31 64 35 65 38 66 32 67 33 68 36 69
REMARK SMILES IDX 34 70 60 71 61 72 69 73 62 74 63 75 67 76 70 77 64 78 65 79
REMARK SMILES IDX 68 80 66 81 45 82 46 83 54 84 47 85 48 86 52 87 55 88 49 89
REMARK SMILES IDX 50 90 53 91 51 92
REMARK H PARENT 9 8 1 19 1 20 1 21 16 26 75 45 43 56
REMARK Flexibility Score: inf
ROOT
ATOM      1  C   UNL A   1      31.503  30.779  26.106  1.00  0.00     0.002 C 
ENDROOT
BRANCH   1   2
ATOM      2  C   UNL A   1      32.368  29.923  27.041  1.00  0.00     0.002 C 
BRANCH   2   3
ATOM      3  C   UNL A   1      31.731  28.594  27.479  1.00  0.00     0.021 C 
BRANCH   3   4
ATOM      4  C   UNL A   1      31.542  27.596  26.330  1.00  0.00     0.116 C 
BRANCH   4   5
ATOM      5  N   UNL A   1      31.239  26.285  26.872  1.00  0.00    -0.351 N 
ATOM      6  C   UNL A   1      31.603  25.020  26.523  1.00  0.00     0.267 C 
ATOM      7  O   UNL A   1      30.985  24.098  27.054  1.00  0.00    -0.268 OA
ATOM      8  H   UNL A   1      30.646  26.316  27.658  1.00  0.00     0.163 HD
BRANCH   6   9
ATOM      9  C   UNL A   1      32.712  24.726  25.545  1.00  0.00     0.107 C 
ATOM     10  C   UNL A   1      32.349  25.010  22.153  1.00  0.00     0.305 C 
ATOM     11  C   UNL A   1      31.380  25.012  23.393  1.00  0.00     0.289 C 
ATOM     12  C   UNL A   1      33.471  25.082  23.227  1.00  0.00     0.217 C 
ATOM     13  O   UNL A   1      30.182  25.024  23.546  1.00  0.00    -0.267 OA
ATOM     14  N   UNL A   1      32.438  24.861  24.220  1.00  0.00    -0.283 N 
ATOM     15  S   UNL A   1      34.599  23.665  23.290  1.00  0.00    -0.126 SA
ATOM     16  C   UNL A   1      35.104  24.015  25.000  1.00  0.00     0.101 C 
ATOM     17  C   UNL A   1      33.975  24.424  25.911  1.00  0.00     0.016 C 
BRANCH  10  18
ATOM     18  N   UNL A   1      32.361  26.253  21.349  1.00  0.00    -0.345 N 
ATOM     19  H   UNL A   1      33.290  26.671  21.382  1.00  0.00     0.345 HD
ATOM     20  H   UNL A   1      31.679  26.910  21.728  1.00  0.00     0.345 HD
ATOM     21  H   UNL A   1      32.121  26.034  20.382  1.00  0.00     0.345 HD
ENDBRANCH  10  18
ENDBRANCH   6   9
ENDBRANCH   4   5
ENDBRANCH   3   4
ENDBRANCH   2   3
ENDBRANCH   1   2
BRANCH   1  22
ATOM     22  C   UNL A   1      31.368  32.249  26.511  1.00  0.00     0.021 C 
BRANCH  22  23
ATOM     23  C   UNL A   1      32.581  32.820  27.239  1.00  0.00     0.116 C 
BRANCH  23  24
ATOM     24  N   UNL A   1      32.381  34.207  27.625  1.00  0.00    -0.352 N 
ATOM     25  C   UNL A   1      32.989  34.926  28.624  1.00  0.00     0.251 C 
ATOM     26  H   UNL A   1      31.716  34.702  27.093  1.00  0.00     0.163 HD
ATOM     27  O   UNL A   1      32.559  36.030  28.945  1.00  0.00    -0.269 OA
BRANCH  25  28
ATOM     28  C   UNL A   1      34.160  34.362  29.330  1.00  0.00     0.039 A 
ATOM     29  C   UNL A   1      33.956  33.613  30.491  1.00  0.00     0.014 A 
ATOM     30  C   UNL A   1      35.456  34.591  28.857  1.00  0.00     0.014 A 
ATOM     31  C   UNL A   1      35.049  33.047  31.150  1.00  0.00     0.010 A 
ATOM     32  C   UNL A   1      36.537  33.972  29.477  1.00  0.00     0.010 A 
ATOM     33  C   UNL A   1      36.345  33.200  30.634  1.00  0.00    -0.014 A 
BRANCH  33  34
ATOM     34  C   UNL A   1      37.521  32.583  31.297  1.00  0.00     0.031 A 
ATOM     35  C   UNL A   1      38.269  31.473  30.615  1.00  0.00     0.074 A 
ATOM     36  C   UNL A   1      37.869  32.971  32.538  1.00  0.00     0.049 A 
ATOM     37  N   UNL A   1      39.258  30.741  31.063  1.00  0.00    -0.248 NA
ATOM     38  C   UNL A   1      37.829  31.120  29.256  1.00  0.00     0.031 C 
ATOM     39  C   UNL A   1      37.199  34.012  33.318  1.00  0.00     0.029 A 
ATOM     40  N   UNL A   1      38.868  32.524  33.367  1.00  0.00    -0.354 N 
ATOM     41  C   UNL A   1      39.543  29.832  30.052  1.00  0.00     0.074 A 
ATOM     42  C   UNL A   1      38.590  30.070  28.989  1.00  0.00     0.031 C 
ATOM     43  C   UNL A   1      37.818  34.139  34.502  1.00  0.00     0.029 A 
ATOM     44  C   UNL A   1      38.902  33.164  34.581  1.00  0.00     0.049 A 
ATOM     45  H   UNL A   1      39.500  31.812  33.115  1.00  0.00     0.167 HD
ATOM     46  C   UNL A   1      40.524  28.900  30.004  1.00  0.00     0.037 A 
ATOM     47  C   UNL A   1      39.712  32.978  35.640  1.00  0.00     0.037 A 
ATOM     48  C   UNL A   1      41.486  28.684  31.053  1.00  0.00     0.049 A 
ATOM     49  C   UNL A   1      40.788  31.929  35.569  1.00  0.00     0.074 A 
ATOM     50  C   UNL A   1      42.550  27.800  31.081  1.00  0.00     0.029 A 
ATOM     51  N   UNL A   1      41.498  29.363  32.263  1.00  0.00    -0.354 N 
ATOM     52  N   UNL A   1      41.082  31.111  34.587  1.00  0.00    -0.248 NA
ATOM     53  C   UNL A   1      41.648  31.780  36.751  1.00  0.00     0.031 C 
ATOM     54  C   UNL A   1      43.182  27.916  32.324  1.00  0.00     0.029 A 
ATOM     55  C   UNL A   1      42.540  28.905  33.052  1.00  0.00     0.049 A 
ATOM     56  H   UNL A   1      40.859  30.067  32.522  1.00  0.00     0.167 HD
ATOM     57  C   UNL A   1      42.177  30.375  35.018  1.00  0.00     0.074 A 
ATOM     58  C   UNL A   1      42.500  30.848  36.348  1.00  0.00     0.031 C 
ATOM     59  C   UNL A   1      42.855  29.396  34.370  1.00  0.00     0.037 A 
BRANCH  46  60
ATOM     60  C   UNL A   1      40.602  28.043  28.773  1.00  0.00     0.064 A 
ATOM     61  C   UNL A   1      41.392  28.408  27.671  1.00  0.00     0.173 A 
ATOM     62  C   UNL A   1      39.891  26.836  28.698  1.00  0.00     0.173 A 
ATOM     63  F   UNL A   1      42.082  29.558  27.687  1.00  0.00    -0.203 F 
ATOM     64  C   UNL A   1      41.437  27.616  26.527  1.00  0.00     0.198 A 
ATOM     65  C   UNL A   1      39.963  26.031  27.564  1.00  0.00     0.198 A 
ATOM     66  F   UNL A   1      39.124  26.437  29.724  1.00  0.00    -0.203 F 
ATOM     67  F   UNL A   1      42.151  28.015  25.466  1.00  0.00    -0.200 F 
ATOM     68  C   UNL A   1      40.727  26.426  26.476  1.00  0.00     0.200 A 
ATOM     69  F   UNL A   1      39.286  24.875  27.520  1.00  0.00    -0.200 F 
ATOM     70  F   UNL A   1      40.771  25.664  25.374  1.00  0.00    -0.200 F 
ENDBRANCH  46  60
BRANCH  47  71
ATOM     71  C   UNL A   1      39.558  33.830  36.847  1.00  0.00     0.064 A 
ATOM     72  C   UNL A   1      38.805  33.388  37.944  1.00  0.00     0.173 A 
ATOM     73  C   UNL A   1      40.160  35.093  36.934  1.00  0.00     0.173 A 
ATOM     74  F   UNL A   1      38.193  32.195  37.898  1.00  0.00    -0.203 F 
ATOM     75  C   UNL A   1      38.648  34.182  39.077  1.00  0.00     0.198 A 
ATOM     76  C   UNL A   1      40.024  35.877  38.079  1.00  0.00     0.198 A 
ATOM     77  F   UNL A   1      40.893  35.560  35.914  1.00  0.00    -0.203 F 
ATOM     78  F   UNL A   1      37.893  33.751  40.096  1.00  0.00    -0.200 F 
ATOM     79  C   UNL A   1      39.264  35.423  39.147  1.00  0.00     0.200 A 
ATOM     80  F   UNL A   1      40.630  37.070  38.148  1.00  0.00    -0.200 F 
ATOM     81  F   UNL A   1      39.118  36.184  40.240  1.00  0.00    -0.200 F 
ENDBRANCH  47  71
BRANCH  59  82
ATOM     82  C   UNL A   1      44.040  28.800  35.071  1.00  0.00     0.064 A 
ATOM     83  C   UNL A   1      43.909  27.710  35.944  1.00  0.00     0.173 A 
ATOM     84  C   UNL A   1      45.329  29.299  34.830  1.00  0.00     0.173 A 
ATOM     85  F   UNL A   1      42.695  27.207  36.218  1.00  0.00    -0.203 F 
ATOM     86  C   UNL A   1      45.023  27.155  36.567  1.00  0.00     0.198 A 
ATOM     87  C   UNL A   1      46.444  28.723  35.433  1.00  0.00     0.198 A 
ATOM     88  F   UNL A   1      45.508  30.336  33.999  1.00  0.00    -0.203 F 
ATOM     89  F   UNL A   1      44.871  26.142  37.431  1.00  0.00    -0.200 F 
ATOM     90  C   UNL A   1      46.290  27.657  36.305  1.00  0.00     0.200 A 
ATOM     91  F   UNL A   1      47.668  29.201  35.170  1.00  0.00    -0.200 F 
ATOM     92  F   UNL A   1      47.362  27.116  36.900  1.00  0.00    -0.200 F 
ENDBRANCH  59  82
ENDBRANCH  33  34
ENDBRANCH  25  28
ENDBRANCH  23  24
ENDBRANCH  22  23
ENDBRANCH   1  22
TORSDOF 14
ENDMDL
MODEL 2
REMARK VINA RESULT:     -11.7      1.860      8.008
REMARK SMILES [NH3+][C@@H]1C(=O)N2C(C(=O)NCCCCCCNC(=O)c3ccc(-c4c5nc(c(-c6c(F)c(F)c(F)c(F)c6F)c6ccc([nH]6)c(-c6c(F)c(F)c(F)c(F)c6F)c6nc(c(-c7c(F)c(F)c(F)c(F)c7F)c7ccc4[nH]7)C=C6)C=C5)cc3)=CCS[C@@H]12
REMARK SMILES IDX 13 1 12 2 11 3 10 4 9 5 7 6 8 7 6 9 2 10 3 11 85 12 4 13
REMARK SMILES IDX 5 14 84 15 83 16 82 17 1 18 14 22 15 23 16 24 17 25 18 27
REMARK SMILES IDX 19 28 20 29 81 30 21 31 80 32 22 33 23 34 24 35 74 36 25 37
REMARK SMILES IDX 79 38 73 39 75 40 26 41 78 42 72 43 71 44 27 46 59 47 39 48
REMARK SMILES IDX 58 49 40 50 43 51 57 52 76 53 41 54 42 55 56 57 77 58 44 59
REMARK SMILES IDX 28 60 29 61 37 62 30 63 31 64 35 65 38 66 32 67 33 68 36 69
REMARK SMILES IDX 34 70 60 71 61 72 69 73 62 74 63 75 67 76 70 77 64 78 65 79
REMARK SMILES IDX 68 80 66 81 45 82 46 83 54 84 47 85 48 86 52 87 55 88 49 89
REMARK SMILES IDX 50 90 53 91 51 92
REMARK H PARENT 9 8 1 19 1 20 1 21 16 26 75 45 43 56
REMARK Flexibility Score: inf
ROOT
ATOM      1  C   UNL A   1      34.566  33.826  28.792  1.00  0.00     0.002 C 
ENDROOT
BRANCH   1   2
ATOM      2  C   UNL A   1      34.425  32.317  29.030  1.00  0.00     0.002 C 
BRANCH   2   3
ATOM      3  C   UNL A   1      35.176  31.427  28.026  1.00  0.00     0.021 C 
BRANCH   3   4
ATOM      4  C   UNL A   1      34.340  30.253  27.503  1.00  0.00     0.116 C 
BRANCH   4   5
ATOM      5  N   UNL A   1      33.037  30.733  27.086  1.00  0.00    -0.351 N 
ATOM      6  C   UNL A   1      32.195  30.396  26.070  1.00  0.00     0.267 C 
ATOM      7  O   UNL A   1      31.254  31.158  25.852  1.00  0.00    -0.268 OA
ATOM      8  H   UNL A   1      32.686  31.455  27.658  1.00  0.00     0.163 HD
BRANCH   6   9
ATOM      9  C   UNL A   1      32.370  29.150  25.239  1.00  0.00     0.107 C 
ATOM     10  C   UNL A   1      31.325  26.054  26.257  1.00  0.00     0.305 C 
ATOM     11  C   UNL A   1      31.503  27.461  26.938  1.00  0.00     0.289 C 
ATOM     12  C   UNL A   1      31.590  26.832  24.937  1.00  0.00     0.217 C 
ATOM     13  O   UNL A   1      31.416  27.887  28.065  1.00  0.00    -0.267 OA
ATOM     14  N   UNL A   1      31.927  27.975  25.762  1.00  0.00    -0.283 N 
ATOM     15  S   UNL A   1      33.084  26.359  24.027  1.00  0.00    -0.126 SA
ATOM     16  C   UNL A   1      33.162  27.940  23.134  1.00  0.00     0.101 C 
ATOM     17  C   UNL A   1      32.859  29.149  23.982  1.00  0.00     0.016 C 
BRANCH  10  18
ATOM     18  N   UNL A   1      29.944  25.521  26.242  1.00  0.00    -0.345 N 
ATOM     19  H   UNL A   1      29.865  24.760  26.916  1.00  0.00     0.345 HD
ATOM     20  H   UNL A   1      29.724  25.172  25.309  1.00  0.00     0.345 HD
ATOM     21  H   UNL A   1      29.290  26.264  26.491  1.00  0.00     0.345 HD
ENDBRANCH  10  18
ENDBRANCH   6   9
ENDBRANCH   4   5
ENDBRANCH   3   4
ENDBRANCH   2   3
ENDBRANCH   1   2
BRANCH   1  22
ATOM     22  C   UNL A   1      33.258  34.619  28.846  1.00  0.00     0.021 C 
BRANCH  22  23
ATOM     23  C   UNL A   1      33.404  36.049  29.356  1.00  0.00     0.116 C 
BRANCH  23  24
ATOM     24  N   UNL A   1      32.532  36.315  30.488  1.00  0.00    -0.352 N 
ATOM     25  C   UNL A   1      32.601  35.830  31.770  1.00  0.00     0.251 C 
ATOM     26  H   UNL A   1      31.786  36.933  30.310  1.00  0.00     0.163 HD
ATOM     27  O   UNL A   1      31.669  35.998  32.550  1.00  0.00    -0.269 OA
BRANCH  25  28
ATOM     28  C   UNL A   1      33.801  35.086  32.212  1.00  0.00     0.039 A 
ATOM     29  C   UNL A   1      33.654  33.776  32.676  1.00  0.00     0.014 A 
ATOM     30  C   UNL A   1      35.063  35.688  32.188  1.00  0.00     0.014 A 
ATOM     31  C   UNL A   1      34.781  33.050  33.066  1.00  0.00     0.010 A 
ATOM     32  C   UNL A   1      36.191  34.941  32.515  1.00  0.00     0.010 A 
ATOM     33  C   UNL A   1      36.061  33.617  32.964  1.00  0.00    -0.014 A 
BRANCH  33  34
ATOM     34  C   UNL A   1      37.278  32.856  33.342  1.00  0.00     0.031 A 
ATOM     35  C   UNL A   1      37.971  33.150  34.642  1.00  0.00     0.074 A 
ATOM     36  C   UNL A   1      37.796  31.955  32.488  1.00  0.00     0.049 A 
ATOM     37  N   UNL A   1      39.094  32.668  35.111  1.00  0.00    -0.248 NA
ATOM     38  C   UNL A   1      37.330  34.141  35.521  1.00  0.00     0.031 C 
ATOM     39  C   UNL A   1      37.234  31.607  31.182  1.00  0.00     0.029 A 
ATOM     40  N   UNL A   1      38.922  31.175  32.585  1.00  0.00    -0.354 N 
ATOM     41  C   UNL A   1      39.302  33.309  36.326  1.00  0.00     0.074 A 
ATOM     42  C   UNL A   1      38.217  34.252  36.497  1.00  0.00     0.031 C 
ATOM     43  C   UNL A   1      38.005  30.669  30.609  1.00  0.00     0.029 A 
ATOM     44  C   UNL A   1      39.134  30.377  31.489  1.00  0.00     0.049 A 
ATOM     45  H   UNL A   1      39.519  31.187  33.368  1.00  0.00     0.167 HD
ATOM     46  C   UNL A   1      40.293  33.113  37.227  1.00  0.00     0.037 A 
ATOM     47  C   UNL A   1      40.132  29.514  31.221  1.00  0.00     0.037 A 
ATOM     48  C   UNL A   1      41.356  32.156  37.065  1.00  0.00     0.049 A 
ATOM     49  C   UNL A   1      41.229  29.321  32.232  1.00  0.00     0.074 A 
ATOM     50  C   UNL A   1      42.380  31.844  37.942  1.00  0.00     0.029 A 
ATOM     51  N   UNL A   1      41.530  31.354  35.946  1.00  0.00    -0.354 N 
ATOM     52  N   UNL A   1      41.387  29.893  33.401  1.00  0.00    -0.248 NA
ATOM     53  C   UNL A   1      42.284  28.357  31.889  1.00  0.00     0.031 C 
ATOM     54  C   UNL A   1      43.196  30.883  37.336  1.00  0.00     0.029 A 
ATOM     55  C   UNL A   1      42.654  30.561  36.102  1.00  0.00     0.049 A 
ATOM     56  H   UNL A   1      40.939  31.349  35.157  1.00  0.00     0.167 HD
ATOM     57  C   UNL A   1      42.537  29.339  33.946  1.00  0.00     0.074 A 
ATOM     58  C   UNL A   1      43.033  28.378  32.982  1.00  0.00     0.031 C 
ATOM     59  C   UNL A   1      43.128  29.600  35.138  1.00  0.00     0.037 A 
BRANCH  46  60
ATOM     60  C   UNL A   1      40.272  33.954  38.471  1.00  0.00     0.064 A 
ATOM     61  C   UNL A   1      39.531  33.577  39.602  1.00  0.00     0.173 A 
ATOM     62  C   UNL A   1      41.009  35.146  38.539  1.00  0.00     0.173 A 
ATOM     63  F   UNL A   1      38.799  32.453  39.585  1.00  0.00    -0.203 F 
ATOM     64  C   UNL A   1      39.501  34.379  40.740  1.00  0.00     0.198 A 
ATOM     65  C   UNL A   1      41.002  35.929  39.690  1.00  0.00     0.198 A 
ATOM     66  F   UNL A   1      41.738  35.551  37.488  1.00  0.00    -0.203 F 
ATOM     67  F   UNL A   1      38.740  34.027  41.786  1.00  0.00    -0.200 F 
ATOM     68  C   UNL A   1      40.240  35.551  40.786  1.00  0.00     0.200 A 
ATOM     69  F   UNL A   1      41.726  37.056  39.737  1.00  0.00    -0.200 F 
ATOM     70  F   UNL A   1      40.211  36.321  41.882  1.00  0.00    -0.200 F 
ENDBRANCH  46  60
BRANCH  47  71
ATOM     71  C   UNL A   1      40.119  28.740  29.953  1.00  0.00     0.064 A 
ATOM     72  C   UNL A   1      40.708  29.260  28.792  1.00  0.00     0.173 A 
ATOM     73  C   UNL A   1      39.528  27.471  29.874  1.00  0.00     0.173 A 
ATOM     74  F   UNL A   1      41.267  30.479  28.814  1.00  0.00    -0.203 F 
ATOM     75  C   UNL A   1      40.696  28.545  27.596  1.00  0.00     0.198 A 
ATOM     76  C   UNL A   1      39.539  26.746  28.684  1.00  0.00     0.198 A 
ATOM     77  F   UNL A   1      38.955  26.928  30.958  1.00  0.00    -0.203 F 
ATOM     78  F   UNL A   1      41.233  29.081  26.492  1.00  0.00    -0.200 F 
ATOM     79  C   UNL A   1      40.117  27.286  27.545  1.00  0.00     0.200 A 
ATOM     80  F   UNL A   1      38.990  25.524  28.641  1.00  0.00    -0.200 F 
ATOM     81  F   UNL A   1      40.111  26.597  26.396  1.00  0.00    -0.200 F 
ENDBRANCH  47  71
BRANCH  59  82
ATOM     82  C   UNL A   1      44.353  28.808  35.487  1.00  0.00     0.064 A 
ATOM     83  C   UNL A   1      44.271  27.591  36.179  1.00  0.00     0.173 A 
ATOM     84  C   UNL A   1      45.621  29.251  35.083  1.00  0.00     0.173 A 
ATOM     85  F   UNL A   1      43.082  27.133  36.600  1.00  0.00    -0.203 F 
ATOM     86  C   UNL A   1      45.417  26.858  36.473  1.00  0.00     0.198 A 
ATOM     87  C   UNL A   1      46.762  28.501  35.353  1.00  0.00     0.198 A 
ATOM     88  F   UNL A   1      45.752  30.405  34.412  1.00  0.00    -0.203 F 
ATOM     89  F   UNL A   1      45.321  25.719  37.174  1.00  0.00    -0.200 F 
ATOM     90  C   UNL A   1      46.661  27.309  36.054  1.00  0.00     0.200 A 
ATOM     91  F   UNL A   1      47.961  28.933  34.937  1.00  0.00    -0.200 F 
ATOM     92  F   UNL A   1      47.761  26.598  36.332  1.00  0.00    -0.200 F 
ENDBRANCH  59  82
ENDBRANCH  33  34
ENDBRANCH  25  28
ENDBRANCH  23  24
ENDBRANCH  22  23
ENDBRANCH   1  22
TORSDOF 14
ENDMDL
MODEL 3
REMARK VINA RESULT:     -11.7      0.894      2.482
REMARK SMILES [NH3+][C@@H]1C(=O)N2C(C(=O)NCCCCCCNC(=O)c3ccc(-c4c5nc(c(-c6c(F)c(F)c(F)c(F)c6F)c6ccc([nH]6)c(-c6c(F)c(F)c(F)c(F)c6F)c6nc(c(-c7c(F)c(F)c(F)c(F)c7F)c7ccc4[nH]7)C=C6)C=C5)cc3)=CCS[C@@H]12
REMARK SMILES IDX 13 1 12 2 11 3 10 4 9 5 7 6 8 7 6 9 2 10 3 11 85 12 4 13
REMARK SMILES IDX 5 14 84 15 83 16 82 17 1 18 14 22 15 23 16 24 17 25 18 27
REMARK SMILES IDX 19 28 20 29 81 30 21 31 80 32 22 33 23 34 24 35 74 36 25 37
REMARK SMILES IDX 79 38 73 39 75 40 26 41 78 42 72 43 71 44 27 46 59 47 39 48
REMARK SMILES IDX 58 49 40 50 43 51 57 52 76 53 41 54 42 55 56 57 77 58 44 59
REMARK SMILES IDX 28 60 29 61 37 62 30 63 31 64 35 65 38 66 32 67 33 68 36 69
REMARK SMILES IDX 34 70 60 71 61 72 69 73 62 74 63 75 67 76 70 77 64 78 65 79
REMARK SMILES IDX 68 80 66 81 45 82 46 83 54 84 47 85 48 86 52 87 55 88 49 89
REMARK SMILES IDX 50 90 53 91 51 92
REMARK H PARENT 9 8 1 19 1 20 1 21 16 26 75 45 43 56
REMARK Flexibility Score: inf
ROOT
ATOM      1  C   UNL A   1      31.493  30.821  26.001  1.00  0.00     0.002 C 
ENDROOT
BRANCH   1   2
ATOM      2  C   UNL A   1      32.417  29.936  26.849  1.00  0.00     0.002 C 
BRANCH   2   3
ATOM      3  C   UNL A   1      31.777  28.638  27.368  1.00  0.00     0.021 C 
BRANCH   3   4
ATOM      4  C   UNL A   1      32.329  27.373  26.700  1.00  0.00     0.116 C 
BRANCH   4   5
ATOM      5  N   UNL A   1      31.387  26.283  26.876  1.00  0.00    -0.351 N 
ATOM      6  C   UNL A   1      31.285  25.038  26.334  1.00  0.00     0.267 C 
ATOM      7  O   UNL A   1      30.228  24.435  26.525  1.00  0.00    -0.268 OA
ATOM      8  H   UNL A   1      30.674  26.486  27.523  1.00  0.00     0.163 HD
BRANCH   6   9
ATOM      9  C   UNL A   1      32.394  24.393  25.543  1.00  0.00     0.107 C 
ATOM     10  C   UNL A   1      33.973  21.519  26.527  1.00  0.00     0.305 C 
ATOM     11  C   UNL A   1      32.983  22.544  27.194  1.00  0.00     0.289 C 
ATOM     12  C   UNL A   1      33.651  22.297  25.220  1.00  0.00     0.217 C 
ATOM     13  O   UNL A   1      32.528  22.700  28.302  1.00  0.00    -0.267 OA
ATOM     14  N   UNL A   1      32.953  23.260  26.049  1.00  0.00    -0.283 N 
ATOM     15  S   UNL A   1      35.047  23.155  24.446  1.00  0.00    -0.126 SA
ATOM     16  C   UNL A   1      33.968  24.299  23.534  1.00  0.00     0.101 C 
ATOM     17  C   UNL A   1      32.801  24.823  24.332  1.00  0.00     0.016 C 
BRANCH  10  18
ATOM     18  N   UNL A   1      33.471  20.131  26.407  1.00  0.00    -0.345 N 
ATOM     19  H   UNL A   1      32.506  20.145  26.079  1.00  0.00     0.345 HD
ATOM     20  H   UNL A   1      33.514  19.674  27.317  1.00  0.00     0.345 HD
ATOM     21  H   UNL A   1      34.049  19.618  25.741  1.00  0.00     0.345 HD
ENDBRANCH  10  18
ENDBRANCH   6   9
ENDBRANCH   4   5
ENDBRANCH   3   4
ENDBRANCH   2   3
ENDBRANCH   1   2
BRANCH   1  22
ATOM     22  C   UNL A   1      31.326  32.256  26.505  1.00  0.00     0.021 C 
BRANCH  22  23
ATOM     23  C   UNL A   1      32.535  32.811  27.251  1.00  0.00     0.116 C 
BRANCH  23  24
ATOM     24  N   UNL A   1      32.353  34.204  27.625  1.00  0.00    -0.352 N 
ATOM     25  C   UNL A   1      32.970  34.924  28.617  1.00  0.00     0.251 C 
ATOM     26  H   UNL A   1      31.692  34.702  27.091  1.00  0.00     0.163 HD
ATOM     27  O   UNL A   1      32.554  36.035  28.930  1.00  0.00    -0.269 OA
BRANCH  25  28
ATOM     28  C   UNL A   1      34.136  34.353  29.326  1.00  0.00     0.039 A 
ATOM     29  C   UNL A   1      33.933  33.674  30.530  1.00  0.00     0.014 A 
ATOM     30  C   UNL A   1      35.428  34.505  28.812  1.00  0.00     0.014 A 
ATOM     31  C   UNL A   1      35.019  33.101  31.194  1.00  0.00     0.010 A 
ATOM     32  C   UNL A   1      36.500  33.878  29.440  1.00  0.00     0.010 A 
ATOM     33  C   UNL A   1      36.307  33.176  30.641  1.00  0.00    -0.014 A 
BRANCH  33  34
ATOM     34  C   UNL A   1      37.475  32.549  31.310  1.00  0.00     0.031 A 
ATOM     35  C   UNL A   1      38.215  31.431  30.632  1.00  0.00     0.074 A 
ATOM     36  C   UNL A   1      37.822  32.936  32.551  1.00  0.00     0.049 A 
ATOM     37  N   UNL A   1      39.195  30.690  31.085  1.00  0.00    -0.248 NA
ATOM     38  C   UNL A   1      37.777  31.080  29.272  1.00  0.00     0.031 C 
ATOM     39  C   UNL A   1      37.159  33.985  33.326  1.00  0.00     0.029 A 
ATOM     40  N   UNL A   1      38.813  32.481  33.385  1.00  0.00    -0.354 N 
ATOM     41  C   UNL A   1      39.476  29.777  30.076  1.00  0.00     0.074 A 
ATOM     42  C   UNL A   1      38.529  30.022  29.010  1.00  0.00     0.031 C 
ATOM     43  C   UNL A   1      37.774  34.108  34.513  1.00  0.00     0.029 A 
ATOM     44  C   UNL A   1      38.849  33.123  34.598  1.00  0.00     0.049 A 
ATOM     45  H   UNL A   1      39.439  31.763  33.136  1.00  0.00     0.167 HD
ATOM     46  C   UNL A   1      40.449  28.837  30.034  1.00  0.00     0.037 A 
ATOM     47  C   UNL A   1      39.653  32.931  35.660  1.00  0.00     0.037 A 
ATOM     48  C   UNL A   1      41.404  28.613  31.087  1.00  0.00     0.049 A 
ATOM     49  C   UNL A   1      40.719  31.872  35.594  1.00  0.00     0.074 A 
ATOM     50  C   UNL A   1      42.460  27.720  31.120  1.00  0.00     0.029 A 
ATOM     51  N   UNL A   1      41.418  29.294  32.295  1.00  0.00    -0.354 N 
ATOM     52  N   UNL A   1      41.010  31.050  34.615  1.00  0.00    -0.248 NA
ATOM     53  C   UNL A   1      41.573  31.717  36.781  1.00  0.00     0.031 C 
ATOM     54  C   UNL A   1      43.088  27.831  32.366  1.00  0.00     0.029 A 
ATOM     55  C   UNL A   1      42.453  28.828  33.090  1.00  0.00     0.049 A 
ATOM     56  H   UNL A   1      40.785  30.005  32.551  1.00  0.00     0.167 HD
ATOM     57  C   UNL A   1      42.096  30.304  35.052  1.00  0.00     0.074 A 
ATOM     58  C   UNL A   1      42.419  30.777  36.382  1.00  0.00     0.031 C 
ATOM     59  C   UNL A   1      42.767  29.318  34.408  1.00  0.00     0.037 A 
BRANCH  46  60
ATOM     60  C   UNL A   1      40.523  27.977  28.805  1.00  0.00     0.064 A 
ATOM     61  C   UNL A   1      39.825  26.762  28.713  1.00  0.00     0.173 A 
ATOM     62  C   UNL A   1      41.292  28.375  27.701  1.00  0.00     0.173 A 
ATOM     63  F   UNL A   1      39.085  26.330  29.745  1.00  0.00    -0.203 F 
ATOM     64  C   UNL A   1      39.921  25.963  27.578  1.00  0.00     0.198 A 
ATOM     65  C   UNL A   1      41.361  27.587  26.554  1.00  0.00     0.198 A 
ATOM     66  F   UNL A   1      41.976  29.528  27.733  1.00  0.00    -0.203 F 
ATOM     67  F   UNL A   1      39.292  24.780  27.537  1.00  0.00    -0.200 F 
ATOM     68  C   UNL A   1      40.685  26.378  26.497  1.00  0.00     0.200 A 
ATOM     69  F   UNL A   1      42.090  27.996  25.505  1.00  0.00    -0.200 F 
ATOM     70  F   UNL A   1      40.777  25.608  25.404  1.00  0.00    -0.200 F 
ENDBRANCH  46  60
BRANCH  47  71
ATOM     71  C   UNL A   1      39.502  33.787  36.865  1.00  0.00     0.064 A 
ATOM     72  C   UNL A   1      40.143  35.031  36.943  1.00  0.00     0.173 A 
ATOM     73  C   UNL A   1      38.714  33.388  37.954  1.00  0.00     0.173 A 
ATOM     74  F   UNL A   1      40.924  35.446  35.935  1.00  0.00    -0.203 F 
ATOM     75  C   UNL A   1      40.014  35.839  38.071  1.00  0.00     0.198 A 
ATOM     76  C   UNL A   1      38.564  34.208  39.071  1.00  0.00     0.198 A 
ATOM     77  F   UNL A   1      38.076  32.209  37.926  1.00  0.00    -0.203 F 
ATOM     78  F   UNL A   1      40.668  37.006  38.136  1.00  0.00    -0.200 F 
ATOM     79  C   UNL A   1      39.219  35.429  39.131  1.00  0.00     0.200 A 
ATOM     80  F   UNL A   1      37.785  33.815  40.089  1.00  0.00    -0.200 F 
ATOM     81  F   UNL A   1      39.089  36.209  40.213  1.00  0.00    -0.200 F 
ENDBRANCH  47  71
BRANCH  59  82
ATOM     82  C   UNL A   1      43.944  28.712  35.114  1.00  0.00     0.064 A 
ATOM     83  C   UNL A   1      45.237  29.237  34.977  1.00  0.00     0.173 A 
ATOM     84  C   UNL A   1      43.766  27.619  35.976  1.00  0.00     0.173 A 
ATOM     85  F   UNL A   1      45.461  30.272  34.152  1.00  0.00    -0.203 F 
ATOM     86  C   UNL A   1      46.313  28.676  35.659  1.00  0.00     0.198 A 
ATOM     87  C   UNL A   1      44.839  27.078  36.679  1.00  0.00     0.198 A 
ATOM     88  F   UNL A   1      42.548  27.085  36.147  1.00  0.00    -0.203 F 
ATOM     89  F   UNL A   1      47.548  29.165  35.479  1.00  0.00    -0.200 F 
ATOM     90  C   UNL A   1      46.112  27.602  36.515  1.00  0.00     0.200 A 
ATOM     91  F   UNL A   1      44.641  26.050  37.514  1.00  0.00    -0.200 F 
ATOM     92  F   UNL A   1      47.148  27.069  37.176  1.00  0.00    -0.200 F 
ENDBRANCH  59  82
ENDBRANCH  33  34
ENDBRANCH  25  28
ENDBRANCH  23  24
ENDBRANCH  22  23
ENDBRANCH   1  22
TORSDOF 14
ENDMDL
