MODEL 1
REMARK VINA RESULT:     -11.0      0.000      0.000
REMARK SMILES CCC[C@H](Cn1c(C)cc(=O)cc1C)C(=O)NCCCCCCNC(=O)c1ccc(-c2c3nc(c(-c4c(F)c(F)c(F)c(F)c4F)c4ccc([nH]4)c(-c4c(F)c(F)c(F)c(F)c4F)c4nc(c(-c5c(F)c(F)c(F)c(F)c5F)c5ccc2[nH]5)C=C4)C=C3)cc1
REMARK SMILES IDX 20 1 19 2 18 3 17 4 15 5 16 6 4 8 3 9 2 10 1 11 5 12 6 13
REMARK SMILES IDX 7 14 13 15 8 16 9 17 12 18 14 19 10 20 11 21 21 22 22 23
REMARK SMILES IDX 23 24 24 25 25 26 26 28 27 29 28 30 89 31 29 32 88 33 30 34
REMARK SMILES IDX 31 35 32 36 82 37 33 38 87 39 81 40 83 41 34 42 86 43 80 44
REMARK SMILES IDX 79 45 35 47 67 48 47 49 66 50 48 51 51 52 65 53 84 54 49 55
REMARK SMILES IDX 50 56 64 58 85 59 52 60 36 61 37 62 45 63 38 64 39 65 43 66
REMARK SMILES IDX 46 67 40 68 41 69 44 70 42 71 68 72 69 73 77 74 70 75 71 76
REMARK SMILES IDX 75 77 78 78 72 79 73 80 76 81 74 82 53 83 54 84 62 85 55 86
REMARK SMILES IDX 56 87 60 88 63 89 57 90 58 91 61 92 59 93
REMARK H PARENT 17 7 24 27 83 46 51 57
REMARK Flexibility Score: inf
ROOT
ATOM      1  C   UNL A   1      31.748  29.327  27.033  1.00  0.00     0.002 C 
ENDROOT
BRANCH   1   2
ATOM      2  C   UNL A   1      33.013  28.488  26.864  1.00  0.00     0.021 C 
BRANCH   2   3
ATOM      3  C   UNL A   1      32.800  27.131  26.192  1.00  0.00     0.116 C 
BRANCH   3   4
ATOM      4  N   UNL A   1      31.591  26.497  26.675  1.00  0.00    -0.356 N 
ATOM      5  C   UNL A   1      30.504  26.041  25.996  1.00  0.00     0.224 C 
ATOM      6  O   UNL A   1      29.559  25.609  26.663  1.00  0.00    -0.275 OA
ATOM      7  H   UNL A   1      31.549  26.377  27.651  1.00  0.00     0.163 HD
BRANCH   5   8
ATOM      8  C   UNL A   1      30.430  26.043  24.469  1.00  0.00     0.098 C 
BRANCH   8   9
ATOM      9  C   UNL A   1      29.217  26.844  23.950  1.00  0.00     0.015 C 
BRANCH   9  10
ATOM     10  C   UNL A   1      29.553  28.006  23.001  1.00  0.00    -0.003 C 
ATOM     11  C   UNL A   1      31.044  28.286  22.883  1.00  0.00     0.004 C 
ENDBRANCH   9  10
ENDBRANCH   8   9
BRANCH   8  12
ATOM     12  C   UNL A   1      30.698  24.615  23.910  1.00  0.00     0.135 C 
BRANCH  12  13
ATOM     13  N   UNL A   1      32.097  24.116  24.056  1.00  0.00    -0.348 N 
ATOM     14  C   UNL A   1      32.445  23.217  25.095  1.00  0.00     0.018 A 
ATOM     15  C   UNL A   1      33.147  24.597  23.234  1.00  0.00     0.018 A 
ATOM     16  C   UNL A   1      31.404  22.327  25.730  1.00  0.00     0.064 C 
ATOM     17  C   UNL A   1      33.706  23.134  25.562  1.00  0.00     0.073 A 
ATOM     18  C   UNL A   1      34.430  24.575  23.642  1.00  0.00     0.073 A 
ATOM     19  C   UNL A   1      32.884  25.059  21.820  1.00  0.00     0.064 C 
ATOM     20  C   UNL A   1      34.758  23.953  24.937  1.00  0.00     0.182 A 
ATOM     21  O   UNL A   1      35.875  24.057  25.429  1.00  0.00    -0.290 OA
ENDBRANCH  12  13
ENDBRANCH   8  12
ENDBRANCH   5   8
ENDBRANCH   3   4
ENDBRANCH   2   3
ENDBRANCH   1   2
BRANCH   1  22
ATOM     22  C   UNL A   1      31.532  30.411  25.970  1.00  0.00     0.002 C 
BRANCH  22  23
ATOM     23  C   UNL A   1      31.375  31.845  26.488  1.00  0.00     0.021 C 
BRANCH  23  24
ATOM     24  C   UNL A   1      32.636  32.484  27.068  1.00  0.00     0.116 C 
BRANCH  24  25
ATOM     25  N   UNL A   1      32.420  33.853  27.500  1.00  0.00    -0.352 N 
ATOM     26  C   UNL A   1      33.041  34.583  28.481  1.00  0.00     0.251 C 
ATOM     27  H   UNL A   1      31.716  34.334  27.009  1.00  0.00     0.163 HD
ATOM     28  O   UNL A   1      32.591  35.678  28.802  1.00  0.00    -0.269 OA
BRANCH  26  29
ATOM     29  C   UNL A   1      34.239  34.058  29.172  1.00  0.00     0.039 A 
ATOM     30  C   UNL A   1      34.057  33.255  30.302  1.00  0.00     0.014 A 
ATOM     31  C   UNL A   1      35.529  34.385  28.746  1.00  0.00     0.014 A 
ATOM     32  C   UNL A   1      35.167  32.732  30.969  1.00  0.00     0.010 A 
ATOM     33  C   UNL A   1      36.634  33.816  29.378  1.00  0.00     0.010 A 
ATOM     34  C   UNL A   1      36.463  32.982  30.494  1.00  0.00    -0.014 A 
BRANCH  34  35
ATOM     35  C   UNL A   1      37.651  32.371  31.142  1.00  0.00     0.031 A 
ATOM     36  C   UNL A   1      38.419  31.284  30.448  1.00  0.00     0.074 A 
ATOM     37  C   UNL A   1      38.003  32.763  32.381  1.00  0.00     0.049 A 
ATOM     38  N   UNL A   1      39.428  30.574  30.886  1.00  0.00    -0.248 NA
ATOM     39  C   UNL A   1      37.986  30.937  29.085  1.00  0.00     0.031 C 
ATOM     40  C   UNL A   1      37.327  33.798  33.162  1.00  0.00     0.029 A 
ATOM     41  N   UNL A   1      39.015  32.332  33.203  1.00  0.00    -0.354 N 
ATOM     42  C   UNL A   1      39.748  29.697  29.859  1.00  0.00     0.074 A 
ATOM     43  C   UNL A   1      38.797  29.930  28.792  1.00  0.00     0.031 C 
ATOM     44  C   UNL A   1      37.953  33.939  34.341  1.00  0.00     0.029 A 
ATOM     45  C   UNL A   1      39.048  32.975  34.416  1.00  0.00     0.049 A 
ATOM     46  H   UNL A   1      39.654  31.629  32.948  1.00  0.00     0.167 HD
ATOM     47  C   UNL A   1      40.759  28.797  29.804  1.00  0.00     0.037 A 
ATOM     48  C   UNL A   1      39.864  32.801  35.473  1.00  0.00     0.037 A 
ATOM     49  C   UNL A   1      41.707  28.574  30.864  1.00  0.00     0.049 A 
ATOM     50  C   UNL A   1      40.950  31.765  35.404  1.00  0.00     0.074 A 
ATOM     51  C   UNL A   1      42.774  27.693  30.896  1.00  0.00     0.029 A 
ATOM     52  N   UNL A   1      41.703  29.239  32.082  1.00  0.00    -0.354 N 
ATOM     53  N   UNL A   1      41.259  30.957  34.419  1.00  0.00    -0.248 NA
ATOM     54  C   UNL A   1      41.805  31.617  36.590  1.00  0.00     0.031 C 
ATOM     55  C   UNL A   1      43.391  27.796  32.146  1.00  0.00     0.029 A 
ATOM     56  C   UNL A   1      42.741  28.779  32.876  1.00  0.00     0.049 A 
ATOM     57  H   UNL A   1      41.058  29.936  32.342  1.00  0.00     0.167 HD
ATOM     58  C   UNL A   1      42.358  30.229  34.852  1.00  0.00     0.074 A 
ATOM     59  C   UNL A   1      42.668  30.696  36.187  1.00  0.00     0.031 C 
ATOM     60  C   UNL A   1      43.047  29.262  34.199  1.00  0.00     0.037 A 
BRANCH  47  61
ATOM     61  C   UNL A   1      40.898  27.983  28.550  1.00  0.00     0.064 A 
ATOM     62  C   UNL A   1      41.709  28.410  27.488  1.00  0.00     0.173 A 
ATOM     63  C   UNL A   1      40.265  26.736  28.431  1.00  0.00     0.173 A 
ATOM     64  F   UNL A   1      42.327  29.599  27.547  1.00  0.00    -0.203 F 
ATOM     65  C   UNL A   1      41.866  27.629  26.346  1.00  0.00     0.198 A 
ATOM     66  C   UNL A   1      40.447  25.945  27.301  1.00  0.00     0.198 A 
ATOM     67  F   UNL A   1      39.482  26.278  29.419  1.00  0.00    -0.203 F 
ATOM     68  F   UNL A   1      42.615  28.075  25.328  1.00  0.00    -0.200 F 
ATOM     69  C   UNL A   1      41.243  26.393  26.257  1.00  0.00     0.200 A 
ATOM     70  F   UNL A   1      39.855  24.744  27.222  1.00  0.00    -0.200 F 
ATOM     71  F   UNL A   1      41.405  25.635  25.164  1.00  0.00    -0.200 F 
ENDBRANCH  47  61
BRANCH  48  72
ATOM     72  C   UNL A   1      39.702  33.662  36.673  1.00  0.00     0.064 A 
ATOM     73  C   UNL A   1      40.321  34.918  36.741  1.00  0.00     0.173 A 
ATOM     74  C   UNL A   1      38.903  33.268  37.758  1.00  0.00     0.173 A 
ATOM     75  F   UNL A   1      41.111  35.328  35.737  1.00  0.00    -0.203 F 
ATOM     76  C   UNL A   1      40.154  35.744  37.850  1.00  0.00     0.198 A 
ATOM     77  C   UNL A   1      38.715  34.107  38.854  1.00  0.00     0.198 A 
ATOM     78  F   UNL A   1      38.287  32.078  37.739  1.00  0.00    -0.203 F 
ATOM     79  F   UNL A   1      40.782  36.926  37.900  1.00  0.00    -0.200 F 
ATOM     80  C   UNL A   1      39.344  35.342  38.901  1.00  0.00     0.200 A 
ATOM     81  F   UNL A   1      37.921  33.722  39.862  1.00  0.00    -0.200 F 
ATOM     82  F   UNL A   1      39.171  36.145  39.960  1.00  0.00    -0.200 F 
ENDBRANCH  48  72
BRANCH  60  83
ATOM     83  C   UNL A   1      44.235  28.664  34.896  1.00  0.00     0.064 A 
ATOM     84  C   UNL A   1      44.123  27.513  35.688  1.00  0.00     0.173 A 
ATOM     85  C   UNL A   1      45.512  29.217  34.717  1.00  0.00     0.173 A 
ATOM     86  F   UNL A   1      42.921  26.954  35.900  1.00  0.00    -0.203 F 
ATOM     87  C   UNL A   1      45.244  26.946  36.289  1.00  0.00     0.198 A 
ATOM     88  C   UNL A   1      46.635  28.632  35.295  1.00  0.00     0.198 A 
ATOM     89  F   UNL A   1      45.675  30.315  33.963  1.00  0.00    -0.203 F 
ATOM     90  F   UNL A   1      45.109  25.866  37.072  1.00  0.00    -0.200 F 
ATOM     91  C   UNL A   1      46.499  27.500  36.084  1.00  0.00     0.200 A 
ATOM     92  F   UNL A   1      47.849  29.160  35.083  1.00  0.00    -0.200 F 
ATOM     93  F   UNL A   1      47.578  26.945  36.652  1.00  0.00    -0.200 F 
ENDBRANCH  60  83
ENDBRANCH  34  35
ENDBRANCH  26  29
ENDBRANCH  24  25
ENDBRANCH  23  24
ENDBRANCH  22  23
ENDBRANCH   1  22
TORSDOF 17
ENDMDL
MODEL 2
REMARK VINA RESULT:     -10.9      0.359      7.318
REMARK SMILES CCC[C@H](Cn1c(C)cc(=O)cc1C)C(=O)NCCCCCCNC(=O)c1ccc(-c2c3nc(c(-c4c(F)c(F)c(F)c(F)c4F)c4ccc([nH]4)c(-c4c(F)c(F)c(F)c(F)c4F)c4nc(c(-c5c(F)c(F)c(F)c(F)c5F)c5ccc2[nH]5)C=C4)C=C3)cc1
REMARK SMILES IDX 20 1 19 2 18 3 17 4 15 5 16 6 4 8 3 9 2 10 1 11 5 12 6 13
REMARK SMILES IDX 7 14 13 15 8 16 9 17 12 18 14 19 10 20 11 21 21 22 22 23
REMARK SMILES IDX 23 24 24 25 25 26 26 28 27 29 28 30 89 31 29 32 88 33 30 34
REMARK SMILES IDX 31 35 32 36 82 37 33 38 87 39 81 40 83 41 34 42 86 43 80 44
REMARK SMILES IDX 79 45 35 47 67 48 47 49 66 50 48 51 51 52 65 53 84 54 49 55
REMARK SMILES IDX 50 56 64 58 85 59 52 60 36 61 37 62 45 63 38 64 39 65 43 66
REMARK SMILES IDX 46 67 40 68 41 69 44 70 42 71 68 72 69 73 77 74 70 75 71 76
REMARK SMILES IDX 75 77 78 78 72 79 73 80 76 81 74 82 53 83 54 84 62 85 55 86
REMARK SMILES IDX 56 87 60 88 63 89 57 90 58 91 61 92 59 93
REMARK H PARENT 17 7 24 27 83 46 51 57
REMARK Flexibility Score: inf
ROOT
ATOM      1  C   UNL A   1      32.396  29.944  26.597  1.00  0.00     0.002 C 
ENDROOT
BRANCH   1   2
ATOM      2  C   UNL A   1      31.831  28.710  27.300  1.00  0.00     0.021 C 
BRANCH   2   3
ATOM      3  C   UNL A   1      32.143  27.381  26.614  1.00  0.00     0.116 C 
BRANCH   3   4
ATOM      4  N   UNL A   1      31.097  26.410  26.862  1.00  0.00    -0.356 N 
ATOM      5  C   UNL A   1      30.284  25.750  25.994  1.00  0.00     0.224 C 
ATOM      6  O   UNL A   1      29.409  25.025  26.476  1.00  0.00    -0.275 OA
ATOM      7  H   UNL A   1      30.951  26.194  27.811  1.00  0.00     0.163 HD
BRANCH   5   8
ATOM      8  C   UNL A   1      30.431  25.872  24.477  1.00  0.00     0.098 C 
BRANCH   8   9
ATOM      9  C   UNL A   1      29.361  26.801  23.865  1.00  0.00     0.015 C 
BRANCH   9  10
ATOM     10  C   UNL A   1      29.833  28.229  23.545  1.00  0.00    -0.003 C 
ATOM     11  C   UNL A   1      31.247  28.293  22.987  1.00  0.00     0.004 C 
ENDBRANCH   9  10
ENDBRANCH   8   9
BRANCH   8  12
ATOM     12  C   UNL A   1      30.683  24.474  23.840  1.00  0.00     0.135 C 
BRANCH  12  13
ATOM     13  N   UNL A   1      32.093  23.986  23.890  1.00  0.00    -0.348 N 
ATOM     14  C   UNL A   1      32.499  23.032  24.857  1.00  0.00     0.018 A 
ATOM     15  C   UNL A   1      33.098  24.529  23.050  1.00  0.00     0.018 A 
ATOM     16  C   UNL A   1      31.499  22.092  25.485  1.00  0.00     0.064 C 
ATOM     17  C   UNL A   1      33.781  22.937  25.258  1.00  0.00     0.073 A 
ATOM     18  C   UNL A   1      34.398  24.499  23.396  1.00  0.00     0.073 A 
ATOM     19  C   UNL A   1      32.763  25.070  21.681  1.00  0.00     0.064 C 
ATOM     20  C   UNL A   1      34.794  23.806  24.634  1.00  0.00     0.182 A 
ATOM     21  O   UNL A   1      35.932  23.895  25.079  1.00  0.00    -0.290 OA
ENDBRANCH  12  13
ENDBRANCH   8  12
ENDBRANCH   5   8
ENDBRANCH   3   4
ENDBRANCH   2   3
ENDBRANCH   1   2
BRANCH   1  22
ATOM     22  C   UNL A   1      31.355  30.869  25.956  1.00  0.00     0.002 C 
BRANCH  22  23
ATOM     23  C   UNL A   1      31.268  32.289  26.526  1.00  0.00     0.021 C 
BRANCH  23  24
ATOM     24  C   UNL A   1      32.570  32.862  27.084  1.00  0.00     0.116 C 
BRANCH  24  25
ATOM     25  N   UNL A   1      32.407  34.204  27.614  1.00  0.00    -0.352 N 
ATOM     26  C   UNL A   1      33.057  34.839  28.641  1.00  0.00     0.251 C 
ATOM     27  H   UNL A   1      31.721  34.746  27.161  1.00  0.00     0.163 HD
ATOM     28  O   UNL A   1      32.650  35.925  29.041  1.00  0.00    -0.269 OA
BRANCH  26  29
ATOM     29  C   UNL A   1      34.235  34.220  29.288  1.00  0.00     0.039 A 
ATOM     30  C   UNL A   1      34.022  33.304  30.324  1.00  0.00     0.014 A 
ATOM     31  C   UNL A   1      35.536  34.567  28.918  1.00  0.00     0.014 A 
ATOM     32  C   UNL A   1      35.111  32.692  30.946  1.00  0.00     0.010 A 
ATOM     33  C   UNL A   1      36.622  33.913  29.500  1.00  0.00     0.010 A 
ATOM     34  C   UNL A   1      36.419  32.968  30.518  1.00  0.00    -0.014 A 
BRANCH  34  35
ATOM     35  C   UNL A   1      37.586  32.268  31.112  1.00  0.00     0.031 A 
ATOM     36  C   UNL A   1      38.093  32.657  32.470  1.00  0.00     0.074 A 
ATOM     37  C   UNL A   1      38.219  31.316  30.401  1.00  0.00     0.049 A 
ATOM     38  N   UNL A   1      39.145  32.221  33.118  1.00  0.00    -0.248 NA
ATOM     39  C   UNL A   1      37.326  33.685  33.192  1.00  0.00     0.031 C 
ATOM     40  C   UNL A   1      37.829  30.861  29.067  1.00  0.00     0.029 A 
ATOM     41  N   UNL A   1      39.328  30.564  30.700  1.00  0.00    -0.354 N 
ATOM     42  C   UNL A   1      39.168  32.921  34.316  1.00  0.00     0.074 A 
ATOM     43  C   UNL A   1      38.053  33.844  34.289  1.00  0.00     0.031 C 
ATOM     44  C   UNL A   1      38.670  29.894  28.669  1.00  0.00     0.029 A 
ATOM     45  C   UNL A   1      39.684  29.690  29.701  1.00  0.00     0.049 A 
ATOM     46  H   UNL A   1      39.821  30.643  31.548  1.00  0.00     0.167 HD
ATOM     47  C   UNL A   1      40.029  32.786  35.354  1.00  0.00     0.037 A 
ATOM     48  C   UNL A   1      40.716  28.829  29.622  1.00  0.00     0.037 A 
ATOM     49  C   UNL A   1      41.132  31.861  35.379  1.00  0.00     0.049 A 
ATOM     50  C   UNL A   1      41.682  28.730  30.769  1.00  0.00     0.074 A 
ATOM     51  C   UNL A   1      42.050  31.643  36.391  1.00  0.00     0.029 A 
ATOM     52  N   UNL A   1      41.465  30.999  34.345  1.00  0.00    -0.354 N 
ATOM     53  N   UNL A   1      41.682  29.379  31.908  1.00  0.00    -0.248 NA
ATOM     54  C   UNL A   1      42.791  27.776  30.623  1.00  0.00     0.031 C 
ATOM     55  C   UNL A   1      42.963  30.678  35.954  1.00  0.00     0.029 A 
ATOM     56  C   UNL A   1      42.583  30.256  34.690  1.00  0.00     0.049 A 
ATOM     57  H   UNL A   1      40.979  30.925  33.492  1.00  0.00     0.167 HD
ATOM     58  C   UNL A   1      42.766  28.894  32.625  1.00  0.00     0.074 A 
ATOM     59  C   UNL A   1      43.399  27.888  31.796  1.00  0.00     0.031 C 
ATOM     60  C   UNL A   1      43.196  29.249  33.860  1.00  0.00     0.037 A 
BRANCH  47  61
ATOM     61  C   UNL A   1      39.811  33.659  36.556  1.00  0.00     0.064 A 
ATOM     62  C   UNL A   1      40.383  34.937  36.644  1.00  0.00     0.173 A 
ATOM     63  C   UNL A   1      38.976  33.241  37.603  1.00  0.00     0.173 A 
ATOM     64  F   UNL A   1      41.198  35.380  35.676  1.00  0.00    -0.203 F 
ATOM     65  C   UNL A   1      40.142  35.756  37.744  1.00  0.00     0.198 A 
ATOM     66  C   UNL A   1      38.714  34.073  38.687  1.00  0.00     0.198 A 
ATOM     67  F   UNL A   1      38.400  32.030  37.566  1.00  0.00    -0.203 F 
ATOM     68  F   UNL A   1      40.730  36.958  37.825  1.00  0.00    -0.200 F 
ATOM     69  C   UNL A   1      39.300  35.328  38.760  1.00  0.00     0.200 A 
ATOM     70  F   UNL A   1      37.888  33.664  39.661  1.00  0.00    -0.200 F 
ATOM     71  F   UNL A   1      39.057  36.122  39.811  1.00  0.00    -0.200 F 
ENDBRANCH  47  61
BRANCH  48  72
ATOM     72  C   UNL A   1      40.859  27.964  28.423  1.00  0.00     0.064 A 
ATOM     73  C   UNL A   1      41.631  28.380  27.330  1.00  0.00     0.173 A 
ATOM     74  C   UNL A   1      40.259  26.697  28.355  1.00  0.00     0.173 A 
ATOM     75  F   UNL A   1      42.207  29.591  27.341  1.00  0.00    -0.203 F 
ATOM     76  C   UNL A   1      41.794  27.565  26.212  1.00  0.00     0.198 A 
ATOM     77  C   UNL A   1      40.444  25.873  27.248  1.00  0.00     0.198 A 
ATOM     78  F   UNL A   1      39.513  26.253  29.376  1.00  0.00    -0.203 F 
ATOM     79  F   UNL A   1      42.513  28.000  25.169  1.00  0.00    -0.200 F 
ATOM     80  C   UNL A   1      41.208  26.308  26.176  1.00  0.00     0.200 A 
ATOM     81  F   UNL A   1      39.888  24.654  27.220  1.00  0.00    -0.200 F 
ATOM     82  F   UNL A   1      41.378  25.519  25.106  1.00  0.00    -0.200 F 
ENDBRANCH  48  72
BRANCH  60  83
ATOM     83  C   UNL A   1      44.385  28.522  34.418  1.00  0.00     0.064 A 
ATOM     84  C   UNL A   1      45.687  29.021  34.275  1.00  0.00     0.173 A 
ATOM     85  C   UNL A   1      44.210  27.344  35.159  1.00  0.00     0.173 A 
ATOM     86  F   UNL A   1      45.908  30.138  33.565  1.00  0.00    -0.203 F 
ATOM     87  C   UNL A   1      46.774  28.358  34.839  1.00  0.00     0.198 A 
ATOM     88  C   UNL A   1      45.294  26.698  35.747  1.00  0.00     0.198 A 
ATOM     89  F   UNL A   1      42.983  26.828  35.331  1.00  0.00    -0.203 F 
ATOM     90  F   UNL A   1      48.014  28.832  34.659  1.00  0.00    -0.200 F 
ATOM     91  C   UNL A   1      46.575  27.203  35.582  1.00  0.00     0.200 A 
ATOM     92  F   UNL A   1      45.099  25.591  36.477  1.00  0.00    -0.200 F 
ATOM     93  F   UNL A   1      47.620  26.573  36.135  1.00  0.00    -0.200 F 
ENDBRANCH  60  83
ENDBRANCH  34  35
ENDBRANCH  26  29
ENDBRANCH  24  25
ENDBRANCH  23  24
ENDBRANCH  22  23
ENDBRANCH   1  22
TORSDOF 17
ENDMDL
MODEL 3
REMARK VINA RESULT:     -10.9      1.871      3.038
REMARK SMILES CCC[C@H](Cn1c(C)cc(=O)cc1C)C(=O)NCCCCCCNC(=O)c1ccc(-c2c3nc(c(-c4c(F)c(F)c(F)c(F)c4F)c4ccc([nH]4)c(-c4c(F)c(F)c(F)c(F)c4F)c4nc(c(-c5c(F)c(F)c(F)c(F)c5F)c5ccc2[nH]5)C=C4)C=C3)cc1
REMARK SMILES IDX 20 1 19 2 18 3 17 4 15 5 16 6 4 8 3 9 2 10 1 11 5 12 6 13
REMARK SMILES IDX 7 14 13 15 8 16 9 17 12 18 14 19 10 20 11 21 21 22 22 23
REMARK SMILES IDX 23 24 24 25 25 26 26 28 27 29 28 30 89 31 29 32 88 33 30 34
REMARK SMILES IDX 31 35 32 36 82 37 33 38 87 39 81 40 83 41 34 42 86 43 80 44
REMARK SMILES IDX 79 45 35 47 67 48 47 49 66 50 48 51 51 52 65 53 84 54 49 55
REMARK SMILES IDX 50 56 64 58 85 59 52 60 36 61 37 62 45 63 38 64 39 65 43 66
REMARK SMILES IDX 46 67 40 68 41 69 44 70 42 71 68 72 69 73 77 74 70 75 71 76
REMARK SMILES IDX 75 77 78 78 72 79 73 80 76 81 74 82 53 83 54 84 62 85 55 86
REMARK SMILES IDX 56 87 60 88 63 89 57 90 58 91 61 92 59 93
REMARK H PARENT 17 7 24 27 83 46 51 57
REMARK Flexibility Score: inf
ROOT
ATOM      1  C   UNL A   1      30.399  27.252  23.409  1.00  0.00     0.002 C 
ENDROOT
BRANCH   1   2
ATOM      2  C   UNL A   1      29.756  26.311  24.428  1.00  0.00     0.021 C 
BRANCH   2   3
ATOM      3  C   UNL A   1      30.433  26.288  25.798  1.00  0.00     0.116 C 
BRANCH   3   4
ATOM      4  N   UNL A   1      30.106  25.075  26.519  1.00  0.00    -0.356 N 
ATOM      5  C   UNL A   1      30.663  23.836  26.457  1.00  0.00     0.224 C 
ATOM      6  O   UNL A   1      30.136  22.943  27.127  1.00  0.00    -0.275 OA
ATOM      7  H   UNL A   1      29.360  25.161  27.154  1.00  0.00     0.163 HD
BRANCH   5   8
ATOM      8  C   UNL A   1      31.898  23.533  25.609  1.00  0.00     0.098 C 
BRANCH   8   9
ATOM      9  C   UNL A   1      31.523  22.988  24.214  1.00  0.00     0.015 C 
BRANCH   9  10
ATOM     10  C   UNL A   1      32.118  23.758  23.024  1.00  0.00    -0.003 C 
ATOM     11  C   UNL A   1      33.350  23.096  22.424  1.00  0.00     0.004 C 
ENDBRANCH   9  10
ENDBRANCH   8   9
BRANCH   8  12
ATOM     12  C   UNL A   1      32.971  22.788  26.455  1.00  0.00     0.135 C 
BRANCH  12  13
ATOM     13  N   UNL A   1      34.323  22.675  25.831  1.00  0.00    -0.348 N 
ATOM     14  C   UNL A   1      34.847  21.413  25.455  1.00  0.00     0.018 A 
ATOM     15  C   UNL A   1      35.172  23.801  25.688  1.00  0.00     0.018 A 
ATOM     16  C   UNL A   1      33.931  20.251  25.154  1.00  0.00     0.064 C 
ATOM     17  C   UNL A   1      36.174  21.200  25.364  1.00  0.00     0.073 A 
ATOM     18  C   UNL A   1      36.510  23.672  25.621  1.00  0.00     0.073 A 
ATOM     19  C   UNL A   1      34.605  25.188  25.499  1.00  0.00     0.064 C 
ATOM     20  C   UNL A   1      37.099  22.321  25.605  1.00  0.00     0.182 A 
ATOM     21  O   UNL A   1      38.307  22.150  25.715  1.00  0.00    -0.290 OA
ENDBRANCH  12  13
ENDBRANCH   8  12
ENDBRANCH   5   8
ENDBRANCH   3   4
ENDBRANCH   2   3
ENDBRANCH   1   2
BRANCH   1  22
ATOM     22  C   UNL A   1      31.262  28.371  24.003  1.00  0.00     0.002 C 
BRANCH  22  23
ATOM     23  C   UNL A   1      32.779  28.165  23.935  1.00  0.00     0.021 C 
BRANCH  23  24
ATOM     24  C   UNL A   1      33.602  28.946  24.959  1.00  0.00     0.116 C 
BRANCH  24  25
ATOM     25  N   UNL A   1      32.906  30.117  25.459  1.00  0.00    -0.352 N 
ATOM     26  C   UNL A   1      33.126  30.870  26.584  1.00  0.00     0.251 C 
ATOM     27  H   UNL A   1      32.155  30.421  24.899  1.00  0.00     0.163 HD
ATOM     28  O   UNL A   1      32.312  31.727  26.913  1.00  0.00    -0.269 OA
BRANCH  26  29
ATOM     29  C   UNL A   1      34.328  30.649  27.418  1.00  0.00     0.039 A 
ATOM     30  C   UNL A   1      34.505  29.397  28.014  1.00  0.00     0.014 A 
ATOM     31  C   UNL A   1      35.250  31.672  27.654  1.00  0.00     0.014 A 
ATOM     32  C   UNL A   1      35.635  29.151  28.795  1.00  0.00     0.010 A 
ATOM     33  C   UNL A   1      36.407  31.409  28.387  1.00  0.00     0.010 A 
ATOM     34  C   UNL A   1      36.611  30.145  28.963  1.00  0.00    -0.014 A 
BRANCH  34  35
ATOM     35  C   UNL A   1      37.857  29.878  29.724  1.00  0.00     0.031 A 
ATOM     36  C   UNL A   1      38.909  28.966  29.164  1.00  0.00     0.074 A 
ATOM     37  C   UNL A   1      38.014  30.421  30.947  1.00  0.00     0.049 A 
ATOM     38  N   UNL A   1      40.021  28.547  29.714  1.00  0.00    -0.248 NA
ATOM     39  C   UNL A   1      38.673  28.440  27.810  1.00  0.00     0.031 C 
ATOM     40  C   UNL A   1      37.058  31.311  31.603  1.00  0.00     0.029 A 
ATOM     41  N   UNL A   1      39.034  30.297  31.857  1.00  0.00    -0.354 N 
ATOM     42  C   UNL A   1      40.614  27.710  28.780  1.00  0.00     0.074 A 
ATOM     43  C   UNL A   1      39.717  27.640  27.645  1.00  0.00     0.031 C 
ATOM     44  C   UNL A   1      37.543  31.672  32.801  1.00  0.00     0.029 A 
ATOM     45  C   UNL A   1      38.825  31.005  33.015  1.00  0.00     0.049 A 
ATOM     46  H   UNL A   1      39.838  29.753  31.695  1.00  0.00     0.167 HD
ATOM     47  C   UNL A   1      41.809  27.076  28.854  1.00  0.00     0.037 A 
ATOM     48  C   UNL A   1      39.577  31.099  34.128  1.00  0.00     0.037 A 
ATOM     49  C   UNL A   1      42.701  27.154  29.982  1.00  0.00     0.049 A 
ATOM     50  C   UNL A   1      40.879  30.351  34.204  1.00  0.00     0.074 A 
ATOM     51  C   UNL A   1      43.939  26.559  30.145  1.00  0.00     0.029 A 
ATOM     52  N   UNL A   1      42.450  27.875  31.141  1.00  0.00    -0.354 N 
ATOM     53  N   UNL A   1      41.441  29.580  33.305  1.00  0.00    -0.248 NA
ATOM     54  C   UNL A   1      41.653  30.488  35.445  1.00  0.00     0.031 C 
ATOM     55  C   UNL A   1      44.420  26.885  31.416  1.00  0.00     0.029 A 
ATOM     56  C   UNL A   1      43.504  27.728  32.027  1.00  0.00     0.049 A 
ATOM     57  H   UNL A   1      41.641  28.412  31.308  1.00  0.00     0.167 HD
ATOM     58  C   UNL A   1      42.645  29.166  33.857  1.00  0.00     0.074 A 
ATOM     59  C   UNL A   1      42.736  29.777  35.167  1.00  0.00     0.031 C 
ATOM     60  C   UNL A   1      43.589  28.353  33.324  1.00  0.00     0.037 A 
BRANCH  47  61
ATOM     61  C   UNL A   1      42.229  26.241  27.679  1.00  0.00     0.064 A 
ATOM     62  C   UNL A   1      43.149  26.720  26.735  1.00  0.00     0.173 A 
ATOM     63  C   UNL A   1      41.755  24.930  27.526  1.00  0.00     0.173 A 
ATOM     64  F   UNL A   1      43.624  27.971  26.829  1.00  0.00    -0.203 F 
ATOM     65  C   UNL A   1      43.565  25.924  25.671  1.00  0.00     0.198 A 
ATOM     66  C   UNL A   1      42.195  24.126  26.478  1.00  0.00     0.198 A 
ATOM     67  F   UNL A   1      40.877  24.421  28.403  1.00  0.00    -0.203 F 
ATOM     68  F   UNL A   1      44.416  26.416  24.760  1.00  0.00    -0.200 F 
ATOM     69  C   UNL A   1      43.095  24.624  25.549  1.00  0.00     0.200 A 
ATOM     70  F   UNL A   1      41.751  22.866  26.369  1.00  0.00    -0.200 F 
ATOM     71  F   UNL A   1      43.507  23.854  24.533  1.00  0.00    -0.200 F 
ENDBRANCH  47  61
BRANCH  48  72
ATOM     72  C   UNL A   1      39.128  31.970  35.245  1.00  0.00     0.064 A 
ATOM     73  C   UNL A   1      39.420  33.341  35.244  1.00  0.00     0.173 A 
ATOM     74  C   UNL A   1      38.374  31.464  36.315  1.00  0.00     0.173 A 
ATOM     75  F   UNL A   1      40.156  33.867  34.253  1.00  0.00    -0.203 F 
ATOM     76  C   UNL A   1      38.981  34.172  36.272  1.00  0.00     0.198 A 
ATOM     77  C   UNL A   1      37.913  32.300  37.328  1.00  0.00     0.198 A 
ATOM     78  F   UNL A   1      38.066  30.160  36.360  1.00  0.00    -0.203 F 
ATOM     79  F   UNL A   1      39.300  35.473  36.260  1.00  0.00    -0.200 F 
ATOM     80  C   UNL A   1      38.220  33.652  37.309  1.00  0.00     0.200 A 
ATOM     81  F   UNL A   1      37.167  31.799  38.322  1.00  0.00    -0.200 F 
ATOM     82  F   UNL A   1      37.785  34.456  38.289  1.00  0.00    -0.200 F 
ENDBRANCH  48  72
BRANCH  60  83
ATOM     83  C   UNL A   1      44.829  28.102  34.133  1.00  0.00     0.064 A 
ATOM     84  C   UNL A   1      45.939  28.956  34.063  1.00  0.00     0.173 A 
ATOM     85  C   UNL A   1      44.880  27.029  35.035  1.00  0.00     0.173 A 
ATOM     86  F   UNL A   1      45.943  29.989  33.207  1.00  0.00    -0.203 F 
ATOM     87  C   UNL A   1      47.062  28.734  34.856  1.00  0.00     0.198 A 
ATOM     88  C   UNL A   1      45.992  26.826  35.846  1.00  0.00     0.198 A 
ATOM     89  F   UNL A   1      43.841  26.187  35.144  1.00  0.00    -0.203 F 
ATOM     90  F   UNL A   1      48.127  29.541  34.747  1.00  0.00    -0.200 F 
ATOM     91  C   UNL A   1      47.084  27.675  35.752  1.00  0.00     0.200 A 
ATOM     92  F   UNL A   1      46.005  25.812  36.723  1.00  0.00    -0.200 F 
ATOM     93  F   UNL A   1      48.161  27.472  36.524  1.00  0.00    -0.200 F 
ENDBRANCH  60  83
ENDBRANCH  34  35
ENDBRANCH  26  29
ENDBRANCH  24  25
ENDBRANCH  23  24
ENDBRANCH  22  23
ENDBRANCH   1  22
TORSDOF 17
ENDMDL
