MODEL 1
REMARK VINA RESULT:     -12.8      0.000      0.000
REMARK SMILES O=C(NCCCCCCNC(=O)c1ccc(-c2c3nc(c(-c4c(F)c(F)c(F)c(F)c4F)c4ccc([nH]4)c(-c4c(F)c(F)c(F)c(F)c4F)c4nc(c(-c5c(F)c(F)c(F)c(F)c5F)c5ccc2[nH]5)C=C4)C=C3)cc1)C1=NN(c2ccc([N+](=O)[O-])cc2)[C@H](c2ccccc2)C1
REMARK SMILES IDX 6 1 5 2 4 3 3 4 1 5 2 6 76 8 77 9 95 10 78 11 88 12 79 13
REMARK SMILES IDX 80 14 87 15 81 16 86 17 82 18 83 19 84 20 85 21 89 22 90 23
REMARK SMILES IDX 94 24 91 25 93 26 92 27 7 28 8 29 9 30 10 31 11 32 12 34
REMARK SMILES IDX 13 35 14 36 75 37 15 38 74 39 16 40 17 41 18 42 68 43 19 44
REMARK SMILES IDX 73 45 67 46 69 47 20 48 72 49 66 50 65 51 21 53 53 54 33 55
REMARK SMILES IDX 52 56 34 57 37 58 51 59 70 60 35 61 36 62 50 64 71 65 38 66
REMARK SMILES IDX 22 67 23 68 31 69 24 70 25 71 29 72 32 73 26 74 27 75 30 76
REMARK SMILES IDX 28 77 54 78 55 79 63 80 56 81 57 82 61 83 64 84 58 85 59 86
REMARK SMILES IDX 62 87 60 88 39 89 40 90 48 91 41 92 42 93 46 94 49 95 43 96
REMARK SMILES IDX 44 97 47 98 45 99
REMARK H PARENT 3 7 10 33 69 52 37 63
REMARK Flexibility Score: inf
ROOT
ATOM      1  C   UNL A   1      33.564  22.051  23.824  1.00  0.00     0.002 C 
ENDROOT
BRANCH   1   2
ATOM      2  C   UNL A   1      33.027  21.309  25.049  1.00  0.00     0.021 C 
BRANCH   2   3
ATOM      3  C   UNL A   1      32.974  22.132  26.332  1.00  0.00     0.116 C 
BRANCH   3   4
ATOM      4  N   UNL A   1      31.634  22.194  26.897  1.00  0.00    -0.351 N 
ATOM      5  O   UNL A   1      29.639  23.195  27.372  1.00  0.00    -0.268 OA
ATOM      6  C   UNL A   1      30.748  23.243  26.848  1.00  0.00     0.267 C 
ATOM      7  H   UNL A   1      31.326  21.387  27.369  1.00  0.00     0.163 HD
BRANCH   6   8
ATOM      8  C   UNL A   1      31.174  24.516  26.177  1.00  0.00     0.128 C 
ATOM      9  N   UNL A   1      31.654  25.525  26.832  1.00  0.00    -0.171 NA
ATOM     10  C   UNL A   1      31.086  24.657  24.695  1.00  0.00     0.096 C 
ATOM     11  N   UNL A   1      31.712  26.548  25.944  1.00  0.00    -0.257 N 
ATOM     12  C   UNL A   1      31.367  26.164  24.563  1.00  0.00     0.144 C 
BRANCH  11  13
ATOM     13  C   UNL A   1      32.376  27.705  26.321  1.00  0.00     0.061 A 
ATOM     14  C   UNL A   1      33.776  27.778  26.281  1.00  0.00     0.035 A 
ATOM     15  C   UNL A   1      31.670  28.806  26.824  1.00  0.00     0.035 A 
ATOM     16  C   UNL A   1      34.454  28.935  26.681  1.00  0.00     0.088 A 
ATOM     17  C   UNL A   1      32.327  29.972  27.224  1.00  0.00     0.088 A 
ATOM     18  C   UNL A   1      33.721  30.034  27.142  1.00  0.00     0.269 A 
BRANCH  18  19
ATOM     19  N   UNL A   1      34.417  31.258  27.551  1.00  0.00     0.062 N 
ATOM     20  O   UNL A   1      33.727  32.245  27.842  1.00  0.00    -0.258 OA
ATOM     21  O   UNL A   1      35.656  31.231  27.587  1.00  0.00    -0.258 OA
ENDBRANCH  18  19
ENDBRANCH  11  13
BRANCH  12  22
ATOM     22  C   UNL A   1      30.242  27.010  23.977  1.00  0.00    -0.023 A 
ATOM     23  C   UNL A   1      28.880  26.680  24.067  1.00  0.00     0.006 A 
ATOM     24  C   UNL A   1      30.581  28.209  23.318  1.00  0.00     0.006 A 
ATOM     25  C   UNL A   1      27.901  27.512  23.513  1.00  0.00     0.000 A 
ATOM     26  C   UNL A   1      29.601  29.061  22.805  1.00  0.00     0.000 A 
ATOM     27  C   UNL A   1      28.259  28.707  22.896  1.00  0.00     0.000 A 
ENDBRANCH  12  22
ENDBRANCH   6   8
ENDBRANCH   3   4
ENDBRANCH   2   3
ENDBRANCH   1   2
BRANCH   1  28
ATOM     28  C   UNL A   1      34.707  23.034  24.097  1.00  0.00     0.002 C 
BRANCH  28  29
ATOM     29  C   UNL A   1      36.098  22.410  24.230  1.00  0.00     0.021 C 
BRANCH  29  30
ATOM     30  C   UNL A   1      36.654  22.355  25.650  1.00  0.00     0.116 C 
BRANCH  30  31
ATOM     31  N   UNL A   1      37.661  21.320  25.815  1.00  0.00    -0.352 N 
ATOM     32  C   UNL A   1      38.987  21.435  26.155  1.00  0.00     0.251 C 
ATOM     33  H   UNL A   1      37.347  20.400  25.661  1.00  0.00     0.163 HD
ATOM     34  O   UNL A   1      39.725  20.456  26.095  1.00  0.00    -0.269 OA
BRANCH  32  35
ATOM     35  C   UNL A   1      39.538  22.743  26.572  1.00  0.00     0.039 A 
ATOM     36  C   UNL A   1      40.506  22.774  27.580  1.00  0.00     0.014 A 
ATOM     37  C   UNL A   1      39.098  23.934  25.989  1.00  0.00     0.014 A 
ATOM     38  C   UNL A   1      41.079  23.992  27.958  1.00  0.00     0.010 A 
ATOM     39  C   UNL A   1      39.719  25.139  26.315  1.00  0.00     0.010 A 
ATOM     40  C   UNL A   1      40.716  25.180  27.303  1.00  0.00    -0.014 A 
BRANCH  40  41
ATOM     41  C   UNL A   1      41.372  26.472  27.631  1.00  0.00     0.031 A 
ATOM     42  C   UNL A   1      42.792  26.732  27.208  1.00  0.00     0.074 A 
ATOM     43  C   UNL A   1      40.710  27.385  28.369  1.00  0.00     0.049 A 
ATOM     44  N   UNL A   1      43.555  27.765  27.459  1.00  0.00    -0.248 NA
ATOM     45  C   UNL A   1      43.449  25.680  26.417  1.00  0.00     0.031 C 
ATOM     46  C   UNL A   1      39.346  27.236  28.876  1.00  0.00     0.029 A 
ATOM     47  N   UNL A   1      41.102  28.619  28.830  1.00  0.00    -0.354 N 
ATOM     48  C   UNL A   1      44.783  27.480  26.878  1.00  0.00     0.074 A 
ATOM     49  C   UNL A   1      44.680  26.159  26.298  1.00  0.00     0.031 C 
ATOM     50  C   UNL A   1      39.005  28.343  29.556  1.00  0.00     0.029 A 
ATOM     51  C   UNL A   1      40.139  29.262  29.568  1.00  0.00     0.049 A 
ATOM     52  H   UNL A   1      41.989  29.006  28.647  1.00  0.00     0.167 HD
ATOM     53  C   UNL A   1      45.891  28.258  26.817  1.00  0.00     0.037 A 
ATOM     54  C   UNL A   1      40.170  30.455  30.193  1.00  0.00     0.037 A 
ATOM     55  C   UNL A   1      45.980  29.587  27.365  1.00  0.00     0.049 A 
ATOM     56  C   UNL A   1      41.418  31.293  30.116  1.00  0.00     0.074 A 
ATOM     57  C   UNL A   1      47.032  30.483  27.285  1.00  0.00     0.029 A 
ATOM     58  N   UNL A   1      44.979  30.208  28.098  1.00  0.00    -0.354 N 
ATOM     59  N   UNL A   1      42.545  31.046  29.495  1.00  0.00    -0.248 NA
ATOM     60  C   UNL A   1      41.396  32.580  30.826  1.00  0.00     0.031 C 
ATOM     61  C   UNL A   1      46.689  31.626  28.014  1.00  0.00     0.029 A 
ATOM     62  C   UNL A   1      45.402  31.465  28.500  1.00  0.00     0.049 A 
ATOM     63  H   UNL A   1      44.100  29.815  28.301  1.00  0.00     0.167 HD
ATOM     64  C   UNL A   1      43.350  32.157  29.708  1.00  0.00     0.074 A 
ATOM     65  C   UNL A   1      42.578  33.086  30.504  1.00  0.00     0.031 C 
ATOM     66  C   UNL A   1      44.616  32.387  29.281  1.00  0.00     0.037 A 
BRANCH  53  67
ATOM     67  C   UNL A   1      47.104  27.697  26.134  1.00  0.00     0.064 A 
ATOM     68  C   UNL A   1      47.270  27.771  24.743  1.00  0.00     0.173 A 
ATOM     69  C   UNL A   1      48.143  27.129  26.888  1.00  0.00     0.173 A 
ATOM     70  F   UNL A   1      46.302  28.296  23.976  1.00  0.00    -0.203 F 
ATOM     71  C   UNL A   1      48.418  27.276  24.129  1.00  0.00     0.198 A 
ATOM     72  C   UNL A   1      49.303  26.663  26.274  1.00  0.00     0.198 A 
ATOM     73  F   UNL A   1      48.040  27.039  28.222  1.00  0.00    -0.203 F 
ATOM     74  F   UNL A   1      48.534  27.320  22.796  1.00  0.00    -0.200 F 
ATOM     75  C   UNL A   1      49.437  26.731  24.896  1.00  0.00     0.200 A 
ATOM     76  F   UNL A   1      50.293  26.149  27.018  1.00  0.00    -0.200 F 
ATOM     77  F   UNL A   1      50.546  26.267  24.305  1.00  0.00    -0.200 F 
ENDBRANCH  53  67
BRANCH  54  78
ATOM     78  C   UNL A   1      38.974  30.947  30.929  1.00  0.00     0.064 A 
ATOM     79  C   UNL A   1      38.025  31.758  30.292  1.00  0.00     0.173 A 
ATOM     80  C   UNL A   1      38.770  30.642  32.281  1.00  0.00     0.173 A 
ATOM     81  F   UNL A   1      38.189  32.096  29.005  1.00  0.00    -0.203 F 
ATOM     82  C   UNL A   1      36.931  32.269  30.988  1.00  0.00     0.198 A 
ATOM     83  C   UNL A   1      37.659  31.128  32.969  1.00  0.00     0.198 A 
ATOM     84  F   UNL A   1      39.646  29.868  32.937  1.00  0.00    -0.203 F 
ATOM     85  F   UNL A   1      36.069  33.087  30.369  1.00  0.00    -0.200 F 
ATOM     86  C   UNL A   1      36.746  31.949  32.324  1.00  0.00     0.200 A 
ATOM     87  F   UNL A   1      37.476  30.806  34.257  1.00  0.00    -0.200 F 
ATOM     88  F   UNL A   1      35.695  32.442  32.994  1.00  0.00    -0.200 F 
ENDBRANCH  54  78
BRANCH  66  89
ATOM     89  C   UNL A   1      45.230  33.713  29.624  1.00  0.00     0.064 A 
ATOM     90  C   UNL A   1      45.079  34.834  28.795  1.00  0.00     0.173 A 
ATOM     91  C   UNL A   1      45.950  33.872  30.818  1.00  0.00     0.173 A 
ATOM     92  F   UNL A   1      44.412  34.731  27.635  1.00  0.00    -0.203 F 
ATOM     93  C   UNL A   1      45.647  36.059  29.137  1.00  0.00     0.198 A 
ATOM     94  C   UNL A   1      46.489  35.105  31.172  1.00  0.00     0.198 A 
ATOM     95  F   UNL A   1      46.119  32.833  31.649  1.00  0.00    -0.203 F 
ATOM     96  F   UNL A   1      45.530  37.104  28.306  1.00  0.00    -0.200 F 
ATOM     97  C   UNL A   1      46.344  36.195  30.328  1.00  0.00     0.200 A 
ATOM     98  F   UNL A   1      47.150  35.238  32.331  1.00  0.00    -0.200 F 
ATOM     99  F   UNL A   1      46.882  37.377  30.659  1.00  0.00    -0.200 F 
ENDBRANCH  66  89
ENDBRANCH  40  41
ENDBRANCH  32  35
ENDBRANCH  30  31
ENDBRANCH  29  30
ENDBRANCH  28  29
ENDBRANCH   1  28
TORSDOF 16
ENDMDL
MODEL 2
REMARK VINA RESULT:     -12.8      1.469      2.145
REMARK SMILES O=C(NCCCCCCNC(=O)c1ccc(-c2c3nc(c(-c4c(F)c(F)c(F)c(F)c4F)c4ccc([nH]4)c(-c4c(F)c(F)c(F)c(F)c4F)c4nc(c(-c5c(F)c(F)c(F)c(F)c5F)c5ccc2[nH]5)C=C4)C=C3)cc1)C1=NN(c2ccc([N+](=O)[O-])cc2)[C@H](c2ccccc2)C1
REMARK SMILES IDX 6 1 5 2 4 3 3 4 1 5 2 6 76 8 77 9 95 10 78 11 88 12 79 13
REMARK SMILES IDX 80 14 87 15 81 16 86 17 82 18 83 19 84 20 85 21 89 22 90 23
REMARK SMILES IDX 94 24 91 25 93 26 92 27 7 28 8 29 9 30 10 31 11 32 12 34
REMARK SMILES IDX 13 35 14 36 75 37 15 38 74 39 16 40 17 41 18 42 68 43 19 44
REMARK SMILES IDX 73 45 67 46 69 47 20 48 72 49 66 50 65 51 21 53 53 54 33 55
REMARK SMILES IDX 52 56 34 57 37 58 51 59 70 60 35 61 36 62 50 64 71 65 38 66
REMARK SMILES IDX 22 67 23 68 31 69 24 70 25 71 29 72 32 73 26 74 27 75 30 76
REMARK SMILES IDX 28 77 54 78 55 79 63 80 56 81 57 82 61 83 64 84 58 85 59 86
REMARK SMILES IDX 62 87 60 88 39 89 40 90 48 91 41 92 42 93 46 94 49 95 43 96
REMARK SMILES IDX 44 97 47 98 45 99
REMARK H PARENT 3 7 10 33 69 52 37 63
REMARK Flexibility Score: inf
ROOT
ATOM      1  C   UNL A   1      33.949  22.303  23.940  1.00  0.00     0.002 C 
ENDROOT
BRANCH   1   2
ATOM      2  C   UNL A   1      33.229  21.497  25.023  1.00  0.00     0.021 C 
BRANCH   2   3
ATOM      3  C   UNL A   1      33.130  22.183  26.382  1.00  0.00     0.116 C 
BRANCH   3   4
ATOM      4  N   UNL A   1      31.770  22.192  26.901  1.00  0.00    -0.351 N 
ATOM      5  O   UNL A   1      29.720  23.112  27.301  1.00  0.00    -0.268 OA
ATOM      6  C   UNL A   1      30.843  23.203  26.814  1.00  0.00     0.267 C 
ATOM      7  H   UNL A   1      31.480  21.376  27.369  1.00  0.00     0.163 HD
BRANCH   6   8
ATOM      8  C   UNL A   1      31.238  24.488  26.148  1.00  0.00     0.128 C 
ATOM      9  N   UNL A   1      31.703  25.503  26.805  1.00  0.00    -0.171 NA
ATOM     10  C   UNL A   1      31.134  24.636  24.667  1.00  0.00     0.096 C 
ATOM     11  N   UNL A   1      31.733  26.532  25.923  1.00  0.00    -0.257 N 
ATOM     12  C   UNL A   1      31.383  26.150  24.542  1.00  0.00     0.144 C 
BRANCH  11  13
ATOM     13  C   UNL A   1      32.377  27.699  26.302  1.00  0.00     0.061 A 
ATOM     14  C   UNL A   1      33.774  27.749  26.410  1.00  0.00     0.035 A 
ATOM     15  C   UNL A   1      31.644  28.840  26.660  1.00  0.00     0.035 A 
ATOM     16  C   UNL A   1      34.430  28.918  26.813  1.00  0.00     0.088 A 
ATOM     17  C   UNL A   1      32.279  30.017  27.060  1.00  0.00     0.088 A 
ATOM     18  C   UNL A   1      33.675  30.054  27.126  1.00  0.00     0.269 A 
BRANCH  18  19
ATOM     19  N   UNL A   1      34.349  31.290  27.535  1.00  0.00     0.062 N 
ATOM     20  O   UNL A   1      33.641  32.242  27.892  1.00  0.00    -0.258 OA
ATOM     21  O   UNL A   1      35.588  31.307  27.508  1.00  0.00    -0.258 OA
ENDBRANCH  18  19
ENDBRANCH  11  13
BRANCH  12  22
ATOM     22  C   UNL A   1      30.237  26.976  23.971  1.00  0.00    -0.023 A 
ATOM     23  C   UNL A   1      28.880  26.641  24.109  1.00  0.00     0.006 A 
ATOM     24  C   UNL A   1      30.549  28.162  23.277  1.00  0.00     0.006 A 
ATOM     25  C   UNL A   1      27.881  27.456  23.566  1.00  0.00     0.000 A 
ATOM     26  C   UNL A   1      29.549  28.997  22.774  1.00  0.00     0.000 A 
ATOM     27  C   UNL A   1      28.213  28.639  22.913  1.00  0.00     0.000 A 
ENDBRANCH  12  22
ENDBRANCH   6   8
ENDBRANCH   3   4
ENDBRANCH   2   3
ENDBRANCH   1   2
BRANCH   1  28
ATOM     28  C   UNL A   1      34.570  23.624  24.406  1.00  0.00     0.002 C 
BRANCH  28  29
ATOM     29  C   UNL A   1      36.093  23.622  24.553  1.00  0.00     0.021 C 
BRANCH  29  30
ATOM     30  C   UNL A   1      36.609  23.471  25.981  1.00  0.00     0.116 C 
BRANCH  30  31
ATOM     31  N   UNL A   1      37.706  22.522  26.081  1.00  0.00    -0.352 N 
ATOM     32  C   UNL A   1      39.028  22.740  26.380  1.00  0.00     0.251 C 
ATOM     33  H   UNL A   1      37.465  21.584  25.909  1.00  0.00     0.163 HD
ATOM     34  O   UNL A   1      39.844  21.830  26.265  1.00  0.00    -0.269 OA
BRANCH  32  35
ATOM     35  C   UNL A   1      39.481  24.078  26.819  1.00  0.00     0.039 A 
ATOM     36  C   UNL A   1      39.355  24.422  28.169  1.00  0.00     0.014 A 
ATOM     37  C   UNL A   1      40.013  24.998  25.911  1.00  0.00     0.014 A 
ATOM     38  C   UNL A   1      39.821  25.661  28.617  1.00  0.00     0.010 A 
ATOM     39  C   UNL A   1      40.541  26.203  26.370  1.00  0.00     0.010 A 
ATOM     40  C   UNL A   1      40.451  26.547  27.728  1.00  0.00    -0.014 A 
BRANCH  40  41
ATOM     41  C   UNL A   1      41.027  27.832  28.201  1.00  0.00     0.031 A 
ATOM     42  C   UNL A   1      42.517  28.038  28.213  1.00  0.00     0.074 A 
ATOM     43  C   UNL A   1      40.211  28.791  28.682  1.00  0.00     0.049 A 
ATOM     44  N   UNL A   1      43.209  29.060  28.651  1.00  0.00    -0.248 NA
ATOM     45  C   UNL A   1      43.341  26.940  27.684  1.00  0.00     0.031 C 
ATOM     46  C   UNL A   1      38.753  28.697  28.763  1.00  0.00     0.029 A 
ATOM     47  N   UNL A   1      40.493  30.030  29.203  1.00  0.00    -0.354 N 
ATOM     48  C   UNL A   1      44.543  28.719  28.470  1.00  0.00     0.074 A 
ATOM     49  C   UNL A   1      44.568  27.381  27.923  1.00  0.00     0.031 C 
ATOM     50  C   UNL A   1      38.266  29.838  29.279  1.00  0.00     0.029 A 
ATOM     51  C   UNL A   1      39.378  30.726  29.603  1.00  0.00     0.049 A 
ATOM     52  H   UNL A   1      41.407  30.386  29.283  1.00  0.00     0.167 HD
ATOM     53  C   UNL A   1      45.647  29.465  28.721  1.00  0.00     0.037 A 
ATOM     54  C   UNL A   1      39.267  31.941  30.174  1.00  0.00     0.037 A 
ATOM     55  C   UNL A   1      45.618  30.811  29.232  1.00  0.00     0.049 A 
ATOM     56  C   UNL A   1      40.511  32.741  30.450  1.00  0.00     0.074 A 
ATOM     57  C   UNL A   1      46.678  31.674  29.445  1.00  0.00     0.029 A 
ATOM     58  N   UNL A   1      44.468  31.486  29.616  1.00  0.00    -0.354 N 
ATOM     59  N   UNL A   1      41.762  32.440  30.200  1.00  0.00    -0.248 NA
ATOM     60  C   UNL A   1      40.326  34.054  31.084  1.00  0.00     0.031 C 
ATOM     61  C   UNL A   1      46.177  32.853  30.005  1.00  0.00     0.029 A 
ATOM     62  C   UNL A   1      44.798  32.745  30.090  1.00  0.00     0.049 A 
ATOM     63  H   UNL A   1      43.555  31.125  29.559  1.00  0.00     0.167 HD
ATOM     64  C   UNL A   1      42.507  33.537  30.611  1.00  0.00     0.074 A 
ATOM     65  C   UNL A   1      41.568  34.516  31.115  1.00  0.00     0.031 C 
ATOM     66  C   UNL A   1      43.850  33.717  30.575  1.00  0.00     0.037 A 
BRANCH  53  67
ATOM     67  C   UNL A   1      46.987  28.846  28.447  1.00  0.00     0.064 A 
ATOM     68  C   UNL A   1      47.569  28.879  27.171  1.00  0.00     0.173 A 
ATOM     69  C   UNL A   1      47.724  28.262  29.488  1.00  0.00     0.173 A 
ATOM     70  F   UNL A   1      46.902  29.418  26.139  1.00  0.00    -0.203 F 
ATOM     71  C   UNL A   1      48.829  28.331  26.942  1.00  0.00     0.198 A 
ATOM     72  C   UNL A   1      48.996  27.742  29.262  1.00  0.00     0.198 A 
ATOM     73  F   UNL A   1      47.218  28.209  30.729  1.00  0.00    -0.203 F 
ATOM     74  F   UNL A   1      49.346  28.338  25.706  1.00  0.00    -0.200 F 
ATOM     75  C   UNL A   1      49.545  27.771  27.990  1.00  0.00     0.200 A 
ATOM     76  F   UNL A   1      49.692  27.213  30.279  1.00  0.00    -0.200 F 
ATOM     77  F   UNL A   1      50.761  27.255  27.770  1.00  0.00    -0.200 F 
ENDBRANCH  53  67
BRANCH  54  78
ATOM     78  C   UNL A   1      37.925  32.492  30.506  1.00  0.00     0.064 A 
ATOM     79  C   UNL A   1      37.293  32.160  31.713  1.00  0.00     0.173 A 
ATOM     80  C   UNL A   1      37.238  33.334  29.621  1.00  0.00     0.173 A 
ATOM     81  F   UNL A   1      37.901  31.341  32.583  1.00  0.00    -0.203 F 
ATOM     82  C   UNL A   1      36.014  32.627  32.009  1.00  0.00     0.198 A 
ATOM     83  C   UNL A   1      35.972  33.825  29.930  1.00  0.00     0.198 A 
ATOM     84  F   UNL A   1      37.800  33.684  28.454  1.00  0.00    -0.203 F 
ATOM     85  F   UNL A   1      35.411  32.250  33.144  1.00  0.00    -0.200 F 
ATOM     86  C   UNL A   1      35.357  33.463  31.119  1.00  0.00     0.200 A 
ATOM     87  F   UNL A   1      35.345  34.644  29.075  1.00  0.00    -0.200 F 
ATOM     88  F   UNL A   1      34.126  33.911  31.402  1.00  0.00    -0.200 F 
ENDBRANCH  54  78
BRANCH  66  89
ATOM     89  C   UNL A   1      44.384  35.038  31.048  1.00  0.00     0.064 A 
ATOM     90  C   UNL A   1      44.511  36.136  30.184  1.00  0.00     0.173 A 
ATOM     91  C   UNL A   1      44.737  35.218  32.394  1.00  0.00     0.173 A 
ATOM     92  F   UNL A   1      44.201  36.011  28.884  1.00  0.00    -0.203 F 
ATOM     93  C   UNL A   1      44.997  37.357  30.645  1.00  0.00     0.198 A 
ATOM     94  C   UNL A   1      45.192  36.448  32.858  1.00  0.00     0.198 A 
ATOM     95  F   UNL A   1      44.628  34.202  33.263  1.00  0.00    -0.203 F 
ATOM     96  F   UNL A   1      45.156  38.377  29.791  1.00  0.00    -0.200 F 
ATOM     97  C   UNL A   1      45.329  37.514  31.982  1.00  0.00     0.200 A 
ATOM     98  F   UNL A   1      45.499  36.603  34.154  1.00  0.00    -0.200 F 
ATOM     99  F   UNL A   1      45.788  38.693  32.425  1.00  0.00    -0.200 F 
ENDBRANCH  66  89
ENDBRANCH  40  41
ENDBRANCH  32  35
ENDBRANCH  30  31
ENDBRANCH  29  30
ENDBRANCH  28  29
ENDBRANCH   1  28
TORSDOF 16
ENDMDL
MODEL 3
REMARK VINA RESULT:     -12.7      2.519      7.874
REMARK SMILES O=C(NCCCCCCNC(=O)c1ccc(-c2c3nc(c(-c4c(F)c(F)c(F)c(F)c4F)c4ccc([nH]4)c(-c4c(F)c(F)c(F)c(F)c4F)c4nc(c(-c5c(F)c(F)c(F)c(F)c5F)c5ccc2[nH]5)C=C4)C=C3)cc1)C1=NN(c2ccc([N+](=O)[O-])cc2)[C@H](c2ccccc2)C1
REMARK SMILES IDX 6 1 5 2 4 3 3 4 1 5 2 6 76 8 77 9 95 10 78 11 88 12 79 13
REMARK SMILES IDX 80 14 87 15 81 16 86 17 82 18 83 19 84 20 85 21 89 22 90 23
REMARK SMILES IDX 94 24 91 25 93 26 92 27 7 28 8 29 9 30 10 31 11 32 12 34
REMARK SMILES IDX 13 35 14 36 75 37 15 38 74 39 16 40 17 41 18 42 68 43 19 44
REMARK SMILES IDX 73 45 67 46 69 47 20 48 72 49 66 50 65 51 21 53 53 54 33 55
REMARK SMILES IDX 52 56 34 57 37 58 51 59 70 60 35 61 36 62 50 64 71 65 38 66
REMARK SMILES IDX 22 67 23 68 31 69 24 70 25 71 29 72 32 73 26 74 27 75 30 76
REMARK SMILES IDX 28 77 54 78 55 79 63 80 56 81 57 82 61 83 64 84 58 85 59 86
REMARK SMILES IDX 62 87 60 88 39 89 40 90 48 91 41 92 42 93 46 94 49 95 43 96
REMARK SMILES IDX 44 97 47 98 45 99
REMARK H PARENT 3 7 10 33 69 52 37 63
REMARK Flexibility Score: inf
ROOT
ATOM      1  C   UNL A   1      37.082  22.343  24.795  1.00  0.00     0.002 C 
ENDROOT
BRANCH   1   2
ATOM      2  C   UNL A   1      36.318  23.207  23.788  1.00  0.00     0.021 C 
BRANCH   2   3
ATOM      3  C   UNL A   1      34.858  23.474  24.142  1.00  0.00     0.116 C 
BRANCH   3   4
ATOM      4  N   UNL A   1      33.948  22.559  23.468  1.00  0.00    -0.351 N 
ATOM      5  O   UNL A   1      31.915  21.864  22.700  1.00  0.00    -0.268 OA
ATOM      6  C   UNL A   1      32.596  22.707  23.275  1.00  0.00     0.267 C 
ATOM      7  H   UNL A   1      34.351  21.737  23.105  1.00  0.00     0.163 HD
BRANCH   6   8
ATOM      8  C   UNL A   1      31.916  23.920  23.840  1.00  0.00     0.128 C 
ATOM      9  N   UNL A   1      31.371  24.828  23.093  1.00  0.00    -0.171 NA
ATOM     10  C   UNL A   1      31.813  24.113  25.315  1.00  0.00     0.096 C 
ATOM     11  N   UNL A   1      31.064  25.854  23.924  1.00  0.00    -0.257 N 
ATOM     12  C   UNL A   1      31.303  25.564  25.350  1.00  0.00     0.144 C 
BRANCH  11  13
ATOM     13  C   UNL A   1      30.287  26.888  23.427  1.00  0.00     0.061 A 
ATOM     14  C   UNL A   1      30.869  27.960  22.734  1.00  0.00     0.035 A 
ATOM     15  C   UNL A   1      28.907  26.929  23.669  1.00  0.00     0.035 A 
ATOM     16  C   UNL A   1      30.093  29.018  22.249  1.00  0.00     0.088 A 
ATOM     17  C   UNL A   1      28.113  27.973  23.190  1.00  0.00     0.088 A 
ATOM     18  C   UNL A   1      28.712  29.013  22.471  1.00  0.00     0.269 A 
BRANCH  18  19
ATOM     19  N   UNL A   1      27.884  30.107  21.956  1.00  0.00     0.062 N 
ATOM     20  O   UNL A   1      27.920  30.335  20.738  1.00  0.00    -0.258 OA
ATOM     21  O   UNL A   1      27.190  30.737  22.768  1.00  0.00    -0.258 OA
ENDBRANCH  18  19
ENDBRANCH  11  13
BRANCH  12  22
ATOM     22  C   UNL A   1      32.218  26.584  26.017  1.00  0.00    -0.023 A 
ATOM     23  C   UNL A   1      33.588  26.714  25.737  1.00  0.00     0.006 A 
ATOM     24  C   UNL A   1      31.658  27.468  26.961  1.00  0.00     0.006 A 
ATOM     25  C   UNL A   1      34.365  27.683  26.381  1.00  0.00     0.000 A 
ATOM     26  C   UNL A   1      32.425  28.464  27.571  1.00  0.00     0.000 A 
ATOM     27  C   UNL A   1      33.782  28.566  27.286  1.00  0.00     0.000 A 
ENDBRANCH  12  22
ENDBRANCH   6   8
ENDBRANCH   3   4
ENDBRANCH   2   3
ENDBRANCH   1   2
BRANCH   1  28
ATOM     28  C   UNL A   1      36.666  20.870  24.847  1.00  0.00     0.002 C 
BRANCH  28  29
ATOM     29  C   UNL A   1      37.815  19.860  24.902  1.00  0.00     0.021 C 
BRANCH  29  30
ATOM     30  C   UNL A   1      39.058  20.328  25.653  1.00  0.00     0.116 C 
BRANCH  30  31
ATOM     31  N   UNL A   1      40.055  19.279  25.792  1.00  0.00    -0.352 N 
ATOM     32  C   UNL A   1      41.386  19.374  26.117  1.00  0.00     0.251 C 
ATOM     33  H   UNL A   1      39.727  18.366  25.628  1.00  0.00     0.163 HD
ATOM     34  O   UNL A   1      42.111  18.387  26.034  1.00  0.00    -0.269 OA
BRANCH  32  35
ATOM     35  C   UNL A   1      41.958  20.669  26.545  1.00  0.00     0.039 A 
ATOM     36  C   UNL A   1      42.395  21.567  25.567  1.00  0.00     0.014 A 
ATOM     37  C   UNL A   1      42.079  20.995  27.898  1.00  0.00     0.014 A 
ATOM     38  C   UNL A   1      42.893  22.817  25.943  1.00  0.00     0.010 A 
ATOM     39  C   UNL A   1      42.510  22.268  28.270  1.00  0.00     0.010 A 
ATOM     40  C   UNL A   1      42.921  23.192  27.296  1.00  0.00    -0.014 A 
BRANCH  40  41
ATOM     41  C   UNL A   1      43.369  24.547  27.711  1.00  0.00     0.031 A 
ATOM     42  C   UNL A   1      42.361  25.602  28.074  1.00  0.00     0.074 A 
ATOM     43  C   UNL A   1      44.683  24.846  27.698  1.00  0.00     0.049 A 
ATOM     44  N   UNL A   1      42.554  26.858  28.393  1.00  0.00    -0.248 NA
ATOM     45  C   UNL A   1      40.946  25.201  28.051  1.00  0.00     0.031 C 
ATOM     46  C   UNL A   1      45.757  23.924  27.326  1.00  0.00     0.029 A 
ATOM     47  N   UNL A   1      45.339  26.015  27.997  1.00  0.00    -0.354 N 
ATOM     48  C   UNL A   1      41.290  27.398  28.587  1.00  0.00     0.074 A 
ATOM     49  C   UNL A   1      40.334  26.349  28.309  1.00  0.00     0.031 C 
ATOM     50  C   UNL A   1      46.938  24.553  27.442  1.00  0.00     0.029 A 
ATOM     51  C   UNL A   1      46.703  25.933  27.855  1.00  0.00     0.049 A 
ATOM     52  H   UNL A   1      44.876  26.835  28.285  1.00  0.00     0.167 HD
ATOM     53  C   UNL A   1      40.958  28.651  28.981  1.00  0.00     0.037 A 
ATOM     54  C   UNL A   1      47.656  26.869  28.030  1.00  0.00     0.037 A 
ATOM     55  C   UNL A   1      41.913  29.683  29.292  1.00  0.00     0.049 A 
ATOM     56  C   UNL A   1      47.256  28.255  28.459  1.00  0.00     0.074 A 
ATOM     57  C   UNL A   1      41.676  30.959  29.774  1.00  0.00     0.029 A 
ATOM     58  N   UNL A   1      43.287  29.559  29.146  1.00  0.00    -0.354 N 
ATOM     59  N   UNL A   1      46.063  28.731  28.717  1.00  0.00    -0.248 NA
ATOM     60  C   UNL A   1      48.339  29.235  28.623  1.00  0.00     0.031 C 
ATOM     61  C   UNL A   1      42.901  31.624  29.871  1.00  0.00     0.029 A 
ATOM     62  C   UNL A   1      43.907  30.746  29.502  1.00  0.00     0.049 A 
ATOM     63  H   UNL A   1      43.751  28.749  28.836  1.00  0.00     0.167 HD
ATOM     64  C   UNL A   1      46.253  30.049  29.108  1.00  0.00     0.074 A 
ATOM     65  C   UNL A   1      47.679  30.295  29.066  1.00  0.00     0.031 C 
ATOM     66  C   UNL A   1      45.330  30.973  29.471  1.00  0.00     0.037 A 
BRANCH  53  67
ATOM     67  C   UNL A   1      39.499  28.984  29.101  1.00  0.00     0.064 A 
ATOM     68  C   UNL A   1      38.838  28.972  30.339  1.00  0.00     0.173 A 
ATOM     69  C   UNL A   1      38.766  29.376  27.971  1.00  0.00     0.173 A 
ATOM     70  F   UNL A   1      39.491  28.595  31.449  1.00  0.00    -0.203 F 
ATOM     71  C   UNL A   1      37.493  29.317  30.437  1.00  0.00     0.198 A 
ATOM     72  C   UNL A   1      37.429  29.751  28.078  1.00  0.00     0.198 A 
ATOM     73  F   UNL A   1      39.350  29.412  26.765  1.00  0.00    -0.203 F 
ATOM     74  F   UNL A   1      36.872  29.258  31.623  1.00  0.00    -0.200 F 
ATOM     75  C   UNL A   1      36.792  29.716  29.308  1.00  0.00     0.200 A 
ATOM     76  F   UNL A   1      36.757  30.148  26.988  1.00  0.00    -0.200 F 
ATOM     77  F   UNL A   1      35.501  30.059  29.407  1.00  0.00    -0.200 F 
ENDBRANCH  53  67
BRANCH  54  78
ATOM     78  C   UNL A   1      49.090  26.526  27.825  1.00  0.00     0.064 A 
ATOM     79  C   UNL A   1      49.922  26.244  28.918  1.00  0.00     0.173 A 
ATOM     80  C   UNL A   1      49.661  26.499  26.546  1.00  0.00     0.173 A 
ATOM     81  F   UNL A   1      49.426  26.279  30.163  1.00  0.00    -0.203 F 
ATOM     82  C   UNL A   1      51.277  25.976  28.741  1.00  0.00     0.198 A 
ATOM     83  C   UNL A   1      51.011  26.200  26.366  1.00  0.00     0.198 A 
ATOM     84  F   UNL A   1      48.908  26.758  25.467  1.00  0.00    -0.203 F 
ATOM     85  F   UNL A   1      52.061  25.765  29.806  1.00  0.00    -0.200 F 
ATOM     86  C   UNL A   1      51.820  25.949  27.465  1.00  0.00     0.200 A 
ATOM     87  F   UNL A   1      51.528  26.162  25.131  1.00  0.00    -0.200 F 
ATOM     88  F   UNL A   1      53.124  25.693  27.294  1.00  0.00    -0.200 F 
ENDBRANCH  54  78
BRANCH  66  89
ATOM     89  C   UNL A   1      45.832  32.321  29.897  1.00  0.00     0.064 A 
ATOM     90  C   UNL A   1      46.183  32.593  31.228  1.00  0.00     0.173 A 
ATOM     91  C   UNL A   1      46.000  33.346  28.952  1.00  0.00     0.173 A 
ATOM     92  F   UNL A   1      46.027  31.652  32.172  1.00  0.00    -0.203 F 
ATOM     93  C   UNL A   1      46.658  33.847  31.601  1.00  0.00     0.198 A 
ATOM     94  C   UNL A   1      46.505  34.588  29.323  1.00  0.00     0.198 A 
ATOM     95  F   UNL A   1      45.685  33.137  27.665  1.00  0.00    -0.203 F 
ATOM     96  F   UNL A   1      46.941  34.098  32.887  1.00  0.00    -0.200 F 
ATOM     97  C   UNL A   1      46.827  34.840  30.648  1.00  0.00     0.200 A 
ATOM     98  F   UNL A   1      46.681  35.542  28.398  1.00  0.00    -0.200 F 
ATOM     99  F   UNL A   1      47.293  36.044  31.008  1.00  0.00    -0.200 F 
ENDBRANCH  66  89
ENDBRANCH  40  41
ENDBRANCH  32  35
ENDBRANCH  30  31
ENDBRANCH  29  30
ENDBRANCH  28  29
ENDBRANCH   1  28
TORSDOF 16
ENDMDL
